data_PCOD8173812
_publ_section_title
;
Structure prediction by ZEFSAII (Michael W. Deem and Ramdas Pophale) SiO2 
 PCOD8173812
Probable space group: C M M 2
;
_chemical_formula_sum "Si O2"
_cell_formula_units_Z 32
_cell_length_a 17.858034
_cell_length_b 7.729990
_cell_length_c 11.986479
_cell_angle_alpha 90.000000
_cell_angle_beta 90.000000
_cell_angle_gamma 90.000000
_cell_volume 1654.642619
_symmetry_space_group_name_H-M "C M M 2"
_symmetry_group_IT_number 35
_symmetry_cell_setting 'orthorhombic'
loop_
_space_group_symop_operation_xyz
x,y,z
-x,-y,z
-x,y,z
x,-y,z
1/2+x,1/2+y,z
1/2-x,1/2-y,z
1/2-x,1/2+y,z
1/2+x,1/2-y,z
loop_
_atom_site_type_symbol
_atom_site_label
_atom_site_fract_x
_atom_site_fract_y
_atom_site_fract_z
Si Si1 0.587826 0.000000 0.336540
Si Si2 0.167611 0.687718 0.514612
Si Si3 0.911568 0.500000 0.078963
Si Si4 0.581844 0.695345 0.720230
Si Si5 0.836634 0.794520 0.939285
O O1 0.622051 0.828905 0.397766
O O2 0.500000 0.000000 0.354486
O O3 0.610715 0.000000 0.208494
O O4 0.173343 0.500000 0.573623
O O5 0.250000 0.750000 0.484780
O O6 0.124334 0.806176 0.602157
O O7 0.878618 0.678427 0.030730
O O8 0.000000 0.500000 0.059885
O O9 0.500000 0.789354 0.712184
O O10 0.566922 0.500000 0.753429
O O11 0.632334 0.772202 0.819585
O O12 0.750000 0.750000 0.942985
O O13 0.849599 0.000000 0.961998
#
# Coordination Sequence:
#
# PCOD8173812 Si02
#       5
#     4   8   4   8   8
#     4   9  22  41  61  87 119 157 208 254 300 364
#     4  10  21  36  59  86 120 157 196 244 304 355
#     4  11  24  43  67  93 123 167 214 260 312 368
#     4  10  21  36  59  90 125 159 198 246 306 374
#     4  11  23  41  63  95 129 166 208 258 311 375
#
# _framework density 19.339524000000001
#
# number of rings (size 3 to 8) (size 9 to 14) (size 15 to 20)
#    0.750    1.000    1.250    3.000    1.750    4.500 
#    0.000    1.250    0.000    3.000    0.000    0.000 
#    0.000    0.000    0.000    0.000    0.000    0.000 
#
# Total GULP energy -198259.233407 kJ/mol
# GULP energy per Si atom -12391.202088 kJ/mol
# Density = 1.929551 g / cm^3
# Si number density = 19.339524 Si / 1000 Ang^3
#
#
#
# Elastic Constant Matrix: (Units=GPa)
#
#
# Indices 1 2 3 4 5 6 
#
# 1 158.3408 36.4579 89.9874 0.0000 0.0000 0.0000
# 2 36.4579 82.5607 40.9656 0.0000 0.0000 0.0000
# 3 89.9874 40.9656 167.7579 0.0000 0.0000 0.0000
# 4 0.0000 0.0000 0.0000 20.9745 0.0000 0.0000
# 5 0.0000 0.0000 0.0000 0.0000 24.6854 0.0000
# 6 0.0000 0.0000 0.0000 0.0000 0.0000 -15.4902
#
#
#
# Elastic Compliance Matrix: (Units=1/GPa)
#
#
# Indices 1 2 3 4 5 6 
#
# 1 0.009330 -0.001862 -0.004550 0.000000 0.000000 0.000000
# 2 -0.001862 0.014154 -0.002457 0.000000 0.000000 0.000000
# 3 -0.004550 -0.002457 0.009002 0.000000 0.000000 0.000000
# 4 0.000000 0.000000 0.000000 0.047677 0.000000 0.000000
# 5 0.000000 0.000000 0.000000 0.000000 0.040510 0.000000
# 6 0.000000 0.000000 0.000000 0.000000 0.000000 -0.064557
#
#
# Mechanical properties :
#
#
# Convention : Reuss Voigt Hill
#
# Bulk Modulus (GPa) = 67.81326 82.60903 75.21115
# Shear Modulus (GPa) = 63.47536 22.11717 42.79627
#
# Velocity S-wave (km/s) = 5.73523 3.38542 4.70924
# Velocity P-wave (km/s) = 8.88807 7.62163 8.27910
#
# Compressibility (1/GPa) = 0.01474638
#
# Stress axis : x y z
#
# Youngs Moduli (GPa) = 107.17932 70.65138 111.09002
#
# Poissons Ratio (x) = 0.13158 0.50546
# Poissons Ratio (y) = 0.19962 0.27298
# Poissons Ratio (z) = 0.48767 0.17361
#
# Static dielectric constant tensor:
#      x y z
#    x 3.885560 0.000000 0.000000 
#    y 0.000000 3.562020 0.000000 
#    z 0.000000 0.000000 3.392370 
# 
# 
# High freq. dielectric constant tensor:
#      x y z
#    x 1.774370 0.000000 0.000000 
#    y 0.000000 1.742070 0.000000 
#    z 0.000000 0.000000 1.742970 
# 
# From -- ./inp_files/10972.got.cif
#   From: 2010.03.12/outbox.cif.g09.slc.cpg/sg35_6_cif.got.tgz:10972.got - 2010.04.14 02:02:04.
