data_PCOD8173467
_publ_section_title
;
Structure prediction by ZEFSAII (Michael W. Deem and Ramdas Pophale) SiO2 
 PCOD8173467
Probable space group: C M M 2
;
_chemical_formula_sum "Si O2"
_cell_formula_units_Z 64
_cell_length_a 8.845230
_cell_length_b 18.928714
_cell_length_c 20.283413
_cell_angle_alpha 90.000000
_cell_angle_beta 90.000000
_cell_angle_gamma 90.000000
_cell_volume 3396.028085
_symmetry_space_group_name_H-M "C M M 2"
_symmetry_group_IT_number 35
_symmetry_cell_setting 'orthorhombic'
loop_
_space_group_symop_operation_xyz
x,y,z
-x,-y,z
-x,y,z
x,-y,z
1/2+x,1/2+y,z
1/2-x,1/2-y,z
1/2-x,1/2+y,z
1/2+x,1/2-y,z
loop_
_atom_site_type_symbol
_atom_site_label
_atom_site_fract_x
_atom_site_fract_y
_atom_site_fract_z
Si Si1 0.678906 0.323453 0.699220
Si Si2 0.175019 0.917306 0.169985
Si Si3 0.678997 0.172611 0.057339
Si Si4 0.325693 0.082303 0.446067
Si Si5 0.676083 0.321667 0.549502
Si Si6 0.828306 0.416967 0.806155
Si Si7 0.177706 0.082063 0.942482
Si Si8 0.167508 0.583644 0.300877
O O1 0.500000 0.320567 0.708051
O O2 0.750000 0.250000 0.723504
O O3 0.728149 0.339222 0.623986
O O4 0.747302 0.385462 0.742683
O O5 0.276386 0.871184 0.121834
O O6 0.214450 0.893315 0.244578
O O7 0.000000 0.901641 0.156149
O O8 0.212218 0.000000 0.159077
O O9 0.500000 0.179948 0.053785
O O10 0.750000 0.250000 0.059872
O O11 0.737033 0.130540 0.994250
O O12 0.500000 0.099777 0.460790
O O13 0.221470 0.115754 0.501449
O O14 0.281417 0.111761 0.373028
O O15 0.293388 0.000000 0.449882
O O16 0.500000 0.309974 0.547224
O O17 0.750000 0.250000 0.523468
O O18 0.824894 0.500000 0.796411
O O19 0.735797 0.394659 0.870912
O O20 0.000000 0.389182 0.812510
O O21 0.000000 0.096150 0.947304
O O22 0.215775 0.000000 0.956869
O O23 0.158474 0.500000 0.305826
O O24 0.000000 0.612849 0.283241
#
# Coordination Sequence:
#
# PCOD8173467 Si02
#       8
#     8   8   8   8   8   8   8   8
#     4  10  21  37  56  78 106 142 183 225 271 322
#     4  10  20  35  57  84 112 143 180 221 267 321
#     4  12  25  40  58  81 112 146 182 225 270 317
#     4   9  18  33  54  80 110 142 177 221 271 321
#     4  10  21  36  54  76 105 142 183 226 270 322
#     4  10  21  37  58  85 114 143 178 220 266 317
#     4  10  21  39  62  86 113 144 179 220 265 316
#     4   8  15  30  52  78 107 140 179 221 266 317
#
# _framework density 18.845545000000001
#
# number of rings (size 3 to 8) (size 9 to 14) (size 15 to 20)
#    0.000    2.125    0.000    4.125    0.000    7.000 
#    0.000    6.875    0.000    3.000    0.000    0.000 
#    0.000    0.000    0.000    0.000    0.000    0.000 
#
# Total GULP energy -396826.203379 kJ/mol
# GULP energy per Si atom -12400.818856 kJ/mol
# Density = 1.880265 g / cm^3
# Si number density = 18.845545 Si / 1000 Ang^3
#
#
#
# Elastic Constant Matrix: (Units=GPa)
#
#
# Indices 1 2 3 4 5 6 
#
# 1 109.2063 45.0783 53.6534 0.0000 0.0000 0.0000
# 2 45.0783 59.8569 53.9306 0.0000 0.0000 0.0000
# 3 53.6534 53.9306 122.0078 0.0000 0.0000 0.0000
# 4 0.0000 0.0000 0.0000 -2.0354 0.0000 0.0000
# 5 0.0000 0.0000 0.0000 0.0000 37.9606 0.0000
# 6 0.0000 0.0000 0.0000 0.0000 0.0000 32.8580
#
#
#
# Elastic Compliance Matrix: (Units=1/GPa)
#
#
# Indices 1 2 3 4 5 6 
#
# 1 0.013709 -0.008131 -0.002435 0.000000 0.000000 0.000000
# 2 -0.008131 0.032586 -0.010828 0.000000 0.000000 0.000000
# 3 -0.002435 -0.010828 0.014053 0.000000 0.000000 0.000000
# 4 0.000000 0.000000 0.000000 -0.491311 0.000000 0.000000
# 5 0.000000 0.000000 0.000000 0.000000 0.026343 0.000000
# 6 0.000000 0.000000 0.000000 0.000000 0.000000 0.030434
#
#
# Mechanical properties :
#
#
# Convention : Reuss Voigt Hill
#
# Bulk Modulus (GPa) = 56.94449 66.26616 61.60532
# Shear Modulus (GPa) = -15.35895 22.98390 3.81247
#
# Velocity S-wave (km/s) = -2.85790 3.49606 1.42387
# Velocity P-wave (km/s) = 4.40362 7.17883 5.95515
#
# Compressibility (1/GPa) = 0.01756096
#
# Stress axis : x y z
#
# Youngs Moduli (GPa) = 72.94233 30.68787 71.15799
#
# Poissons Ratio (x) = 0.24952 0.17325
# Poissons Ratio (y) = 0.59309 0.77052
# Poissons Ratio (z) = 0.17759 0.33230
#
# Static dielectric constant tensor:
#      x y z
#    x 3.548460 0.000000 0.000000 
#    y 0.000000 3.300010 0.000000 
#    z 0.000000 0.000000 3.702020 
# 
# 
# High freq. dielectric constant tensor:
#      x y z
#    x 1.742210 0.000000 0.000000 
#    y 0.000000 1.712620 0.000000 
#    z 0.000000 0.000000 1.745340 
# 
# From -- ./inp_files/18442.got.cif
#   From: 2010.03.12/outbox.cif.g09.slc.cpg/sg35_10_cif.got.tgz:18442.got - 2010.04.14 02:02:04.
