data_PCOD8173418
_publ_section_title
;
Structure prediction by ZEFSAII (Michael W. Deem and Ramdas Pophale) SiO2 
 PCOD8173418
Probable space group: C M M 2
;
_chemical_formula_sum "Si O2"
_cell_formula_units_Z 64
_cell_length_a 20.214847
_cell_length_b 16.843354
_cell_length_c 10.028275
_cell_angle_alpha 90.000000
_cell_angle_beta 90.000000
_cell_angle_gamma 90.000000
_cell_volume 3414.485477
_symmetry_space_group_name_H-M "C M M 2"
_symmetry_group_IT_number 35
_symmetry_cell_setting 'orthorhombic'
loop_
_space_group_symop_operation_xyz
x,y,z
-x,-y,z
-x,y,z
x,-y,z
1/2+x,1/2+y,z
1/2-x,1/2-y,z
1/2-x,1/2+y,z
1/2+x,1/2-y,z
loop_
_atom_site_type_symbol
_atom_site_label
_atom_site_fract_x
_atom_site_fract_y
_atom_site_fract_z
Si Si1 0.926855 0.406507 0.438590
Si Si2 0.693216 0.594148 0.587351
Si Si3 0.426855 0.593493 0.106659
Si Si4 0.837697 0.906017 0.875191
Si Si5 0.662303 0.093983 0.670058
Si Si6 0.676862 0.341640 0.308129
Si Si7 0.323138 0.841640 0.237120
Si Si8 0.306784 0.905852 0.957898
O O1 0.933027 0.500000 0.450761
O O2 0.896315 0.372128 0.576987
O O3 0.879581 0.388020 0.315490
O O4 0.000000 0.369028 0.417771
O O5 0.688592 0.500000 0.559499
O O6 0.652598 0.619376 0.720778
O O7 0.768313 0.623667 0.609201
O O8 0.662932 0.642919 0.464155
O O9 0.500000 0.630972 0.127478
O O10 0.433027 0.500000 0.094489
O O11 0.379581 0.611980 0.229760
O O12 0.396315 0.627872 0.968263
O O13 0.834905 0.000000 0.879385
O O14 0.768313 0.876333 0.936048
O O15 0.665095 0.000000 0.665864
O O16 0.652598 0.119376 0.824471
O O17 0.671364 0.250000 0.272625
O O18 0.750000 0.375064 0.272625
O O19 0.337068 0.857081 0.081094
O O20 0.311408 0.000000 0.985750
#
# Coordination Sequence:
#
# PCOD8173418 Si02
#       8
#     8   8   8   8   8   8   8   8
#     4  10  20  35  56  80 107 141 177 218 273 325
#     4   9  16  30  55  80 101 130 174 227 269 303
#     4  10  20  35  56  80 107 141 177 218 273 325
#     4   8  15  29  52  80 102 127 170 224 273 310
#     4   8  15  29  52  80 102 127 170 224 273 310
#     4  11  22  34  51  77 112 146 182 220 261 314
#     4  11  22  34  51  77 112 146 182 220 261 314
#     4   9  16  30  55  80 101 130 174 227 269 303
#
# _framework density 18.743673999999999
#
# number of rings (size 3 to 8) (size 9 to 14) (size 15 to 20)
#    0.000    2.500    2.500    2.250    0.000    1.500 
#    0.000    2.500    0.000    6.000    0.000    0.000 
#    0.000    0.000    0.000    0.000    0.000    0.000 
#
# Total GULP energy -396615.809052 kJ/mol
# GULP energy per Si atom -12394.244033 kJ/mol
# Density = 1.870101 g / cm^3
# Si number density = 18.743674 Si / 1000 Ang^3
#
#
#
# Elastic Constant Matrix: (Units=GPa)
#
#
# Indices 1 2 3 4 5 6 
#
# 1 125.5301 13.8670 74.7592 0.0000 0.0000 0.0000
# 2 13.8670 31.6810 32.6232 0.0000 0.0000 0.0000
# 3 74.7592 32.6232 193.8692 0.0000 0.0000 0.0000
# 4 0.0000 0.0000 0.0000 17.0397 0.0000 0.0000
# 5 0.0000 0.0000 0.0000 0.0000 3.8093 0.0000
# 6 0.0000 0.0000 0.0000 0.0000 0.0000 12.8628
#
#
#
# Elastic Compliance Matrix: (Units=1/GPa)
#
#
# Indices 1 2 3 4 5 6 
#
# 1 0.010348 -0.000508 -0.003905 0.000000 0.000000 0.000000
# 2 -0.000508 0.038206 -0.006233 0.000000 0.000000 0.000000
# 3 -0.003905 -0.006233 0.007713 0.000000 0.000000 0.000000
# 4 0.000000 0.000000 0.000000 0.058686 0.000000 0.000000
# 5 0.000000 0.000000 0.000000 0.000000 0.262516 0.000000
# 6 0.000000 0.000000 0.000000 0.000000 0.000000 0.077743
#
#
# Mechanical properties :
#
#
# Convention : Reuss Voigt Hill
#
# Bulk Modulus (GPa) = 28.59282 65.95323 47.27302
# Shear Modulus (GPa) = 10.24250 22.06441 16.15346
#
# Velocity S-wave (km/s) = 2.34016 3.43471 2.93884
# Velocity P-wave (km/s) = 4.75285 7.14093 6.06558
#
# Compressibility (1/GPa) = 0.03497382
#
# Stress axis : x y z
#
# Youngs Moduli (GPa) = 96.63839 26.17421 129.65622
#
# Poissons Ratio (x) = 0.01331 0.50628
# Poissons Ratio (y) = 0.04913 0.80814
# Poissons Ratio (z) = 0.37735 0.16314
#
# Static dielectric constant tensor:
#      x y z
#    x 3.637250 0.000000 0.000000 
#    y 0.000000 3.005290 0.000000 
#    z 0.000000 0.000000 3.766030 
# 
# 
# High freq. dielectric constant tensor:
#      x y z
#    x 1.701680 0.000000 0.000000 
#    y 0.000000 1.689160 0.000000 
#    z 0.000000 0.000000 1.746060 
# 
# From -- ./inp_files/8761.got.cif
#   From: 2010.03.12/outbox.cif.g09.slc.cpg/sg35_5_cif.got.tgz:8761.got - 2010.04.14 02:02:04.
