data_PCOD8173515
_publ_section_title
;
Structure prediction by ZEFSAII (Michael W. Deem and Ramdas Pophale) SiO2 
 PCOD8173515
Probable space group: C M M 2
;
_chemical_formula_sum "Si O2"
_cell_formula_units_Z 64
_cell_length_a 9.080636
_cell_length_b 28.734671
_cell_length_c 13.015121
_cell_angle_alpha 90.000000
_cell_angle_beta 90.000000
_cell_angle_gamma 90.000000
_cell_volume 3396.023652
_symmetry_space_group_name_H-M "C M M 2"
_symmetry_group_IT_number 35
_symmetry_cell_setting 'orthorhombic'
loop_
_space_group_symop_operation_xyz
x,y,z
-x,-y,z
-x,y,z
x,-y,z
1/2+x,1/2+y,z
1/2-x,1/2-y,z
1/2-x,1/2+y,z
1/2+x,1/2-y,z
loop_
_atom_site_type_symbol
_atom_site_label
_atom_site_fract_x
_atom_site_fract_y
_atom_site_fract_z
Si Si1 0.835624 0.555087 0.334850
Si Si2 0.326951 0.298181 0.220649
Si Si3 0.326890 0.447682 0.539731
Si Si4 0.173110 0.052318 0.129969
Si Si5 0.326951 0.701819 0.449051
Si Si6 0.323081 0.300674 0.834850
Si Si7 0.173057 0.856730 0.030715
Si Si8 0.173057 0.856729 0.638985
O O1 0.842604 0.500000 0.334850
O O2 0.750291 0.571133 0.436739
O O3 0.750291 0.571133 0.232961
O O4 0.000000 0.576457 0.334850
O O5 0.500000 0.290143 0.211123
O O6 0.250000 0.250000 0.196234
O O7 0.284864 0.316493 0.334850
O O8 0.267933 0.334286 0.136303
O O9 0.500000 0.446431 0.516910
O O10 0.276162 0.500000 0.570746
O O11 0.285840 0.411919 0.632553
O O12 0.214160 0.088081 0.037147
O O13 0.000000 0.053569 0.152790
O O14 0.223839 0.000000 0.098954
O O15 0.500000 0.709857 0.458577
O O16 0.250000 0.750000 0.473466
O O17 0.267933 0.665714 0.533397
O O18 0.500000 0.295245 0.834850
O O19 0.250000 0.250000 0.834850
O O20 0.261447 0.330180 0.737633
O O21 0.261447 0.330180 0.932067
O O22 0.000000 0.850893 0.023018
O O23 0.000000 0.850893 0.646682
#
# Coordination Sequence:
#
# PCOD8173515 Si02
#       8
#     8   8   8   8   8   8   8   8
#     4   9  17  29  45  69 102 135 164 201 248 287
#     4   9  17  29  45  65  91 122 153 192 241 292
#     4   9  17  30  49  72  98 132 172 204 236 292
#     4   9  17  30  49  72  98 132 172 204 236 292
#     4   9  17  29  45  65  91 122 153 192 241 292
#     4  10  20  36  55  75  99 129 166 210 255 298
#     4   9  18  31  50  73  97 127 164 204 249 291
#     4   9  18  31  50  73  97 127 164 204 249 291
#
# _framework density 18.845569000000001
#
# number of rings (size 3 to 8) (size 9 to 14) (size 15 to 20)
#    0.000    2.875    0.000    1.125    1.750    1.500 
#    0.000    3.125    0.000    3.750    0.000    0.000 
#    0.000    5.000    0.000    0.000    0.000    0.000 
#
# Total GULP energy -396532.610433 kJ/mol
# GULP energy per Si atom -12391.644076 kJ/mol
# Density = 1.880268 g / cm^3
# Si number density = 18.845569 Si / 1000 Ang^3
#
#
#
# Elastic Constant Matrix: (Units=GPa)
#
#
# Indices 1 2 3 4 5 6 
#
# 1 29.2522 22.6695 21.5229 0.0000 0.0000 0.0000
# 2 22.6695 137.5881 93.5525 0.0000 0.0000 0.0000
# 3 21.5229 93.5525 130.8150 0.0000 0.0000 0.0000
# 4 0.0000 0.0000 0.0000 33.8612 0.0000 0.0000
# 5 0.0000 0.0000 0.0000 0.0000 12.2500 0.0000
# 6 0.0000 0.0000 0.0000 0.0000 0.0000 20.2699
#
#
#
# Elastic Compliance Matrix: (Units=1/GPa)
#
#
# Indices 1 2 3 4 5 6 
#
# 1 0.040061 -0.004125 -0.003642 0.000000 0.000000 0.000000
# 2 -0.004125 0.014572 -0.009743 0.000000 0.000000 0.000000
# 3 -0.003642 -0.009743 0.015211 0.000000 0.000000 0.000000
# 4 0.000000 0.000000 0.000000 0.029532 0.000000 0.000000
# 5 0.000000 0.000000 0.000000 0.000000 0.081632 0.000000
# 6 0.000000 0.000000 0.000000 0.000000 0.000000 0.049334
#
#
# Mechanical properties :
#
#
# Convention : Reuss Voigt Hill
#
# Bulk Modulus (GPa) = 28.71358 63.68280 46.19819
# Shear Modulus (GPa) = 18.05251 23.93692 20.99472
#
# Velocity S-wave (km/s) = 3.09838 3.56780 3.34134
# Velocity P-wave (km/s) = 5.29805 7.13004 6.28120
#
# Compressibility (1/GPa) = 0.03482673
#
# Stress axis : x y z
#
# Youngs Moduli (GPa) = 24.96185 68.62405 65.74184
#
# Poissons Ratio (x) = 0.28305 0.23940
# Poissons Ratio (y) = 0.10296 0.64050
# Poissons Ratio (z) = 0.09090 0.66858
#
# Static dielectric constant tensor:
#      x y z
#    x 3.213980 0.000000 0.000000 
#    y 0.000000 3.856210 0.000000 
#    z 0.000000 0.000000 3.665380 
# 
# 
# High freq. dielectric constant tensor:
#      x y z
#    x 1.695650 0.000000 0.000000 
#    y 0.000000 1.739420 0.000000 
#    z 0.000000 0.000000 1.719890 
# 
# From -- ./inp_files/11998.got.cif
#   From: 2010.03.12/outbox.cif.g09.slc.cpg/sg35_6_cif.got.tgz:11998.got - 2010.04.14 02:02:04.
