data_PCOD8173290
_publ_section_title
;
Structure prediction by ZEFSAII (Michael W. Deem and Ramdas Pophale) SiO2 
 PCOD8173290
Probable space group: C M M 2
;
_chemical_formula_sum "Si O2"
_cell_formula_units_Z 40
_cell_length_a 8.964007
_cell_length_b 17.779086
_cell_length_c 12.966042
_cell_angle_alpha 90.000000
_cell_angle_beta 90.000000
_cell_angle_gamma 90.000000
_cell_volume 2066.422118
_symmetry_space_group_name_H-M "C M M 2"
_symmetry_group_IT_number 35
_symmetry_cell_setting 'orthorhombic'
loop_
_space_group_symop_operation_xyz
x,y,z
-x,-y,z
-x,y,z
x,-y,z
1/2+x,1/2+y,z
1/2-x,1/2-y,z
1/2-x,1/2+y,z
1/2+x,1/2-y,z
loop_
_atom_site_type_symbol
_atom_site_label
_atom_site_fract_x
_atom_site_fract_y
_atom_site_fract_z
Si Si1 0.667284 0.910686 0.007210
Si Si2 0.667813 0.089391 0.233822
Si Si3 0.670783 0.589042 0.805596
Si Si4 0.823789 0.669373 0.618625
Si Si5 0.168399 0.089415 0.433834
O O1 0.500000 0.880919 0.984766
O O2 0.721494 0.882219 0.120413
O O3 0.665690 0.000000 0.007376
O O4 0.778878 0.881713 0.918605
O O5 0.500000 0.118181 0.255227
O O6 0.776575 0.120680 0.322778
O O7 0.670072 0.000000 0.235770
O O8 0.500000 0.612744 0.787936
O O9 0.691762 0.500000 0.794856
O O10 0.773854 0.628658 0.722503
O O11 0.750000 0.750000 0.609862
O O12 0.776031 0.619855 0.521595
O O13 0.000000 0.678185 0.619496
O O14 0.000000 0.118060 0.452152
O O15 0.175837 0.000000 0.437327
#
# Coordination Sequence:
#
# PCOD8173290 Si02
#       5
#     8   8   8   8   8
#     4   8  14  26  46  74 107 140 174 212 254 301
#     4   8  14  26  46  74 107 140 174 212 254 301
#     4  10  20  34  54  81 111 140 174 216 259 307
#     4  12  25  40  57  75 101 137 177 220 267 318
#     4  10  20  34  54  81 111 140 174 216 259 307
#
# _framework density 19.357130000000002
#
# number of rings (size 3 to 8) (size 9 to 14) (size 15 to 20)
#    0.000    2.400    0.000    4.800    0.000    5.600 
#    0.000    4.000    0.000    1.200    0.000    0.000 
#    0.000    0.000    0.000    0.000    0.000    0.000 
#
# Total GULP energy -247935.975391 kJ/mol
# GULP energy per Si atom -12396.798770 kJ/mol
# Density = 1.931307 g / cm^3
# Si number density = 19.357130 Si / 1000 Ang^3
#
#
#
# Elastic Constant Matrix: (Units=GPa)
#
#
# Indices 1 2 3 4 5 6 
#
# 1 131.0738 19.1123 55.4571 0.0000 0.0000 0.0000
# 2 19.1123 16.6932 14.0890 0.0000 0.0000 0.0000
# 3 55.4571 14.0890 138.2264 0.0000 0.0000 0.0000
# 4 0.0000 0.0000 0.0000 -6.1642 0.0000 0.0000
# 5 0.0000 0.0000 0.0000 0.0000 35.8263 0.0000
# 6 0.0000 0.0000 0.0000 0.0000 0.0000 22.5295
#
#
#
# Elastic Compliance Matrix: (Units=1/GPa)
#
#
# Indices 1 2 3 4 5 6 
#
# 1 0.010315 -0.009099 -0.003211 0.000000 0.000000 0.000000
# 2 -0.009099 0.073570 -0.003848 0.000000 0.000000 0.000000
# 3 -0.003211 -0.003848 0.008915 0.000000 0.000000 0.000000
# 4 0.000000 0.000000 0.000000 -0.162228 0.000000 0.000000
# 5 0.000000 0.000000 0.000000 0.000000 0.027912 0.000000
# 6 0.000000 0.000000 0.000000 0.000000 0.000000 0.044386
#
#
# Mechanical properties :
#
#
# Convention : Reuss Voigt Hill
#
# Bulk Modulus (GPa) = 16.53350 51.47893 34.00622
# Shear Modulus (GPa) = 90.33700 23.59399 56.96549
#
# Velocity S-wave (km/s) = 6.83885 3.49503 5.43071
# Velocity P-wave (km/s) = 8.42138 6.55279 7.54516
#
# Compressibility (1/GPa) = 0.06048325
#
# Stress axis : x y z
#
# Youngs Moduli (GPa) = 96.95004 13.59244 112.17157
#
# Poissons Ratio (x) = 0.12368 0.36016
# Poissons Ratio (y) = 0.88219 0.43164
# Poissons Ratio (z) = 0.31129 0.05230
#
# Static dielectric constant tensor:
#      x y z
#    x 3.703820 0.000000 0.000000 
#    y 0.000000 3.085230 0.000000 
#    z 0.000000 0.000000 4.048610 
# 
# 
# High freq. dielectric constant tensor:
#      x y z
#    x 1.758660 0.000000 0.000000 
#    y 0.000000 1.699170 0.000000 
#    z 0.000000 0.000000 1.776420 
# 
# From -- ./inp_files/11014.got.cif
#   From: 2010.03.12/outbox.cif.g09.slc.cpg/sg35_6_cif.got.tgz:11014.got - 2010.04.14 02:02:04.
