data_PCOD8173742
_publ_section_title
;
Structure prediction by ZEFSAII (Michael W. Deem and Ramdas Pophale) SiO2 
 PCOD8173742
Probable space group: C M M 2
;
_chemical_formula_sum "Si O2"
_cell_formula_units_Z 64
_cell_length_a 28.491272
_cell_length_b 9.281441
_cell_length_c 12.883041
_cell_angle_alpha 90.000000
_cell_angle_beta 90.000000
_cell_angle_gamma 90.000000
_cell_volume 3406.792136
_symmetry_space_group_name_H-M "C M M 2"
_symmetry_group_IT_number 35
_symmetry_cell_setting 'orthorhombic'
loop_
_space_group_symop_operation_xyz
x,y,z
-x,-y,z
-x,y,z
x,-y,z
1/2+x,1/2+y,z
1/2-x,1/2-y,z
1/2-x,1/2+y,z
1/2+x,1/2-y,z
loop_
_atom_site_type_symbol
_atom_site_label
_atom_site_fract_x
_atom_site_fract_y
_atom_site_fract_z
Si Si1 0.702646 0.666572 0.923930
Si Si2 0.555232 0.658816 0.817853
Si Si3 0.144338 0.829728 0.497702
Si Si4 0.799519 0.829135 0.299727
Si Si5 0.051589 0.171879 0.588730
Si Si6 0.297084 0.667133 0.691605
Si Si7 0.445533 0.168926 0.018643
Si Si8 0.864746 0.831799 0.106922
O O1 0.715091 0.500000 0.938502
O O2 0.750000 0.750000 0.949771
O O3 0.684024 0.700601 0.807584
O O4 0.662601 0.714453 0.003085
O O5 0.500000 0.638333 0.821193
O O6 0.578804 0.500000 0.836536
O O7 0.568298 0.721604 0.704059
O O8 0.571069 0.767833 0.907612
O O9 0.173471 0.766531 0.401132
O O10 0.089881 0.776088 0.503094
O O11 0.165872 0.779366 0.606954
O O12 0.145169 0.000000 0.485886
O O13 0.750000 0.750000 0.288068
O O14 0.832678 0.788016 0.203907
O O15 0.790303 0.000000 0.305617
O O16 0.000000 0.234830 0.559784
O O17 0.049160 0.000000 0.592086
O O18 0.285823 0.500000 0.678061
O O19 0.250000 0.750000 0.667896
O O20 0.500000 0.204127 0.042239
O O21 0.413645 0.243221 0.107838
O O22 0.436146 0.000000 0.017507
O O23 0.877232 0.000000 0.110014
#
# Coordination Sequence:
#
# PCOD8173742 Si02
#       8
#     8   8   8   8   8   8   8   8
#     4   9  18  31  48  71  99 131 166 207 257 311
#     4   8  14  26  47  73 100 134 173 210 250 300
#     4   9  17  29  48  73 102 133 170 212 256 304
#     4  10  21  37  56  79 104 134 173 220 267 311
#     4   8  14  25  45  74 104 135 172 212 255 304
#     4   9  17  29  46  68  96 128 160 201 251 303
#     4  10  21  35  51  75 107 140 174 213 259 309
#     4  10  21  35  53  76 102 135 177 216 258 309
#
# _framework density 18.786000999999999
#
# number of rings (size 3 to 8) (size 9 to 14) (size 15 to 20)
#    0.000    2.875    0.000    1.875    1.750    1.750 
#    0.000    0.625    0.000    3.000    0.000    0.000 
#    0.000    0.000    0.000    0.000    0.000    0.000 
#
# Total GULP energy -396606.729354 kJ/mol
# GULP energy per Si atom -12393.960292 kJ/mol
# Density = 1.874324 g / cm^3
# Si number density = 18.786001 Si / 1000 Ang^3
#
#
#
# Elastic Constant Matrix: (Units=GPa)
#
#
# Indices 1 2 3 4 5 6 
#
# 1 125.4075 44.8159 81.4161 0.0000 0.0000 0.0000
# 2 44.8159 46.0789 37.0679 0.0000 0.0000 0.0000
# 3 81.4161 37.0679 98.8241 0.0000 0.0000 0.0000
# 4 0.0000 0.0000 0.0000 13.0715 0.0000 0.0000
# 5 0.0000 0.0000 0.0000 0.0000 6.1337 0.0000
# 6 0.0000 0.0000 0.0000 0.0000 0.0000 25.8923
#
#
#
# Elastic Compliance Matrix: (Units=1/GPa)
#
#
# Indices 1 2 3 4 5 6 
#
# 1 0.019232 -0.008534 -0.012643 0.000000 0.000000 0.000000
# 2 -0.008534 0.034867 -0.006047 0.000000 0.000000 0.000000
# 3 -0.012643 -0.006047 0.022803 0.000000 0.000000 0.000000
# 4 0.000000 0.000000 0.000000 0.076502 0.000000 0.000000
# 5 0.000000 0.000000 0.000000 0.000000 0.163035 0.000000
# 6 0.000000 0.000000 0.000000 0.000000 0.000000 0.038622
#
#
# Mechanical properties :
#
#
# Convention : Reuss Voigt Hill
#
# Bulk Modulus (GPa) = 44.53777 66.32336 55.43057
# Shear Modulus (GPa) = 11.99060 16.15354 14.07207
#
# Velocity S-wave (km/s) = 2.52915 2.93554 2.73989
# Velocity P-wave (km/s) = 5.68227 6.84625 6.29124
#
# Compressibility (1/GPa) = 0.02245285
#
# Stress axis : x y z
#
# Youngs Moduli (GPa) = 51.99742 28.68061 43.85337
#
# Poissons Ratio (x) = 0.24476 0.55444
# Poissons Ratio (y) = 0.44374 0.26520
# Poissons Ratio (z) = 0.65740 0.17344
#
# Static dielectric constant tensor:
#      x y z
#    x 3.874880 0.000000 0.000000 
#    y 0.000000 3.126520 0.000000 
#    z 0.000000 0.000000 3.589540 
# 
# 
# High freq. dielectric constant tensor:
#      x y z
#    x 1.737880 0.000000 0.000000 
#    y 0.000000 1.688920 0.000000 
#    z 0.000000 0.000000 1.720650 
# 
# From -- ./inp_files/14573.got.cif
#   From: 2010.03.12/outbox.cif.g09.slc.cpg/sg35_8_cif.got.tgz:14573.got - 2010.04.14 02:02:04.
