data_PCOD8173075
_publ_section_title
;
Structure prediction by ZEFSAII (Michael W. Deem and Ramdas Pophale) SiO2 
 PCOD8173075
Probable space group: C M M 2
;
_chemical_formula_sum "Si O2"
_cell_formula_units_Z 64
_cell_length_a 28.301620
_cell_length_b 8.698760
_cell_length_c 15.407526
_cell_angle_alpha 90.000000
_cell_angle_beta 90.000000
_cell_angle_gamma 90.000000
_cell_volume 3793.163418
_symmetry_space_group_name_H-M "C M M 2"
_symmetry_group_IT_number 35
_symmetry_cell_setting 'orthorhombic'
loop_
_space_group_symop_operation_xyz
x,y,z
-x,-y,z
-x,y,z
x,-y,z
1/2+x,1/2+y,z
1/2-x,1/2-y,z
1/2-x,1/2+y,z
1/2+x,1/2-y,z
loop_
_atom_site_type_symbol
_atom_site_label
_atom_site_fract_x
_atom_site_fract_y
_atom_site_fract_z
Si Si1 0.945525 0.680630 0.494900
Si Si2 0.611515 0.679094 0.648126
Si Si3 0.944044 0.669553 0.302560
Si Si4 0.700628 0.681452 0.907984
Si Si5 0.944661 0.823687 0.129404
Si Si6 0.054990 0.178092 0.818918
Si Si7 0.109872 0.678618 0.975168
Si Si8 0.200779 0.318671 0.720739
O O1 0.938961 0.500000 0.512522
O O2 0.914193 0.779786 0.559415
O O3 0.927231 0.723854 0.397947
O O4 0.000000 0.728395 0.507638
O O5 0.623739 0.500000 0.649817
O O6 0.577964 0.725819 0.727930
O O7 0.660047 0.774654 0.652998
O O8 0.923515 0.500000 0.281488
O O9 0.927663 0.786644 0.227525
O O10 0.000000 0.658814 0.306415
O O11 0.705204 0.500000 0.901671
O O12 0.750000 0.750000 0.942190
O O13 0.658993 0.728066 0.973320
O O14 0.687468 0.746802 0.813603
O O15 0.000000 0.787766 0.118412
O O16 0.933401 0.000000 0.108488
O O17 0.916433 0.716191 0.064193
O O18 0.076528 0.279361 0.895021
O O19 0.000000 0.215135 0.811920
O O20 0.064452 0.000000 0.841022
O O21 0.121855 0.500000 0.971451
O O22 0.205530 0.500000 0.730637
O O23 0.250000 0.250000 0.686139
#
# Coordination Sequence:
#
# PCOD8173075 Si02
#       8
#     8   8   8   8   8   8   8   8
#     4   9  18  32  50  73 103 137 172 211 253 299
#     4  11  21  33  50  73 101 136 172 209 251 298
#     4   8  15  30  50  71  97 130 168 211 255 297
#     4  11  21  36  55  75  99 128 164 209 255 299
#     4  10  20  33  50  73 102 135 170 211 256 301
#     4  10  21  35  48  65  97 138 174 209 247 289
#     4  12  23  34  50  73  99 134 173 208 249 300
#     4  11  21  35  54  75  98 128 166 210 256 301
#
# _framework density 16.872461000000001
#
# number of rings (size 3 to 8) (size 9 to 14) (size 15 to 20)
#    0.000    1.750    1.250    6.375    0.000    4.250 
#    0.000    1.250    0.000    0.000    0.000    0.875 
#    0.000    6.000    0.000    0.000    0.000    0.000 
#
# Total GULP energy -396872.297177 kJ/mol
# GULP energy per Si atom -12402.259287 kJ/mol
# Density = 1.683406 g / cm^3
# Si number density = 16.872461 Si / 1000 Ang^3
#
#
#
# Elastic Constant Matrix: (Units=GPa)
#
#
# Indices 1 2 3 4 5 6 
#
# 1 88.8790 42.1117 40.5776 0.0000 0.0000 0.0000
# 2 42.1117 102.2002 35.6113 0.0000 0.0000 0.0000
# 3 40.5776 35.6113 97.8322 0.0000 0.0000 0.0000
# 4 0.0000 0.0000 0.0000 28.2519 0.0000 0.0000
# 5 0.0000 0.0000 0.0000 0.0000 7.8099 0.0000
# 6 0.0000 0.0000 0.0000 0.0000 0.0000 26.9491
#
#
#
# Elastic Compliance Matrix: (Units=1/GPa)
#
#
# Indices 1 2 3 4 5 6 
#
# 1 0.015706 -0.004812 -0.004763 0.000000 0.000000 0.000000
# 2 -0.004812 0.012680 -0.002620 0.000000 0.000000 0.000000
# 3 -0.004763 -0.002620 0.013151 0.000000 0.000000 0.000000
# 4 0.000000 0.000000 0.000000 0.035396 0.000000 0.000000
# 5 0.000000 0.000000 0.000000 0.000000 0.128043 0.000000
# 6 0.000000 0.000000 0.000000 0.000000 0.000000 0.037107
#
#
# Mechanical properties :
#
#
# Convention : Reuss Voigt Hill
#
# Bulk Modulus (GPa) = 58.31689 58.39030 58.35360
# Shear Modulus (GPa) = 18.36969 23.97622 21.17295
#
# Velocity S-wave (km/s) = 3.30318 3.77374 3.54627
# Velocity P-wave (km/s) = 7.01330 7.32599 7.17135
#
# Compressibility (1/GPa) = 0.01714769
#
# Stress axis : x y z
#
# Youngs Moduli (GPa) = 63.67167 78.86196 76.04225
#
# Poissons Ratio (x) = 0.37948 0.36216
# Poissons Ratio (y) = 0.30639 0.19922
# Poissons Ratio (z) = 0.30324 0.20661
#
# Static dielectric constant tensor:
#      x y z
#    x 3.112750 0.000000 0.000000 
#    y 0.000000 3.210390 0.000000 
#    z 0.000000 0.000000 3.188150 
# 
# 
# High freq. dielectric constant tensor:
#      x y z
#    x 1.633850 0.000000 0.000000 
#    y 0.000000 1.661300 0.000000 
#    z 0.000000 0.000000 1.636780 
# 
# From -- ./inp_files/17726.got.cif
#   From: 2010.03.12/outbox.cif.g09.slc.cpg/sg35_9_cif.got.tgz:17726.got - 2010.04.14 02:02:04.
