data_PCOD8173866
_publ_section_title
;
Structure prediction by ZEFSAII (Michael W. Deem and Ramdas Pophale) SiO2 
 PCOD8173866
Probable space group: C M M 2
;
_chemical_formula_sum "Si O2"
_cell_formula_units_Z 48
_cell_length_a 9.862849
_cell_length_b 17.847608
_cell_length_c 13.514201
_cell_angle_alpha 90.000000
_cell_angle_beta 90.000000
_cell_angle_gamma 90.000000
_cell_volume 2378.881324
_symmetry_space_group_name_H-M "C M M 2"
_symmetry_group_IT_number 35
_symmetry_cell_setting 'orthorhombic'
loop_
_space_group_symop_operation_xyz
x,y,z
-x,-y,z
-x,y,z
x,-y,z
1/2+x,1/2+y,z
1/2-x,1/2-y,z
1/2-x,1/2+y,z
1/2+x,1/2-y,z
loop_
_atom_site_type_symbol
_atom_site_label
_atom_site_fract_x
_atom_site_fract_y
_atom_site_fract_z
Si Si1 0.500000 0.089003 0.791200
Si Si2 0.000000 0.089319 0.087012
Si Si3 0.650131 0.588466 0.495700
Si Si4 0.270713 0.835771 0.141155
Si Si5 0.278653 0.410636 0.711373
Si Si6 0.500000 0.910717 0.016300
Si Si7 0.157589 0.678561 0.363499
Si Si8 0.500000 0.411053 0.862169
O O1 0.371007 0.120430 0.732469
O O2 0.500000 0.000000 0.791310
O O3 0.500000 0.116658 0.903676
O O4 0.128329 0.121520 0.145217
O O5 0.000000 0.120013 0.974068
O O6 0.000000 0.000000 0.092837
O O7 0.500000 0.614606 0.458420
O O8 0.655847 0.500000 0.500585
O O9 0.672052 0.621544 0.606154
O O10 0.772625 0.612071 0.424451
O O11 0.250000 0.750000 0.108299
O O12 0.364951 0.877845 0.063762
O O13 0.340031 0.840655 0.248006
O O14 0.284236 0.500000 0.709488
O O15 0.370145 0.381238 0.802074
O O16 0.500000 0.000000 0.027862
O O17 0.250000 0.750000 0.388037
O O18 0.000000 0.689740 0.395553
O O19 0.500000 0.500000 0.868291
#
# Coordination Sequence:
#
# PCOD8173866 Si02
#       8
#     4   4   8   8   8   4   8   4
#     4   9  18  29  52  85 120 156 195 247 302 357
#     4  11  23  37  62  97 124 156 209 263 304 349
#     4  10  21  37  61  94 126 156 197 254 307 353
#     4  11  24  42  63  86 121 168 207 246 307 382
#     4   9  16  30  52  83 121 158 195 239 298 363
#     4  11  21  39  62  93 126 158 205 263 310 347
#     4  11  25  44  66  86 114 161 207 248 301 377
#     4   9  16  31  54  83 118 156 199 245 296 357
#
# _framework density 20.17755
#
# number of rings (size 3 to 8) (size 9 to 14) (size 15 to 20)
#    0.000    1.833    1.667    2.500    5.833    4.333 
#    0.000    0.000    0.000    6.000    0.000    0.000 
#    0.000    0.000    0.000    0.000    0.000    0.000 
#
# Total GULP energy -297579.474867 kJ/mol
# GULP energy per Si atom -12399.144786 kJ/mol
# Density = 2.013163 g / cm^3
# Si number density = 20.177550 Si / 1000 Ang^3
#
#
#
# Elastic Constant Matrix: (Units=GPa)
#
#
# Indices 1 2 3 4 5 6 
#
# 1 180.1216 35.8161 32.3299 0.0000 0.0000 0.0000
# 2 35.8161 60.5087 26.2316 0.0000 0.0000 0.0000
# 3 32.3299 26.2316 61.8302 0.0000 0.0000 0.0000
# 4 0.0000 0.0000 0.0000 1.1438 0.0000 0.0000
# 5 0.0000 0.0000 0.0000 0.0000 43.1405 0.0000
# 6 0.0000 0.0000 0.0000 0.0000 0.0000 25.0718
#
#
#
# Elastic Compliance Matrix: (Units=1/GPa)
#
#
# Indices 1 2 3 4 5 6 
#
# 1 0.006522 -0.002919 -0.002172 0.000000 0.000000 0.000000
# 2 -0.002919 0.021558 -0.007620 0.000000 0.000000 0.000000
# 3 -0.002172 -0.007620 0.020542 0.000000 0.000000 0.000000
# 4 0.000000 0.000000 0.000000 0.874244 0.000000 0.000000
# 5 0.000000 0.000000 0.000000 0.000000 0.023180 0.000000
# 6 0.000000 0.000000 0.000000 0.000000 0.000000 0.039885
#
#
# Mechanical properties :
#
#
# Convention : Reuss Voigt Hill
#
# Bulk Modulus (GPa) = 43.10280 54.57953 48.84117
# Shear Modulus (GPa) = 4.90636 27.74341 16.32489
#
# Velocity S-wave (km/s) = 1.56105 3.71207 2.84749
# Velocity P-wave (km/s) = 4.96561 6.74396 5.92192
#
# Compressibility (1/GPa) = 0.02320035
#
# Stress axis : x y z
#
# Youngs Moduli (GPa) = 153.32589 46.38750 48.68174
#
# Poissons Ratio (x) = 0.13540 0.10573
# Poissons Ratio (y) = 0.44755 0.37093
# Poissons Ratio (z) = 0.33301 0.35345
#
# Static dielectric constant tensor:
#      x y z
#    x 3.994040 0.000000 0.000000 
#    y 0.000000 3.299830 0.000000 
#    z 0.000000 0.000000 3.759750 
# 
# 
# High freq. dielectric constant tensor:
#      x y z
#    x 1.809130 0.000000 0.000000 
#    y 0.000000 1.747890 0.000000 
#    z 0.000000 0.000000 1.794020 
# 
# From -- ./inp_files/15357.got.cif
#   From: 2010.03.12/outbox.cif.g09.slc.cpg/sg35_8_cif.got.tgz:15357.got - 2010.04.14 02:02:04.
