data_PCOD8173328
_publ_section_title
;
Structure prediction by ZEFSAII (Michael W. Deem and Ramdas Pophale) SiO2 
 PCOD8173328
Probable space group: C M M 2
;
_chemical_formula_sum "Si O2"
_cell_formula_units_Z 64
_cell_length_a 13.517454
_cell_length_b 19.039820
_cell_length_c 12.193115
_cell_angle_alpha 90.000000
_cell_angle_beta 90.000000
_cell_angle_gamma 90.000000
_cell_volume 3138.140679
_symmetry_space_group_name_H-M "C M M 2"
_symmetry_group_IT_number 35
_symmetry_cell_setting 'orthorhombic'
loop_
_space_group_symop_operation_xyz
x,y,z
-x,-y,z
-x,y,z
x,-y,z
1/2+x,1/2+y,z
1/2-x,1/2-y,z
1/2-x,1/2+y,z
1/2+x,1/2-y,z
loop_
_atom_site_type_symbol
_atom_site_label
_atom_site_fract_x
_atom_site_fract_y
_atom_site_fract_z
Si Si1 0.286236 0.175270 0.112130
Si Si2 0.886146 0.349699 0.335526
Si Si3 0.800033 0.922745 0.406029
Si Si4 0.722246 0.081826 0.716346
Si Si5 0.384435 0.651617 0.609967
Si Si6 0.889130 0.920259 0.176301
Si Si7 0.885997 0.580211 0.938940
Si Si8 0.610798 0.192167 0.573673
O O1 0.250000 0.250000 0.065207
O O2 0.342158 0.188855 0.227940
O O3 0.188666 0.128015 0.114493
O O4 0.363586 0.135837 0.033819
O O5 0.812952 0.414503 0.361800
O O6 0.880439 0.298787 0.441462
O O7 0.000000 0.374638 0.315181
O O8 0.832791 0.866706 0.495204
O O9 0.875907 0.914551 0.306348
O O10 0.808075 0.000000 0.458747
O O11 0.837697 0.105119 0.709263
O O12 0.679509 0.101120 0.834259
O O13 0.674287 0.127634 0.618930
O O14 0.706590 0.000000 0.689925
O O15 0.500000 0.635510 0.605567
O O16 0.360148 0.733789 0.628942
O O17 0.000000 0.895058 0.147028
O O18 0.872068 0.000000 0.136490
O O19 0.863294 0.500000 0.977010
O O20 0.000000 0.587453 0.904877
O O21 0.500000 0.172453 0.606436
#
# Coordination Sequence:
#
# PCOD8173328 Si02
#       8
#     8   8   8   8   8   8   8   8
#     4  11  24  38  62  94 126 160 203 258 306 366
#     4  10  22  37  57  89 128 167 203 246 305 362
#     4  10  20  34  55  85 121 164 208 251 295 353
#     4  11  23  40  65  91 119 156 206 263 314 370
#     4  11  23  37  58  88 126 167 202 244 303 371
#     4   9  19  36  57  82 117 161 203 242 290 352
#     4  10  23  46  70  89 116 159 209 261 320 379
#     4  10  22  38  60  90 124 163 201 244 306 372
#
# _framework density 20.394241999999998
#
# number of rings (size 3 to 8) (size 9 to 14) (size 15 to 20)
#    0.000    1.750    1.250    2.250    3.500    5.000 
#    0.000    1.875    0.000    0.750    0.000    0.000 
#    0.000    0.000    0.000    0.000    0.000    0.000 
#
# Total GULP energy -396682.184773 kJ/mol
# GULP energy per Si atom -12396.318274 kJ/mol
# Density = 2.034782 g / cm^3
# Si number density = 20.394242 Si / 1000 Ang^3
#
#
#
# Elastic Constant Matrix: (Units=GPa)
#
#
# Indices 1 2 3 4 5 6 
#
# 1 133.3814 48.9218 31.2865 0.0000 0.0000 0.0000
# 2 48.9218 104.8445 36.6623 0.0000 0.0000 0.0000
# 3 31.2865 36.6623 77.4527 0.0000 0.0000 0.0000
# 4 0.0000 0.0000 0.0000 24.4937 0.0000 0.0000
# 5 0.0000 0.0000 0.0000 0.0000 31.0877 0.0000
# 6 0.0000 0.0000 0.0000 0.0000 0.0000 29.2528
#
#
#
# Elastic Compliance Matrix: (Units=1/GPa)
#
#
# Indices 1 2 3 4 5 6 
#
# 1 0.009307 -0.003629 -0.002042 0.000000 0.000000 0.000000
# 2 -0.003629 0.012845 -0.004614 0.000000 0.000000 0.000000
# 3 -0.002042 -0.004614 0.015920 0.000000 0.000000 0.000000
# 4 0.000000 0.000000 0.000000 0.040827 0.000000 0.000000
# 5 0.000000 0.000000 0.000000 0.000000 0.032167 0.000000
# 6 0.000000 0.000000 0.000000 0.000000 0.000000 0.034185
#
#
# Mechanical properties :
#
#
# Convention : Reuss Voigt Hill
#
# Bulk Modulus (GPa) = 57.13596 61.04666 59.09131
# Shear Modulus (GPa) = 29.12826 30.22071 29.67449
#
# Velocity S-wave (km/s) = 3.78333 3.85362 3.81864
# Velocity P-wave (km/s) = 6.86741 7.05683 6.96276
#
# Compressibility (1/GPa) = 0.01750211
#
# Stress axis : x y z
#
# Youngs Moduli (GPa) = 107.44315 77.85300 62.81391
#
# Poissons Ratio (x) = 0.28252 0.12826
# Poissons Ratio (y) = 0.38990 0.28984
# Poissons Ratio (z) = 0.21939 0.35923
#
# Static dielectric constant tensor:
#      x y z
#    x 4.023530 0.000000 0.000000 
#    y 0.000000 3.600260 0.000000 
#    z 0.000000 0.000000 3.448080 
# 
# 
# High freq. dielectric constant tensor:
#      x y z
#    x 1.815330 0.000000 0.000000 
#    y 0.000000 1.791330 0.000000 
#    z 0.000000 0.000000 1.771700 
# 
# From -- ./inp_files/13213.got.cif
#   From: 2010.03.12/outbox.cif.g09.slc.cpg/sg35_7_cif.got.tgz:13213.got - 2010.04.14 02:02:04.
