data_PCOD8173494
_publ_section_title
;
Structure prediction by ZEFSAII (Michael W. Deem and Ramdas Pophale) SiO2 
 PCOD8173494
Probable space group: C M M 2
;
_chemical_formula_sum "Si O2"
_cell_formula_units_Z 40
_cell_length_a 8.632246
_cell_length_b 15.576731
_cell_length_c 14.408599
_cell_angle_alpha 90.000000
_cell_angle_beta 90.000000
_cell_angle_gamma 90.000000
_cell_volume 1937.411544
_symmetry_space_group_name_H-M "C M M 2"
_symmetry_group_IT_number 35
_symmetry_cell_setting 'orthorhombic'
loop_
_space_group_symop_operation_xyz
x,y,z
-x,-y,z
-x,y,z
x,-y,z
1/2+x,1/2+y,z
1/2-x,1/2-y,z
1/2-x,1/2+y,z
1/2+x,1/2-y,z
loop_
_atom_site_type_symbol
_atom_site_label
_atom_site_fract_x
_atom_site_fract_y
_atom_site_fract_z
Si Si1 0.679706 0.600651 0.152420
Si Si2 0.683828 0.661828 0.533669
Si Si3 0.317960 0.160531 0.967628
Si Si4 0.318513 0.099500 0.346514
Si Si5 0.816028 0.000000 0.649591
Si Si6 0.816326 0.000000 0.859655
O O1 0.500000 0.623153 0.140070
O O2 0.711560 0.500000 0.139696
O O3 0.737244 0.631914 0.252657
O O4 0.777414 0.651158 0.075905
O O5 0.500000 0.663706 0.531784
O O6 0.750000 0.750000 0.576596
O O7 0.747447 0.653512 0.429846
O O8 0.747338 0.584267 0.597119
O O9 0.500000 0.159076 0.953190
O O10 0.250000 0.250000 0.929644
O O11 0.243245 0.084434 0.909619
O O12 0.500000 0.116613 0.338744
O O13 0.279910 0.000000 0.363941
O O14 0.753611 0.000000 0.754402
O O15 0.000000 0.000000 0.648017
O O16 0.000000 0.000000 0.864180
#
# Coordination Sequence:
#
# PCOD8173494 Si02
#       6
#     8   8   8   8   4   4
#     4  10  20  36  61  91 126 168 209 253 308 368
#     4  11  22  40  63  92 125 163 207 253 308 368
#     4  12  25  42  65  95 129 167 211 259 312 373
#     4  10  20  35  58  90 126 165 209 255 303 362
#     4   9  22  43  68  91 122 161 201 254 316 375
#     4  11  23  45  70  95 126 161 205 260 322 381
#
# _framework density 20.646104999999999
#
# number of rings (size 3 to 8) (size 9 to 14) (size 15 to 20)
#    0.000    1.400    2.000    3.900    0.000    3.200 
#    0.000   10.000    0.000    0.000    0.000    0.000 
#    0.000    0.000    0.000    0.000    0.000    0.000 
#
# Total GULP energy -248120.558107 kJ/mol
# GULP energy per Si atom -12406.027905 kJ/mol
# Density = 2.059911 g / cm^3
# Si number density = 20.646105 Si / 1000 Ang^3
#
#
#
# Elastic Constant Matrix: (Units=GPa)
#
#
# Indices 1 2 3 4 5 6 
#
# 1 91.6122 39.0479 27.9547 0.0000 0.0000 0.0000
# 2 39.0479 148.0747 65.7901 0.0000 0.0000 0.0000
# 3 27.9547 65.7901 129.3093 0.0000 0.0000 0.0000
# 4 0.0000 0.0000 0.0000 3.0981 0.0000 0.0000
# 5 0.0000 0.0000 0.0000 0.0000 22.0956 0.0000
# 6 0.0000 0.0000 0.0000 0.0000 0.0000 34.7143
#
#
#
# Elastic Compliance Matrix: (Units=1/GPa)
#
#
# Indices 1 2 3 4 5 6 
#
# 1 0.012470 -0.002701 -0.001322 0.000000 0.000000 0.000000
# 2 -0.002701 0.009311 -0.004153 0.000000 0.000000 0.000000
# 3 -0.001322 -0.004153 0.010132 0.000000 0.000000 0.000000
# 4 0.000000 0.000000 0.000000 0.322781 0.000000 0.000000
# 5 0.000000 0.000000 0.000000 0.000000 0.045258 0.000000
# 6 0.000000 0.000000 0.000000 0.000000 0.000000 0.028807
#
#
# Mechanical properties :
#
#
# Convention : Reuss Voigt Hill
#
# Bulk Modulus (GPa) = 64.26222 70.50907 67.38564
# Shear Modulus (GPa) = 11.10375 27.72848 19.41612
#
# Velocity S-wave (km/s) = 2.32160 3.66872 3.06996
# Velocity P-wave (km/s) = 6.19512 7.22298 6.72871
#
# Compressibility (1/GPa) = 0.01556124
#
# Stress axis : x y z
#
# Youngs Moduli (GPa) = 80.19120 107.39970 98.69524
#
# Poissons Ratio (x) = 0.29012 0.13043
# Poissons Ratio (y) = 0.21662 0.40991
# Poissons Ratio (z) = 0.10597 0.44606
#
# Static dielectric constant tensor:
#      x y z
#    x 3.690480 0.000000 0.000000 
#    y 0.000000 3.846200 0.000000 
#    z 0.000000 0.000000 3.851770 
# 
# 
# High freq. dielectric constant tensor:
#      x y z
#    x 1.809820 0.000000 0.000000 
#    y 0.000000 1.815710 0.000000 
#    z 0.000000 0.000000 1.806050 
# 
# From -- ./inp_files/14742.got.cif
#   From: 2010.03.12/outbox.cif.g09.slc.cpg/sg35_8_cif.got.tgz:14742.got - 2010.04.14 02:02:04.
