data_PCOD8173873
_publ_section_title
;
Structure prediction by ZEFSAII (Michael W. Deem and Ramdas Pophale) SiO2 
 PCOD8173873
Probable space group: C M M 2
;
_chemical_formula_sum "Si O2"
_cell_formula_units_Z 48
_cell_length_a 8.483500
_cell_length_b 18.219503
_cell_length_c 15.569797
_cell_angle_alpha 90.000000
_cell_angle_beta 90.000000
_cell_angle_gamma 90.000000
_cell_volume 2406.548066
_symmetry_space_group_name_H-M "C M M 2"
_symmetry_group_IT_number 35
_symmetry_cell_setting 'orthorhombic'
loop_
_space_group_symop_operation_xyz
x,y,z
-x,-y,z
-x,y,z
x,-y,z
1/2+x,1/2+y,z
1/2-x,1/2-y,z
1/2-x,1/2+y,z
1/2+x,1/2-y,z
loop_
_atom_site_type_symbol
_atom_site_label
_atom_site_fract_x
_atom_site_fract_y
_atom_site_fract_z
Si Si1 0.184946 0.169085 0.642770
Si Si2 0.313457 0.581760 0.293670
Si Si3 0.683239 0.830452 0.134840
Si Si4 0.314817 0.167404 0.816975
Si Si5 0.817415 0.085641 0.977467
Si Si6 0.184744 0.831094 0.455265
O O1 0.250000 0.250000 0.633508
O O2 0.275410 0.131901 0.723153
O O3 0.221441 0.132842 0.549471
O O4 0.000000 0.169720 0.663761
O O5 0.500000 0.577101 0.298798
O O6 0.242228 0.500000 0.282172
O O7 0.268566 0.632060 0.214271
O O8 0.244055 0.616251 0.381727
O O9 0.500000 0.825783 0.155198
O O10 0.750000 0.750000 0.119408
O O11 0.710763 0.877002 0.049347
O O12 0.500000 0.166670 0.834653
O O13 0.250000 0.250000 0.822012
O O14 0.225984 0.117852 0.885407
O O15 0.000000 0.101133 0.997885
O O16 0.779282 0.000000 0.977008
O O17 0.250000 0.750000 0.443550
O O18 0.000000 0.823676 0.443130
#
# Coordination Sequence:
#
# PCOD8173873 Si02
#       6
#     8   8   8   8   8   8
#     4   9  16  29  50  78 110 144 188 236 282 328
#     4  10  21  38  58  82 115 152 188 228 278 333
#     4  12  25  41  62  87 114 144 184 230 276 329
#     4  11  21  35  57  84 115 149 189 234 279 329
#     4  11  24  42  62  84 113 148 184 225 277 334
#     4   9  18  32  53  80 109 145 189 236 281 328
#
# _framework density 19.945582000000002
#
# number of rings (size 3 to 8) (size 9 to 14) (size 15 to 20)
#    0.000    1.667    0.000    6.500    0.000    6.333 
#    0.000    0.833    0.000    3.000    0.000    0.000 
#    0.000    0.000    0.000    0.000    0.000    0.000 
#
# Total GULP energy -297545.647465 kJ/mol
# GULP energy per Si atom -12397.735311 kJ/mol
# Density = 1.990019 g / cm^3
# Si number density = 19.945582 Si / 1000 Ang^3
#
#
#
# Elastic Constant Matrix: (Units=GPa)
#
#
# Indices 1 2 3 4 5 6 
#
# 1 33.1241 24.0731 4.1407 0.0000 0.0000 0.0000
# 2 24.0731 95.9644 52.8012 0.0000 0.0000 0.0000
# 3 4.1407 52.8012 147.8281 0.0000 0.0000 0.0000
# 4 0.0000 0.0000 0.0000 -6.0382 0.0000 0.0000
# 5 0.0000 0.0000 0.0000 0.0000 137.3105 0.0000
# 6 0.0000 0.0000 0.0000 0.0000 0.0000 23.4863
#
#
#
# Elastic Compliance Matrix: (Units=1/GPa)
#
#
# Indices 1 2 3 4 5 6 
#
# 1 0.037897 -0.011105 0.002905 0.000000 0.000000 0.000000
# 2 -0.011105 0.016223 -0.005484 0.000000 0.000000 0.000000
# 3 0.002905 -0.005484 0.008642 0.000000 0.000000 0.000000
# 4 0.000000 0.000000 0.000000 -0.165612 0.000000 0.000000
# 5 0.000000 0.000000 0.000000 0.000000 0.007283 0.000000
# 6 0.000000 0.000000 0.000000 0.000000 0.000000 0.042578
#
#
# Mechanical properties :
#
#
# Convention : Reuss Voigt Hill
#
# Bulk Modulus (GPa) = 28.25257 48.77185 38.51221
# Shear Modulus (GPa) = -361.70785 44.01183 -158.84801
#
# Velocity S-wave (km/s) = -13.48114 4.70254 -8.93385
# Velocity P-wave (km/s) = 15.10383 7.34784 9.33100
#
# Compressibility (1/GPa) = 0.03539501
#
# Stress axis : x y z
#
# Youngs Moduli (GPa) = 26.38733 61.63920 115.71549
#
# Poissons Ratio (x) = 0.68450 -0.33615
# Poissons Ratio (y) = 0.29303 0.63454
# Poissons Ratio (z) = -0.07665 0.33801
#
# Static dielectric constant tensor:
#      x y z
#    x 3.188210 0.000000 0.000000 
#    y 0.000000 3.574110 0.000000 
#    z 0.000000 0.000000 4.320430 
# 
# 
# High freq. dielectric constant tensor:
#      x y z
#    x 1.779290 0.000000 0.000000 
#    y 0.000000 1.754960 0.000000 
#    z 0.000000 0.000000 1.805590 
# 
# From -- ./inp_files/15134.got.cif
#   From: 2010.03.12/outbox.cif.g09.slc.cpg/sg35_8_cif.got.tgz:15134.got - 2010.04.14 02:02:04.
