data_PCOD8173046
_publ_section_title
;
Structure prediction by ZEFSAII (Michael W. Deem and Ramdas Pophale) SiO2 
 PCOD8173046
Probable space group: C M M 2
;
_chemical_formula_sum "Si O2"
_cell_formula_units_Z 56
_cell_length_a 9.259040
_cell_length_b 21.725721
_cell_length_c 14.633514
_cell_angle_alpha 90.000000
_cell_angle_beta 90.000000
_cell_angle_gamma 90.000000
_cell_volume 2943.667722
_symmetry_space_group_name_H-M "C M M 2"
_symmetry_group_IT_number 35
_symmetry_cell_setting 'orthorhombic'
loop_
_space_group_symop_operation_xyz
x,y,z
-x,-y,z
-x,y,z
x,-y,z
1/2+x,1/2+y,z
1/2-x,1/2-y,z
1/2-x,1/2+y,z
1/2+x,1/2-y,z
loop_
_atom_site_type_symbol
_atom_site_label
_atom_site_fract_x
_atom_site_fract_y
_atom_site_fract_z
Si Si1 0.828132 0.811916 0.394930
Si Si2 0.671599 0.885983 0.900157
Si Si3 0.336317 0.192574 0.738786
Si Si4 0.829964 0.930034 0.274665
Si Si5 0.665343 0.071237 0.090788
Si Si6 0.665622 0.131850 0.552099
Si Si7 0.170546 0.500000 0.587295
Si Si8 0.673167 0.000000 0.789238
O O1 0.750000 0.750000 0.355174
O O2 0.781680 0.874661 0.341825
O O3 0.770476 0.821911 0.497954
O O4 0.000000 0.801803 0.393795
O O5 0.500000 0.891715 0.901109
O O6 0.720670 0.827219 0.839870
O O7 0.736399 0.942522 0.844145
O O8 0.724036 0.887109 0.005728
O O9 0.500000 0.213353 0.748289
O O10 0.250000 0.250000 0.701611
O O11 0.320381 0.139932 0.661661
O O12 0.761449 0.913186 0.177668
O O13 0.000000 0.929034 0.262450
O O14 0.781264 0.000000 0.305878
O O15 0.500000 0.087520 0.114866
O O16 0.678417 0.000000 0.061593
O O17 0.500000 0.143720 0.520813
O O18 0.715798 0.061406 0.531794
O O19 0.240880 0.500000 0.687850
O O20 0.000000 0.500000 0.600525
O O21 0.500000 0.000000 0.785856
#
# Coordination Sequence:
#
# PCOD8173046 Si02
#       8
#     8   8   8   8   8   8   4   4
#     4  11  24  41  61  81 106 143 185 227 275 332
#     4   9  15  26  47  76 106 134 168 212 257 302
#     4  10  20  33  49  70 102 144 183 218 258 307
#     4   9  20  39  59  80 109 143 175 214 275 341
#     4   9  16  28  52  84 109 131 168 219 267 311
#     4  10  20  34  55  82 111 141 178 222 270 321
#     4   9  16  28  49  82 113 140 176 221 267 314
#     4   9  12  22  46  74 103 132 164 207 253 298
#
# _framework density 19.023886999999998
#
# number of rings (size 3 to 8) (size 9 to 14) (size 15 to 20)
#    0.000    2.429    2.143    0.857    1.000    2.857 
#    0.000    1.429    0.000    3.429    0.000    0.000 
#    0.000    0.000    0.000    0.000    0.000    0.000 
#
# Total GULP energy -346910.268290 kJ/mol
# GULP energy per Si atom -12389.652439 kJ/mol
# Density = 1.898059 g / cm^3
# Si number density = 19.023887 Si / 1000 Ang^3
#
#
#
# Elastic Constant Matrix: (Units=GPa)
#
#
# Indices 1 2 3 4 5 6 
#
# 1 37.4768 37.7747 27.5477 0.0000 0.0000 0.0000
# 2 37.7747 114.7439 41.7684 0.0000 0.0000 0.0000
# 3 27.5477 41.7684 90.0417 0.0000 0.0000 0.0000
# 4 0.0000 0.0000 0.0000 26.3494 0.0000 0.0000
# 5 0.0000 0.0000 0.0000 0.0000 22.6855 0.0000
# 6 0.0000 0.0000 0.0000 0.0000 0.0000 22.5319
#
#
#
# Elastic Compliance Matrix: (Units=1/GPa)
#
#
# Indices 1 2 3 4 5 6 
#
# 1 0.044450 -0.011650 -0.008195 0.000000 0.000000 0.000000
# 2 -0.011650 0.013539 -0.002716 0.000000 0.000000 0.000000
# 3 -0.008195 -0.002716 0.014873 0.000000 0.000000 0.000000
# 4 0.000000 0.000000 0.000000 0.037951 0.000000 0.000000
# 5 0.000000 0.000000 0.000000 0.000000 0.044081 0.000000
# 6 0.000000 0.000000 0.000000 0.000000 0.000000 0.044382
#
#
# Mechanical properties :
#
#
# Convention : Reuss Voigt Hill
#
# Bulk Modulus (GPa) = 36.04976 50.71601 43.38289
# Shear Modulus (GPa) = 19.71261 23.32480 21.51870
#
# Velocity S-wave (km/s) = 3.22250 3.50534 3.36689
# Velocity P-wave (km/s) = 5.73035 6.56508 6.16186
#
# Compressibility (1/GPa) = 0.02773943
#
# Stress axis : x y z
#
# Youngs Moduli (GPa) = 22.49739 73.85993 67.23537
#
# Poissons Ratio (x) = 0.86048 0.55098
# Poissons Ratio (y) = 0.26210 0.18263
# Poissons Ratio (z) = 0.18436 0.20062
#
# Static dielectric constant tensor:
#      x y z
#    x 3.072170 0.000000 0.000000 
#    y 0.000000 3.619590 0.000000 
#    z 0.000000 0.000000 3.484700 
# 
# 
# High freq. dielectric constant tensor:
#      x y z
#    x 1.698600 0.000000 0.000000 
#    y 0.000000 1.738010 0.000000 
#    z 0.000000 0.000000 1.737450 
# 
# From -- ./inp_files/15766.got.cif
#   From: 2010.03.12/outbox.cif.g09.slc.cpg/sg35_8_cif.got.tgz:15766.got - 2010.04.14 02:02:04.
