data_PCOD8173764
_publ_section_title
;
Structure prediction by ZEFSAII (Michael W. Deem and Ramdas Pophale) SiO2 
 PCOD8173764
Probable space group: C M M 2
;
_chemical_formula_sum "Si O2"
_cell_formula_units_Z 40
_cell_length_a 19.323387
_cell_length_b 9.170718
_cell_length_c 12.692782
_cell_angle_alpha 90.000000
_cell_angle_beta 90.000000
_cell_angle_gamma 90.000000
_cell_volume 2249.279432
_symmetry_space_group_name_H-M "C M M 2"
_symmetry_group_IT_number 35
_symmetry_cell_setting 'orthorhombic'
loop_
_space_group_symop_operation_xyz
x,y,z
-x,-y,z
-x,y,z
x,-y,z
1/2+x,1/2+y,z
1/2-x,1/2-y,z
1/2-x,1/2+y,z
1/2+x,1/2-y,z
loop_
_atom_site_type_symbol
_atom_site_label
_atom_site_fract_x
_atom_site_fract_y
_atom_site_fract_z
Si Si1 0.917606 0.832936 0.137840
Si Si2 0.417605 0.332936 0.593129
Si Si3 0.319226 0.169879 0.987432
Si Si4 0.924570 0.172156 0.365485
Si Si5 0.319226 0.169879 0.743537
O O1 0.884585 0.728386 0.051521
O O2 0.887817 0.785779 0.254479
O O3 0.000000 0.813126 0.134976
O O4 0.897572 0.000000 0.112572
O O5 0.500000 0.313127 0.595994
O O6 0.397569 0.500000 0.618396
O O7 0.387817 0.285773 0.476490
O O8 0.384586 0.228386 0.679448
O O9 0.250000 0.250000 0.026355
O O10 0.309704 0.000000 0.009088
O O11 0.333794 0.203712 0.865485
O O12 0.000000 0.247095 0.365484
O O13 0.935091 0.000000 0.365487
O O14 0.250000 0.250000 0.704612
O O15 0.309705 0.000000 0.721884
#
# Coordination Sequence:
#
# PCOD8173764 Si02
#       5
#     8   8   8   8   8
#     4   9  17  31  53  78 102 129 162 199 239 287
#     4   9  17  31  53  78 102 129 162 199 239 287
#     4  10  21  36  52  70  96 130 166 205 248 292
#     4   7  12  26  48  73 100 129 159 193 236 283
#     4  10  21  36  52  70  96 130 166 205 248 292
#
# _framework density 17.783473000000001
#
# number of rings (size 3 to 8) (size 9 to 14) (size 15 to 20)
#    0.000    3.000    0.000    3.600    0.000    4.000 
#    0.000    6.000    0.000    3.600    0.000    0.000 
#    0.000    0.000    0.000    0.000    0.000    0.000 
#
# Total GULP energy -247812.757721 kJ/mol
# GULP energy per Si atom -12390.637886 kJ/mol
# Density = 1.774300 g / cm^3
# Si number density = 17.783473 Si / 1000 Ang^3
#
#
#
# Elastic Constant Matrix: (Units=GPa)
#
#
# Indices 1 2 3 4 5 6 
#
# 1 54.8726 37.4937 48.9037 0.0000 0.0000 0.0000
# 2 37.4937 79.0997 56.9928 0.0000 0.0000 0.0000
# 3 48.9037 56.9928 107.2119 0.0000 0.0000 0.0000
# 4 0.0000 0.0000 0.0000 22.8058 0.0000 0.0000
# 5 0.0000 0.0000 0.0000 0.0000 8.5394 0.0000
# 6 0.0000 0.0000 0.0000 0.0000 0.0000 31.1019
#
#
#
# Elastic Compliance Matrix: (Units=1/GPa)
#
#
# Indices 1 2 3 4 5 6 
#
# 1 0.033493 -0.007890 -0.011083 0.000000 0.000000 0.000000
# 2 -0.007890 0.022349 -0.008282 0.000000 0.000000 0.000000
# 3 -0.011083 -0.008282 0.018785 0.000000 0.000000 0.000000
# 4 0.000000 0.000000 0.000000 0.043848 0.000000 0.000000
# 5 0.000000 0.000000 0.000000 0.000000 0.117104 0.000000
# 6 0.000000 0.000000 0.000000 0.000000 0.000000 0.032152
#
#
# Mechanical properties :
#
#
# Convention : Reuss Voigt Hill
#
# Bulk Modulus (GPa) = 49.70799 58.66273 54.18536
# Shear Modulus (GPa) = 15.19996 19.00904 17.10450
#
# Velocity S-wave (km/s) = 2.92674 3.27297 3.10469
# Velocity P-wave (km/s) = 6.27961 6.88055 6.58694
#
# Compressibility (1/GPa) = 0.02011749
#
# Stress axis : x y z
#
# Youngs Moduli (GPa) = 29.85721 44.74399 53.23345
#
# Poissons Ratio (x) = 0.35304 0.58999
# Poissons Ratio (y) = 0.23558 0.44086
# Poissons Ratio (z) = 0.33091 0.37055
#
# Static dielectric constant tensor:
#      x y z
#    x 2.970680 0.000000 0.000000 
#    y 0.000000 3.098880 0.000000 
#    z 0.000000 0.000000 3.653280 
# 
# 
# High freq. dielectric constant tensor:
#      x y z
#    x 1.658360 0.000000 0.000000 
#    y 0.000000 1.670310 0.000000 
#    z 0.000000 0.000000 1.703900 
# 
# From -- ./inp_files/11026.got.cif
#   From: 2010.03.12/outbox.cif.g09.slc.cpg/sg35_6_cif.got.tgz:11026.got - 2010.04.14 02:02:04.
