data_PCOD8173817
_publ_section_title
;
Structure prediction by ZEFSAII (Michael W. Deem and Ramdas Pophale) SiO2 
 PCOD8173817
Probable space group: C M M 2
;
_chemical_formula_sum "Si O2"
_cell_formula_units_Z 56
_cell_length_a 8.769362
_cell_length_b 18.909435
_cell_length_c 18.185170
_cell_angle_alpha 90.000000
_cell_angle_beta 90.000000
_cell_angle_gamma 90.000000
_cell_volume 3015.531824
_symmetry_space_group_name_H-M "C M M 2"
_symmetry_group_IT_number 35
_symmetry_cell_setting 'orthorhombic'
loop_
_space_group_symop_operation_xyz
x,y,z
-x,-y,z
-x,y,z
x,-y,z
1/2+x,1/2+y,z
1/2-x,1/2-y,z
1/2-x,1/2+y,z
1/2+x,1/2-y,z
loop_
_atom_site_type_symbol
_atom_site_label
_atom_site_fract_x
_atom_site_fract_y
_atom_site_fract_z
Si Si1 0.317719 0.081034 0.844940
Si Si2 0.821264 0.581934 0.100514
Si Si3 0.819227 0.676016 0.399465
Si Si4 0.833350 0.416356 0.685012
Si Si5 0.180124 0.827462 0.972523
Si Si6 0.321726 0.176329 0.235311
Si Si7 0.317175 0.078841 0.528496
O O1 0.500000 0.089154 0.847961
O O2 0.251783 0.100552 0.763024
O O3 0.239565 0.136150 0.898706
O O4 0.273964 0.000000 0.865734
O O5 0.774035 0.500000 0.099665
O O6 0.777540 0.613351 0.180161
O O7 0.000000 0.591348 0.083271
O O8 0.725633 0.623449 0.040331
O O9 0.750000 0.750000 0.422294
O O10 0.764780 0.654668 0.317097
O O11 0.752412 0.622248 0.459613
O O12 0.000000 0.679273 0.403320
O O13 0.852647 0.500000 0.678329
O O14 0.753691 0.391309 0.608067
O O15 0.000000 0.380853 0.689129
O O16 0.250000 0.750000 0.982147
O O17 0.000000 0.819934 0.969032
O O18 0.500000 0.189635 0.235966
O O19 0.250000 0.250000 0.208397
O O20 0.500000 0.080879 0.531262
O O21 0.256931 0.000000 0.515467
#
# Coordination Sequence:
#
# PCOD8173817 Si02
#       7
#     8   8   8   8   8   8   8
#     4   9  17  32  55  79 103 132 166 205 250 299
#     4  10  21  37  56  78 104 131 161 201 249 299
#     4   9  17  29  46  69  98 131 165 202 243 287
#     4   7  11  22  43  71  99 127 160 198 241 288
#     4  12  25  39  55  75 101 132 167 205 247 297
#     4   9  18  32  50  72  98 131 167 201 242 291
#     4   8  13  23  43  71  98 125 163 207 243 279
#
# _framework density 18.570522
#
# number of rings (size 3 to 8) (size 9 to 14) (size 15 to 20)
#    0.000    2.857    0.000    3.857    0.000    4.571 
#    0.000    3.571    0.000    3.000    0.000    6.000 
#    0.000    0.000    0.000    0.000    0.000    0.000 
#
# Total GULP energy -346909.080003 kJ/mol
# GULP energy per Si atom -12389.610000 kJ/mol
# Density = 1.852825 g / cm^3
# Si number density = 18.570522 Si / 1000 Ang^3
#
#
#
# Elastic Constant Matrix: (Units=GPa)
#
#
# Indices 1 2 3 4 5 6 
#
# 1 38.2515 32.9230 34.4047 0.0000 0.0000 0.0000
# 2 32.9230 119.8427 85.9703 0.0000 0.0000 0.0000
# 3 34.4047 85.9703 159.2632 0.0000 0.0000 0.0000
# 4 0.0000 0.0000 0.0000 7.5551 0.0000 0.0000
# 5 0.0000 0.0000 0.0000 0.0000 1.3967 0.0000
# 6 0.0000 0.0000 0.0000 0.0000 0.0000 24.0730
#
#
#
# Elastic Compliance Matrix: (Units=1/GPa)
#
#
# Indices 1 2 3 4 5 6 
#
# 1 0.035696 -0.006976 -0.003946 0.000000 0.000000 0.000000
# 2 -0.006976 0.014981 -0.006580 0.000000 0.000000 0.000000
# 3 -0.003946 -0.006580 0.010683 0.000000 0.000000 0.000000
# 4 0.000000 0.000000 0.000000 0.132361 0.000000 0.000000
# 5 0.000000 0.000000 0.000000 0.000000 0.715948 0.000000
# 6 0.000000 0.000000 0.000000 0.000000 0.000000 0.041540
#
#
# Mechanical properties :
#
#
# Convention : Reuss Voigt Hill
#
# Bulk Modulus (GPa) = 37.94033 69.32816 53.63425
# Shear Modulus (GPa) = 5.02514 17.54227 11.28371
#
# Velocity S-wave (km/s) = 1.64677 3.07682 2.46766
# Velocity P-wave (km/s) = 4.90821 7.07360 6.08795
#
# Compressibility (1/GPa) = 0.02635718
#
# Stress axis : x y z
#
# Youngs Moduli (GPa) = 28.01458 66.75314 93.60763
#
# Poissons Ratio (x) = 0.46566 0.36934
# Poissons Ratio (y) = 0.19543 0.61590
# Poissons Ratio (z) = 0.11053 0.43921
#
# Static dielectric constant tensor:
#      x y z
#    x 3.034180 0.000000 0.000000 
#    y 0.000000 3.317000 0.000000 
#    z 0.000000 0.000000 4.063690 
# 
# 
# High freq. dielectric constant tensor:
#      x y z
#    x 1.678700 0.000000 0.000000 
#    y 0.000000 1.701670 0.000000 
#    z 0.000000 0.000000 1.748060 
# 
# From -- ./inp_files/18186.got.cif
#   From: 2010.03.12/outbox.cif.g09.slc.cpg/sg35_10_cif.got.tgz:18186.got - 2010.04.14 02:02:04.
