data_PCOD8173358
_publ_section_title
;
Structure prediction by ZEFSAII (Michael W. Deem and Ramdas Pophale) SiO2 
 PCOD8173358
Probable space group: C M M 2
;
_chemical_formula_sum "Si O2"
_cell_formula_units_Z 40
_cell_length_a 7.510606
_cell_length_b 15.415406
_cell_length_c 16.556728
_cell_angle_alpha 90.000000
_cell_angle_beta 90.000000
_cell_angle_gamma 90.000000
_cell_volume 1916.922087
_symmetry_space_group_name_H-M "C M M 2"
_symmetry_group_IT_number 35
_symmetry_cell_setting 'orthorhombic'
loop_
_space_group_symop_operation_xyz
x,y,z
-x,-y,z
-x,y,z
x,-y,z
1/2+x,1/2+y,z
1/2-x,1/2-y,z
1/2-x,1/2+y,z
1/2+x,1/2-y,z
loop_
_atom_site_type_symbol
_atom_site_label
_atom_site_fract_x
_atom_site_fract_y
_atom_site_fract_z
Si Si1 0.710069 0.500000 0.516410
Si Si2 0.798790 0.897147 0.978483
Si Si3 0.500000 0.103079 0.280313
Si Si4 0.000000 0.396919 0.098338
Si Si5 0.213049 0.000000 0.696613
Si Si6 0.292667 0.345620 0.805238
Si Si7 0.791730 0.154359 0.402264
O O1 0.500000 0.500000 0.522543
O O2 0.793072 0.500000 0.606054
O O3 0.774318 0.414176 0.469291
O O4 0.676262 0.863791 0.051815
O O5 0.000000 0.865004 0.995518
O O6 0.792913 0.000000 0.969270
O O7 0.716790 0.857681 0.895716
O O8 0.500000 0.139395 0.189099
O O9 0.678771 0.139552 0.321252
O O10 0.500000 0.000000 0.283882
O O11 0.000000 0.500000 0.100514
O O12 0.288701 0.084850 0.742724
O O13 0.000000 0.000000 0.693332
O O14 0.500000 0.364010 0.810694
O O15 0.250000 0.250000 0.772133
O O16 0.750000 0.250000 0.436746
O O17 0.000000 0.142371 0.381482
#
# Coordination Sequence:
#
# PCOD8173358 Si02
#       7
#     4   8   4   4   4   8   8
#     4   9  20  37  63  93 117 156 203 245 303 366
#     4   9  17  34  57  82 114 157 203 240 295 354
#     4  11  22  40  64  91 127 156 201 260 308 366
#     4   9  20  34  58  90 115 152 197 255 300 341
#     4   9  18  38  60  84 121 156 193 246 298 354
#     4  10  20  34  58  83 114 161 200 240 297 351
#     4  11  22  39  65  92 121 165 204 245 309 371
#
# _framework density 20.866783000000002
#
# number of rings (size 3 to 8) (size 9 to 14) (size 15 to 20)
#    0.000    2.200    3.000    0.000    1.400    1.600 
#    0.000    3.500    4.400    0.000    0.000    0.000 
#    0.000    0.000    0.000    0.000    0.000    0.000 
#
# Total GULP energy -247987.275793 kJ/mol
# GULP energy per Si atom -12399.363790 kJ/mol
# Density = 2.081929 g / cm^3
# Si number density = 20.866783 Si / 1000 Ang^3
#
#
#
# Elastic Constant Matrix: (Units=GPa)
#
#
# Indices 1 2 3 4 5 6 
#
# 1 91.6562 21.4533 55.7880 0.0000 0.0000 0.0000
# 2 21.4533 139.5114 75.9323 0.0000 0.0000 0.0000
# 3 55.7880 75.9323 196.7270 0.0000 0.0000 0.0000
# 4 0.0000 0.0000 0.0000 11.6011 0.0000 0.0000
# 5 0.0000 0.0000 0.0000 0.0000 4.0521 0.0000
# 6 0.0000 0.0000 0.0000 0.0000 0.0000 21.2370
#
#
#
# Elastic Compliance Matrix: (Units=1/GPa)
#
#
# Indices 1 2 3 4 5 6 
#
# 1 0.013186 0.000010 -0.003743 0.000000 0.000000 0.000000
# 2 0.000010 0.009074 -0.003505 0.000000 0.000000 0.000000
# 3 -0.003743 -0.003505 0.007498 0.000000 0.000000 0.000000
# 4 0.000000 0.000000 0.000000 0.086199 0.000000 0.000000
# 5 0.000000 0.000000 0.000000 0.000000 0.246785 0.000000
# 6 0.000000 0.000000 0.000000 0.000000 0.000000 0.047088
#
#
# Mechanical properties :
#
#
# Convention : Reuss Voigt Hill
#
# Bulk Modulus (GPa) = 65.44184 81.58241 73.51213
# Shear Modulus (GPa) = 11.64413 25.69276 18.66845
#
# Velocity S-wave (km/s) = 2.36481 3.51276 2.99431
# Velocity P-wave (km/s) = 6.23589 7.45884 6.87461
#
# Compressibility (1/GPa) = 0.01528074
#
# Stress axis : x y z
#
# Youngs Moduli (GPa) = 75.83568 110.20318 133.37674
#
# Poissons Ratio (x) = -0.00105 0.49924
# Poissons Ratio (y) = -0.00072 0.46750
# Poissons Ratio (z) = 0.28386 0.38628
#
# Static dielectric constant tensor:
#      x y z
#    x 3.689450 0.000000 0.000000 
#    y 0.000000 3.769740 0.000000 
#    z 0.000000 0.000000 3.963740 
# 
# 
# High freq. dielectric constant tensor:
#      x y z
#    x 1.811140 0.000000 0.000000 
#    y 0.000000 1.813650 0.000000 
#    z 0.000000 0.000000 1.806690 
# 
# From -- ./inp_files/14825.got.cif
#   From: 2010.03.12/outbox.cif.g09.slc.cpg/sg35_8_cif.got.tgz:14825.got - 2010.04.14 02:02:04.
