data_PCOD8173507
_publ_section_title
;
Structure prediction by ZEFSAII (Michael W. Deem and Ramdas Pophale) SiO2 
 PCOD8173507
Probable space group: C M M 2
;
_chemical_formula_sum "Si O2"
_cell_formula_units_Z 40
_cell_length_a 18.945998
_cell_length_b 18.987751
_cell_length_c 5.222198
_cell_angle_alpha 90.000000
_cell_angle_beta 90.000000
_cell_angle_gamma 90.000000
_cell_volume 1878.643391
_symmetry_space_group_name_H-M "C M M 2"
_symmetry_group_IT_number 35
_symmetry_cell_setting 'orthorhombic'
loop_
_space_group_symop_operation_xyz
x,y,z
-x,-y,z
-x,y,z
x,-y,z
1/2+x,1/2+y,z
1/2-x,1/2-y,z
1/2-x,1/2+y,z
1/2+x,1/2-y,z
loop_
_atom_site_type_symbol
_atom_site_label
_atom_site_fract_x
_atom_site_fract_y
_atom_site_fract_z
Si Si1 0.583846 0.163423 0.670290
Si Si2 0.361495 0.422962 0.678307
Si Si3 0.416667 0.078547 0.168377
Si Si4 0.578677 0.369540 0.189064
Si Si5 0.676735 0.284453 0.486287
O O1 0.500000 0.179159 0.672479
O O2 0.607511 0.118159 0.424302
O O3 0.627110 0.236135 0.665232
O O4 0.609089 0.121294 0.920638
O O5 0.324046 0.500000 0.673663
O O6 0.402228 0.415848 0.944539
O O7 0.417073 0.418606 0.442730
O O8 0.306681 0.357579 0.641915
O O9 0.500000 0.071618 0.162386
O O10 0.383246 0.000000 0.164544
O O11 0.500000 0.338909 0.158474
O O12 0.632312 0.303127 0.228012
O O13 0.750000 0.250000 0.405204
#
# Coordination Sequence:
#
# PCOD8173507 Si02
#       5
#     8   8   8   8   8
#     4  10  20  35  60  88 116 155 207 256 306 367
#     4  10  23  41  65  95 130 168 217 268 326 389
#     4   9  18  34  57  86 119 151 193 250 304 354
#     4  10  22  39  66  96 127 164 217 270 325 382
#     4  10  25  44  64  89 135 169 214 256 328 383
#
# _framework density 21.291962999999999
#
# number of rings (size 3 to 8) (size 9 to 14) (size 15 to 20)
#    1.200    1.000    0.000    2.400    2.800    5.600 
#    0.000    2.000    0.000    0.000    0.000    0.000 
#    0.000    0.000    0.000    0.000    0.000    0.000 
#
# Total GULP energy -247803.067316 kJ/mol
# GULP energy per Si atom -12390.153366 kJ/mol
# Density = 2.124350 g / cm^3
# Si number density = 21.291963 Si / 1000 Ang^3
#
#
#
# Elastic Constant Matrix: (Units=GPa)
#
#
# Indices 1 2 3 4 5 6 
#
# 1 78.4738 52.3905 16.1482 0.0000 0.0000 0.0000
# 2 52.3905 169.6663 40.2493 0.0000 0.0000 0.0000
# 3 16.1482 40.2493 143.9133 0.0000 0.0000 0.0000
# 4 0.0000 0.0000 0.0000 10.8654 0.0000 0.0000
# 5 0.0000 0.0000 0.0000 0.0000 7.6158 0.0000
# 6 0.0000 0.0000 0.0000 0.0000 0.0000 15.2580
#
#
#
# Elastic Compliance Matrix: (Units=1/GPa)
#
#
# Indices 1 2 3 4 5 6 
#
# 1 0.016079 -0.004859 -0.000445 0.000000 0.000000 0.000000
# 2 -0.004859 0.007781 -0.001631 0.000000 0.000000 0.000000
# 3 -0.000445 -0.001631 0.007455 0.000000 0.000000 0.000000
# 4 0.000000 0.000000 0.000000 0.092035 0.000000 0.000000
# 5 0.000000 0.000000 0.000000 0.000000 0.131306 0.000000
# 6 0.000000 0.000000 0.000000 0.000000 0.000000 0.065540
#
#
# Mechanical properties :
#
#
# Convention : Reuss Voigt Hill
#
# Bulk Modulus (GPa) = 57.32630 67.73662 62.53146
# Shear Modulus (GPa) = 14.71103 25.63219 20.17161
#
# Velocity S-wave (km/s) = 2.63139 3.47341 3.08130
# Velocity P-wave (km/s) = 6.01786 6.92592 6.48780
#
# Compressibility (1/GPa) = 0.01744400
#
# Stress axis : x y z
#
# Youngs Moduli (GPa) = 62.19334 128.51265 134.14303
#
# Poissons Ratio (x) = 0.62449 0.05971
# Poissons Ratio (y) = 0.30222 0.21879
# Poissons Ratio (z) = 0.02768 0.20960
#
# Static dielectric constant tensor:
#      x y z
#    x 3.274290 0.000000 0.000000 
#    y 0.000000 3.967920 0.000000 
#    z 0.000000 0.000000 3.858830 
# 
# 
# High freq. dielectric constant tensor:
#      x y z
#    x 1.780040 0.000000 0.000000 
#    y 0.000000 1.844800 0.000000 
#    z 0.000000 0.000000 1.843390 
# 
# From -- ./inp_files/2468.got.cif
#   From: 2010.03.12/outbox.cif.g09.slc.cpg/sg35_2_cif.got.tgz:2468.got - 2010.04.14 02:02:04.
