data_PCOD8173450
_publ_section_title
;
Structure prediction by ZEFSAII (Michael W. Deem and Ramdas Pophale) SiO2 
 PCOD8173450
Probable space group: C M M 2
;
_chemical_formula_sum "Si O2"
_cell_formula_units_Z 64
_cell_length_a 18.622746
_cell_length_b 14.019638
_cell_length_c 12.342171
_cell_angle_alpha 90.000000
_cell_angle_beta 90.000000
_cell_angle_gamma 90.000000
_cell_volume 3222.345317
_symmetry_space_group_name_H-M "C M M 2"
_symmetry_group_IT_number 35
_symmetry_cell_setting 'orthorhombic'
loop_
_space_group_symop_operation_xyz
x,y,z
-x,-y,z
-x,y,z
x,-y,z
1/2+x,1/2+y,z
1/2-x,1/2-y,z
1/2-x,1/2+y,z
1/2+x,1/2-y,z
loop_
_atom_site_type_symbol
_atom_site_label
_atom_site_fract_x
_atom_site_fract_y
_atom_site_fract_z
Si Si1 0.326870 0.888781 0.069640
Si Si2 0.702338 0.606955 0.735284
Si Si3 0.917218 0.889647 0.355214
Si Si4 0.422219 0.887616 0.874750
Si Si5 0.673177 0.388658 0.980117
Si Si6 0.364615 0.893380 0.657825
Si Si7 0.083650 0.774084 0.139286
Si Si8 0.830580 0.225862 0.531741
O O1 0.366490 0.820830 0.157822
O O2 0.342713 0.000000 0.096297
O O3 0.361951 0.852353 0.957131
O O4 0.242444 0.869098 0.057098
O O5 0.671798 0.500000 0.723368
O O6 0.687311 0.645400 0.856787
O O7 0.786297 0.608221 0.711513
O O8 0.663786 0.672796 0.647202
O O9 0.902587 0.844614 0.238742
O O10 0.868414 0.836229 0.441517
O O11 0.000000 0.878929 0.389581
O O12 0.894002 0.000000 0.350600
O O13 0.500000 0.857277 0.920853
O O14 0.414727 0.849505 0.752163
O O15 0.413497 0.000000 0.864831
O O16 0.654416 0.500000 0.981006
O O17 0.607049 0.330062 0.030198
O O18 0.370543 0.827100 0.551238
O O19 0.386333 0.000000 0.621071
O O20 0.000000 0.745214 0.130720
O O21 0.750000 0.250000 0.493960
#
# Coordination Sequence:
#
# PCOD8173450 Si02
#       8
#     8   8   8   8   8   8   8   8
#     4  10  20  35  56  86 119 153 193 231 279 343
#     4   9  17  32  53  81 117 153 188 233 290 344
#     4  10  23  46  67  80 106 151 201 248 295 352
#     4   9  16  27  45  71 110 156 191 216 252 321
#     4  10  20  35  59  87 119 156 191 235 290 346
#     4   9  17  30  48  78 119 154 184 220 276 342
#     4  11  24  39  59  84 112 151 197 244 297 349
#     4  10  21  34  59  89 114 144 193 245 294 336
#
# _framework density 19.861311000000001
#
# number of rings (size 3 to 8) (size 9 to 14) (size 15 to 20)
#    0.000    2.250    1.250    1.500    1.750    4.500 
#    0.000    1.250    0.000    1.500    0.000    0.000 
#    0.000    0.000    0.000    0.000    0.000    0.000 
#
# Total GULP energy -396621.405079 kJ/mol
# GULP energy per Si atom -12394.418909 kJ/mol
# Density = 1.981611 g / cm^3
# Si number density = 19.861311 Si / 1000 Ang^3
#
#
#
# Elastic Constant Matrix: (Units=GPa)
#
#
# Indices 1 2 3 4 5 6 
#
# 1 55.0111 28.1415 32.1498 0.0000 0.0000 0.0000
# 2 28.1415 107.3322 54.7942 0.0000 0.0000 0.0000
# 3 32.1498 54.7942 85.9637 0.0000 0.0000 0.0000
# 4 0.0000 0.0000 0.0000 37.1463 0.0000 0.0000
# 5 0.0000 0.0000 0.0000 0.0000 24.1650 0.0000
# 6 0.0000 0.0000 0.0000 0.0000 0.0000 25.6950
#
#
#
# Elastic Compliance Matrix: (Units=1/GPa)
#
#
# Indices 1 2 3 4 5 6 
#
# 1 0.023708 -0.002505 -0.007270 0.000000 0.000000 0.000000
# 2 -0.002505 0.014076 -0.008035 0.000000 0.000000 0.000000
# 3 -0.007270 -0.008035 0.019474 0.000000 0.000000 0.000000
# 4 0.000000 0.000000 0.000000 0.026921 0.000000 0.000000
# 5 0.000000 0.000000 0.000000 0.000000 0.041382 0.000000
# 6 0.000000 0.000000 0.000000 0.000000 0.000000 0.038918
#
#
# Mechanical properties :
#
#
# Convention : Reuss Voigt Hill
#
# Bulk Modulus (GPa) = 46.21647 53.16424 49.69035
# Shear Modulus (GPa) = 24.11834 26.28269 25.20052
#
# Velocity S-wave (km/s) = 3.48852 3.64168 3.56592
# Velocity P-wave (km/s) = 6.28860 6.67145 6.48285
#
# Compressibility (1/GPa) = 0.02163731
#
# Stress axis : x y z
#
# Youngs Moduli (GPa) = 42.17932 71.04481 51.35147
#
# Poissons Ratio (x) = 0.17793 0.37334
# Poissons Ratio (y) = 0.10564 0.41262
# Poissons Ratio (z) = 0.30666 0.57086
#
# Static dielectric constant tensor:
#      x y z
#    x 3.563390 0.000000 0.000000 
#    y 0.000000 3.953020 0.000000 
#    z 0.000000 0.000000 3.464770 
# 
# 
# High freq. dielectric constant tensor:
#      x y z
#    x 1.760250 0.000000 0.000000 
#    y 0.000000 1.788260 0.000000 
#    z 0.000000 0.000000 1.748000 
# 
# From -- ./inp_files/13155.got.cif
#   From: 2010.03.12/outbox.cif.g09.slc.cpg/sg35_7_cif.got.tgz:13155.got - 2010.04.14 02:02:04.
