data_PCOD8173553
_publ_section_title
;
Structure prediction by ZEFSAII (Michael W. Deem and Ramdas Pophale) SiO2 
 PCOD8173553
Probable space group: C M M 2
;
_chemical_formula_sum "Si O2"
_cell_formula_units_Z 64
_cell_length_a 9.137049
_cell_length_b 29.958080
_cell_length_c 12.262773
_cell_angle_alpha 90.000000
_cell_angle_beta 90.000000
_cell_angle_gamma 90.000000
_cell_volume 3356.669784
_symmetry_space_group_name_H-M "C M M 2"
_symmetry_group_IT_number 35
_symmetry_cell_setting 'orthorhombic'
loop_
_space_group_symop_operation_xyz
x,y,z
-x,-y,z
-x,y,z
x,-y,z
1/2+x,1/2+y,z
1/2-x,1/2-y,z
1/2-x,1/2+y,z
1/2+x,1/2-y,z
loop_
_atom_site_type_symbol
_atom_site_label
_atom_site_fract_x
_atom_site_fract_y
_atom_site_fract_z
Si Si1 0.161454 0.552953 0.130300
Si Si2 0.667516 0.295501 0.147112
Si Si3 0.670427 0.449482 0.921733
Si Si4 0.825636 0.371599 0.523320
Si Si5 0.825849 0.450397 0.368231
Si Si6 0.173428 0.797963 0.383343
Si Si7 0.827784 0.875290 0.751298
Si Si8 0.329071 0.296965 0.910696
O O1 0.151949 0.500000 0.124373
O O2 0.230567 0.565605 0.248455
O O3 0.000000 0.574067 0.117512
O O4 0.258821 0.571128 0.031168
O O5 0.500000 0.282041 0.148800
O O6 0.750000 0.250000 0.146839
O O7 0.703707 0.320130 0.262272
O O8 0.705653 0.319152 0.031123
O O9 0.500000 0.447815 0.944669
O O10 0.724111 0.500000 0.897740
O O11 0.712357 0.419679 0.818390
O O12 0.772147 0.415631 0.458793
O O13 0.747807 0.328704 0.473118
O O14 0.772217 0.376985 0.645784
O O15 0.000000 0.365644 0.518876
O O16 0.765001 0.500000 0.397303
O O17 0.000000 0.452413 0.362354
O O18 0.250000 0.750000 0.391710
O O19 0.000000 0.793561 0.407000
O O20 0.778419 0.832206 0.820439
O O21 0.000000 0.873686 0.722078
O O22 0.500000 0.287396 0.899327
O O23 0.250000 0.250000 0.891107
#
# Coordination Sequence:
#
# PCOD8173553 Si02
#       8
#     8   8   8   8   8   8   8   8
#     4   8  14  28  52  79 105 133 167 208 257 315
#     4   8  15  29  51  78 103 129 162 201 249 306
#     4   9  18  33  53  77 106 138 170 210 263 318
#     4  11  23  37  54  77 104 137 183 229 265 308
#     4   8  16  33  55  78 106 139 173 215 268 320
#     4  10  20  36  58  82 110 140 171 211 261 316
#     4  10  22  38  52  70 102 141 178 216 259 308
#     4   9  18  34  55  77 102 132 165 205 254 304
#
# _framework density 19.066517000000001
#
# number of rings (size 3 to 8) (size 9 to 14) (size 15 to 20)
#    0.000    2.875    0.000    1.500    0.000    3.500 
#    0.000    3.750    0.000    2.625    0.000    0.000 
#    0.000    0.000    0.000    0.000    0.000    0.000 
#
# Total GULP energy -396473.869736 kJ/mol
# GULP energy per Si atom -12389.808429 kJ/mol
# Density = 1.902312 g / cm^3
# Si number density = 19.066517 Si / 1000 Ang^3
#
#
#
# Elastic Constant Matrix: (Units=GPa)
#
#
# Indices 1 2 3 4 5 6 
#
# 1 57.6463 38.5792 57.6782 0.0000 0.0000 0.0000
# 2 38.5792 96.7008 70.2131 0.0000 0.0000 0.0000
# 3 57.6782 70.2131 168.7312 0.0000 0.0000 0.0000
# 4 0.0000 0.0000 0.0000 21.6546 0.0000 0.0000
# 5 0.0000 0.0000 0.0000 0.0000 33.0946 0.0000
# 6 0.0000 0.0000 0.0000 0.0000 0.0000 19.7328
#
#
#
# Elastic Compliance Matrix: (Units=1/GPa)
#
#
# Indices 1 2 3 4 5 6 
#
# 1 0.028752 -0.006211 -0.007244 0.000000 0.000000 0.000000
# 2 -0.006211 0.016160 -0.004601 0.000000 0.000000 0.000000
# 3 -0.007244 -0.004601 0.010318 0.000000 0.000000 0.000000
# 4 0.000000 0.000000 0.000000 0.046180 0.000000 0.000000
# 5 0.000000 0.000000 0.000000 0.000000 0.030216 0.000000
# 6 0.000000 0.000000 0.000000 0.000000 0.000000 0.050677
#
#
# Mechanical properties :
#
#
# Convention : Reuss Voigt Hill
#
# Bulk Modulus (GPa) = 52.30995 72.89101 62.60048
# Shear Modulus (GPa) = 22.24328 25.33693 23.79010
#
# Velocity S-wave (km/s) = 3.41928 3.64932 3.53617
# Velocity P-wave (km/s) = 6.56382 7.48796 7.04107
#
# Compressibility (1/GPa) = 0.01911682
#
# Stress axis : x y z
#
# Youngs Moduli (GPa) = 34.78071 61.88063 96.92227
#
# Poissons Ratio (x) = 0.38434 0.70208
# Poissons Ratio (y) = 0.21602 0.44599
# Poissons Ratio (z) = 0.25194 0.28474
#
# Static dielectric constant tensor:
#      x y z
#    x 3.362740 0.000000 0.000000 
#    y 0.000000 3.434140 0.000000 
#    z 0.000000 0.000000 3.922240 
# 
# 
# High freq. dielectric constant tensor:
#      x y z
#    x 1.726960 0.000000 0.000000 
#    y 0.000000 1.725290 0.000000 
#    z 0.000000 0.000000 1.753120 
# 
# From -- ./inp_files/11856.got.cif
#   From: 2010.03.12/outbox.cif.g09.slc.cpg/sg35_6_cif.got.tgz:11856.got - 2010.04.14 02:02:04.
