data_PCOD8173009
_publ_section_title
;
Structure prediction by ZEFSAII (Michael W. Deem and Ramdas Pophale) SiO2 
 PCOD8173009
Probable space group: C M M 2
;
_chemical_formula_sum "Si O2"
_cell_formula_units_Z 64
_cell_length_a 9.117242
_cell_length_b 19.115500
_cell_length_c 20.373768
_cell_angle_alpha 90.000000
_cell_angle_beta 90.000000
_cell_angle_gamma 90.000000
_cell_volume 3550.753315
_symmetry_space_group_name_H-M "C M M 2"
_symmetry_group_IT_number 35
_symmetry_cell_setting 'orthorhombic'
loop_
_space_group_symop_operation_xyz
x,y,z
-x,-y,z
-x,y,z
x,-y,z
1/2+x,1/2+y,z
1/2-x,1/2-y,z
1/2-x,1/2+y,z
1/2+x,1/2-y,z
loop_
_atom_site_type_symbol
_atom_site_label
_atom_site_fract_x
_atom_site_fract_y
_atom_site_fract_z
Si Si1 0.334507 0.416733 0.289160
Si Si2 0.670294 0.320586 0.669681
Si Si3 0.331245 0.917214 0.418429
Si Si4 0.335320 0.583125 0.892877
Si Si5 0.829025 0.179077 0.516652
Si Si6 0.832547 0.417095 0.766749
Si Si7 0.335188 0.083533 0.162203
Si Si8 0.165079 0.083186 0.037336
O O1 0.500000 0.387506 0.293778
O O2 0.335397 0.500000 0.287877
O O3 0.241571 0.389694 0.351171
O O4 0.259793 0.387568 0.222996
O O5 0.500000 0.313548 0.686775
O O6 0.750000 0.250000 0.692719
O O7 0.696783 0.334752 0.593221
O O8 0.738248 0.385845 0.707776
O O9 0.500000 0.893091 0.419509
O O10 0.244208 0.885467 0.479472
O O11 0.317337 0.000000 0.424489
O O12 0.500000 0.610689 0.879169
O O13 0.335627 0.500000 0.891972
O O14 0.227529 0.611760 0.836539
O O15 0.281543 0.608795 0.965072
O O16 0.750000 0.250000 0.493872
O O17 0.000000 0.184314 0.499075
O O18 0.816349 0.500000 0.762291
O O19 0.000000 0.392936 0.759981
O O20 0.500000 0.111820 0.169498
O O21 0.269384 0.113765 0.094168
O O22 0.332872 0.000000 0.161930
O O23 0.000000 0.109660 0.050349
O O24 0.168318 0.000000 0.039896
#
# Coordination Sequence:
#
# PCOD8173009 Si02
#       8
#     8   8   8   8   8   8   8   8
#     4   9  16  26  40  58  84 119 157 196 237 282
#     4  10  21  37  56  75  97 126 160 199 242 289
#     4  10  20  33  50  73 101 131 162 199 243 289
#     4   8  14  25  40  58  84 119 157 196 238 283
#     4  10  21  37  56  76  98 126 160 198 241 289
#     4  10  20  32  48  72 101 131 163 200 242 289
#     4   9  15  21  31  50  78 113 152 192 234 281
#     4   8  13  21  33  50  75 111 153 192 231 278
#
# _framework density 18.024343999999999
#
# number of rings (size 3 to 8) (size 9 to 14) (size 15 to 20)
#    0.000    2.750    0.000    3.000    0.000    7.000 
#    0.000    5.000    0.000    0.000    0.000    0.000 
#    0.000    1.000    0.000    5.500    0.000   11.375 
#
# Total GULP energy -396738.282112 kJ/mol
# GULP energy per Si atom -12398.071316 kJ/mol
# Density = 1.798332 g / cm^3
# Si number density = 18.024344 Si / 1000 Ang^3
#
#
#
# Elastic Constant Matrix: (Units=GPa)
#
#
# Indices 1 2 3 4 5 6 
#
# 1 152.2435 29.4541 80.0655 0.0000 0.0000 0.0000
# 2 29.4541 21.5126 30.7480 0.0000 0.0000 0.0000
# 3 80.0655 30.7480 118.0287 0.0000 0.0000 0.0000
# 4 0.0000 0.0000 0.0000 2.2376 0.0000 0.0000
# 5 0.0000 0.0000 0.0000 0.0000 36.9156 0.0000
# 6 0.0000 0.0000 0.0000 0.0000 0.0000 20.9023
#
#
#
# Elastic Compliance Matrix: (Units=1/GPa)
#
#
# Indices 1 2 3 4 5 6 
#
# 1 0.010816 -0.006886 -0.005543 0.000000 0.000000 0.000000
# 2 -0.006886 0.078445 -0.015765 0.000000 0.000000 0.000000
# 3 -0.005543 -0.015765 0.016340 0.000000 0.000000 0.000000
# 4 0.000000 0.000000 0.000000 0.446902 0.000000 0.000000
# 5 0.000000 0.000000 0.000000 0.000000 0.027089 0.000000
# 6 0.000000 0.000000 0.000000 0.000000 0.000000 0.047842
#
#
# Mechanical properties :
#
#
# Convention : Reuss Voigt Hill
#
# Bulk Modulus (GPa) = 20.31991 63.59111 41.95551
# Shear Modulus (GPa) = 7.14057 22.11226 14.62641
#
# Velocity S-wave (km/s) = 1.99254 3.50637 2.85174
# Velocity P-wave (km/s) = 4.07329 7.19375 5.84559
#
# Compressibility (1/GPa) = 0.04921281
#
# Stress axis : x y z
#
# Youngs Moduli (GPa) = 92.45814 12.74781 61.20066
#
# Poissons Ratio (x) = 0.08778 0.33924
# Poissons Ratio (y) = 0.63663 0.96483
# Poissons Ratio (z) = 0.51251 0.20097
#
# Static dielectric constant tensor:
#      x y z
#    x 3.558110 0.000000 0.000000 
#    y 0.000000 2.721220 0.000000 
#    z 0.000000 0.000000 3.595600 
# 
# 
# High freq. dielectric constant tensor:
#      x y z
#    x 1.712440 0.000000 0.000000 
#    y 0.000000 1.628790 0.000000 
#    z 0.000000 0.000000 1.712870 
# 
# From -- ./inp_files/18339.got.cif
#   From: 2010.03.12/outbox.cif.g09.slc.cpg/sg35_10_cif.got.tgz:18339.got - 2010.04.14 02:02:04.
