data_PCOD8173663
_publ_section_title
;
Structure prediction by ZEFSAII (Michael W. Deem and Ramdas Pophale) SiO2 
 PCOD8173663
Probable space group: C M M 2
;
_chemical_formula_sum "Si O2"
_cell_formula_units_Z 48
_cell_length_a 7.788030
_cell_length_b 18.140507
_cell_length_c 16.873044
_cell_angle_alpha 90.000000
_cell_angle_beta 90.000000
_cell_angle_gamma 90.000000
_cell_volume 2383.803623
_symmetry_space_group_name_H-M "C M M 2"
_symmetry_group_IT_number 35
_symmetry_cell_setting 'orthorhombic'
loop_
_space_group_symop_operation_xyz
x,y,z
-x,-y,z
-x,y,z
x,-y,z
1/2+x,1/2+y,z
1/2-x,1/2-y,z
1/2-x,1/2+y,z
1/2+x,1/2-y,z
loop_
_atom_site_type_symbol
_atom_site_label
_atom_site_fract_x
_atom_site_fract_y
_atom_site_fract_z
Si Si1 0.809628 0.584780 0.683570
Si Si2 0.194993 0.334490 0.060497
Si Si3 0.307366 0.332697 0.535801
Si Si4 0.000000 0.087990 0.969432
Si Si5 0.800332 0.084339 0.210343
Si Si6 0.000000 0.087482 0.789931
Si Si7 0.799711 0.414802 0.383680
O O1 0.766775 0.500000 0.664412
O O2 0.810254 0.627630 0.600629
O O3 0.670664 0.617106 0.745383
O O4 0.000000 0.593197 0.721049
O O5 0.250000 0.250000 0.058780
O O6 0.196856 0.364066 0.150316
O O7 0.000000 0.342412 0.027706
O O8 0.325661 0.382552 0.008543
O O9 0.500000 0.336560 0.568286
O O10 0.250000 0.250000 0.523793
O O11 0.299800 0.371311 0.451014
O O12 0.000000 0.117177 0.879232
O O13 0.000000 0.000000 0.976574
O O14 0.764340 0.114038 0.298537
O O15 0.000000 0.089771 0.189217
O O16 0.734895 0.000000 0.202512
O O17 0.000000 0.000000 0.791731
O O18 0.751655 0.500000 0.392977
O O19 0.000000 0.400026 0.393160
#
# Coordination Sequence:
#
# PCOD8173663 Si02
#       7
#     8   8   8   4   8   4   8
#     4  10  20  38  65  93 122 157 202 252 307 369
#     4  12  24  42  67  94 133 176 216 264 325 391
#     4  12  24  38  57  82 120 161 207 256 308 370
#     4  11  24  44  70 101 134 166 213 271 324 388
#     4  10  20  37  61  91 125 162 211 264 314 373
#     4   9  20  40  66  95 125 158 201 255 309 368
#     4  10  21  37  57  86 121 160 209 258 307 365
#
# _framework density 20.135885999999999
#
# number of rings (size 3 to 8) (size 9 to 14) (size 15 to 20)
#    0.000    1.333    2.500    3.500    0.000    6.333 
#    0.000    5.833    0.000    0.000    0.000    0.000 
#    0.000    0.000    0.000    0.000    0.000    0.000 
#
# Total GULP energy -297683.800000 kJ/mol
# GULP energy per Si atom -12403.491667 kJ/mol
# Density = 2.009006 g / cm^3
# Si number density = 20.135886 Si / 1000 Ang^3
#
#
#
# Elastic Constant Matrix: (Units=GPa)
#
#
# Indices 1 2 3 4 5 6 
#
# 1 138.6961 40.7985 53.0214 0.0000 0.0000 0.0000
# 2 40.7985 81.7446 46.1763 0.0000 0.0000 0.0000
# 3 53.0214 46.1763 133.7812 0.0000 0.0000 0.0000
# 4 0.0000 0.0000 0.0000 3.2393 0.0000 0.0000
# 5 0.0000 0.0000 0.0000 0.0000 23.5489 0.0000
# 6 0.0000 0.0000 0.0000 0.0000 0.0000 20.2281
#
#
#
# Elastic Compliance Matrix: (Units=1/GPa)
#
#
# Indices 1 2 3 4 5 6 
#
# 1 0.009092 -0.003108 -0.002530 0.000000 0.000000 0.000000
# 2 -0.003108 0.016259 -0.004380 0.000000 0.000000 0.000000
# 3 -0.002530 -0.004380 0.009990 0.000000 0.000000 0.000000
# 4 0.000000 0.000000 0.000000 0.308706 0.000000 0.000000
# 5 0.000000 0.000000 0.000000 0.000000 0.042465 0.000000
# 6 0.000000 0.000000 0.000000 0.000000 0.000000 0.049436
#
#
# Mechanical properties :
#
#
# Convention : Reuss Voigt Hill
#
# Bulk Modulus (GPa) = 65.34832 70.46825 67.90828
# Shear Modulus (GPa) = 10.84399 23.68497 17.26448
#
# Velocity S-wave (km/s) = 2.32317 3.43338 2.93131
# Velocity P-wave (km/s) = 6.30240 7.12670 6.72718
#
# Compressibility (1/GPa) = 0.01530261
#
# Stress axis : x y z
#
# Youngs Moduli (GPa) = 109.99078 61.50540 100.10400
#
# Poissons Ratio (x) = 0.19117 0.25331
# Poissons Ratio (y) = 0.34187 0.43846
# Poissons Ratio (z) = 0.27833 0.26940
#
# Static dielectric constant tensor:
#      x y z
#    x 3.841940 0.000000 0.000000 
#    y 0.000000 3.511020 0.000000 
#    z 0.000000 0.000000 3.694370 
# 
# 
# High freq. dielectric constant tensor:
#      x y z
#    x 1.803510 0.000000 0.000000 
#    y 0.000000 1.771720 0.000000 
#    z 0.000000 0.000000 1.783220 
# 
# From -- ./inp_files/15280.got.cif
#   From: 2010.03.12/outbox.cif.g09.slc.cpg/sg35_8_cif.got.tgz:15280.got - 2010.04.14 02:02:04.
