data_PCOD8173019
_publ_section_title
;
Structure prediction by ZEFSAII (Michael W. Deem and Ramdas Pophale) SiO2 
 PCOD8173019
Probable space group: C M M 2
;
_chemical_formula_sum "Si O2"
_cell_formula_units_Z 48
_cell_length_a 9.148431
_cell_length_b 33.243644
_cell_length_c 9.076295
_cell_angle_alpha 90.000000
_cell_angle_beta 90.000000
_cell_angle_gamma 90.000000
_cell_volume 2760.348033
_symmetry_space_group_name_H-M "C M M 2"
_symmetry_group_IT_number 35
_symmetry_cell_setting 'orthorhombic'
loop_
_space_group_symop_operation_xyz
x,y,z
-x,-y,z
-x,y,z
x,-y,z
1/2+x,1/2+y,z
1/2-x,1/2-y,z
1/2-x,1/2+y,z
1/2+x,1/2-y,z
loop_
_atom_site_type_symbol
_atom_site_label
_atom_site_fract_x
_atom_site_fract_y
_atom_site_fract_z
Si Si1 0.332027 0.455285 0.468300
Si Si2 0.668661 0.834431 0.349145
Si Si3 0.669326 0.289179 0.116872
Si Si4 0.335823 0.596828 0.206075
Si Si5 0.335852 0.633360 0.916136
Si Si6 0.670440 0.117030 0.624097
O O1 0.500000 0.454006 0.518121
O O2 0.266976 0.500000 0.492083
O O3 0.319286 0.445330 0.292434
O O4 0.248670 0.423318 0.568701
O O5 0.500000 0.823439 0.324544
O O6 0.766219 0.798747 0.280462
O O7 0.706840 0.875299 0.264763
O O8 0.703492 0.844017 0.520831
O O9 0.500000 0.279496 0.134202
O O10 0.750000 0.250000 0.052140
O O11 0.699225 0.325964 0.006203
O O12 0.500000 0.615013 0.238962
O O13 0.319379 0.595075 0.028314
O O14 0.500000 0.634973 0.851102
O O15 0.221632 0.628639 0.786228
O O16 0.500000 0.107362 0.626181
#
# Coordination Sequence:
#
# PCOD8173019 Si02
#       6
#     8   8   8   8   8   8
#     4   9  17  31  52  74  96 126 164 206 250 293
#     4   9  17  30  48  70  94 124 162 198 235 283
#     4  10  20  34  53  76  99 126 161 203 248 291
#     4   8  15  29  48  70  94 122 160 201 239 284
#     4   9  18  32  50  72  99 131 165 200 241 291
#     4  10  20  32  49  73 101 133 166 201 242 290
#
# _framework density 17.389111
#
# number of rings (size 3 to 8) (size 9 to 14) (size 15 to 20)
#    0.000    2.833    0.000    2.500    0.000    5.667 
#    0.000    1.667    0.000    5.000    0.000    0.000 
#    0.000    0.000    0.000    0.000    0.000    0.000 
#
# Total GULP energy -297358.840328 kJ/mol
# GULP energy per Si atom -12389.951680 kJ/mol
# Density = 1.734953 g / cm^3
# Si number density = 17.389111 Si / 1000 Ang^3
#
#
#
# Elastic Constant Matrix: (Units=GPa)
#
#
# Indices 1 2 3 4 5 6 
#
# 1 83.6631 41.7585 50.2825 0.0000 0.0000 0.0000
# 2 41.7585 81.0206 38.3727 0.0000 0.0000 0.0000
# 3 50.2825 38.3727 105.2491 0.0000 0.0000 0.0000
# 4 0.0000 0.0000 0.0000 16.5312 0.0000 0.0000
# 5 0.0000 0.0000 0.0000 0.0000 28.1065 0.0000
# 6 0.0000 0.0000 0.0000 0.0000 0.0000 24.7285
#
#
#
# Elastic Compliance Matrix: (Units=1/GPa)
#
#
# Indices 1 2 3 4 5 6 
#
# 1 0.019435 -0.006792 -0.006809 0.000000 0.000000 0.000000
# 2 -0.006792 0.017292 -0.003060 0.000000 0.000000 0.000000
# 3 -0.006809 -0.003060 0.013870 0.000000 0.000000 0.000000
# 4 0.000000 0.000000 0.000000 0.060492 0.000000 0.000000
# 5 0.000000 0.000000 0.000000 0.000000 0.035579 0.000000
# 6 0.000000 0.000000 0.000000 0.000000 0.000000 0.040439
#
#
# Mechanical properties :
#
#
# Convention : Reuss Voigt Hill
#
# Bulk Modulus (GPa) = 57.88400 58.97335 58.42867
# Shear Modulus (GPa) = 22.10568 23.17452 22.64010
#
# Velocity S-wave (km/s) = 3.56931 3.65458 3.61220
# Velocity P-wave (km/s) = 7.09552 7.19691 7.14639
#
# Compressibility (1/GPa) = 0.01727593
#
# Stress axis : x y z
#
# Youngs Moduli (GPa) = 51.45378 57.82896 72.10014
#
# Poissons Ratio (x) = 0.39279 0.49090
# Poissons Ratio (y) = 0.34948 0.22060
# Poissons Ratio (z) = 0.35033 0.17694
#
# Static dielectric constant tensor:
#      x y z
#    x 3.254000 0.000000 0.000000 
#    y 0.000000 3.147810 0.000000 
#    z 0.000000 0.000000 3.257260 
# 
# 
# High freq. dielectric constant tensor:
#      x y z
#    x 1.678750 0.000000 0.000000 
#    y 0.000000 1.647340 0.000000 
#    z 0.000000 0.000000 1.660940 
# 
# From -- ./inp_files/5288.got.cif
#   From: 2010.03.12/outbox.cif.g09.slc.cpg/sg35_3_cif.got.tgz:5288.got - 2010.04.14 02:02:04.
