data_PCOD8173782
_publ_section_title
;
Structure prediction by ZEFSAII (Michael W. Deem and Ramdas Pophale) SiO2 
 PCOD8173782
Probable space group: C M M 2
;
_chemical_formula_sum "Si O2"
_cell_formula_units_Z 56
_cell_length_a 8.704665
_cell_length_b 19.350200
_cell_length_c 17.607944
_cell_angle_alpha 90.000000
_cell_angle_beta 90.000000
_cell_angle_gamma 90.000000
_cell_volume 2965.829416
_symmetry_space_group_name_H-M "C M M 2"
_symmetry_group_IT_number 35
_symmetry_cell_setting 'orthorhombic'
loop_
_space_group_symop_operation_xyz
x,y,z
-x,-y,z
-x,y,z
x,-y,z
1/2+x,1/2+y,z
1/2-x,1/2-y,z
1/2-x,1/2+y,z
1/2+x,1/2-y,z
loop_
_atom_site_type_symbol
_atom_site_label
_atom_site_fract_x
_atom_site_fract_y
_atom_site_fract_z
Si Si1 0.823155 0.918947 0.873550
Si Si2 0.819363 0.420109 0.280685
Si Si3 0.818389 0.822927 0.157402
Si Si4 0.181578 0.678060 0.584736
Si Si5 0.680930 0.178010 0.994475
Si Si6 0.819281 0.677957 0.414717
Si Si7 0.678641 0.079583 0.716915
O O1 0.717768 0.881666 0.934972
O O2 0.773624 0.894605 0.789710
O O3 0.000000 0.899240 0.886745
O O4 0.793191 0.000000 0.882957
O O5 0.771187 0.500000 0.285506
O O6 0.728496 0.384890 0.212368
O O7 0.768888 0.384022 0.359437
O O8 0.000000 0.411495 0.265992
O O9 0.750000 0.750000 0.186519
O O10 0.000000 0.815921 0.154009
O O11 0.755341 0.841919 0.074644
O O12 0.250000 0.750000 0.613319
O O13 0.241160 0.660438 0.499649
O O14 0.238897 0.619719 0.642818
O O15 0.000000 0.683300 0.585217
O O16 0.500000 0.185674 0.005105
O O17 0.750000 0.250000 0.963995
O O18 0.750000 0.750000 0.384916
O O19 0.000000 0.687182 0.414785
O O20 0.500000 0.093854 0.733158
O O21 0.711096 0.000000 0.699769
#
# Coordination Sequence:
#
# PCOD8173782 Si02
#       7
#     8   8   8   8   8   8   8
#     4  10  21  37  56  79 109 144 181 220 265 318
#     4  10  21  36  54  79 110 142 179 222 267 316
#     4  11  22  38  59  81 108 141 178 218 264 318
#     4   9  18  32  51  76 104 135 174 220 267 315
#     4  11  22  38  60  84 110 139 176 220 266 316
#     4   9  18  33  53  76 103 138 177 218 266 318
#     4   9  18  33  52  74 102 138 179 220 264 316
#
# _framework density 18.881734000000002
#
# number of rings (size 3 to 8) (size 9 to 14) (size 15 to 20)
#    0.000    2.143    0.000    4.286    0.000    5.143 
#    0.000    4.286    0.000    0.000    0.000    6.000 
#    0.000    0.000    0.000    0.000    0.000    0.000 
#
# Total GULP energy -347275.770135 kJ/mol
# GULP energy per Si atom -12402.706076 kJ/mol
# Density = 1.883876 g / cm^3
# Si number density = 18.881734 Si / 1000 Ang^3
#
#
#
# Elastic Constant Matrix: (Units=GPa)
#
#
# Indices 1 2 3 4 5 6 
#
# 1 82.3732 48.1035 47.0119 0.0000 0.0000 0.0000
# 2 48.1035 119.2091 84.4618 0.0000 0.0000 0.0000
# 3 47.0119 84.4618 122.5892 0.0000 0.0000 0.0000
# 4 0.0000 0.0000 0.0000 30.3164 0.0000 0.0000
# 5 0.0000 0.0000 0.0000 0.0000 25.2123 0.0000
# 6 0.0000 0.0000 0.0000 0.0000 0.0000 29.9531
#
#
#
# Elastic Compliance Matrix: (Units=1/GPa)
#
#
# Indices 1 2 3 4 5 6 
#
# 1 0.016584 -0.004271 -0.003417 0.000000 0.000000 0.000000
# 2 -0.004271 0.017489 -0.010412 0.000000 0.000000 0.000000
# 3 -0.003417 -0.010412 0.016641 0.000000 0.000000 0.000000
# 4 0.000000 0.000000 0.000000 0.032985 0.000000 0.000000
# 5 0.000000 0.000000 0.000000 0.000000 0.039663 0.000000
# 6 0.000000 0.000000 0.000000 0.000000 0.000000 0.033386
#
#
# Mechanical properties :
#
#
# Convention : Reuss Voigt Hill
#
# Bulk Modulus (GPa) = 68.89594 75.92508 72.41051
# Shear Modulus (GPa) = 25.27977 26.73599 26.00788
#
# Velocity S-wave (km/s) = 3.66300 3.76702 3.71537
# Velocity P-wave (km/s) = 7.37953 7.69537 7.53910
#
# Compressibility (1/GPa) = 0.01451464
#
# Stress axis : x y z
#
# Youngs Moduli (GPa) = 60.29806 57.17927 60.09134
#
# Poissons Ratio (x) = 0.24420 0.20536
# Poissons Ratio (y) = 0.25752 0.62565
# Poissons Ratio (z) = 0.20606 0.59533
#
# Static dielectric constant tensor:
#      x y z
#    x 3.415860 0.000000 0.000000 
#    y 0.000000 3.425400 0.000000 
#    z 0.000000 0.000000 3.684110 
# 
# 
# High freq. dielectric constant tensor:
#      x y z
#    x 1.732570 0.000000 0.000000 
#    y 0.000000 1.729570 0.000000 
#    z 0.000000 0.000000 1.742710 
# 
# From -- ./inp_files/15597.got.cif
#   From: 2010.03.12/outbox.cif.g09.slc.cpg/sg35_8_cif.got.tgz:15597.got - 2010.04.14 02:02:04.
