data_PCOD8173234
_publ_section_title
;
Structure prediction by ZEFSAII (Michael W. Deem and Ramdas Pophale) SiO2 
 PCOD8173234
Probable space group: C M M 2
;
_chemical_formula_sum "Si O2"
_cell_formula_units_Z 48
_cell_length_a 9.136202
_cell_length_b 30.363665
_cell_length_c 9.466601
_cell_angle_alpha 90.000000
_cell_angle_beta 90.000000
_cell_angle_gamma 90.000000
_cell_volume 2626.116311
_symmetry_space_group_name_H-M "C M M 2"
_symmetry_group_IT_number 35
_symmetry_cell_setting 'orthorhombic'
loop_
_space_group_symop_operation_xyz
x,y,z
-x,-y,z
-x,y,z
x,-y,z
1/2+x,1/2+y,z
1/2-x,1/2-y,z
1/2-x,1/2+y,z
1/2+x,1/2-y,z
loop_
_atom_site_type_symbol
_atom_site_label
_atom_site_fract_x
_atom_site_fract_y
_atom_site_fract_z
Si Si1 0.670976 0.705888 0.338410
Si Si2 0.173957 0.878892 0.163138
Si Si3 0.826878 0.124670 0.844024
Si Si4 0.327898 0.294092 0.662695
Si Si5 0.669994 0.449655 0.635061
Si Si6 0.170464 0.551179 0.348712
O O1 0.500000 0.713840 0.318936
O O2 0.750000 0.750000 0.284257
O O3 0.724930 0.664751 0.245784
O O4 0.712367 0.695602 0.500362
O O5 0.249883 0.921717 0.227045
O O6 0.000000 0.885284 0.171589
O O7 0.232676 0.874801 0.003205
O O8 0.764850 0.166315 0.757613
O O9 0.777190 0.079840 0.766516
O O10 0.000000 0.127765 0.846326
O O11 0.500000 0.287873 0.681990
O O12 0.250000 0.250000 0.715854
O O13 0.500000 0.441243 0.598724
O O14 0.699526 0.500000 0.678150
O O15 0.762075 0.435497 0.499082
O O16 0.199045 0.500000 0.316630
O O17 0.000000 0.562739 0.351150
#
# Coordination Sequence:
#
# PCOD8173234 Si02
#       6
#     8   8   8   8   8   8
#     4   9  18  32  51  74 100 132 170 210 250 294
#     4  10  20  34  53  77 104 136 172 208 250 301
#     4   9  18  32  51  76 104 131 163 207 253 296
#     4   9  17  31  49  69  96 129 166 207 247 289
#     4   9  17  32  55  78  98 126 167 211 253 299
#     4  10  21  36  53  75 103 134 169 210 255 302
#
# _framework density 18.277940999999998
#
# number of rings (size 3 to 8) (size 9 to 14) (size 15 to 20)
#    0.000    2.667    0.000    1.500    0.000    5.667 
#    0.000    7.500    0.000    2.000    0.000    0.000 
#    0.000    0.000    0.000    0.000    0.000    0.000 
#
# Total GULP energy -297643.900958 kJ/mol
# GULP energy per Si atom -12401.829207 kJ/mol
# Density = 1.823634 g / cm^3
# Si number density = 18.277941 Si / 1000 Ang^3
#
#
#
# Elastic Constant Matrix: (Units=GPa)
#
#
# Indices 1 2 3 4 5 6 
#
# 1 40.9292 39.9731 37.6267 0.0000 0.0000 0.0000
# 2 39.9731 133.1350 92.6285 0.0000 0.0000 0.0000
# 3 37.6267 92.6285 143.5775 0.0000 0.0000 0.0000
# 4 0.0000 0.0000 0.0000 20.9308 0.0000 0.0000
# 5 0.0000 0.0000 0.0000 0.0000 12.1962 0.0000
# 6 0.0000 0.0000 0.0000 0.0000 0.0000 30.9964
#
#
#
# Elastic Compliance Matrix: (Units=1/GPa)
#
#
# Indices 1 2 3 4 5 6 
#
# 1 0.036088 -0.007721 -0.004476 0.000000 0.000000 0.000000
# 2 -0.007721 0.015280 -0.007835 0.000000 0.000000 0.000000
# 3 -0.004476 -0.007835 0.013192 0.000000 0.000000 0.000000
# 4 0.000000 0.000000 0.000000 0.047777 0.000000 0.000000
# 5 0.000000 0.000000 0.000000 0.000000 0.081993 0.000000
# 6 0.000000 0.000000 0.000000 0.000000 0.000000 0.032262
#
#
# Mechanical properties :
#
#
# Convention : Reuss Voigt Hill
#
# Bulk Modulus (GPa) = 40.82116 73.12203 56.97159
# Shear Modulus (GPa) = 18.19363 22.65222 20.42293
#
# Velocity S-wave (km/s) = 3.15840 3.52422 3.34631
# Velocity P-wave (km/s) = 5.97350 7.52679 6.79468
#
# Compressibility (1/GPa) = 0.02449710
#
# Stress axis : x y z
#
# Youngs Moduli (GPa) = 27.71004 65.44389 75.80081
#
# Poissons Ratio (x) = 0.50528 0.33931
# Poissons Ratio (y) = 0.21394 0.59387
# Poissons Ratio (z) = 0.12404 0.51273
#
# Static dielectric constant tensor:
#      x y z
#    x 3.134390 0.000000 0.000000 
#    y 0.000000 3.510350 0.000000 
#    z 0.000000 0.000000 3.500380 
# 
# 
# High freq. dielectric constant tensor:
#      x y z
#    x 1.683130 0.000000 0.000000 
#    y 0.000000 1.720290 0.000000 
#    z 0.000000 0.000000 1.705990 
# 
# From -- ./inp_files/5276.got.cif
#   From: 2010.03.12/outbox.cif.g09.slc.cpg/sg35_3_cif.got.tgz:5276.got - 2010.04.14 02:02:04.
