data_PCOD8173660
_publ_section_title
;
Structure prediction by ZEFSAII (Michael W. Deem and Ramdas Pophale) SiO2 
 PCOD8173660
Probable space group: C M M 2
;
_chemical_formula_sum "Si O2"
_cell_formula_units_Z 48
_cell_length_a 8.636015
_cell_length_b 15.564746
_cell_length_c 16.930225
_cell_angle_alpha 90.000000
_cell_angle_beta 90.000000
_cell_angle_gamma 90.000000
_cell_volume 2275.716486
_symmetry_space_group_name_H-M "C M M 2"
_symmetry_group_IT_number 35
_symmetry_cell_setting 'orthorhombic'
loop_
_space_group_symop_operation_xyz
x,y,z
-x,-y,z
-x,y,z
x,-y,z
1/2+x,1/2+y,z
1/2-x,1/2-y,z
1/2-x,1/2+y,z
1/2+x,1/2-y,z
loop_
_atom_site_type_symbol
_atom_site_label
_atom_site_fract_x
_atom_site_fract_y
_atom_site_fract_z
Si Si1 0.675593 0.602346 0.813900
Si Si2 0.317984 0.000000 0.391656
Si Si3 0.816559 0.842254 0.296970
Si Si4 0.682185 0.340602 0.118938
Si Si5 0.331653 0.902977 0.969756
Si Si6 0.817757 0.658865 0.657429
Si Si7 0.682793 0.500000 0.563472
O O1 0.500000 0.632716 0.798717
O O2 0.687465 0.500000 0.806715
O O3 0.727574 0.637889 0.900100
O O4 0.787438 0.646655 0.750401
O O5 0.248269 0.085285 0.353570
O O6 0.277534 0.000000 0.482938
O O7 0.500000 0.000000 0.378758
O O8 0.750000 0.750000 0.322843
O O9 0.763388 0.864942 0.207431
O O10 0.000000 0.838954 0.304321
O O11 0.500000 0.338890 0.115208
O O12 0.750000 0.250000 0.092744
O O13 0.746799 0.405967 0.054398
O O14 0.500000 0.856678 0.975625
O O15 0.359193 0.000000 0.944240
O O16 0.750000 0.750000 0.628479
O O17 0.727624 0.584673 0.611337
O O18 0.000000 0.653946 0.639601
O O19 0.500000 0.500000 0.546926
#
# Coordination Sequence:
#
# PCOD8173660 Si02
#       7
#     8   4   8   8   8   8   4
#     4  10  20  37  61  88 124 167 213 264 320 375
#     4  12  26  44  70 101 130 169 212 256 318 385
#     4  10  22  42  66  96 131 170 214 266 320 380
#     4  10  21  37  58  83 118 160 206 257 314 370
#     4  10  21  35  54  84 121 162 210 260 312 367
#     4  12  25  43  69 100 133 171 215 261 317 381
#     4  12  26  48  72  99 134 167 208 262 318 381
#
# _framework density 21.092258000000001
#
# number of rings (size 3 to 8) (size 9 to 14) (size 15 to 20)
#    0.000    1.333    0.833    5.000    1.167    5.000 
#    0.000    6.667    0.000    0.000    0.000    0.000 
#    0.000    0.000    0.000    0.000    0.000    0.000 
#
# Total GULP energy -297625.238030 kJ/mol
# GULP energy per Si atom -12401.051585 kJ/mol
# Density = 2.104425 g / cm^3
# Si number density = 21.092258 Si / 1000 Ang^3
#
#
#
# Elastic Constant Matrix: (Units=GPa)
#
#
# Indices 1 2 3 4 5 6 
#
# 1 96.3909 27.5381 12.2542 0.0000 0.0000 0.0000
# 2 27.5381 99.8388 42.1030 0.0000 0.0000 0.0000
# 3 12.2542 42.1030 105.7745 0.0000 0.0000 0.0000
# 4 0.0000 0.0000 0.0000 -1.8439 0.0000 0.0000
# 5 0.0000 0.0000 0.0000 0.0000 37.6945 0.0000
# 6 0.0000 0.0000 0.0000 0.0000 0.0000 31.2335
#
#
#
# Elastic Compliance Matrix: (Units=1/GPa)
#
#
# Indices 1 2 3 4 5 6 
#
# 1 0.011262 -0.003072 -0.000082 0.000000 0.000000 0.000000
# 2 -0.003072 0.012874 -0.004769 0.000000 0.000000 0.000000
# 3 -0.000082 -0.004769 0.011362 0.000000 0.000000 0.000000
# 4 0.000000 0.000000 0.000000 -0.542315 0.000000 0.000000
# 5 0.000000 0.000000 0.000000 0.000000 0.026529 0.000000
# 6 0.000000 0.000000 0.000000 0.000000 0.000000 0.032017
#
#
# Mechanical properties :
#
#
# Convention : Reuss Voigt Hill
#
# Bulk Modulus (GPa) = 50.88182 51.75497 51.31840
# Shear Modulus (GPa) = -11.74057 28.09073 8.17508
#
# Velocity S-wave (km/s) = -2.36186 3.65335 1.97086
# Velocity P-wave (km/s) = 4.09121 6.51050 5.43712
#
# Compressibility (1/GPa) = 0.01965338
#
# Stress axis : x y z
#
# Youngs Moduli (GPa) = 88.79057 77.67313 88.01463
#
# Poissons Ratio (x) = 0.23860 0.00722
# Poissons Ratio (y) = 0.27275 0.41972
# Poissons Ratio (z) = 0.00728 0.37040
#
# Static dielectric constant tensor:
#      x y z
#    x 4.008290 0.000000 0.000000 
#    y 0.000000 3.732840 0.000000 
#    z 0.000000 0.000000 3.915190 
# 
# 
# High freq. dielectric constant tensor:
#      x y z
#    x 1.843390 0.000000 0.000000 
#    y 0.000000 1.820530 0.000000 
#    z 0.000000 0.000000 1.829510 
# 
# From -- ./inp_files/17877.got.cif
#   From: 2010.03.12/outbox.cif.g09.slc.cpg/sg35_9_cif.got.tgz:17877.got - 2010.04.14 02:02:04.
