data_PCOD8173344
_publ_section_title
;
Structure prediction by ZEFSAII (Michael W. Deem and Ramdas Pophale) SiO2 
 PCOD8173344
Probable space group: C M M 2
;
_chemical_formula_sum "Si O2"
_cell_formula_units_Z 64
_cell_length_a 9.025600
_cell_length_b 29.137604
_cell_length_c 12.305351
_cell_angle_alpha 90.000000
_cell_angle_beta 90.000000
_cell_angle_gamma 90.000000
_cell_volume 3236.114841
_symmetry_space_group_name_H-M "C M M 2"
_symmetry_group_IT_number 35
_symmetry_cell_setting 'orthorhombic'
loop_
_space_group_symop_operation_xyz
x,y,z
-x,-y,z
-x,y,z
x,-y,z
1/2+x,1/2+y,z
1/2-x,1/2-y,z
1/2-x,1/2+y,z
1/2+x,1/2-y,z
loop_
_atom_site_type_symbol
_atom_site_label
_atom_site_fract_x
_atom_site_fract_y
_atom_site_fract_z
Si Si1 0.172624 0.704947 0.089360
Si Si2 0.823331 0.604250 0.617306
Si Si3 0.165772 0.450318 0.213870
Si Si4 0.672571 0.892721 0.007701
Si Si5 0.825180 0.946212 0.817610
Si Si6 0.166895 0.705829 0.562130
Si Si7 0.669102 0.175399 0.326294
Si Si8 0.826927 0.913268 0.401816
O O1 0.250000 0.750000 0.040067
O O2 0.221174 0.699813 0.215634
O O3 0.000000 0.713386 0.082680
O O4 0.215620 0.661085 0.014709
O O5 0.760653 0.579456 0.722303
O O6 0.769711 0.657617 0.609472
O O7 0.759504 0.577442 0.513647
O O8 0.000000 0.601530 0.616227
O O9 0.176971 0.500000 0.156101
O O10 0.279144 0.451374 0.314687
O O11 0.000000 0.441781 0.258708
O O12 0.205834 0.411496 0.127508
O O13 0.500000 0.899649 0.975335
O O14 0.777347 0.920356 0.926731
O O15 0.000000 0.940801 0.800862
O O16 0.780402 0.000000 0.822252
O O17 0.250000 0.750000 0.611466
O O18 0.178031 0.708424 0.430911
O O19 0.000000 0.710489 0.602236
O O20 0.500000 0.156848 0.313247
O O21 0.781373 0.134334 0.346883
O O22 0.000000 0.915262 0.426143
#
# Coordination Sequence:
#
# PCOD8173344 Si02
#       8
#     8   8   8   8   8   8   8   8
#     4  10  20  34  56  85 120 158 201 248 291 343
#     4  10  22  41  63  86 116 155 201 244 288 353
#     4  10  20  36  59  84 114 155 198 238 288 355
#     4  10  21  40  64  87 116 156 201 245 289 351
#     4  11  25  44  66  92 118 145 188 251 311 358
#     4   9  18  31  53  84 118 155 194 238 285 338
#     4   9  17  33  52  76 116 162 204 242 280 338
#     4  11  21  33  54  85 122 158 191 240 299 349
#
# _framework density 19.776803000000001
#
# number of rings (size 3 to 8) (size 9 to 14) (size 15 to 20)
#    0.000    2.000    1.250    3.375    0.000    6.250 
#    0.000    0.625    0.000    0.000    0.000    0.000 
#    0.000    0.000    0.000    0.000    0.000    0.000 
#
# Total GULP energy -396685.587707 kJ/mol
# GULP energy per Si atom -12396.424616 kJ/mol
# Density = 1.973179 g / cm^3
# Si number density = 19.776803 Si / 1000 Ang^3
#
#
#
# Elastic Constant Matrix: (Units=GPa)
#
#
# Indices 1 2 3 4 5 6 
#
# 1 85.5280 45.4211 44.0815 0.0000 0.0000 0.0000
# 2 45.4211 120.4100 41.9536 0.0000 0.0000 0.0000
# 3 44.0815 41.9536 76.5254 0.0000 0.0000 0.0000
# 4 0.0000 0.0000 0.0000 22.3203 0.0000 0.0000
# 5 0.0000 0.0000 0.0000 0.0000 27.6769 0.0000
# 6 0.0000 0.0000 0.0000 0.0000 0.0000 32.2881
#
#
#
# Elastic Compliance Matrix: (Units=1/GPa)
#
#
# Indices 1 2 3 4 5 6 
#
# 1 0.018019 -0.003932 -0.008224 0.000000 0.000000 0.000000
# 2 -0.003932 0.011124 -0.003834 0.000000 0.000000 0.000000
# 3 -0.008224 -0.003834 0.019907 0.000000 0.000000 0.000000
# 4 0.000000 0.000000 0.000000 0.044802 0.000000 0.000000
# 5 0.000000 0.000000 0.000000 0.000000 0.036131 0.000000
# 6 0.000000 0.000000 0.000000 0.000000 0.000000 0.030971
#
#
# Mechanical properties :
#
#
# Convention : Reuss Voigt Hill
#
# Bulk Modulus (GPa) = 58.58037 60.59731 59.58884
# Shear Modulus (GPa) = 25.17339 26.52422 25.84881
#
# Velocity S-wave (km/s) = 3.57161 3.66618 3.61920
# Velocity P-wave (km/s) = 6.83327 6.97340 6.90369
#
# Compressibility (1/GPa) = 0.01707057
#
# Stress axis : x y z
#
# Youngs Moduli (GPa) = 55.49786 89.89763 50.23453
#
# Poissons Ratio (x) = 0.35344 0.41313
# Poissons Ratio (y) = 0.21819 0.19258
# Poissons Ratio (z) = 0.45642 0.34464
#
# Static dielectric constant tensor:
#      x y z
#    x 3.503310 0.000000 0.000000 
#    y 0.000000 3.696020 0.000000 
#    z 0.000000 0.000000 3.503750 
# 
# 
# High freq. dielectric constant tensor:
#      x y z
#    x 1.761850 0.000000 0.000000 
#    y 0.000000 1.777700 0.000000 
#    z 0.000000 0.000000 1.752660 
# 
# From -- ./inp_files/11936.got.cif
#   From: 2010.03.12/outbox.cif.g09.slc.cpg/sg35_6_cif.got.tgz:11936.got - 2010.04.14 02:02:04.
