data_PCOD8173360
_publ_section_title
;
Structure prediction by ZEFSAII (Michael W. Deem and Ramdas Pophale) SiO2 
 PCOD8173360
Probable space group: C M M 2
;
_chemical_formula_sum "Si O2"
_cell_formula_units_Z 64
_cell_length_a 17.380185
_cell_length_b 13.780645
_cell_length_c 12.665628
_cell_angle_alpha 90.000000
_cell_angle_beta 90.000000
_cell_angle_gamma 90.000000
_cell_volume 3033.546583
_symmetry_space_group_name_H-M "C M M 2"
_symmetry_group_IT_number 35
_symmetry_cell_setting 'orthorhombic'
loop_
_space_group_symop_operation_xyz
x,y,z
-x,-y,z
-x,y,z
x,-y,z
1/2+x,1/2+y,z
1/2-x,1/2-y,z
1/2-x,1/2+y,z
1/2+x,1/2-y,z
loop_
_atom_site_type_symbol
_atom_site_label
_atom_site_fract_x
_atom_site_fract_y
_atom_site_fract_z
Si Si1 0.188056 0.887716 0.371890
Si Si2 0.155142 0.385858 0.724599
Si Si3 0.585838 0.386400 0.574588
Si Si4 0.585979 0.892164 0.512578
Si Si5 0.828486 0.113464 0.782750
Si Si6 0.649838 0.812564 0.317674
Si Si7 0.910483 0.389551 0.103037
Si Si8 0.088480 0.265914 0.903966
O O1 0.147014 0.864295 0.482813
O O2 0.278244 0.864493 0.377363
O O3 0.156383 0.803521 0.292556
O O4 0.172068 0.000000 0.335714
O O5 0.141009 0.500000 0.724135
O O6 0.138272 0.346147 0.606116
O O7 0.241137 0.357843 0.758388
O O8 0.096296 0.340083 0.807292
O O9 0.500000 0.340669 0.554196
O O10 0.575981 0.500000 0.584701
O O11 0.619863 0.348377 0.685182
O O12 0.500000 0.895215 0.557487
O O13 0.584555 0.828009 0.405829
O O14 0.615331 0.000000 0.483729
O O15 0.858647 0.170803 0.885799
O O16 0.837478 0.000000 0.805064
O O17 0.636010 0.866279 0.208495
O O18 0.892875 0.500000 0.069100
O O19 0.000000 0.374500 0.127247
O O20 0.882382 0.318995 0.010097
O O21 0.000000 0.234068 0.915325
#
# Coordination Sequence:
#
# PCOD8173360 Si02
#       8
#     8   8   8   8   8   8   8   8
#     4  10  22  39  58  88 124 163 207 251 305 368
#     4  10  21  38  59  88 125 162 200 257 321 374
#     4   9  18  34  57  84 121 168 207 242 292 362
#     4  10  20  34  58  92 127 161 201 256 318 376
#     4  10  21  38  60  89 124 167 213 255 306 374
#     4  11  22  38  63  90 122 163 207 256 310 371
#     4  10  22  42  67  92 120 158 206 258 313 376
#     4  11  23  39  62  89 119 159 208 260 315 374
#
# _framework density 21.097417
#
# number of rings (size 3 to 8) (size 9 to 14) (size 15 to 20)
#    0.000    1.875    0.000    3.750    1.750    6.000 
#    4.500    0.625    0.000    0.750    0.000    0.000 
#    0.000    0.000    0.000    0.000    0.000    0.000 
#
# Total GULP energy -396629.140632 kJ/mol
# GULP energy per Si atom -12394.660645 kJ/mol
# Density = 2.104940 g / cm^3
# Si number density = 21.097417 Si / 1000 Ang^3
#
#
#
# Elastic Constant Matrix: (Units=GPa)
#
#
# Indices 1 2 3 4 5 6 
#
# 1 88.1289 26.9707 48.2007 0.0000 0.0000 0.0000
# 2 26.9707 106.7309 46.4622 0.0000 0.0000 0.0000
# 3 48.2007 46.4622 124.3235 0.0000 0.0000 0.0000
# 4 0.0000 0.0000 0.0000 31.9980 0.0000 0.0000
# 5 0.0000 0.0000 0.0000 0.0000 20.8442 0.0000
# 6 0.0000 0.0000 0.0000 0.0000 0.0000 26.0368
#
#
#
# Elastic Compliance Matrix: (Units=1/GPa)
#
#
# Indices 1 2 3 4 5 6 
#
# 1 0.014589 -0.001462 -0.005110 0.000000 0.000000 0.000000
# 2 -0.001462 0.011336 -0.003670 0.000000 0.000000 0.000000
# 3 -0.005110 -0.003670 0.011396 0.000000 0.000000 0.000000
# 4 0.000000 0.000000 0.000000 0.031252 0.000000 0.000000
# 5 0.000000 0.000000 0.000000 0.000000 0.047975 0.000000
# 6 0.000000 0.000000 0.000000 0.000000 0.000000 0.038407
#
#
# Mechanical properties :
#
#
# Convention : Reuss Voigt Hill
#
# Bulk Modulus (GPa) = 59.38910 62.49448 60.94179
# Shear Modulus (GPa) = 27.61636 28.94578 28.28107
#
# Velocity S-wave (km/s) = 3.62193 3.70808 3.66525
# Velocity P-wave (km/s) = 6.76034 6.92960 6.84549
#
# Compressibility (1/GPa) = 0.01683811
#
# Stress axis : x y z
#
# Youngs Moduli (GPa) = 68.54352 88.21166 87.74951
#
# Poissons Ratio (x) = 0.12899 0.44839
# Poissons Ratio (y) = 0.10023 0.32201
# Poissons Ratio (z) = 0.35025 0.32371
#
# Static dielectric constant tensor:
#      x y z
#    x 3.926710 0.000000 0.000000 
#    y 0.000000 3.986560 0.000000 
#    z 0.000000 0.000000 3.549790 
# 
# 
# High freq. dielectric constant tensor:
#      x y z
#    x 1.828140 0.000000 0.000000 
#    y 0.000000 1.842810 0.000000 
#    z 0.000000 0.000000 1.799560 
# 
# From -- ./inp_files/13604.got.cif
#   From: 2010.03.12/outbox.cif.g09.slc.cpg/sg35_7_cif.got.tgz:13604.got - 2010.04.14 02:02:04.
