data_PCOD8173659
_publ_section_title
;
Structure prediction by ZEFSAII (Michael W. Deem and Ramdas Pophale) SiO2 
 PCOD8173659
Probable space group: C M M 2
;
_chemical_formula_sum "Si O2"
_cell_formula_units_Z 64
_cell_length_a 8.880625
_cell_length_b 29.585540
_cell_length_c 12.223942
_cell_angle_alpha 90.000000
_cell_angle_beta 90.000000
_cell_angle_gamma 90.000000
_cell_volume 3211.695126
_symmetry_space_group_name_H-M "C M M 2"
_symmetry_group_IT_number 35
_symmetry_cell_setting 'orthorhombic'
loop_
_space_group_symop_operation_xyz
x,y,z
-x,-y,z
-x,y,z
x,-y,z
1/2+x,1/2+y,z
1/2-x,1/2-y,z
1/2-x,1/2+y,z
1/2+x,1/2-y,z
loop_
_atom_site_type_symbol
_atom_site_label
_atom_site_fract_x
_atom_site_fract_y
_atom_site_fract_z
Si Si1 0.334165 0.946515 0.817250
Si Si2 0.827301 0.946788 0.032205
Si Si3 0.674143 0.297343 0.810222
Si Si4 0.175039 0.552786 0.574309
Si Si5 0.322351 0.876604 0.184640
Si Si6 0.822521 0.200741 0.046766
Si Si7 0.822466 0.798613 0.573129
Si Si8 0.322525 0.378611 0.418459
O O1 0.500000 0.926402 0.843848
O O2 0.280377 0.930771 0.697085
O O3 0.346720 0.000000 0.815229
O O4 0.217433 0.930622 0.909916
O O5 0.726323 0.921552 0.120640
O O6 0.000000 0.933293 0.050638
O O7 0.799846 0.000000 0.047445
O O8 0.500000 0.287393 0.802669
O O9 0.750000 0.250000 0.822324
O O10 0.725597 0.319039 0.693860
O O11 0.710709 0.322211 0.925894
O O12 0.206496 0.500000 0.559359
O O13 0.283776 0.577907 0.490672
O O14 0.000000 0.563864 0.551442
O O15 0.500000 0.871516 0.178542
O O16 0.247046 0.831902 0.136396
O O17 0.270781 0.881879 0.308350
O O18 0.750000 0.250000 0.059539
O O19 0.000000 0.205227 0.067449
O O20 0.750000 0.750000 0.550416
O O21 0.767194 0.833793 0.482237
O O22 0.000000 0.792371 0.565721
O O23 0.500000 0.377916 0.394041
#
# Coordination Sequence:
#
# PCOD8173659 Si02
#       8
#     8   8   8   8   8   8   8   8
#     4   8  15  31  56  86 119 151 184 224 274 338
#     4  10  21  38  61  88 117 148 185 234 290 345
#     4   8  15  30  54  84 115 144 175 217 271 331
#     4   9  19  37  60  86 117 152 189 230 278 335
#     4  12  26  42  59  80 110 151 199 244 289 344
#     4  10  20  37  61  88 119 151 186 231 283 340
#     4   9  19  36  58  84 113 145 180 222 274 330
#     4  11  24  40  57  81 113 148 193 243 287 338
#
# _framework density 19.927171000000001
#
# number of rings (size 3 to 8) (size 9 to 14) (size 15 to 20)
#    0.000    2.375    0.000    3.000    0.000    5.000 
#    0.000    3.750    0.000    0.000    0.000    0.000 
#    0.000    0.000    0.000    0.000    0.000    0.000 
#
# Total GULP energy -396576.653057 kJ/mol
# GULP energy per Si atom -12393.020408 kJ/mol
# Density = 1.988182 g / cm^3
# Si number density = 19.927171 Si / 1000 Ang^3
#
#
#
# Elastic Constant Matrix: (Units=GPa)
#
#
# Indices 1 2 3 4 5 6 
#
# 1 85.8256 36.9925 49.5149 0.0000 0.0000 0.0000
# 2 36.9925 75.5192 48.5262 0.0000 0.0000 0.0000
# 3 49.5149 48.5262 142.7546 0.0000 0.0000 0.0000
# 4 0.0000 0.0000 0.0000 33.5388 0.0000 0.0000
# 5 0.0000 0.0000 0.0000 0.0000 35.9467 0.0000
# 6 0.0000 0.0000 0.0000 0.0000 0.0000 30.3157
#
#
#
# Elastic Compliance Matrix: (Units=1/GPa)
#
#
# Indices 1 2 3 4 5 6 
#
# 1 0.016190 -0.005530 -0.003736 0.000000 0.000000 0.000000
# 2 -0.005530 0.018831 -0.004483 0.000000 0.000000 0.000000
# 3 -0.003736 -0.004483 0.009825 0.000000 0.000000 0.000000
# 4 0.000000 0.000000 0.000000 0.029816 0.000000 0.000000
# 5 0.000000 0.000000 0.000000 0.000000 0.027819 0.000000
# 6 0.000000 0.000000 0.000000 0.000000 0.000000 0.032986
#
#
# Mechanical properties :
#
#
# Convention : Reuss Voigt Hill
#
# Bulk Modulus (GPa) = 57.64296 63.79626 60.71961
# Shear Modulus (GPa) = 29.62981 31.23130 30.43055
#
# Velocity S-wave (km/s) = 3.86022 3.96317 3.91204
# Velocity P-wave (km/s) = 6.98985 7.28193 7.13739
#
# Compressibility (1/GPa) = 0.01734817
#
# Stress axis : x y z
#
# Youngs Moduli (GPa) = 61.76476 53.10309 101.78390
#
# Poissons Ratio (x) = 0.29367 0.38025
# Poissons Ratio (y) = 0.34157 0.45631
# Poissons Ratio (z) = 0.23074 0.23807
#
# Static dielectric constant tensor:
#      x y z
#    x 3.559010 0.000000 0.000000 
#    y 0.000000 3.379220 0.000000 
#    z 0.000000 0.000000 4.030090 
# 
# 
# High freq. dielectric constant tensor:
#      x y z
#    x 1.778600 0.000000 0.000000 
#    y 0.000000 1.762620 0.000000 
#    z 0.000000 0.000000 1.789360 
# 
# From -- ./inp_files/11844.got.cif
#   From: 2010.03.12/outbox.cif.g09.slc.cpg/sg35_6_cif.got.tgz:11844.got - 2010.04.14 02:02:04.
