data_PCOD8173589
_publ_section_title
;
Structure prediction by ZEFSAII (Michael W. Deem and Ramdas Pophale) SiO2 
 PCOD8173589
Probable space group: C M M 2
;
_chemical_formula_sum "Si O2"
_cell_formula_units_Z 64
_cell_length_a 29.470715
_cell_length_b 8.958334
_cell_length_c 12.270930
_cell_angle_alpha 90.000000
_cell_angle_beta 90.000000
_cell_angle_gamma 90.000000
_cell_volume 3239.629923
_symmetry_space_group_name_H-M "C M M 2"
_symmetry_group_IT_number 35
_symmetry_cell_setting 'orthorhombic'
loop_
_space_group_symop_operation_xyz
x,y,z
-x,-y,z
-x,y,z
x,-y,z
1/2+x,1/2+y,z
1/2-x,1/2-y,z
1/2-x,1/2+y,z
1/2+x,1/2-y,z
loop_
_atom_site_type_symbol
_atom_site_label
_atom_site_fract_x
_atom_site_fract_y
_atom_site_fract_z
Si Si1 0.799276 0.676388 0.931360
Si Si2 0.126130 0.824364 0.075733
Si Si3 0.053662 0.828343 0.468592
Si Si4 0.298678 0.175218 0.459387
Si Si5 0.380173 0.177380 0.308619
Si Si6 0.702842 0.828170 0.695758
Si Si7 0.053866 0.666616 0.684952
Si Si8 0.448236 0.327081 0.900902
O O1 0.795498 0.500000 0.953827
O O2 0.750000 0.750000 0.939793
O O3 0.822067 0.709634 0.810818
O O4 0.830016 0.751371 0.022101
O O5 0.118569 0.752315 0.191961
O O6 0.134044 0.000000 0.087182
O O7 0.081490 0.787076 0.005684
O O8 0.075733 0.732672 0.372805
O O9 0.071117 0.765513 0.584398
O O10 0.000000 0.809890 0.457014
O O11 0.068607 0.000000 0.459566
O O12 0.250000 0.250000 0.438891
O O13 0.334693 0.231996 0.370644
O O14 0.320380 0.215279 0.579851
O O15 0.290997 0.000000 0.447517
O O16 0.382024 0.000000 0.297748
O O17 0.750000 0.750000 0.698945
O O18 0.714592 0.000000 0.694510
O O19 0.074531 0.500000 0.673715
O O20 0.071208 0.736544 0.797785
O O21 0.000000 0.661435 0.685456
O O22 0.500000 0.281710 0.927998
O O23 0.444863 0.500000 0.869619
#
# Coordination Sequence:
#
# PCOD8173589 Si02
#       8
#     8   8   8   8   8   8   8   8
#     4  10  20  36  59  85 114 147 183 228 283 341
#     4  11  24  40  57  80 111 149 196 242 285 339
#     4  10  21  38  60  85 115 151 189 231 282 338
#     4   9  19  36  58  84 113 145 180 223 276 332
#     4  11  24  40  57  81 113 149 195 243 285 335
#     4   8  15  30  53  81 110 138 171 215 270 331
#     4   9  17  31  55  87 118 146 180 225 279 338
#     4   9  19  37  59  82 111 147 186 231 283 339
#
# _framework density 19.755344000000001
#
# number of rings (size 3 to 8) (size 9 to 14) (size 15 to 20)
#    0.000    2.375    0.000    1.875    0.000    6.750 
#    0.000    3.750    0.000    0.000    0.000    0.000 
#    0.000    0.000    0.000    0.000    0.000    0.000 
#
# Total GULP energy -396625.860379 kJ/mol
# GULP energy per Si atom -12394.558137 kJ/mol
# Density = 1.971038 g / cm^3
# Si number density = 19.755344 Si / 1000 Ang^3
#
#
#
# Elastic Constant Matrix: (Units=GPa)
#
#
# Indices 1 2 3 4 5 6 
#
# 1 74.6923 42.3281 56.8581 0.0000 0.0000 0.0000
# 2 42.3281 90.5400 66.6220 0.0000 0.0000 0.0000
# 3 56.8581 66.6220 175.9474 0.0000 0.0000 0.0000
# 4 0.0000 0.0000 0.0000 37.6296 0.0000 0.0000
# 5 0.0000 0.0000 0.0000 0.0000 -13.1430 0.0000
# 6 0.0000 0.0000 0.0000 0.0000 0.0000 27.2679
#
#
#
# Elastic Compliance Matrix: (Units=1/GPa)
#
#
# Indices 1 2 3 4 5 6 
#
# 1 0.020123 -0.006408 -0.004076 0.000000 0.000000 0.000000
# 2 -0.006408 0.017351 -0.004499 0.000000 0.000000 0.000000
# 3 -0.004076 -0.004499 0.008704 0.000000 0.000000 0.000000
# 4 0.000000 0.000000 0.000000 0.026575 0.000000 0.000000
# 5 0.000000 0.000000 0.000000 0.000000 -0.076086 0.000000
# 6 0.000000 0.000000 0.000000 0.000000 0.000000 0.036673
#
#
# Mechanical properties :
#
#
# Convention : Reuss Voigt Hill
#
# Bulk Modulus (GPa) = 61.68565 74.75512 68.22039
# Shear Modulus (GPa) = 72.76821 22.04233 47.40527
#
# Velocity S-wave (km/s) = 6.07574 3.34393 4.90390
# Velocity P-wave (km/s) = 8.97286 7.26855 8.16529
#
# Compressibility (1/GPa) = 0.01621122
#
# Stress axis : x y z
#
# Youngs Moduli (GPa) = 49.69500 57.63249 114.88388
#
# Poissons Ratio (x) = 0.36931 0.46831
# Poissons Ratio (y) = 0.31845 0.51689
# Poissons Ratio (z) = 0.20258 0.25930
#
# Static dielectric constant tensor:
#      x y z
#    x 3.343280 0.000000 0.000000 
#    y 0.000000 3.698110 0.000000 
#    z 0.000000 0.000000 4.021770 
# 
# 
# High freq. dielectric constant tensor:
#      x y z
#    x 1.757130 0.000000 0.000000 
#    y 0.000000 1.777140 0.000000 
#    z 0.000000 0.000000 1.780000 
# 
# From -- ./inp_files/12020.got.cif
#   From: 2010.03.12/outbox.cif.g09.slc.cpg/sg35_7_cif.got.tgz:12020.got - 2010.04.14 02:02:04.
