data_PCOD8173488
_publ_section_title
;
Structure prediction by ZEFSAII (Michael W. Deem and Ramdas Pophale) SiO2 
 PCOD8173488
Probable space group: C M M 2
;
_chemical_formula_sum "Si O2"
_cell_formula_units_Z 40
_cell_length_a 8.663684
_cell_length_b 15.684345
_cell_length_c 14.565853
_cell_angle_alpha 90.000000
_cell_angle_beta 90.000000
_cell_angle_gamma 90.000000
_cell_volume 1979.269411
_symmetry_space_group_name_H-M "C M M 2"
_symmetry_group_IT_number 35
_symmetry_cell_setting 'orthorhombic'
loop_
_space_group_symop_operation_xyz
x,y,z
-x,-y,z
-x,y,z
x,-y,z
1/2+x,1/2+y,z
1/2-x,1/2-y,z
1/2-x,1/2+y,z
1/2+x,1/2-y,z
loop_
_atom_site_type_symbol
_atom_site_label
_atom_site_fract_x
_atom_site_fract_y
_atom_site_fract_z
Si Si1 0.818010 0.162745 0.882940
Si Si2 0.316797 0.661451 0.462591
Si Si3 0.681577 0.000000 0.565695
Si Si4 0.183151 0.095683 0.271584
Si Si5 0.182391 0.000000 0.764168
Si Si6 0.816549 0.096257 0.072330
O O1 0.750000 0.250000 0.841545
O O2 0.767207 0.083339 0.820911
O O3 0.000000 0.169930 0.884040
O O4 0.751337 0.150664 0.986874
O O5 0.500000 0.661930 0.470300
O O6 0.250000 0.750000 0.501517
O O7 0.254220 0.584137 0.522186
O O8 0.257925 0.652039 0.356886
O O9 0.500000 0.000000 0.549089
O O10 0.719071 0.000000 0.672540
O O11 0.238264 0.132972 0.172162
O O12 0.000000 0.091592 0.273472
O O13 0.248594 0.000000 0.283986
O O14 0.000000 0.000000 0.742811
O O15 0.000000 0.095126 0.066943
O O16 0.754888 0.000000 0.062427
#
# Coordination Sequence:
#
# PCOD8173488 Si02
#       6
#     8   8   4   8   4   8
#     4  10  20  35  58  87 116 150 190 234 283 340
#     4  11  22  39  62  91 123 158 198 242 293 351
#     4  12  26  44  65  88 114 150 195 250 309 360
#     4   8  14  27  52  84 116 154 195 234 278 334
#     4  10  22  42  63  82 110 150 193 238 293 356
#     4   8  13  26  51  82 114 152 196 230 268 334
#
# _framework density 20.209475999999999
#
# number of rings (size 3 to 8) (size 9 to 14) (size 15 to 20)
#    0.000    2.400    2.000    2.700    0.000    2.400 
#    0.000    2.000    0.000    1.200    0.000    0.000 
#    0.000    0.000    0.000    0.000    0.000    0.000 
#
# Total GULP energy -247868.439189 kJ/mol
# GULP energy per Si atom -12393.421959 kJ/mol
# Density = 2.016348 g / cm^3
# Si number density = 20.209476 Si / 1000 Ang^3
#
#
#
# Elastic Constant Matrix: (Units=GPa)
#
#
# Indices 1 2 3 4 5 6 
#
# 1 51.6848 37.9362 39.5227 0.0000 0.0000 0.0000
# 2 37.9362 159.7356 72.7504 0.0000 0.0000 0.0000
# 3 39.5227 72.7504 138.2802 0.0000 0.0000 0.0000
# 4 0.0000 0.0000 0.0000 6.7605 0.0000 0.0000
# 5 0.0000 0.0000 0.0000 0.0000 15.9966 0.0000
# 6 0.0000 0.0000 0.0000 0.0000 0.0000 25.3192
#
#
#
# Elastic Compliance Matrix: (Units=1/GPa)
#
#
# Indices 1 2 3 4 5 6 
#
# 1 0.026337 -0.003717 -0.005572 0.000000 0.000000 0.000000
# 2 -0.003717 0.008758 -0.003545 0.000000 0.000000 0.000000
# 3 -0.005572 -0.003545 0.010689 0.000000 0.000000 0.000000
# 4 0.000000 0.000000 0.000000 0.147917 0.000000 0.000000
# 5 0.000000 0.000000 0.000000 0.000000 0.062513 0.000000
# 6 0.000000 0.000000 0.000000 0.000000 0.000000 0.039496
#
#
# Mechanical properties :
#
#
# Convention : Reuss Voigt Hill
#
# Bulk Modulus (GPa) = 49.71209 72.23546 60.97377
# Shear Modulus (GPa) = 15.23999 22.91468 19.07733
#
# Velocity S-wave (km/s) = 2.74907 3.37093 3.07576
# Velocity P-wave (km/s) = 5.89307 7.13946 6.54600
#
# Compressibility (1/GPa) = 0.02011583
#
# Stress axis : x y z
#
# Youngs Moduli (GPa) = 37.96902 114.18474 93.55109
#
# Poissons Ratio (x) = 0.42445 0.52126
# Poissons Ratio (y) = 0.14114 0.33165
# Poissons Ratio (z) = 0.21156 0.40479
#
# Static dielectric constant tensor:
#      x y z
#    x 3.152570 0.000000 0.000000 
#    y 0.000000 3.782190 0.000000 
#    z 0.000000 0.000000 4.080270 
# 
# 
# High freq. dielectric constant tensor:
#      x y z
#    x 1.743510 0.000000 0.000000 
#    y 0.000000 1.788120 0.000000 
#    z 0.000000 0.000000 1.799890 
# 
# From -- ./inp_files/14737.got.cif
#   From: 2010.03.12/outbox.cif.g09.slc.cpg/sg35_8_cif.got.tgz:14737.got - 2010.04.14 02:02:04.
