data_PCOD8173572
_publ_section_title
;
Structure prediction by ZEFSAII (Michael W. Deem and Ramdas Pophale) SiO2 
 PCOD8173572
Probable space group: C M M 2
;
_chemical_formula_sum "Si O2"
_cell_formula_units_Z 48
_cell_length_a 9.857451
_cell_length_b 17.551026
_cell_length_c 13.771828
_cell_angle_alpha 90.000000
_cell_angle_beta 90.000000
_cell_angle_gamma 90.000000
_cell_volume 2382.641635
_symmetry_space_group_name_H-M "C M M 2"
_symmetry_group_IT_number 35
_symmetry_cell_setting 'orthorhombic'
loop_
_space_group_symop_operation_xyz
x,y,z
-x,-y,z
-x,y,z
x,-y,z
1/2+x,1/2+y,z
1/2-x,1/2-y,z
1/2-x,1/2+y,z
1/2+x,1/2-y,z
loop_
_atom_site_type_symbol
_atom_site_label
_atom_site_fract_x
_atom_site_fract_y
_atom_site_fract_z
Si Si1 0.279694 0.090544 0.292580
Si Si2 0.218209 0.909838 0.739528
Si Si3 0.158010 0.176214 0.932524
Si Si4 0.152832 0.589925 0.079304
Si Si5 0.000000 0.909040 0.371276
Si Si6 0.500000 0.410093 0.587297
Si Si7 0.000000 0.409156 0.440992
Si Si8 0.000000 0.409544 0.658540
O O1 0.332522 0.120993 0.189258
O O2 0.128769 0.121015 0.311625
O O3 0.369945 0.120934 0.381786
O O4 0.286564 0.000000 0.291207
O O5 0.157240 0.871099 0.833849
O O6 0.370889 0.881587 0.719783
O O7 0.133019 0.883953 0.645659
O O8 0.209780 0.000000 0.755809
O O9 0.250000 0.250000 0.917292
O O10 0.000000 0.194544 0.959787
O O11 0.229022 0.127487 0.016539
O O12 0.176056 0.500000 0.074261
O O13 0.000000 0.610308 0.042517
O O14 0.000000 0.873747 0.479974
O O15 0.000000 0.000000 0.377650
O O16 0.500000 0.500000 0.576184
O O17 0.000000 0.500000 0.447311
O O18 0.000000 0.374521 0.549712
O O19 0.000000 0.500000 0.648976
#
# Coordination Sequence:
#
# PCOD8173572 Si02
#       8
#     8   8   8   8   4   4   4   4
#     4   9  16  27  46  77 119 156 184 221 275 333
#     4  10  20  36  58  86 118 150 188 237 286 337
#     4  12  27  44  62  83 110 149 195 245 297 352
#     4  10  21  38  61  89 120 153 190 237 288 341
#     4   9  16  24  43  77 118 154 183 225 274 329
#     4   9  16  30  50  79 118 154 187 227 282 333
#     4   9  14  26  45  75 118 156 185 219 270 329
#     4   9  18  28  50  85 120 156 189 223 272 335
#
# _framework density 20.145707000000002
#
# number of rings (size 3 to 8) (size 9 to 14) (size 15 to 20)
#    0.000    2.167    1.667    2.000    3.500    5.000 
#    0.000    0.000    0.000    0.000    0.000    7.000 
#    0.000    0.000    0.000    0.000    0.000    0.000 
#
# Total GULP energy -297510.070125 kJ/mol
# GULP energy per Si atom -12396.252922 kJ/mol
# Density = 2.009985 g / cm^3
# Si number density = 20.145707 Si / 1000 Ang^3
#
#
#
# Elastic Constant Matrix: (Units=GPa)
#
#
# Indices 1 2 3 4 5 6 
#
# 1 169.4941 25.0066 37.6560 0.0000 0.0000 0.0000
# 2 25.0066 31.6938 20.6309 0.0000 0.0000 0.0000
# 3 37.6560 20.6309 97.5858 0.0000 0.0000 0.0000
# 4 0.0000 0.0000 0.0000 -5.0180 0.0000 0.0000
# 5 0.0000 0.0000 0.0000 0.0000 51.0869 0.0000
# 6 0.0000 0.0000 0.0000 0.0000 0.0000 17.0424
#
#
#
# Elastic Compliance Matrix: (Units=1/GPa)
#
#
# Indices 1 2 3 4 5 6 
#
# 1 0.006928 -0.004321 -0.001760 0.000000 0.000000 0.000000
# 2 -0.004321 0.039282 -0.006637 0.000000 0.000000 0.000000
# 3 -0.001760 -0.006637 0.012330 0.000000 0.000000 0.000000
# 4 0.000000 0.000000 0.000000 -0.199284 0.000000 0.000000
# 5 0.000000 0.000000 0.000000 0.000000 0.019575 0.000000
# 6 0.000000 0.000000 0.000000 0.000000 0.000000 0.058677
#
#
# Mechanical properties :
#
#
# Convention : Reuss Voigt Hill
#
# Bulk Modulus (GPa) = 30.20842 51.70675 40.95758
# Shear Modulus (GPa) = -192.14938 26.98762 -82.58088
#
# Velocity S-wave (km/s) = -9.77685 3.66405 -6.40943
# Velocity P-wave (km/s) = 10.60291 6.60473 5.86512
#
# Compressibility (1/GPa) = 0.03310335
#
# Stress axis : x y z
#
# Youngs Moduli (GPa) = 144.33307 25.45719 81.10464
#
# Poissons Ratio (x) = 0.11000 0.14275
# Poissons Ratio (y) = 0.62365 0.53832
# Poissons Ratio (z) = 0.25403 0.16897
#
# Static dielectric constant tensor:
#      x y z
#    x 3.967850 0.000000 0.000000 
#    y 0.000000 3.055640 0.000000 
#    z 0.000000 0.000000 3.826950 
# 
# 
# High freq. dielectric constant tensor:
#      x y z
#    x 1.807540 0.000000 0.000000 
#    y 0.000000 1.717710 0.000000 
#    z 0.000000 0.000000 1.798790 
# 
# From -- ./inp_files/15307.got.cif
#   From: 2010.03.12/outbox.cif.g09.slc.cpg/sg35_8_cif.got.tgz:15307.got - 2010.04.14 02:02:04.
