data_PCOD8173468
_publ_section_title
;
Structure prediction by ZEFSAII (Michael W. Deem and Ramdas Pophale) SiO2 
 PCOD8173468
Probable space group: C M M 2
;
_chemical_formula_sum "Si O2"
_cell_formula_units_Z 48
_cell_length_a 17.664588
_cell_length_b 9.005644
_cell_length_c 15.400662
_cell_angle_alpha 90.000000
_cell_angle_beta 90.000000
_cell_angle_gamma 90.000000
_cell_volume 2449.952572
_symmetry_space_group_name_H-M "C M M 2"
_symmetry_group_IT_number 35
_symmetry_cell_setting 'orthorhombic'
loop_
_space_group_symop_operation_xyz
x,y,z
-x,-y,z
-x,y,z
x,-y,z
1/2+x,1/2+y,z
1/2-x,1/2-y,z
1/2-x,1/2+y,z
1/2+x,1/2-y,z
loop_
_atom_site_type_symbol
_atom_site_label
_atom_site_fract_x
_atom_site_fract_y
_atom_site_fract_z
Si Si1 0.087497 0.329000 0.344500
Si Si2 0.830488 0.324805 0.520835
Si Si3 0.410242 0.667218 0.675426
Si Si4 0.830150 0.824964 0.192075
Si Si5 0.409841 0.832537 0.844951
Si Si6 0.586959 0.326417 0.017541
O O1 0.102972 0.500000 0.320242
O O2 0.135540 0.280424 0.427966
O O3 0.110930 0.226700 0.264576
O O4 0.000000 0.301313 0.366096
O O5 0.822816 0.500000 0.531195
O O6 0.750000 0.250000 0.532201
O O7 0.886179 0.265175 0.594181
O O8 0.500000 0.665369 0.678799
O O9 0.378073 0.500000 0.667593
O O10 0.377424 0.740186 0.763545
O O11 0.750000 0.750000 0.208759
O O12 0.862859 0.776445 0.099073
O O13 0.820377 0.000000 0.198784
O O14 0.500000 0.829144 0.843615
O O15 0.378870 0.000000 0.839246
O O16 0.380581 0.759689 0.934155
O O17 0.500000 0.283137 0.036970
O O18 0.594148 0.500000 0.998411
#
# Coordination Sequence:
#
# PCOD8173468 Si02
#       6
#     8   8   8   8   8   8
#     4  10  22  40  62  87 113 143 182 229 278 329
#     4  11  23  39  58  82 114 149 185 227 277 332
#     4  10  20  35  57  84 113 147 188 233 279 328
#     4  11  23  38  57  82 114 151 188 229 278 331
#     4   9  17  30  52  82 112 143 182 230 281 330
#     4   9  18  34  55  79 108 143 185 232 280 331
#
# _framework density 19.592214999999999
#
# number of rings (size 3 to 8) (size 9 to 14) (size 15 to 20)
#    0.000    2.000    0.000    3.500    0.000    8.667 
#    0.000    2.500    0.000    2.000    0.000    0.000 
#    0.000    0.000    0.000    0.000    0.000    0.000 
#
# Total GULP energy -297701.715546 kJ/mol
# GULP energy per Si atom -12404.238148 kJ/mol
# Density = 1.954762 g / cm^3
# Si number density = 19.592215 Si / 1000 Ang^3
#
#
#
# Elastic Constant Matrix: (Units=GPa)
#
#
# Indices 1 2 3 4 5 6 
#
# 1 35.5036 20.9985 12.7158 0.0000 0.0000 0.0000
# 2 20.9985 99.9782 66.5977 0.0000 0.0000 0.0000
# 3 12.7158 66.5977 135.0771 0.0000 0.0000 0.0000
# 4 0.0000 0.0000 0.0000 40.8010 0.0000 0.0000
# 5 0.0000 0.0000 0.0000 0.0000 11.7438 0.0000
# 6 0.0000 0.0000 0.0000 0.0000 0.0000 26.1618
#
#
#
# Elastic Compliance Matrix: (Units=1/GPa)
#
#
# Indices 1 2 3 4 5 6 
#
# 1 0.032180 -0.007059 0.000451 0.000000 0.000000 0.000000
# 2 -0.007059 0.016442 -0.007442 0.000000 0.000000 0.000000
# 3 0.000451 -0.007442 0.011030 0.000000 0.000000 0.000000
# 4 0.000000 0.000000 0.000000 0.024509 0.000000 0.000000
# 5 0.000000 0.000000 0.000000 0.000000 0.085151 0.000000
# 6 0.000000 0.000000 0.000000 0.000000 0.000000 0.038224
#
#
# Mechanical properties :
#
#
# Convention : Reuss Voigt Hill
#
# Bulk Modulus (GPa) = 31.69418 52.35365 42.02392
# Shear Modulus (GPa) = 20.31253 27.09110 23.70182
#
# Velocity S-wave (km/s) = 3.22338 3.72257 3.48193
# Velocity P-wave (km/s) = 5.48321 6.72728 6.13685
#
# Compressibility (1/GPa) = 0.03155153
#
# Stress axis : x y z
#
# Youngs Moduli (GPa) = 31.07545 60.81934 90.66278
#
# Poissons Ratio (x) = 0.42934 -0.04090
# Poissons Ratio (y) = 0.21937 0.67471
# Poissons Ratio (z) = -0.01402 0.45262
#
# Static dielectric constant tensor:
#      x y z
#    x 3.333240 0.000000 0.000000 
#    y 0.000000 3.718550 0.000000 
#    z 0.000000 0.000000 3.709750 
# 
# 
# High freq. dielectric constant tensor:
#      x y z
#    x 1.743700 0.000000 0.000000 
#    y 0.000000 1.771830 0.000000 
#    z 0.000000 0.000000 1.778780 
# 
# From -- ./inp_files/15092.got.cif
#   From: 2010.03.12/outbox.cif.g09.slc.cpg/sg35_8_cif.got.tgz:15092.got - 2010.04.14 02:02:04.
