data_PCOD8173048
_publ_section_title
;
Structure prediction by ZEFSAII (Michael W. Deem and Ramdas Pophale) SiO2 
 PCOD8173048
Probable space group: C M M 2
;
_chemical_formula_sum "Si O2"
_cell_formula_units_Z 56
_cell_length_a 9.669487
_cell_length_b 18.343595
_cell_length_c 17.993701
_cell_angle_alpha 90.000000
_cell_angle_beta 90.000000
_cell_angle_gamma 90.000000
_cell_volume 3191.599487
_symmetry_space_group_name_H-M "C M M 2"
_symmetry_group_IT_number 35
_symmetry_cell_setting 'orthorhombic'
loop_
_space_group_symop_operation_xyz
x,y,z
-x,-y,z
-x,y,z
x,-y,z
1/2+x,1/2+y,z
1/2-x,1/2-y,z
1/2-x,1/2+y,z
1/2+x,1/2-y,z
loop_
_atom_site_type_symbol
_atom_site_label
_atom_site_fract_x
_atom_site_fract_y
_atom_site_fract_z
Si Si1 0.159957 0.584028 0.904160
Si Si2 0.661716 0.177369 0.047219
Si Si3 0.335785 0.418970 0.487235
Si Si4 0.160004 0.584282 0.190308
Si Si5 0.658323 0.415996 0.766886
Si Si6 0.153879 0.086771 0.324007
Si Si7 0.662413 0.322172 0.622916
O O1 0.194306 0.500000 0.922384
O O2 0.247840 0.612662 0.834392
O O3 0.000000 0.594214 0.883907
O O4 0.202466 0.631203 0.975041
O O5 0.500000 0.197128 0.047685
O O6 0.750000 0.250000 0.048155
O O7 0.702923 0.129371 0.118150
O O8 0.500000 0.424856 0.491302
O O9 0.273260 0.500000 0.500790
O O10 0.292566 0.388381 0.405691
O O11 0.281581 0.364242 0.550151
O O12 0.196475 0.500000 0.174791
O O13 0.244434 0.616305 0.260324
O O14 0.000000 0.593857 0.209768
O O15 0.500000 0.404525 0.790738
O O16 0.690286 0.500000 0.749040
O O17 0.695212 0.371668 0.693641
O O18 0.000000 0.117617 0.308295
O O19 0.150299 0.000000 0.323850
O O20 0.500000 0.303802 0.616799
O O21 0.750000 0.250000 0.631764
#
# Coordination Sequence:
#
# PCOD8173048 Si02
#       7
#     8   8   8   8   8   8   8
#     4   9  18  34  55  75  95 122 157 196 238 283
#     4  10  21  35  50  70  97 129 162 194 232 281
#     4   8  14  28  51  73  92 121 162 201 235 276
#     4   9  17  31  51  72  95 124 158 196 238 283
#     4   9  18  33  53  75  96 121 158 200 237 276
#     4   8  14  26  47  74  97 118 153 200 242 279
#     4  10  20  33  49  70  98 130 161 194 234 281
#
# _framework density 17.546061000000002
#
# number of rings (size 3 to 8) (size 9 to 14) (size 15 to 20)
#    0.000    3.000    0.000    1.714    0.000    5.714 
#    0.000    4.286    0.000    9.857    0.000    0.000 
#    0.000    0.000    0.000    0.000    0.000    0.000 
#
# Total GULP energy -347158.411551 kJ/mol
# GULP energy per Si atom -12398.514698 kJ/mol
# Density = 1.750613 g / cm^3
# Si number density = 17.546061 Si / 1000 Ang^3
#
#
#
# Elastic Constant Matrix: (Units=GPa)
#
#
# Indices 1 2 3 4 5 6 
#
# 1 61.9496 48.5173 75.9181 0.0000 0.0000 0.0000
# 2 48.5173 81.6634 73.7808 0.0000 0.0000 0.0000
# 3 75.9181 73.7808 182.1095 0.0000 0.0000 0.0000
# 4 0.0000 0.0000 0.0000 2.3796 0.0000 0.0000
# 5 0.0000 0.0000 0.0000 0.0000 30.1081 0.0000
# 6 0.0000 0.0000 0.0000 0.0000 0.0000 25.7503
#
#
#
# Elastic Compliance Matrix: (Units=1/GPa)
#
#
# Indices 1 2 3 4 5 6 
#
# 1 0.041308 -0.014170 -0.011479 0.000000 0.000000 0.000000
# 2 -0.014170 0.024176 -0.003888 0.000000 0.000000 0.000000
# 3 -0.011479 -0.003888 0.011852 0.000000 0.000000 0.000000
# 4 0.000000 0.000000 0.000000 0.420230 0.000000 0.000000
# 5 0.000000 0.000000 0.000000 0.000000 0.033214 0.000000
# 6 0.000000 0.000000 0.000000 0.000000 0.000000 0.038834
#
#
# Mechanical properties :
#
#
# Convention : Reuss Voigt Hill
#
# Bulk Modulus (GPa) = 54.76002 80.23944 67.49973
# Shear Modulus (GPa) = 7.87680 20.14804 14.01242
#
# Velocity S-wave (km/s) = 2.12107 3.39233 2.82903
# Velocity P-wave (km/s) = 6.10538 7.82137 7.01604
#
# Compressibility (1/GPa) = 0.01826150
#
# Stress axis : x y z
#
# Youngs Moduli (GPa) = 24.20859 41.36253 84.37467
#
# Poissons Ratio (x) = 0.58611 0.96858
# Poissons Ratio (y) = 0.34304 0.32803
# Poissons Ratio (z) = 0.27790 0.16081
#
# Static dielectric constant tensor:
#      x y z
#    x 3.154240 0.000000 0.000000 
#    y 0.000000 3.114560 0.000000 
#    z 0.000000 0.000000 3.577240 
# 
# 
# High freq. dielectric constant tensor:
#      x y z
#    x 1.659270 0.000000 0.000000 
#    y 0.000000 1.658750 0.000000 
#    z 0.000000 0.000000 1.693860 
# 
# From -- ./inp_files/16378.got.cif
#   From: 2010.03.12/outbox.cif.g09.slc.cpg/sg35_9_cif.got.tgz:16378.got - 2010.04.14 02:02:04.
