data_PCOD8173806
_publ_section_title
;
Structure prediction by ZEFSAII (Michael W. Deem and Ramdas Pophale) SiO2 
 PCOD8173806
Probable space group: C M M 2
;
_chemical_formula_sum "Si O2"
_cell_formula_units_Z 40
_cell_length_a 29.843976
_cell_length_b 9.044981
_cell_length_c 7.481280
_cell_angle_alpha 90.000000
_cell_angle_beta 90.000000
_cell_angle_gamma 90.000000
_cell_volume 2019.483226
_symmetry_space_group_name_H-M "C M M 2"
_symmetry_group_IT_number 35
_symmetry_cell_setting 'orthorhombic'
loop_
_space_group_symop_operation_xyz
x,y,z
-x,-y,z
-x,y,z
x,-y,z
1/2+x,1/2+y,z
1/2-x,1/2-y,z
1/2-x,1/2+y,z
1/2+x,1/2-y,z
loop_
_atom_site_type_symbol
_atom_site_label
_atom_site_fract_x
_atom_site_fract_y
_atom_site_fract_z
Si Si1 0.051765 0.173252 0.026300
Si Si2 0.390980 0.172473 0.732157
Si Si3 0.208281 0.327277 0.733413
Si Si4 0.389624 0.670976 0.355323
Si Si5 0.209165 0.170813 0.352622
O O1 0.075142 0.227544 0.208686
O O2 0.000000 0.215827 0.040047
O O3 0.059463 0.000000 0.999401
O O4 0.072287 0.254053 0.856633
O O5 0.341137 0.201546 0.815868
O O6 0.396187 0.235315 0.533368
O O7 0.400859 0.000000 0.720397
O O8 0.218425 0.500000 0.717676
O O9 0.250000 0.250000 0.841529
O O10 0.206900 0.252150 0.541208
O O11 0.397534 0.500000 0.405941
O O12 0.340011 0.691341 0.266527
O O13 0.250000 0.250000 0.241733
O O14 0.221352 0.000000 0.377347
#
# Coordination Sequence:
#
# PCOD8173806 Si02
#       5
#     8   8   8   8   8
#     4  10  22  40  60  80 104 139 185 233 276 323
#     4  10  21  36  56  84 115 145 178 221 275 328
#     4   9  16  27  46  74 107 142 178 214 256 310
#     4   9  19  36  57  81 109 143 183 225 269 319
#     4   9  15  25  45  73 105 139 174 214 260 312
#
# _framework density 19.807046
#
# number of rings (size 3 to 8) (size 9 to 14) (size 15 to 20)
#    0.000    2.600    0.000    3.000    0.000    5.200 
#    0.000    3.000    0.000    4.800    0.000    0.000 
#    0.000    0.000    0.000    0.000    0.000    0.000 
#
# Total GULP energy -247811.358791 kJ/mol
# GULP energy per Si atom -12390.567940 kJ/mol
# Density = 1.976196 g / cm^3
# Si number density = 19.807046 Si / 1000 Ang^3
#
#
#
# Elastic Constant Matrix: (Units=GPa)
#
#
# Indices 1 2 3 4 5 6 
#
# 1 178.4157 74.1601 70.2689 0.0000 0.0000 0.0000
# 2 74.1601 101.5709 41.0570 0.0000 0.0000 0.0000
# 3 70.2689 41.0570 78.0303 0.0000 0.0000 0.0000
# 4 0.0000 0.0000 0.0000 -4.8511 0.0000 0.0000
# 5 0.0000 0.0000 0.0000 0.0000 -13.0985 0.0000
# 6 0.0000 0.0000 0.0000 0.0000 0.0000 33.0505
#
#
#
# Elastic Compliance Matrix: (Units=1/GPa)
#
#
# Indices 1 2 3 4 5 6 
#
# 1 0.010220 -0.004753 -0.006703 0.000000 0.000000 0.000000
# 2 -0.004753 0.014715 -0.003463 0.000000 0.000000 0.000000
# 3 -0.006703 -0.003463 0.020674 0.000000 0.000000 0.000000
# 4 0.000000 0.000000 0.000000 -0.206139 0.000000 0.000000
# 5 0.000000 0.000000 0.000000 0.000000 -0.076345 0.000000
# 6 0.000000 0.000000 0.000000 0.000000 0.000000 0.030257
#
#
# Mechanical properties :
#
#
# Convention : Reuss Voigt Hill
#
# Bulk Modulus (GPa) = 63.40171 80.99878 72.20024
# Shear Modulus (GPa) = -29.15051 14.52225 -7.31413
#
# Velocity S-wave (km/s) = -3.84047 2.71068 -1.92372
# Velocity P-wave (km/s) = 3.52329 7.12599 5.62109
#
# Compressibility (1/GPa) = 0.01577245
#
# Stress axis : x y z
#
# Youngs Moduli (GPa) = 97.84355 67.95736 48.37035
#
# Poissons Ratio (x) = 0.32298 0.32423
# Poissons Ratio (y) = 0.46502 0.16749
# Poissons Ratio (z) = 0.65585 0.23531
#
# Static dielectric constant tensor:
#      x y z
#    x 4.650920 0.000000 0.000000 
#    y 0.000000 3.656970 0.000000 
#    z 0.000000 0.000000 3.120070 
# 
# 
# High freq. dielectric constant tensor:
#      x y z
#    x 1.791860 0.000000 0.000000 
#    y 0.000000 1.776750 0.000000 
#    z 0.000000 0.000000 1.731920 
# 
# From -- ./inp_files/5117.got.cif
#   From: 2010.03.12/outbox.cif.g09.slc.cpg/sg35_3_cif.got.tgz:5117.got - 2010.04.14 02:02:04.
