data_PCOD8173411
_publ_section_title
;
Structure prediction by ZEFSAII (Michael W. Deem and Ramdas Pophale) SiO2 
 PCOD8173411
Probable space group: C M M 2
;
_chemical_formula_sum "Si O2"
_cell_formula_units_Z 64
_cell_length_a 23.501685
_cell_length_b 14.775868
_cell_length_c 8.912352
_cell_angle_alpha 90.000000
_cell_angle_beta 90.000000
_cell_angle_gamma 90.000000
_cell_volume 3094.883707
_symmetry_space_group_name_H-M "C M M 2"
_symmetry_group_IT_number 35
_symmetry_cell_setting 'orthorhombic'
loop_
_space_group_symop_operation_xyz
x,y,z
-x,-y,z
-x,y,z
x,-y,z
1/2+x,1/2+y,z
1/2-x,1/2-y,z
1/2-x,1/2+y,z
1/2+x,1/2-y,z
loop_
_atom_site_type_symbol
_atom_site_label
_atom_site_fract_x
_atom_site_fract_y
_atom_site_fract_z
Si Si1 0.436999 0.400146 0.160470
Si Si2 0.348961 0.106258 0.859013
Si Si3 0.434302 0.764500 0.696444
Si Si4 0.832511 0.397406 0.207817
Si Si5 0.611866 0.263908 0.367843
Si Si6 0.228698 0.846261 0.403129
Si Si7 0.234071 0.100003 0.727940
Si Si8 0.883461 0.104835 0.852309
O O1 0.500000 0.398418 0.088001
O O2 0.425837 0.500000 0.232176
O O3 0.436875 0.320646 0.284232
O O4 0.390749 0.382641 0.030306
O O5 0.403689 0.161313 0.801983
O O6 0.293487 0.147004 0.773224
O O7 0.359592 0.000000 0.825147
O O8 0.336578 0.124385 0.032992
O O9 0.500000 0.792894 0.680392
O O10 0.404446 0.760227 0.535758
O O11 0.430629 0.664899 0.768676
O O12 0.851342 0.500000 0.241389
O O13 0.876548 0.332499 0.291618
O O14 0.767917 0.383220 0.267930
O O15 0.664653 0.333133 0.346998
O O16 0.250000 0.750000 0.463703
O O17 0.229626 0.909806 0.548358
O O18 0.178175 0.145373 0.802439
O O19 0.236764 0.000000 0.798501
O O20 0.891092 0.000000 0.803395
#
# Coordination Sequence:
#
# PCOD8173411 Si02
#       8
#     8   8   8   8   8   8   8   8
#     4  10  22  40  61  86 124 169 212 264 318 378
#     4  10  23  42  65  95 126 161 211 268 324 383
#     4  12  25  42  66  90 124 172 217 269 323 377
#     4  10  22  40  63  91 127 166 204 260 328 387
#     4  11  23  40  59  92 124 166 217 263 314 390
#     4  10  20  35  55  88 125 162 200 246 313 379
#     4  10  20  36  60  90 124 161 199 251 318 379
#     4  10  22  39  61  92 124 164 211 257 317 380
#
# _framework density 20.679290000000002
#
# number of rings (size 3 to 8) (size 9 to 14) (size 15 to 20)
#    0.000    1.625    1.250    3.375    1.750    4.000 
#    2.250    0.625    0.000    2.625    0.000    0.000 
#    0.000    0.000    0.000    0.000    0.000    0.000 
#
# Total GULP energy -396724.358857 kJ/mol
# GULP energy per Si atom -12397.636214 kJ/mol
# Density = 2.063222 g / cm^3
# Si number density = 20.679290 Si / 1000 Ang^3
#
#
#
# Elastic Constant Matrix: (Units=GPa)
#
#
# Indices 1 2 3 4 5 6 
#
# 1 101.2460 44.0771 43.5853 0.0000 0.0000 0.0000
# 2 44.0771 102.6221 56.5790 0.0000 0.0000 0.0000
# 3 43.5853 56.5790 126.6568 0.0000 0.0000 0.0000
# 4 0.0000 0.0000 0.0000 34.0644 0.0000 0.0000
# 5 0.0000 0.0000 0.0000 0.0000 28.8674 0.0000
# 6 0.0000 0.0000 0.0000 0.0000 0.0000 26.6057
#
#
#
# Elastic Compliance Matrix: (Units=1/GPa)
#
#
# Indices 1 2 3 4 5 6 
#
# 1 0.012752 -0.004057 -0.002576 0.000000 0.000000 0.000000
# 2 -0.004057 0.014219 -0.004956 0.000000 0.000000 0.000000
# 3 -0.002576 -0.004956 0.010996 0.000000 0.000000 0.000000
# 4 0.000000 0.000000 0.000000 0.029356 0.000000 0.000000
# 5 0.000000 0.000000 0.000000 0.000000 0.034641 0.000000
# 6 0.000000 0.000000 0.000000 0.000000 0.000000 0.037586
#
#
# Mechanical properties :
#
#
# Convention : Reuss Voigt Hill
#
# Bulk Modulus (GPa) = 67.61552 68.77863 68.19707
# Shear Modulus (GPa) = 29.82273 30.32642 30.07457
#
# Velocity S-wave (km/s) = 3.80169 3.83366 3.81771
# Velocity P-wave (km/s) = 7.21378 7.27515 7.24453
#
# Compressibility (1/GPa) = 0.01478950
#
# Stress axis : x y z
#
# Youngs Moduli (GPa) = 78.41902 70.32704 90.94516
#
# Poissons Ratio (x) = 0.28531 0.23427
# Poissons Ratio (y) = 0.31814 0.45071
# Poissons Ratio (z) = 0.20201 0.34853
#
# Static dielectric constant tensor:
#      x y z
#    x 3.789430 0.000000 0.000000 
#    y 0.000000 3.757910 0.000000 
#    z 0.000000 0.000000 3.579730 
# 
# 
# High freq. dielectric constant tensor:
#      x y z
#    x 1.802690 0.000000 0.000000 
#    y 0.000000 1.813430 0.000000 
#    z 0.000000 0.000000 1.808590 
# 
# From -- ./inp_files/7880.got.cif
#   From: 2010.03.12/outbox.cif.g09.slc.cpg/sg35_4_cif.got.tgz:7880.got - 2010.04.14 02:02:04.
