data_PCOD8173448
_publ_section_title
;
Structure prediction by ZEFSAII (Michael W. Deem and Ramdas Pophale) SiO2 
 PCOD8173448
Probable space group: C M M 2
;
_chemical_formula_sum "Si O2"
_cell_formula_units_Z 64
_cell_length_a 29.656133
_cell_length_b 8.700099
_cell_length_c 12.442395
_cell_angle_alpha 90.000000
_cell_angle_beta 90.000000
_cell_angle_gamma 90.000000
_cell_volume 3210.278423
_symmetry_space_group_name_H-M "C M M 2"
_symmetry_group_IT_number 35
_symmetry_cell_setting 'orthorhombic'
loop_
_space_group_symop_operation_xyz
x,y,z
-x,-y,z
-x,y,z
x,-y,z
1/2+x,1/2+y,z
1/2-x,1/2-y,z
1/2-x,1/2+y,z
1/2+x,1/2-y,z
loop_
_atom_site_type_symbol
_atom_site_label
_atom_site_fract_x
_atom_site_fract_y
_atom_site_fract_z
Si Si1 0.893634 0.676579 0.875000
Si Si2 0.795655 0.317674 0.400373
Si Si3 0.952518 0.678158 0.318206
Si Si4 0.184702 0.821572 0.169264
Si Si5 0.903580 0.673728 0.114462
Si Si6 0.794839 0.318524 0.944804
Si Si7 0.111640 0.681862 0.497076
Si Si8 0.447954 0.680651 0.685903
O O1 0.894947 0.500000 0.835746
O O2 0.841189 0.733477 0.884338
O O3 0.924414 0.778768 0.798331
O O4 0.917096 0.696983 0.991088
O O5 0.793916 0.500000 0.392347
O O6 0.750000 0.250000 0.452751
O O7 0.799327 0.252698 0.280177
O O8 0.836428 0.266030 0.480146
O O9 0.955018 0.500000 0.347605
O O10 0.946461 0.698917 0.190436
O O11 0.912652 0.747263 0.389868
O O12 0.000000 0.757865 0.349121
O O13 0.131512 0.799089 0.156250
O O14 0.197531 0.000000 0.169092
O O15 0.207374 0.738970 0.067462
O O16 0.883449 0.500000 0.129069
O O17 0.792492 0.500000 0.943637
O O18 0.750000 0.250000 0.886046
O O19 0.109352 0.500000 0.510357
O O20 0.085967 0.753176 0.597512
O O21 0.500000 0.745163 0.678682
O O22 0.449891 0.500000 0.672976
#
# Coordination Sequence:
#
# PCOD8173448 Si02
#       8
#     8   8   8   8   8   8   8   8
#     4   9  20  37  60  86 115 152 196 244 288 343
#     4  11  22  37  57  84 117 154 195 241 290 343
#     4   9  16  29  54  86 115 145 182 230 291 350
#     4  11  20  31  51  80 117 162 201 236 280 337
#     4   9  17  33  54  82 119 153 189 239 290 341
#     4  10  20  35  56  85 120 156 197 242 287 340
#     4  10  21  39  63  85 113 151 195 244 289 346
#     4  11  25  43  63  87 116 150 192 246 299 348
#
# _framework density 19.935964999999999
#
# number of rings (size 3 to 8) (size 9 to 14) (size 15 to 20)
#    0.000    2.000    1.250    3.750    0.000    5.500 
#    0.000    1.875    0.000    0.375    0.000    0.000 
#    0.000    0.000    0.000    0.000    0.000    0.000 
#
# Total GULP energy -396494.975076 kJ/mol
# GULP energy per Si atom -12390.467971 kJ/mol
# Density = 1.989059 g / cm^3
# Si number density = 19.935965 Si / 1000 Ang^3
#
#
#
# Elastic Constant Matrix: (Units=GPa)
#
#
# Indices 1 2 3 4 5 6 
#
# 1 163.8555 42.0390 66.2875 0.0000 0.0000 0.0000
# 2 42.0390 63.8282 24.8601 0.0000 0.0000 0.0000
# 3 66.2875 24.8601 97.8946 0.0000 0.0000 0.0000
# 4 0.0000 0.0000 0.0000 19.3115 0.0000 0.0000
# 5 0.0000 0.0000 0.0000 0.0000 17.3816 0.0000
# 6 0.0000 0.0000 0.0000 0.0000 0.0000 26.6605
#
#
#
# Elastic Compliance Matrix: (Units=1/GPa)
#
#
# Indices 1 2 3 4 5 6 
#
# 1 0.009266 -0.004061 -0.005243 0.000000 0.000000 0.000000
# 2 -0.004061 0.019166 -0.002118 0.000000 0.000000 0.000000
# 3 -0.005243 -0.002118 0.014303 0.000000 0.000000 0.000000
# 4 0.000000 0.000000 0.000000 0.051783 0.000000 0.000000
# 5 0.000000 0.000000 0.000000 0.000000 0.057532 0.000000
# 6 0.000000 0.000000 0.000000 0.000000 0.000000 0.037509
#
#
# Mechanical properties :
#
#
# Convention : Reuss Voigt Hill
#
# Bulk Modulus (GPa) = 50.26998 65.77238 58.02118
# Shear Modulus (GPa) = 22.82775 25.49684 24.16230
#
# Velocity S-wave (km/s) = 3.38753 3.58010 3.48515
# Velocity P-wave (km/s) = 6.36954 7.08188 6.73513
#
# Compressibility (1/GPa) = 0.01989259
#
# Stress axis : x y z
#
# Youngs Moduli (GPa) = 107.92414 52.17496 69.91537
#
# Poissons Ratio (x) = 0.21186 0.36656
# Poissons Ratio (y) = 0.43824 0.14806
# Poissons Ratio (z) = 0.56584 0.11049
#
# Static dielectric constant tensor:
#      x y z
#    x 4.180600 0.000000 0.000000 
#    y 0.000000 3.463290 0.000000 
#    z 0.000000 0.000000 3.499200 
# 
# 
# High freq. dielectric constant tensor:
#      x y z
#    x 1.791560 0.000000 0.000000 
#    y 0.000000 1.756950 0.000000 
#    z 0.000000 0.000000 1.759800 
# 
# From -- ./inp_files/14544.got.cif
#   From: 2010.03.12/outbox.cif.g09.slc.cpg/sg35_8_cif.got.tgz:14544.got - 2010.04.14 02:02:04.
