data_PCOD8173579
_publ_section_title
;
Structure prediction by ZEFSAII (Michael W. Deem and Ramdas Pophale) SiO2 
 PCOD8173579
Probable space group: C M M 2
;
_chemical_formula_sum "Si O2"
_cell_formula_units_Z 64
_cell_length_a 29.996705
_cell_length_b 9.123635
_cell_length_c 12.284904
_cell_angle_alpha 90.000000
_cell_angle_beta 90.000000
_cell_angle_gamma 90.000000
_cell_volume 3362.120090
_symmetry_space_group_name_H-M "C M M 2"
_symmetry_group_IT_number 35
_symmetry_cell_setting 'orthorhombic'
loop_
_space_group_symop_operation_xyz
x,y,z
-x,-y,z
-x,y,z
x,-y,z
1/2+x,1/2+y,z
1/2-x,1/2-y,z
1/2-x,1/2+y,z
1/2+x,1/2-y,z
loop_
_atom_site_type_symbol
_atom_site_label
_atom_site_fract_x
_atom_site_fract_y
_atom_site_fract_z
Si Si1 0.798090 0.673902 0.931360
Si Si2 0.128057 0.826326 0.072724
Si Si3 0.049485 0.674426 0.465683
Si Si4 0.296785 0.170518 0.459696
Si Si5 0.374973 0.173963 0.302020
Si Si6 0.704621 0.832520 0.695041
Si Si7 0.052860 0.661563 0.702463
Si Si8 0.449665 0.328625 0.912500
O O1 0.793824 0.500000 0.954227
O O2 0.750000 0.750000 0.942095
O O3 0.819323 0.706660 0.810029
O O4 0.830194 0.746433 0.018763
O O5 0.123205 0.766722 0.193383
O O6 0.136260 0.000000 0.072733
O O7 0.082396 0.783541 0.011273
O O8 0.048384 0.500000 0.473596
O O9 0.082651 0.726705 0.372048
O O10 0.066059 0.730727 0.584943
O O11 0.000000 0.734967 0.438188
O O12 0.250000 0.250000 0.442245
O O13 0.330895 0.221641 0.367325
O O14 0.319926 0.201780 0.579559
O O15 0.286753 0.000000 0.447455
O O16 0.376138 0.000000 0.278638
O O17 0.750000 0.750000 0.688006
O O18 0.718244 0.000000 0.700577
O O19 0.074545 0.500000 0.716785
O O20 0.070074 0.760372 0.801526
O O21 0.000000 0.648719 0.706167
O O22 0.500000 0.272383 0.938497
O O23 0.449820 0.500000 0.893444
#
# Coordination Sequence:
#
# PCOD8173579 Si02
#       8
#     8   8   8   8   8   8   8   8
#     4  10  20  36  59  84 110 139 172 212 261 316
#     4  11  24  39  53  73 104 141 184 228 266 309
#     4   8  15  30  53  80 108 135 164 208 267 322
#     4   9  18  33  53  77 104 133 164 203 252 302
#     4  10  21  36  53  74 101 135 178 220 257 306
#     4   8  15  29  51  79 106 131 161 200 249 306
#     4   8  14  27  51  82 109 132 164 208 260 321
#     4   9  19  36  55  75 104 141 176 216 269 321
#
# _framework density 19.035608
#
# number of rings (size 3 to 8) (size 9 to 14) (size 15 to 20)
#    0.000    2.875    0.000    1.500    0.000    4.000 
#    0.000    4.375    0.000    0.750    0.000    0.000 
#    0.000    0.000    0.000    0.000    0.000    0.000 
#
# Total GULP energy -396465.906761 kJ/mol
# GULP energy per Si atom -12389.559586 kJ/mol
# Density = 1.899228 g / cm^3
# Si number density = 19.035608 Si / 1000 Ang^3
#
#
#
# Elastic Constant Matrix: (Units=GPa)
#
#
# Indices 1 2 3 4 5 6 
#
# 1 103.1480 40.0578 79.0837 0.0000 0.0000 0.0000
# 2 40.0578 52.2368 56.4568 0.0000 0.0000 0.0000
# 3 79.0837 56.4568 185.5085 0.0000 0.0000 0.0000
# 4 0.0000 0.0000 0.0000 26.9774 0.0000 0.0000
# 5 0.0000 0.0000 0.0000 0.0000-1907.5423 0.0000
# 6 0.0000 0.0000 0.0000 0.0000 0.0000 19.0605
#
#
#
# Elastic Compliance Matrix: (Units=1/GPa)
#
#
# Indices 1 2 3 4 5 6 
#
# 1 0.016093 -0.007340 -0.004626 0.000000 0.000000 0.000000
# 2 -0.007340 0.031875 -0.006571 0.000000 0.000000 0.000000
# 3 -0.004626 -0.006571 0.009363 0.000000 0.000000 0.000000
# 4 0.000000 0.000000 0.000000 0.037068 0.000000 0.000000
# 5 0.000000 0.000000 0.000000 0.000000 -0.000524 0.000000
# 6 0.000000 0.000000 0.000000 0.000000 0.000000 0.052465
#
#
# Mechanical properties :
#
#
# Convention : Reuss Voigt Hill
#
# Bulk Modulus (GPa) = 49.37356 76.89888 63.13622
# Shear Modulus (GPa) = 26.29276 -361.28122 -167.49423
#
# Velocity S-wave (km/s) = 3.72054 -13.79146 -9.39047
# Velocity P-wave (km/s) = 6.66711 14.59865 9.18342
#
# Compressibility (1/GPa) = 0.02025376
#
# Stress axis : x y z
#
# Youngs Moduli (GPa) = 62.14044 31.37268 106.80587
#
# Poissons Ratio (x) = 0.23029 0.49413
# Poissons Ratio (y) = 0.45614 0.70186
# Poissons Ratio (z) = 0.28749 0.20616
#
# Static dielectric constant tensor:
#      x y z
#    x 3.769520 0.000000 0.000000 
#    y 0.000000 3.337060 0.000000 
#    z 0.000000 0.000000 3.886130 
# 
# 
# High freq. dielectric constant tensor:
#      x y z
#    x 1.728020 0.000000 0.000000 
#    y 0.000000 1.720950 0.000000 
#    z 0.000000 0.000000 1.752430 
# 
# From -- ./inp_files/11868.got.cif
#   From: 2010.03.12/outbox.cif.g09.slc.cpg/sg35_6_cif.got.tgz:11868.got - 2010.04.14 02:02:04.
