data_PCOD8173729
_publ_section_title
;
Structure prediction by ZEFSAII (Michael W. Deem and Ramdas Pophale) SiO2 
 PCOD8173729
Probable space group: C M M 2
;
_chemical_formula_sum "Si O2"
_cell_formula_units_Z 64
_cell_length_a 28.411383
_cell_length_b 9.051609
_cell_length_c 14.322267
_cell_angle_alpha 90.000000
_cell_angle_beta 90.000000
_cell_angle_gamma 90.000000
_cell_volume 3683.239216
_symmetry_space_group_name_H-M "C M M 2"
_symmetry_group_IT_number 35
_symmetry_cell_setting 'orthorhombic'
loop_
_space_group_symop_operation_xyz
x,y,z
-x,-y,z
-x,y,z
x,-y,z
1/2+x,1/2+y,z
1/2-x,1/2-y,z
1/2-x,1/2+y,z
1/2+x,1/2-y,z
loop_
_atom_site_type_symbol
_atom_site_label
_atom_site_fract_x
_atom_site_fract_y
_atom_site_fract_z
Si Si1 0.299526 0.670842 0.195640
Si Si2 0.200211 0.825425 0.695637
Si Si3 0.555109 0.826416 0.195637
Si Si4 0.125492 0.175157 0.547468
Si Si5 0.552170 0.323809 0.695640
Si Si6 0.121217 0.175025 0.337675
Si Si7 0.374507 0.675157 0.843809
Si Si8 0.121218 0.824974 0.053603
O O1 0.287719 0.500000 0.195637
O O2 0.250000 0.750000 0.195642
O O3 0.329803 0.714785 0.286756
O O4 0.329802 0.714791 0.104524
O O5 0.250000 0.750000 0.695636
O O6 0.171996 0.773124 0.603199
O O7 0.171997 0.773125 0.788077
O O8 0.206810 0.000000 0.695637
O O9 0.500000 0.790532 0.195637
O O10 0.577643 0.755086 0.288112
O O11 0.577643 0.755083 0.103163
O O12 0.565247 0.000000 0.195636
O O13 0.079374 0.231756 0.603030
O O14 0.125096 0.238289 0.442688
O O15 0.125039 0.000000 0.543626
O O16 0.500000 0.254993 0.695642
O O17 0.550390 0.500000 0.695641
O O18 0.579376 0.268243 0.788248
O O19 0.111764 0.000000 0.333549
O O20 0.374960 0.500000 0.847651
O O21 0.374901 0.738289 0.948589
O O22 0.111768 0.000000 0.057729
#
# Coordination Sequence:
#
# PCOD8173729 Si02
#       8
#     8   8   8   8   8   8   8   8
#     4   9  18  30  44  64  89 116 150 192 233 272
#     4   9  17  30  47  69  99 130 158 192 234 276
#     4  10  21  35  49  69  98 126 152 190 242 293
#     4   8  15  28  45  66  94 123 151 190 232 266
#     4   8  13  22  39  66  95 118 143 179 225 271
#     4   9  18  33  51  70  92 122 162 200 231 273
#     4   8  15  28  45  66  94 123 151 190 232 266
#     4   9  18  33  51  70  92 122 162 200 231 273
#
# _framework density 17.376010999999998
#
# number of rings (size 3 to 8) (size 9 to 14) (size 15 to 20)
#    0.000    3.250    0.000    2.625    0.000    5.000 
#    0.000    3.750    0.000    0.000    0.000    0.000 
#    0.000    7.000    0.000    0.000    0.000    0.000 
#
# Total GULP energy -396646.393419 kJ/mol
# GULP energy per Si atom -12395.199794 kJ/mol
# Density = 1.733646 g / cm^3
# Si number density = 17.376011 Si / 1000 Ang^3
#
#
#
# Elastic Constant Matrix: (Units=GPa)
#
#
# Indices 1 2 3 4 5 6 
#
# 1 178.5911 43.8440 95.0265 0.0000 0.0000 0.0000
# 2 43.8440 34.5205 32.0254 0.0000 0.0000 0.0000
# 3 95.0265 32.0254 192.8370 0.0000 0.0000 0.0000
# 4 0.0000 0.0000 0.0000 7.8796 0.0000 0.0000
# 5 0.0000 0.0000 0.0000 0.0000 14.1024 0.0000
# 6 0.0000 0.0000 0.0000 0.0000 0.0000 29.4083
#
#
#
# Elastic Compliance Matrix: (Units=1/GPa)
#
#
# Indices 1 2 3 4 5 6 
#
# 1 0.009542 -0.009170 -0.003179 0.000000 0.000000 0.000000
# 2 -0.009170 0.043057 -0.002632 0.000000 0.000000 0.000000
# 3 -0.003179 -0.002632 0.007190 0.000000 0.000000 0.000000
# 4 0.000000 0.000000 0.000000 0.126909 0.000000 0.000000
# 5 0.000000 0.000000 0.000000 0.000000 0.070910 0.000000
# 6 0.000000 0.000000 0.000000 0.000000 0.000000 0.034004
#
#
# Mechanical properties :
#
#
# Convention : Reuss Voigt Hill
#
# Bulk Modulus (GPa) = 33.52776 83.08226 58.30501
# Shear Modulus (GPa) = 15.08223 25.94825 20.51524
#
# Velocity S-wave (km/s) = 2.94937 3.86856 3.43981
# Velocity P-wave (km/s) = 5.56198 8.23848 7.02881
#
# Compressibility (1/GPa) = 0.02982603
#
# Stress axis : x y z
#
# Youngs Moduli (GPa) = 104.79640 23.22529 139.09093
#
# Poissons Ratio (x) = 0.21298 0.44222
# Poissons Ratio (y) = 0.96098 0.36606
# Poissons Ratio (z) = 0.33319 0.06112
#
# Static dielectric constant tensor:
#      x y z
#    x 3.320120 0.000000 0.000000 
#    y 0.000000 2.823160 0.000000 
#    z 0.000000 0.000000 3.764910 
# 
# 
# High freq. dielectric constant tensor:
#      x y z
#    x 1.675060 0.000000 0.000000 
#    y 0.000000 1.628300 0.000000 
#    z 0.000000 0.000000 1.680230 
# 
# From -- ./inp_files/17758.got.cif
#   From: 2010.03.12/outbox.cif.g09.slc.cpg/sg35_9_cif.got.tgz:17758.got - 2010.04.14 02:02:04.
