data_PCOD8173192
_publ_section_title
;
Structure prediction by ZEFSAII (Michael W. Deem and Ramdas Pophale) SiO2 
 PCOD8173192
Probable space group: C M M 2
;
_chemical_formula_sum "Si O2"
_cell_formula_units_Z 64
_cell_length_a 8.847412
_cell_length_b 18.810315
_cell_length_c 20.913892
_cell_angle_alpha 90.000000
_cell_angle_beta 90.000000
_cell_angle_gamma 90.000000
_cell_volume 3480.544422
_symmetry_space_group_name_H-M "C M M 2"
_symmetry_group_IT_number 35
_symmetry_cell_setting 'orthorhombic'
loop_
_space_group_symop_operation_xyz
x,y,z
-x,-y,z
-x,y,z
x,-y,z
1/2+x,1/2+y,z
1/2-x,1/2-y,z
1/2-x,1/2+y,z
1/2+x,1/2-y,z
loop_
_atom_site_type_symbol
_atom_site_label
_atom_site_fract_x
_atom_site_fract_y
_atom_site_fract_z
Si Si1 0.176937 0.172997 0.982570
Si Si2 0.832385 0.084499 0.357919
Si Si3 0.667837 0.915504 0.481444
Si Si4 0.177914 0.672620 0.107327
Si Si5 0.824347 0.917015 0.215605
Si Si6 0.821529 0.327682 0.718638
Si Si7 0.173478 0.916230 0.609324
Si Si8 0.677044 0.673056 0.843956
O O1 0.250000 0.250000 0.978703
O O2 0.203578 0.134544 0.913235
O O3 0.000000 0.179863 0.996839
O O4 0.256610 0.134046 0.042741
O O5 0.726280 0.115898 0.413782
O O6 0.774967 0.106426 0.287313
O O7 0.000000 0.115135 0.369222
O O8 0.838317 0.000000 0.361752
O O9 0.500000 0.885598 0.493740
O O10 0.776355 0.890708 0.538851
O O11 0.665926 0.000000 0.477655
O O12 0.250000 0.750000 0.116061
O O13 0.218108 0.625066 0.167712
O O14 0.000000 0.680181 0.101294
O O15 0.000000 0.898567 0.203901
O O16 0.795325 0.000000 0.205081
O O17 0.750000 0.250000 0.709078
O O18 0.778691 0.377629 0.660133
O O19 0.757756 0.365391 0.783855
O O20 0.000000 0.320354 0.723054
O O21 0.000000 0.894282 0.619630
O O22 0.197612 0.000000 0.617406
O O23 0.500000 0.679695 0.829346
O O24 0.750000 0.750000 0.848135
#
# Coordination Sequence:
#
# PCOD8173192 Si02
#       8
#     8   8   8   8   8   8   8   8
#     4   9  16  27  45  68  94 123 158 200 242 284
#     4   8  14  26  45  68  93 123 158 195 237 285
#     4   9  16  26  43  69  98 125 157 199 242 283
#     4  11  21  32  49  72 100 131 164 202 243 290
#     4   9  18  33  52  73  99 130 163 200 243 291
#     4  11  21  33  51  74 102 132 163 200 242 290
#     4  10  20  34  52  73  99 131 166 203 243 289
#     4   9  16  27  45  69  95 123 158 199 241 284
#
# _framework density 18.387927000000001
#
# number of rings (size 3 to 8) (size 9 to 14) (size 15 to 20)
#    0.000    2.500    0.000    6.000    0.000    4.500 
#    0.000    1.250    0.000    1.500    0.000    7.000 
#    0.000    0.000    0.000    0.000    0.000    0.000 
#
# Total GULP energy -396536.868317 kJ/mol
# GULP energy per Si atom -12391.777135 kJ/mol
# Density = 1.834608 g / cm^3
# Si number density = 18.387927 Si / 1000 Ang^3
#
#
#
# Elastic Constant Matrix: (Units=GPa)
#
#
# Indices 1 2 3 4 5 6 
#
# 1 140.1863 25.5805 72.8986 0.0000 0.0000 0.0000
# 2 25.5805 22.5922 31.2882 0.0000 0.0000 0.0000
# 3 72.8986 31.2882 170.1054 0.0000 0.0000 0.0000
# 4 0.0000 0.0000 0.0000 23.2316 0.0000 0.0000
# 5 0.0000 0.0000 0.0000 0.0000 35.9988 0.0000
# 6 0.0000 0.0000 0.0000 0.0000 0.0000 19.0604
#
#
#
# Elastic Compliance Matrix: (Units=1/GPa)
#
#
# Indices 1 2 3 4 5 6 
#
# 1 0.009985 -0.007219 -0.002951 0.000000 0.000000 0.000000
# 2 -0.007219 0.064611 -0.008791 0.000000 0.000000 0.000000
# 3 -0.002951 -0.008791 0.008760 0.000000 0.000000 0.000000
# 4 0.000000 0.000000 0.000000 0.043045 0.000000 0.000000
# 5 0.000000 0.000000 0.000000 0.000000 0.027779 0.000000
# 6 0.000000 0.000000 0.000000 0.000000 0.000000 0.052465
#
#
# Mechanical properties :
#
#
# Convention : Reuss Voigt Hill
#
# Bulk Modulus (GPa) = 22.00943 65.82427 43.91685
# Shear Modulus (GPa) = 19.25216 29.19924 24.22570
#
# Velocity S-wave (km/s) = 3.23925 3.98924 3.63365
# Velocity P-wave (km/s) = 5.09763 7.55606 6.44514
#
# Compressibility (1/GPa) = 0.04543508
#
# Stress axis : x y z
#
# Youngs Moduli (GPa) = 100.14627 15.47736 114.14936
#
# Poissons Ratio (x) = 0.11172 0.33691
# Poissons Ratio (y) = 0.72292 1.00343
# Poissons Ratio (z) = 0.29558 0.13605
#
# Static dielectric constant tensor:
#      x y z
#    x 3.551920 0.000000 0.000000 
#    y 0.000000 2.740880 0.000000 
#    z 0.000000 0.000000 4.207250 
# 
# 
# High freq. dielectric constant tensor:
#      x y z
#    x 1.725910 0.000000 0.000000 
#    y 0.000000 1.636540 0.000000 
#    z 0.000000 0.000000 1.742820 
# 
# From -- ./inp_files/18498.got.cif
#   From: 2010.03.12/outbox.cif.g09.slc.cpg/sg35_10_cif.got.tgz:18498.got - 2010.04.14 02:02:04.
