data_PCOD8173875
_publ_section_title
;
Structure prediction by ZEFSAII (Michael W. Deem and Ramdas Pophale) SiO2 
 PCOD8173875
Probable space group: C M M 2
;
_chemical_formula_sum "Si O2"
_cell_formula_units_Z 64
_cell_length_a 29.658666
_cell_length_b 8.919970
_cell_length_c 12.476393
_cell_angle_alpha 90.000000
_cell_angle_beta 90.000000
_cell_angle_gamma 90.000000
_cell_volume 3300.684801
_symmetry_space_group_name_H-M "C M M 2"
_symmetry_group_IT_number 35
_symmetry_cell_setting 'orthorhombic'
loop_
_space_group_symop_operation_xyz
x,y,z
-x,-y,z
-x,y,z
x,-y,z
1/2+x,1/2+y,z
1/2-x,1/2-y,z
1/2-x,1/2+y,z
1/2+x,1/2-y,z
loop_
_atom_site_type_symbol
_atom_site_label
_atom_site_fract_x
_atom_site_fract_y
_atom_site_fract_z
Si Si1 0.641298 0.674469 0.840260
Si Si2 0.667629 0.824208 0.221177
Si Si3 0.951887 0.828823 0.385124
Si Si4 0.645984 0.322405 0.435488
Si Si5 0.292554 0.673582 0.027454
Si Si6 0.048812 0.177602 0.920978
Si Si7 0.200831 0.177497 0.646666
Si Si8 0.079556 0.829068 0.152946
O O1 0.637780 0.500000 0.813396
O O2 0.590447 0.743498 0.849702
O O3 0.671949 0.745461 0.746237
O O4 0.663373 0.702308 0.955945
O O5 0.673239 0.752218 0.338482
O O6 0.704457 0.752914 0.142707
O O7 0.619648 0.786979 0.169679
O O8 0.675122 0.000000 0.230228
O O9 0.906003 0.758387 0.436265
O O10 0.952419 0.818026 0.256065
O O11 0.000000 0.754166 0.423416
O O12 0.952813 0.000000 0.422497
O O13 0.644777 0.500000 0.415836
O O14 0.671894 0.277808 0.542827
O O15 0.282981 0.500000 0.043402
O O16 0.250000 0.750000 0.967447
O O17 0.000000 0.239777 0.880714
O O18 0.049878 0.000000 0.909354
O O19 0.053136 0.219498 0.046315
O O20 0.250000 0.250000 0.642481
O O21 0.207558 0.000000 0.656265
O O22 0.098731 0.000000 0.141471
#
# Coordination Sequence:
#
# PCOD8173875 Si02
#       8
#     8   8   8   8   8   8   8   8
#     4   9  18  33  53  79 111 140 173 222 268 312
#     4  11  21  33  51  77 109 144 178 218 267 321
#     4   8  13  23  44  74 103 134 174 212 252 310
#     4   9  19  35  54  76 105 139 177 224 271 317
#     4  11  21  35  54  78 108 141 175 216 268 327
#     4   9  15  25  48  81 112 144 179 214 261 319
#     4  10  21  38  59  80 103 135 179 227 274 319
#     4   9  15  27  47  73 106 146 182 216 254 304
#
# _framework density 19.389914999999998
#
# number of rings (size 3 to 8) (size 9 to 14) (size 15 to 20)
#    0.000    2.500    1.250    3.000    0.000    2.500 
#    0.000    2.500    0.000   13.125    0.000    0.000 
#    0.000    1.000    0.000    0.000    0.000    0.000 
#
# Total GULP energy -396481.128193 kJ/mol
# GULP energy per Si atom -12390.035256 kJ/mol
# Density = 1.934578 g / cm^3
# Si number density = 19.389915 Si / 1000 Ang^3
#
#
#
# Elastic Constant Matrix: (Units=GPa)
#
#
# Indices 1 2 3 4 5 6 
#
# 1 159.3027 29.8666 65.9596 0.0000 0.0000 0.0000
# 2 29.8666 49.6665 31.8387 0.0000 0.0000 0.0000
# 3 65.9596 31.8387 109.9198 0.0000 0.0000 0.0000
# 4 0.0000 0.0000 0.0000 11.6091 0.0000 0.0000
# 5 0.0000 0.0000 0.0000 0.0000 22.3150 0.0000
# 6 0.0000 0.0000 0.0000 0.0000 0.0000 19.3885
#
#
#
# Elastic Compliance Matrix: (Units=1/GPa)
#
#
# Indices 1 2 3 4 5 6 
#
# 1 0.008557 -0.002277 -0.004475 0.000000 0.000000 0.000000
# 2 -0.002277 0.025331 -0.005971 0.000000 0.000000 0.000000
# 3 -0.004475 -0.005971 0.013513 0.000000 0.000000 0.000000
# 4 0.000000 0.000000 0.000000 0.086140 0.000000 0.000000
# 5 0.000000 0.000000 0.000000 0.000000 0.044813 0.000000
# 6 0.000000 0.000000 0.000000 0.000000 0.000000 0.051577
#
#
# Mechanical properties :
#
#
# Convention : Reuss Voigt Hill
#
# Bulk Modulus (GPa) = 45.54880 63.80209 54.67545
# Shear Modulus (GPa) = 19.03345 23.41079 21.22212
#
# Velocity S-wave (km/s) = 3.13647 3.47849 3.31190
# Velocity P-wave (km/s) = 6.05463 7.00781 6.54859
#
# Compressibility (1/GPa) = 0.02195447
#
# Stress axis : x y z
#
# Youngs Moduli (GPa) = 116.85914 39.47699 74.00461
#
# Poissons Ratio (x) = 0.08988 0.33121
# Poissons Ratio (y) = 0.26607 0.44188
# Poissons Ratio (z) = 0.52300 0.23572
#
# Static dielectric constant tensor:
#      x y z
#    x 3.961290 0.000000 0.000000 
#    y 0.000000 3.053340 0.000000 
#    z 0.000000 0.000000 3.501350 
# 
# 
# High freq. dielectric constant tensor:
#      x y z
#    x 1.772600 0.000000 0.000000 
#    y 0.000000 1.698690 0.000000 
#    z 0.000000 0.000000 1.738720 
# 
# From -- ./inp_files/14578.got.cif
#   From: 2010.03.12/outbox.cif.g09.slc.cpg/sg35_8_cif.got.tgz:14578.got - 2010.04.14 02:02:04.
