data_PCOD8173251
_publ_section_title
;
Structure prediction by ZEFSAII (Michael W. Deem and Ramdas Pophale) SiO2 
 PCOD8173251
Probable space group: C M M 2
;
_chemical_formula_sum "Si O2"
_cell_formula_units_Z 64
_cell_length_a 8.759322
_cell_length_b 19.100719
_cell_length_c 20.208999
_cell_angle_alpha 90.000000
_cell_angle_beta 90.000000
_cell_angle_gamma 90.000000
_cell_volume 3381.154450
_symmetry_space_group_name_H-M "C M M 2"
_symmetry_group_IT_number 35
_symmetry_cell_setting 'orthorhombic'
loop_
_space_group_symop_operation_xyz
x,y,z
-x,-y,z
-x,y,z
x,-y,z
1/2+x,1/2+y,z
1/2-x,1/2-y,z
1/2-x,1/2+y,z
1/2+x,1/2-y,z
loop_
_atom_site_type_symbol
_atom_site_label
_atom_site_fract_x
_atom_site_fract_y
_atom_site_fract_z
Si Si1 0.828028 0.083236 0.905020
Si Si2 0.174956 0.582783 0.038875
Si Si3 0.321668 0.418912 0.413464
Si Si4 0.821431 0.821645 0.295372
Si Si5 0.319594 0.322920 0.146191
Si Si6 0.675132 0.082769 0.770738
Si Si7 0.319425 0.823565 0.521631
Si Si8 0.319482 0.676696 0.662765
O O1 0.732749 0.109979 0.841957
O O2 0.000000 0.112580 0.900637
O O3 0.827911 0.000000 0.906488
O O4 0.749528 0.112231 0.971461
O O5 0.193010 0.500000 0.043402
O O6 0.260845 0.614058 0.101611
O O7 0.000000 0.606337 0.039623
O O8 0.500000 0.407105 0.428588
O O9 0.278962 0.500000 0.409501
O O10 0.274473 0.385062 0.343310
O O11 0.222896 0.384667 0.471195
O O12 0.750000 0.750000 0.322900
O O13 0.763266 0.838291 0.221188
O O14 0.000000 0.809865 0.294770
O O15 0.500000 0.318677 0.141255
O O16 0.250000 0.250000 0.120588
O O17 0.500000 0.105619 0.761823
O O18 0.778950 0.116584 0.714496
O O19 0.695090 0.000000 0.764704
O O20 0.500000 0.815914 0.527416
O O21 0.250000 0.750000 0.496649
O O22 0.251435 0.844472 0.592491
O O23 0.500000 0.683816 0.655469
O O24 0.250000 0.750000 0.687803
#
# Coordination Sequence:
#
# PCOD8173251 Si02
#       8
#     8   8   8   8   8   8   8   8
#     4   9  17  31  52  78 107 141 182 223 265 318
#     4  10  20  34  53  78 108 142 180 223 271 321
#     4  10  21  37  56  81 113 144 176 219 269 317
#     4   9  19  35  56  79 104 140 181 220 264 319
#     4  10  20  35  55  79 108 141 179 222 269 321
#     4  10  20  35  56  82 112 145 181 222 268 318
#     4  11  22  38  59  81 107 141 182 222 265 320
#     4  11  22  38  59  82 110 143 181 223 269 320
#
# _framework density 18.928446000000001
#
# number of rings (size 3 to 8) (size 9 to 14) (size 15 to 20)
#    0.000    2.000    0.000    4.875    0.000    6.250 
#    0.000    1.875    0.000    0.000    0.000    0.000 
#    0.000    0.000    0.000    0.000    0.000    0.000 
#
# Total GULP energy -396909.998506 kJ/mol
# GULP energy per Si atom -12403.437453 kJ/mol
# Density = 1.888536 g / cm^3
# Si number density = 18.928446 Si / 1000 Ang^3
#
#
#
# Elastic Constant Matrix: (Units=GPa)
#
#
# Indices 1 2 3 4 5 6 
#
# 1 123.4829 44.2668 55.5795 0.0000 0.0000 0.0000
# 2 44.2668 75.7127 60.2130 0.0000 0.0000 0.0000
# 3 55.5795 60.2130 121.9564 0.0000 0.0000 0.0000
# 4 0.0000 0.0000 0.0000 20.0165 0.0000 0.0000
# 5 0.0000 0.0000 0.0000 0.0000 32.9925 0.0000
# 6 0.0000 0.0000 0.0000 0.0000 0.0000 29.6246
#
#
#
# Elastic Compliance Matrix: (Units=1/GPa)
#
#
# Indices 1 2 3 4 5 6 
#
# 1 0.010870 -0.003977 -0.002990 0.000000 0.000000 0.000000
# 2 -0.003977 0.023202 -0.009643 0.000000 0.000000 0.000000
# 3 -0.002990 -0.009643 0.014323 0.000000 0.000000 0.000000
# 4 0.000000 0.000000 0.000000 0.049959 0.000000 0.000000
# 5 0.000000 0.000000 0.000000 0.000000 0.030310 0.000000
# 6 0.000000 0.000000 0.000000 0.000000 0.000000 0.033756
#
#
# Mechanical properties :
#
#
# Convention : Reuss Voigt Hill
#
# Bulk Modulus (GPa) = 65.89914 71.25229 68.57572
# Shear Modulus (GPa) = 24.91298 27.26622 26.08960
#
# Velocity S-wave (km/s) = 3.63184 3.79949 3.71661
# Velocity P-wave (km/s) = 7.24413 7.54804 7.39765
#
# Compressibility (1/GPa) = 0.01517470
#
# Stress axis : x y z
#
# Youngs Moduli (GPa) = 91.99681 43.09958 69.81659
#
# Poissons Ratio (x) = 0.17142 0.20875
# Poissons Ratio (y) = 0.36591 0.67323
# Poissons Ratio (z) = 0.27507 0.41560
#
# Static dielectric constant tensor:
#      x y z
#    x 3.575530 0.000000 0.000000 
#    y 0.000000 3.267670 0.000000 
#    z 0.000000 0.000000 3.650700 
# 
# 
# High freq. dielectric constant tensor:
#      x y z
#    x 1.747650 0.000000 0.000000 
#    y 0.000000 1.714980 0.000000 
#    z 0.000000 0.000000 1.746740 
# 
# From -- ./inp_files/18419.got.cif
#   From: 2010.03.12/outbox.cif.g09.slc.cpg/sg35_10_cif.got.tgz:18419.got - 2010.04.14 02:02:04.
