data_PCOD8173373
_publ_section_title
;
Structure prediction by ZEFSAII (Michael W. Deem and Ramdas Pophale) SiO2 
 PCOD8173373
Probable space group: C M M 2
;
_chemical_formula_sum "Si O2"
_cell_formula_units_Z 40
_cell_length_a 8.690250
_cell_length_b 14.786593
_cell_length_c 16.677640
_cell_angle_alpha 90.000000
_cell_angle_beta 90.000000
_cell_angle_gamma 90.000000
_cell_volume 2143.063228
_symmetry_space_group_name_H-M "C M M 2"
_symmetry_group_IT_number 35
_symmetry_cell_setting 'orthorhombic'
loop_
_space_group_symop_operation_xyz
x,y,z
-x,-y,z
-x,y,z
x,-y,z
1/2+x,1/2+y,z
1/2-x,1/2-y,z
1/2-x,1/2+y,z
1/2+x,1/2-y,z
loop_
_atom_site_type_symbol
_atom_site_label
_atom_site_fract_x
_atom_site_fract_y
_atom_site_fract_z
Si Si1 0.682390 0.500000 0.239290
Si Si2 0.817072 0.500000 0.838483
Si Si3 0.683459 0.000000 0.655814
Si Si4 0.818388 0.000000 0.419097
Si Si5 0.681228 0.154850 0.951639
Si Si6 0.181741 0.653413 0.132141
Si Si7 0.683151 0.648691 0.543623
O O1 0.500000 0.500000 0.239788
O O2 0.750229 0.500000 0.329722
O O3 0.742853 0.412393 0.195283
O O4 0.759790 0.500000 0.747621
O O5 0.000000 0.500000 0.842340
O O6 0.751379 0.413887 0.886286
O O7 0.750764 0.092370 0.618662
O O8 0.500000 0.000000 0.647297
O O9 0.764941 0.908449 0.464974
O O10 0.000000 0.000000 0.416021
O O11 0.500000 0.162003 0.946383
O O12 0.750000 0.250000 0.928093
O O13 0.728338 0.124566 0.041680
O O14 0.250000 0.750000 0.152894
O O15 0.000000 0.653441 0.143547
O O16 0.500000 0.654627 0.551524
O O17 0.750000 0.750000 0.540140
#
# Coordination Sequence:
#
# PCOD8173373 Si02
#       7
#     4   4   4   4   8   8   8
#     4  11  21  35  55  80 109 138 172 217 267 313
#     4   9  18  33  53  76 105 138 170 211 261 309
#     4  10  20  35  55  82 111 138 173 214 260 314
#     4   8  19  37  55  78 107 136 171 216 260 312
#     4   9  18  34  53  73 101 138 178 217 257 304
#     4  10  20  35  54  77 106 142 182 220 261 309
#     4  10  20  38  60  80 105 138 174 212 260 314
#
# _framework density 18.664871999999999
#
# number of rings (size 3 to 8) (size 9 to 14) (size 15 to 20)
#    0.000    2.400    0.000    3.000    0.000    4.000 
#    0.000   12.500    0.000    0.000    0.000    0.000 
#    0.000    0.000    0.000    0.000    0.000    0.000 
#
# Total GULP energy -247944.101091 kJ/mol
# GULP energy per Si atom -12397.205055 kJ/mol
# Density = 1.862239 g / cm^3
# Si number density = 18.664872 Si / 1000 Ang^3
#
#
#
# Elastic Constant Matrix: (Units=GPa)
#
#
# Indices 1 2 3 4 5 6 
#
# 1 57.3724 50.0244 45.0083 0.0000 0.0000 0.0000
# 2 50.0244 174.8023 114.6349 0.0000 0.0000 0.0000
# 3 45.0083 114.6349 183.3845 0.0000 0.0000 0.0000
# 4 0.0000 0.0000 0.0000 -19.1939 0.0000 0.0000
# 5 0.0000 0.0000 0.0000 0.0000 23.6414 0.0000
# 6 0.0000 0.0000 0.0000 0.0000 0.0000 34.6981
#
#
#
# Elastic Compliance Matrix: (Units=1/GPa)
#
#
# Indices 1 2 3 4 5 6 
#
# 1 0.023992 -0.005092 -0.002706 0.000000 0.000000 0.000000
# 2 -0.005092 0.010776 -0.005486 0.000000 0.000000 0.000000
# 3 -0.002706 -0.005486 0.009547 0.000000 0.000000 0.000000
# 4 0.000000 0.000000 0.000000 -0.052100 0.000000 0.000000
# 5 0.000000 0.000000 0.000000 0.000000 0.042299 0.000000
# 6 0.000000 0.000000 0.000000 0.000000 0.000000 0.028820
#
#
# Mechanical properties :
#
#
# Convention : Reuss Voigt Hill
#
# Bulk Modulus (GPa) = 56.34676 92.76604 74.55640
# Shear Modulus (GPa) = 52.18321 21.55522 36.86922
#
# Velocity S-wave (km/s) = 5.29327 3.40200 4.44929
# Velocity P-wave (km/s) = 8.22268 8.07714 8.15024
#
# Compressibility (1/GPa) = 0.01774725
#
# Stress axis : x y z
#
# Youngs Moduli (GPa) = 41.68053 92.80028 104.74895
#
# Poissons Ratio (x) = 0.47251 0.28340
# Poissons Ratio (y) = 0.21222 0.57469
# Poissons Ratio (z) = 0.11277 0.50914
#
# Static dielectric constant tensor:
#      x y z
#    x 3.322900 0.000000 0.000000 
#    y 0.000000 3.625640 0.000000 
#    z 0.000000 0.000000 3.746740 
# 
# 
# High freq. dielectric constant tensor:
#      x y z
#    x 1.715770 0.000000 0.000000 
#    y 0.000000 1.734700 0.000000 
#    z 0.000000 0.000000 1.728280 
# 
# From -- ./inp_files/14867.got.cif
#   From: 2010.03.12/outbox.cif.g09.slc.cpg/sg35_8_cif.got.tgz:14867.got - 2010.04.14 02:02:04.
