data_PCOD8173005
_publ_section_title
;
Structure prediction by ZEFSAII (Michael W. Deem and Ramdas Pophale) SiO2 
 PCOD8173005
Probable space group: C M M 2
;
_chemical_formula_sum "Si O2"
_cell_formula_units_Z 40
_cell_length_a 18.569439
_cell_length_b 7.650535
_cell_length_c 14.876007
_cell_angle_alpha 90.000000
_cell_angle_beta 90.000000
_cell_angle_gamma 90.000000
_cell_volume 2113.376938
_symmetry_space_group_name_H-M "C M M 2"
_symmetry_group_IT_number 35
_symmetry_cell_setting 'orthorhombic'
loop_
_space_group_symop_operation_xyz
x,y,z
-x,-y,z
-x,y,z
x,-y,z
1/2+x,1/2+y,z
1/2-x,1/2-y,z
1/2-x,1/2+y,z
1/2+x,1/2-y,z
loop_
_atom_site_type_symbol
_atom_site_label
_atom_site_fract_x
_atom_site_fract_y
_atom_site_fract_z
Si Si1 0.415467 0.298812 0.833360
Si Si2 0.913871 0.500000 0.167441
Si Si3 0.414177 0.694278 0.293247
Si Si4 0.080212 0.207827 0.491276
Si Si5 0.167136 0.204316 0.658126
Si Si6 0.914961 0.500000 0.966650
O O1 0.500000 0.279243 0.814035
O O2 0.395654 0.500000 0.856613
O O3 0.374004 0.226161 0.746049
O O4 0.390121 0.176256 0.915640
O O5 0.884575 0.327906 0.218551
O O6 0.000000 0.500000 0.167107
O O7 0.881627 0.500000 0.066759
O O8 0.500000 0.687892 0.292657
O O9 0.383684 0.500000 0.272011
O O10 0.389837 0.760171 0.392524
O O11 0.132564 0.287791 0.567891
O O12 0.000000 0.284382 0.506729
O O13 0.076876 0.000000 0.496611
O O14 0.250000 0.250000 0.664860
O O15 0.155174 0.000000 0.653769
O O16 0.000000 0.500000 0.974991
#
# Coordination Sequence:
#
# PCOD8173005 Si02
#       6
#     8   4   8   8   8   4
#     4   9  18  33  51  70  96 132 167 199 242 292
#     4   9  16  26  41  69 101 123 152 196 244 288
#     4   8  14  25  42  65  95 128 158 190 233 283
#     4   8  14  28  49  69  94 131 167 195 231 285
#     4  10  20  32  48  71 100 127 163 201 244 290
#     4   9  18  30  47  71  99 127 159 204 248 288
#
# _framework density 18.927054999999999
#
# number of rings (size 3 to 8) (size 9 to 14) (size 15 to 20)
#    0.000    3.200    0.000    1.800    1.400    3.200 
#    1.800    4.000    0.000    0.000    0.000    1.400 
#    0.000    0.000    0.000    0.000    0.000    0.000 
#
# Total GULP energy -247875.816262 kJ/mol
# GULP energy per Si atom -12393.790813 kJ/mol
# Density = 1.888398 g / cm^3
# Si number density = 18.927055 Si / 1000 Ang^3
#
#
#
# Elastic Constant Matrix: (Units=GPa)
#
#
# Indices 1 2 3 4 5 6 
#
# 1 51.4736 18.6208 47.9057 0.0000 0.0000 0.0000
# 2 18.6208 87.5901 77.3230 0.0000 0.0000 0.0000
# 3 47.9057 77.3230 203.1091 0.0000 0.0000 0.0000
# 4 0.0000 0.0000 0.0000 19.6845 0.0000 0.0000
# 5 0.0000 0.0000 0.0000 0.0000 5.1772 0.0000
# 6 0.0000 0.0000 0.0000 0.0000 0.0000 13.8293
#
#
#
# Elastic Compliance Matrix: (Units=1/GPa)
#
#
# Indices 1 2 3 4 5 6 
#
# 1 0.024893 -0.000164 -0.005809 0.000000 0.000000 0.000000
# 2 -0.000164 0.017197 -0.006508 0.000000 0.000000 0.000000
# 3 -0.005809 -0.006508 0.008771 0.000000 0.000000 0.000000
# 4 0.000000 0.000000 0.000000 0.050801 0.000000 0.000000
# 5 0.000000 0.000000 0.000000 0.000000 0.193153 0.000000
# 6 0.000000 0.000000 0.000000 0.000000 0.000000 0.072310
#
#
# Mechanical properties :
#
#
# Convention : Reuss Voigt Hill
#
# Bulk Modulus (GPa) = 38.61146 69.98576 54.29861
# Shear Modulus (GPa) = 12.47751 20.95976 16.71864
#
# Velocity S-wave (km/s) = 2.57036 3.33137 2.97529
# Velocity P-wave (km/s) = 5.40864 7.20099 6.36819
#
# Compressibility (1/GPa) = 0.02589905
#
# Stress axis : x y z
#
# Youngs Moduli (GPa) = 40.17198 58.14977 114.00974
#
# Poissons Ratio (x) = 0.00954 0.66227
# Poissons Ratio (y) = 0.00659 0.74199
# Poissons Ratio (z) = 0.23335 0.37845
#
# Static dielectric constant tensor:
#      x y z
#    x 2.918850 0.000000 0.000000 
#    y 0.000000 3.518330 0.000000 
#    z 0.000000 0.000000 3.863270 
# 
# 
# High freq. dielectric constant tensor:
#      x y z
#    x 1.675300 0.000000 0.000000 
#    y 0.000000 1.731720 0.000000 
#    z 0.000000 0.000000 1.741340 
# 
# From -- ./inp_files/11186.got.cif
#   From: 2010.03.12/outbox.cif.g09.slc.cpg/sg35_6_cif.got.tgz:11186.got - 2010.04.14 02:02:04.
