data_PCOD8173301
_publ_section_title
;
Structure prediction by ZEFSAII (Michael W. Deem and Ramdas Pophale) SiO2 
 PCOD8173301
Probable space group: C M M 2
;
_chemical_formula_sum "Si O2"
_cell_formula_units_Z 64
_cell_length_a 8.809896
_cell_length_b 18.708256
_cell_length_c 20.653205
_cell_angle_alpha 90.000000
_cell_angle_beta 90.000000
_cell_angle_gamma 90.000000
_cell_volume 3404.015598
_symmetry_space_group_name_H-M "C M M 2"
_symmetry_group_IT_number 35
_symmetry_cell_setting 'orthorhombic'
loop_
_space_group_symop_operation_xyz
x,y,z
-x,-y,z
-x,y,z
x,-y,z
1/2+x,1/2+y,z
1/2-x,1/2-y,z
1/2-x,1/2+y,z
1/2+x,1/2-y,z
loop_
_atom_site_type_symbol
_atom_site_label
_atom_site_fract_x
_atom_site_fract_y
_atom_site_fract_z
Si Si1 0.822826 0.827114 0.804190
Si Si2 0.322421 0.581640 0.419195
Si Si3 0.177944 0.417320 0.179814
Si Si4 0.326364 0.915924 0.550881
Si Si5 0.179403 0.671555 0.931018
Si Si6 0.823747 0.173015 0.661692
Si Si7 0.319920 0.672054 0.294834
Si Si8 0.674608 0.416246 0.044164
O O1 0.750000 0.750000 0.800212
O O2 0.740356 0.866528 0.864495
O O3 0.793965 0.861618 0.733302
O O4 0.000000 0.821853 0.820225
O O5 0.500000 0.587187 0.432514
O O6 0.274098 0.500000 0.404322
O O7 0.238126 0.611827 0.482525
O O8 0.271512 0.629690 0.359117
O O9 0.210669 0.500000 0.196268
O O10 0.250485 0.369004 0.234553
O O11 0.257635 0.394804 0.113315
O O12 0.000000 0.401816 0.174079
O O13 0.500000 0.892673 0.555438
O O14 0.237878 0.882171 0.610119
O O15 0.302581 0.000000 0.555882
O O16 0.250000 0.750000 0.938822
O O17 0.000000 0.677725 0.928549
O O18 0.227679 0.623311 0.990603
O O19 0.750000 0.250000 0.652748
O O20 0.000000 0.184560 0.650038
O O21 0.500000 0.676287 0.286923
O O22 0.250000 0.750000 0.299277
O O23 0.500000 0.391595 0.041044
O O24 0.691339 0.500000 0.031719
#
# Coordination Sequence:
#
# PCOD8173301 Si02
#       8
#     8   8   8   8   8   8   8   8
#     4   9  17  31  51  76 105 139 180 222 268 321
#     4   9  19  37  59  79 103 141 185 224 266 321
#     4  10  21  38  60  84 110 142 180 220 265 321
#     4  10  21  36  55  80 110 143 180 223 269 319
#     4  11  21  34  55  81 110 143 181 224 270 321
#     4  10  20  34  55  80 107 141 180 224 271 322
#     4  11  23  38  57  83 114 145 179 221 269 316
#     4  10  21  38  59  82 110 143 180 223 269 319
#
# _framework density 18.801324999999999
#
# number of rings (size 3 to 8) (size 9 to 14) (size 15 to 20)
#    0.000    2.000    0.000    4.500    0.000    6.250 
#    0.000    5.625    0.000    0.750    0.000    0.000 
#    0.000    0.000    0.000    0.000    0.000    0.000 
#
# Total GULP energy -396786.038034 kJ/mol
# GULP energy per Si atom -12399.563689 kJ/mol
# Density = 1.875853 g / cm^3
# Si number density = 18.801325 Si / 1000 Ang^3
#
#
#
# Elastic Constant Matrix: (Units=GPa)
#
#
# Indices 1 2 3 4 5 6 
#
# 1 128.1464 43.7936 77.9564 0.0000 0.0000 0.0000
# 2 43.7936 59.0427 65.0391 0.0000 0.0000 0.0000
# 3 77.9564 65.0391 166.8751 0.0000 0.0000 0.0000
# 4 0.0000 0.0000 0.0000 19.8862 0.0000 0.0000
# 5 0.0000 0.0000 0.0000 0.0000 35.7810 0.0000
# 6 0.0000 0.0000 0.0000 0.0000 0.0000 -13.1900
#
#
#
# Elastic Compliance Matrix: (Units=1/GPa)
#
#
# Indices 1 2 3 4 5 6 
#
# 1 0.011575 -0.004607 -0.003612 0.000000 0.000000 0.000000
# 2 -0.004607 0.031513 -0.010130 0.000000 0.000000 0.000000
# 3 -0.003612 -0.010130 0.011628 0.000000 0.000000 0.000000
# 4 0.000000 0.000000 0.000000 0.050286 0.000000 0.000000
# 5 0.000000 0.000000 0.000000 0.000000 0.027948 0.000000
# 6 0.000000 0.000000 0.000000 0.000000 0.000000 -0.075815
#
#
# Mechanical properties :
#
#
# Convention : Reuss Voigt Hill
#
# Bulk Modulus (GPa) = 55.49873 80.84915 68.17394
# Shear Modulus (GPa) = 50.08111 19.64711 34.86411
#
# Velocity S-wave (km/s) = 5.16670 3.23613 4.31088
# Velocity P-wave (km/s) = 8.07315 7.55371 7.81775
#
# Compressibility (1/GPa) = 0.01801843
#
# Stress axis : x y z
#
# Youngs Moduli (GPa) = 86.39139 31.73335 86.00041
#
# Poissons Ratio (x) = 0.14620 0.31062
# Poissons Ratio (y) = 0.39800 0.87116
# Poissons Ratio (z) = 0.31203 0.32145
#
# Static dielectric constant tensor:
#      x y z
#    x 3.625520 0.000000 0.000000 
#    y 0.000000 3.255110 0.000000 
#    z 0.000000 0.000000 3.981820 
# 
# 
# High freq. dielectric constant tensor:
#      x y z
#    x 1.747890 0.000000 0.000000 
#    y 0.000000 1.705350 0.000000 
#    z 0.000000 0.000000 1.751840 
# 
# From -- ./inp_files/18452.got.cif
#   From: 2010.03.12/outbox.cif.g09.slc.cpg/sg35_10_cif.got.tgz:18452.got - 2010.04.14 02:02:04.
