data_PCOD8173485
_publ_section_title
;
Structure prediction by ZEFSAII (Michael W. Deem and Ramdas Pophale) SiO2 
 PCOD8173485
Probable space group: C M M 2
;
_chemical_formula_sum "Si O2"
_cell_formula_units_Z 48
_cell_length_a 8.509077
_cell_length_b 28.134294
_cell_length_c 10.259434
_cell_angle_alpha 90.000000
_cell_angle_beta 90.000000
_cell_angle_gamma 90.000000
_cell_volume 2456.076428
_symmetry_space_group_name_H-M "C M M 2"
_symmetry_group_IT_number 35
_symmetry_cell_setting 'orthorhombic'
loop_
_space_group_symop_operation_xyz
x,y,z
-x,-y,z
-x,y,z
x,-y,z
1/2+x,1/2+y,z
1/2-x,1/2-y,z
1/2-x,1/2+y,z
1/2+x,1/2-y,z
loop_
_atom_site_type_symbol
_atom_site_label
_atom_site_fract_x
_atom_site_fract_y
_atom_site_fract_z
Si Si1 0.185159 0.552563 0.926400
Si Si2 0.815142 0.199745 0.067129
Si Si3 0.317242 0.606182 0.683261
Si Si4 0.183696 0.444604 0.437247
Si Si5 0.185261 0.390827 0.174211
Si Si6 0.814059 0.301260 0.782917
O O1 0.260163 0.500000 0.924529
O O2 0.223442 0.578162 0.792741
O O3 0.000000 0.548935 0.941518
O O4 0.253153 0.580633 0.050234
O O5 0.750000 0.250000 0.118028
O O6 0.770987 0.160341 0.174976
O O7 0.000000 0.203531 0.045539
O O8 0.735431 0.185674 0.930034
O O9 0.500000 0.604250 0.715315
O O10 0.284605 0.581941 0.545574
O O11 0.258164 0.660597 0.682705
O O12 0.229559 0.500000 0.432069
O O13 0.230629 0.420627 0.301186
O O14 0.000000 0.438282 0.467898
O O15 0.000000 0.382337 0.164986
O O16 0.750000 0.250000 0.741125
O O17 0.000000 0.301965 0.772378
#
# Coordination Sequence:
#
# PCOD8173485 Si02
#       6
#     8   8   8   8   8   8
#     4  10  20  35  58  86 115 150 195 248 300 352
#     4  11  21  35  58  89 123 157 194 240 295 355
#     4  12  24  38  57  86 121 159 200 245 297 353
#     4  10  22  41  63  86 117 161 206 247 299 359
#     4  10  20  37  61  88 118 154 199 248 297 353
#     4  11  21  37  61  89 120 154 194 244 298 356
#
# _framework density 19.543365999999999
#
# number of rings (size 3 to 8) (size 9 to 14) (size 15 to 20)
#    0.000    1.333    1.667    6.500    0.000    5.333 
#    0.000    0.833    0.000    7.000    0.000    0.000 
#    0.000    0.000    0.000    0.000    0.000    0.000 
#
# Total GULP energy -297708.175651 kJ/mol
# GULP energy per Si atom -12404.507319 kJ/mol
# Density = 1.949888 g / cm^3
# Si number density = 19.543366 Si / 1000 Ang^3
#
#
#
# Elastic Constant Matrix: (Units=GPa)
#
#
# Indices 1 2 3 4 5 6 
#
# 1 34.9703 19.5680 6.6015 0.0000 0.0000 0.0000
# 2 19.5680 160.4360 55.1141 0.0000 0.0000 0.0000
# 3 6.6015 55.1141 91.4925 0.0000 0.0000 0.0000
# 4 0.0000 0.0000 0.0000 39.9468 0.0000 0.0000
# 5 0.0000 0.0000 0.0000 0.0000 15.7381 0.0000
# 6 0.0000 0.0000 0.0000 0.0000 0.0000 27.4902
#
#
#
# Elastic Compliance Matrix: (Units=1/GPa)
#
#
# Indices 1 2 3 4 5 6 
#
# 1 0.030690 -0.003761 0.000051 0.000000 0.000000 0.000000
# 2 -0.003761 0.008320 -0.004741 0.000000 0.000000 0.000000
# 3 0.000051 -0.004741 0.013782 0.000000 0.000000 0.000000
# 4 0.000000 0.000000 0.000000 0.025033 0.000000 0.000000
# 5 0.000000 0.000000 0.000000 0.000000 0.063540 0.000000
# 6 0.000000 0.000000 0.000000 0.000000 0.000000 0.036377
#
#
# Mechanical properties :
#
#
# Convention : Reuss Voigt Hill
#
# Bulk Modulus (GPa) = 27.86155 49.94066 38.90111
# Shear Modulus (GPa) = 24.20050 30.34271 27.27161
#
# Velocity S-wave (km/s) = 3.52276 3.94456 3.73961
# Velocity P-wave (km/s) = 5.55281 6.80847 6.21245
#
# Compressibility (1/GPa) = 0.03589176
#
# Stress axis : x y z
#
# Youngs Moduli (GPa) = 32.58341 120.18869 72.55892
#
# Poissons Ratio (x) = 0.45200 -0.00370
# Poissons Ratio (y) = 0.12254 0.34398
# Poissons Ratio (z) = -0.00166 0.56978
#
# Static dielectric constant tensor:
#      x y z
#    x 3.442450 0.000000 0.000000 
#    y 0.000000 4.146060 0.000000 
#    z 0.000000 0.000000 3.411550 
# 
# 
# High freq. dielectric constant tensor:
#      x y z
#    x 1.758240 0.000000 0.000000 
#    y 0.000000 1.783530 0.000000 
#    z 0.000000 0.000000 1.740190 
# 
# From -- ./inp_files/5336.got.cif
#   From: 2010.03.12/outbox.cif.g09.slc.cpg/sg35_3_cif.got.tgz:5336.got - 2010.04.14 02:02:04.
