data_PCOD8173778
_publ_section_title
;
Structure prediction by ZEFSAII (Michael W. Deem and Ramdas Pophale) SiO2 
 PCOD8173778
Probable space group: C M M 2
;
_chemical_formula_sum "Si O2"
_cell_formula_units_Z 56
_cell_length_a 8.837575
_cell_length_b 19.113451
_cell_length_c 17.652427
_cell_angle_alpha 90.000000
_cell_angle_beta 90.000000
_cell_angle_gamma 90.000000
_cell_volume 2981.787187
_symmetry_space_group_name_H-M "C M M 2"
_symmetry_group_IT_number 35
_symmetry_cell_setting 'orthorhombic'
loop_
_space_group_symop_operation_xyz
x,y,z
-x,-y,z
-x,y,z
x,-y,z
1/2+x,1/2+y,z
1/2-x,1/2-y,z
1/2-x,1/2+y,z
1/2+x,1/2-y,z
loop_
_atom_site_type_symbol
_atom_site_label
_atom_site_fract_x
_atom_site_fract_y
_atom_site_fract_z
Si Si1 0.327526 0.917974 0.486850
Si Si2 0.179761 0.326478 0.773168
Si Si3 0.822685 0.918699 0.643852
Si Si4 0.320165 0.922218 0.908970
Si Si5 0.676294 0.679012 0.193201
Si Si6 0.179170 0.822655 0.365700
Si Si7 0.170520 0.582337 0.077297
O O1 0.500000 0.891837 0.495954
O O2 0.233270 0.896570 0.560909
O O3 0.249450 0.884537 0.414242
O O4 0.321446 0.000000 0.473251
O O5 0.250000 0.250000 0.770441
O O6 0.231186 0.371377 0.701820
O O7 0.240261 0.366092 0.848368
O O8 0.000000 0.320094 0.772669
O O9 0.000000 0.903132 0.650584
O O10 0.785660 0.000000 0.660059
O O11 0.500000 0.926255 0.907231
O O12 0.255842 0.000000 0.889751
O O13 0.268415 0.898732 0.993067
O O14 0.500000 0.690114 0.189572
O O15 0.750000 0.750000 0.162395
O O16 0.728070 0.662952 0.279001
O O17 0.721970 0.615436 0.139783
O O18 0.250000 0.750000 0.394310
O O19 0.000000 0.820432 0.376200
O O20 0.174898 0.500000 0.088981
O O21 0.000000 0.610638 0.088132
#
# Coordination Sequence:
#
# PCOD8173778 Si02
#       7
#     8   8   8   8   8   8   8
#     4  10  21  37  58  84 111 140 177 218 262 316
#     4  11  22  36  55  80 111 143 179 222 266 315
#     4  10  21  38  59  82 109 140 176 219 267 318
#     4   8  16  33  56  79 104 139 180 220 266 319
#     4  10  21  36  54  77 107 143 182 223 268 319
#     4  10  21  37  56  78 107 143 181 222 269 319
#     4   9  18  34  56  81 109 141 178 220 267 319
#
# _framework density 18.780683
#
# number of rings (size 3 to 8) (size 9 to 14) (size 15 to 20)
#    0.000    2.286    0.000    3.429    0.000    6.000 
#    0.000    8.571    0.000    1.714    0.000    0.000 
#    0.000    0.000    0.000    0.000    0.000    0.000 
#
# Total GULP energy -347244.186017 kJ/mol
# GULP energy per Si atom -12401.578072 kJ/mol
# Density = 1.873794 g / cm^3
# Si number density = 18.780683 Si / 1000 Ang^3
#
#
#
# Elastic Constant Matrix: (Units=GPa)
#
#
# Indices 1 2 3 4 5 6 
#
# 1 70.2197 37.1972 38.1809 0.0000 0.0000 0.0000
# 2 37.1972 79.2742 65.5892 0.0000 0.0000 0.0000
# 3 38.1809 65.5892 117.1449 0.0000 0.0000 0.0000
# 4 0.0000 0.0000 0.0000 10.8693 0.0000 0.0000
# 5 0.0000 0.0000 0.0000 0.0000 27.8644 0.0000
# 6 0.0000 0.0000 0.0000 0.0000 0.0000 28.7075
#
#
#
# Elastic Compliance Matrix: (Units=1/GPa)
#
#
# Indices 1 2 3 4 5 6 
#
# 1 0.019270 -0.007164 -0.002269 0.000000 0.000000 0.000000
# 2 -0.007164 0.026165 -0.012315 0.000000 0.000000 0.000000
# 3 -0.002269 -0.012315 0.016171 0.000000 0.000000 0.000000
# 4 0.000000 0.000000 0.000000 0.092002 0.000000 0.000000
# 5 0.000000 0.000000 0.000000 0.000000 0.035888 0.000000
# 6 0.000000 0.000000 0.000000 0.000000 0.000000 0.034834
#
#
# Mechanical properties :
#
#
# Convention : Reuss Voigt Hill
#
# Bulk Modulus (GPa) = 55.22011 60.95260 58.08635
# Shear Modulus (GPa) = 18.25729 21.86633 20.06181
#
# Velocity S-wave (km/s) = 3.12128 3.41588 3.27190
# Velocity P-wave (km/s) = 6.51585 6.93420 6.72828
#
# Compressibility (1/GPa) = 0.01810935
#
# Stress axis : x y z
#
# Youngs Moduli (GPa) = 51.89396 38.21926 61.83905
#
# Poissons Ratio (x) = 0.27381 0.14034
# Poissons Ratio (y) = 0.37178 0.76152
# Poissons Ratio (z) = 0.11777 0.47065
#
# Static dielectric constant tensor:
#      x y z
#    x 3.418270 0.000000 0.000000 
#    y 0.000000 3.496840 0.000000 
#    z 0.000000 0.000000 3.621580 
# 
# 
# High freq. dielectric constant tensor:
#      x y z
#    x 1.726230 0.000000 0.000000 
#    y 0.000000 1.726630 0.000000 
#    z 0.000000 0.000000 1.738520 
# 
# From -- ./inp_files/15596.got.cif
#   From: 2010.03.12/outbox.cif.g09.slc.cpg/sg35_8_cif.got.tgz:15596.got - 2010.04.14 02:02:04.
