data_PCOD8173582
_publ_section_title
;
Structure prediction by ZEFSAII (Michael W. Deem and Ramdas Pophale) SiO2 
 PCOD8173582
Probable space group: C M M 2
;
_chemical_formula_sum "Si O2"
_cell_formula_units_Z 48
_cell_length_a 14.935664
_cell_length_b 8.855282
_cell_length_c 17.563467
_cell_angle_alpha 90.000000
_cell_angle_beta 90.000000
_cell_angle_gamma 90.000000
_cell_volume 2322.935655
_symmetry_space_group_name_H-M "C M M 2"
_symmetry_group_IT_number 35
_symmetry_cell_setting 'orthorhombic'
loop_
_space_group_symop_operation_xyz
x,y,z
-x,-y,z
-x,y,z
x,-y,z
1/2+x,1/2+y,z
1/2-x,1/2-y,z
1/2-x,1/2+y,z
1/2+x,1/2-y,z
loop_
_atom_site_type_symbol
_atom_site_label
_atom_site_fract_x
_atom_site_fract_y
_atom_site_fract_z
Si Si1 0.652966 0.323530 0.280840
Si Si2 0.846545 0.176602 0.906308
Si Si3 0.000000 0.174479 0.024307
Si Si4 0.500000 0.177577 0.184209
Si Si5 0.153083 0.677169 0.757552
Si Si6 0.847459 0.323496 0.592772
Si Si7 0.153827 0.825234 0.448882
O O1 0.661768 0.500000 0.262276
O O2 0.750000 0.250000 0.273399
O O3 0.588635 0.247108 0.220454
O O4 0.609998 0.299905 0.365641
O O5 0.750000 0.250000 0.922935
O O6 0.894528 0.245382 0.830101
O O7 0.833549 0.000000 0.893557
O O8 0.911196 0.211406 0.976463
O O9 0.000000 0.285255 0.095429
O O10 0.000000 0.000000 0.050597
O O11 0.500000 0.000000 0.197221
O O12 0.160506 0.500000 0.772929
O O13 0.250000 0.750000 0.753909
O O14 0.104972 0.706998 0.675192
O O15 0.838430 0.500000 0.578445
O O16 0.750000 0.250000 0.594870
O O17 0.900439 0.251240 0.520011
O O18 0.250000 0.750000 0.444491
O O19 0.163374 0.000000 0.467557
#
# Coordination Sequence:
#
# PCOD8173582 Si02
#       7
#     8   8   4   4   8   8   8
#     4  10  21  39  62  88 120 155 193 239 289 343
#     4  10  20  36  59  84 111 146 185 227 278 332
#     4  10  24  44  62  83 114 147 180 227 286 345
#     4  12  26  42  64  91 116 149 190 233 290 353
#     4   9  16  26  43  71 106 144 184 226 272 321
#     4   9  15  22  37  65 103 143 183 227 271 317
#     4   9  16  26  45  73 105 144 186 228 275 324
#
# _framework density 20.663508
#
# number of rings (size 3 to 8) (size 9 to 14) (size 15 to 20)
#    0.000    2.333    0.000    5.250    0.000    6.000 
#    0.000    1.667    0.000    1.000    0.000    3.500 
#    0.000    0.000    0.000    0.000    0.000    0.000 
#
# Total GULP energy -297314.582598 kJ/mol
# GULP energy per Si atom -12388.107608 kJ/mol
# Density = 2.061648 g / cm^3
# Si number density = 20.663508 Si / 1000 Ang^3
#
#
#
# Elastic Constant Matrix: (Units=GPa)
#
#
# Indices 1 2 3 4 5 6 
#
# 1 69.0783 40.3133 47.5445 0.0000 0.0000 0.0000
# 2 40.3133 157.4109 85.9261 0.0000 0.0000 0.0000
# 3 47.5445 85.9261 173.4280 0.0000 0.0000 0.0000
# 4 0.0000 0.0000 0.0000 40.4686 0.0000 0.0000
# 5 0.0000 0.0000 0.0000 0.0000 -315.9050 0.0000
# 6 0.0000 0.0000 0.0000 0.0000 0.0000 17.2141
#
#
#
# Elastic Compliance Matrix: (Units=1/GPa)
#
#
# Indices 1 2 3 4 5 6 
#
# 1 0.018657 -0.002722 -0.003766 0.000000 0.000000 0.000000
# 2 -0.002722 0.009105 -0.003765 0.000000 0.000000 0.000000
# 3 -0.003766 -0.003765 0.008664 0.000000 0.000000 0.000000
# 4 0.000000 0.000000 0.000000 0.024710 0.000000 0.000000
# 5 0.000000 0.000000 0.000000 0.000000 -0.003166 0.000000
# 6 0.000000 0.000000 0.000000 0.000000 0.000000 0.058092
#
#
# Mechanical properties :
#
#
# Convention : Reuss Voigt Hill
#
# Bulk Modulus (GPa) = 62.81551 83.05388 72.93470
# Shear Modulus (GPa) = 35.24205 -36.56890 -0.66343
#
# Velocity S-wave (km/s) = 4.13428 -4.21138 -0.56724
# Velocity P-wave (km/s) = 7.29759 4.07837 5.91134
#
# Compressibility (1/GPa) = 0.01591964
#
# Stress axis : x y z
#
# Youngs Moduli (GPa) = 53.59903 109.82788 115.42261
#
# Poissons Ratio (x) = 0.29900 0.43467
# Poissons Ratio (y) = 0.14592 0.43455
# Poissons Ratio (z) = 0.20185 0.41349
#
# Static dielectric constant tensor:
#      x y z
#    x 3.287250 0.000000 0.000000 
#    y 0.000000 3.858940 0.000000 
#    z 0.000000 0.000000 4.825650 
# 
# 
# High freq. dielectric constant tensor:
#      x y z
#    x 1.763600 0.000000 0.000000 
#    y 0.000000 1.821750 0.000000 
#    z 0.000000 0.000000 1.832080 
# 
# From -- ./inp_files/18808.got.cif
#   From: 2010.03.12/outbox.cif.g09.slc.cpg/sg35_10_cif.got.tgz:18808.got - 2010.04.14 02:02:04.
