data_PCOD8173535
_publ_section_title
;
Structure prediction by ZEFSAII (Michael W. Deem and Ramdas Pophale) SiO2 
 PCOD8173535
Probable space group: C M M 2
;
_chemical_formula_sum "Si O2"
_cell_formula_units_Z 56
_cell_length_a 22.097419
_cell_length_b 9.310410
_cell_length_c 14.596745
_cell_angle_alpha 90.000000
_cell_angle_beta 90.000000
_cell_angle_gamma 90.000000
_cell_volume 3003.076379
_symmetry_space_group_name_H-M "C M M 2"
_symmetry_group_IT_number 35
_symmetry_cell_setting 'orthorhombic'
loop_
_space_group_symop_operation_xyz
x,y,z
-x,-y,z
-x,y,z
x,-y,z
1/2+x,1/2+y,z
1/2-x,1/2-y,z
1/2-x,1/2+y,z
1/2+x,1/2-y,z
loop_
_atom_site_type_symbol
_atom_site_label
_atom_site_fract_x
_atom_site_fract_y
_atom_site_fract_z
Si Si1 0.000000 0.831792 0.560101
Si Si2 0.308672 0.332476 0.184518
Si Si3 0.402430 0.166121 0.669419
Si Si4 0.128049 0.340424 0.330590
Si Si5 0.190006 0.662486 0.517393
Si Si6 0.000000 0.345975 0.391605
Si Si7 0.071452 0.831976 0.852599
Si Si8 0.188482 0.167092 0.974205
O O1 0.942434 0.760217 0.603698
O O2 0.000000 0.795526 0.453567
O O3 0.000000 0.000000 0.578279
O O4 0.299330 0.500000 0.197733
O O5 0.250000 0.250000 0.219191
O O6 0.359386 0.275867 0.252557
O O7 0.323408 0.293040 0.079723
O O8 0.337761 0.179216 0.619498
O O9 0.405855 0.235291 0.769051
O O10 0.423200 0.000000 0.675650
O O11 0.154790 0.500000 0.308671
O O12 0.147085 0.288447 0.433018
O O13 0.056434 0.344933 0.325036
O O14 0.208319 0.500000 0.500371
O O15 0.250000 0.750000 0.513336
O O16 0.000000 0.500000 0.448299
O O17 0.123327 0.793984 0.927877
O O18 0.000000 0.796045 0.879594
O O19 0.074781 0.000000 0.826949
O O20 0.250000 0.250000 0.938830
O O21 0.203274 0.000000 0.959710
#
# Coordination Sequence:
#
# PCOD8173535 Si02
#       8
#     4   8   8   8   8   4   8   8
#     4  12  22  34  56  83 108 143 188 231 270 320
#     4  10  20  36  58  84 111 147 190 233 281 336
#     4  11  22  38  58  80 111 151 189 228 276 333
#     4  10  20  36  57  81 111 150 187 230 281 331
#     4  10  22  37  54  78 111 149 186 228 279 327
#     4  10  20  38  58  77 112 153 188 225 278 336
#     4  10  21  38  60  87 115 147 190 239 293 349
#     4   9  20  39  61  85 115 151 190 237 294 349
#
# _framework density 18.647544
#
# number of rings (size 3 to 8) (size 9 to 14) (size 15 to 20)
#    0.000    1.857    2.143    1.929    0.000    5.143 
#    1.286    2.857    0.000    0.000    0.000    0.000 
#    0.000    0.000    0.000    0.000    0.000    0.000 
#
# Total GULP energy -346866.252803 kJ/mol
# GULP energy per Si atom -12388.080457 kJ/mol
# Density = 1.860510 g / cm^3
# Si number density = 18.647544 Si / 1000 Ang^3
#
#
#
# Elastic Constant Matrix: (Units=GPa)
#
#
# Indices 1 2 3 4 5 6 
#
# 1 135.7032 57.6346 55.1630 0.0000 0.0000 0.0000
# 2 57.6346 97.1519 51.7129 0.0000 0.0000 0.0000
# 3 55.1630 51.7129 89.4128 0.0000 0.0000 0.0000
# 4 0.0000 0.0000 0.0000 33.4043 0.0000 0.0000
# 5 0.0000 0.0000 0.0000 0.0000 20.9513 0.0000
# 6 0.0000 0.0000 0.0000 0.0000 0.0000 11.7795
#
#
#
# Elastic Compliance Matrix: (Units=1/GPa)
#
#
# Indices 1 2 3 4 5 6 
#
# 1 0.010890 -0.004167 -0.004309 0.000000 0.000000 0.000000
# 2 -0.004167 0.016466 -0.006952 0.000000 0.000000 0.000000
# 3 -0.004309 -0.006952 0.017863 0.000000 0.000000 0.000000
# 4 0.000000 0.000000 0.000000 0.029936 0.000000 0.000000
# 5 0.000000 0.000000 0.000000 0.000000 0.047730 0.000000
# 6 0.000000 0.000000 0.000000 0.000000 0.000000 0.084893
#
#
# Mechanical properties :
#
#
# Convention : Reuss Voigt Hill
#
# Bulk Modulus (GPa) = 69.62219 72.36545 70.99382
# Shear Modulus (GPa) = 20.54040 23.74417 22.14228
#
# Velocity S-wave (km/s) = 3.32250 3.57222 3.44962
# Velocity P-wave (km/s) = 7.22050 7.47700 7.34987
#
# Compressibility (1/GPa) = 0.01436324
#
# Stress axis : x y z
#
# Youngs Moduli (GPa) = 91.82477 60.73136 55.98089
#
# Poissons Ratio (x) = 0.25308 0.24120
# Poissons Ratio (y) = 0.38265 0.38920
# Poissons Ratio (z) = 0.39564 0.42223
#
# Static dielectric constant tensor:
#      x y z
#    x 3.669470 0.000000 0.000000 
#    y 0.000000 3.645660 0.000000 
#    z 0.000000 0.000000 3.437670 
# 
# 
# High freq. dielectric constant tensor:
#      x y z
#    x 1.728500 0.000000 0.000000 
#    y 0.000000 1.727760 0.000000 
#    z 0.000000 0.000000 1.713110 
# 
# From -- ./inp_files/17422.got.cif
#   From: 2010.03.12/outbox.cif.g09.slc.cpg/sg35_9_cif.got.tgz:17422.got - 2010.04.14 02:02:04.
