data_PCOD8173550
_publ_section_title
;
Structure prediction by ZEFSAII (Michael W. Deem and Ramdas Pophale) SiO2 
 PCOD8173550
Probable space group: C M M 2
;
_chemical_formula_sum "Si O2"
_cell_formula_units_Z 56
_cell_length_a 8.581043
_cell_length_b 21.739984
_cell_length_c 14.934473
_cell_angle_alpha 90.000000
_cell_angle_beta 90.000000
_cell_angle_gamma 90.000000
_cell_volume 2786.051887
_symmetry_space_group_name_H-M "C M M 2"
_symmetry_group_IT_number 35
_symmetry_cell_setting 'orthorhombic'
loop_
_space_group_symop_operation_xyz
x,y,z
-x,-y,z
-x,y,z
x,-y,z
1/2+x,1/2+y,z
1/2-x,1/2-y,z
1/2-x,1/2+y,z
1/2+x,1/2-y,z
loop_
_atom_site_type_symbol
_atom_site_label
_atom_site_fract_x
_atom_site_fract_y
_atom_site_fract_z
Si Si1 0.679885 0.000000 0.161400
Si Si2 0.816955 0.570428 0.656062
Si Si3 0.328924 0.500000 0.341531
Si Si4 0.176739 0.887680 0.472517
Si Si5 0.314933 0.819783 0.786209
Si Si6 0.184685 0.183682 0.967879
Si Si7 0.183311 0.314659 0.321150
Si Si8 0.317349 0.624985 0.149525
O O1 0.692514 0.000000 0.269071
O O2 0.772538 0.056821 0.120000
O O3 0.500000 0.000000 0.132649
O O4 0.749269 0.500000 0.674309
O O5 0.777847 0.592317 0.556425
O O6 0.754156 0.626337 0.718583
O O7 0.000000 0.565857 0.666973
O O8 0.500000 0.500000 0.293818
O O9 0.312570 0.558871 0.401498
O O10 0.246517 0.829461 0.419236
O O11 0.000000 0.873755 0.502822
O O12 0.500000 0.813803 0.783677
O O13 0.250000 0.750000 0.764500
O O14 0.257906 0.849501 0.880949
O O15 0.250000 0.250000 0.952183
O O16 0.000000 0.179057 0.963261
O O17 0.245440 0.163482 0.065112
O O18 0.250000 0.250000 0.288614
O O19 0.229250 0.361275 0.241978
O O20 0.000000 0.312597 0.330209
O O21 0.500000 0.634062 0.165602
#
# Coordination Sequence:
#
# PCOD8173550 Si02
#       8
#     4   8   4   8   8   8   8   8
#     4  12  24  36  58  87 116 159 204 245 294 350
#     4  10  22  40  62  89 122 159 203 253 307 364
#     4  10  20  36  58  81 114 153 194 239 286 342
#     4  11  22  38  61  87 117 156 197 241 295 351
#     4  10  21  39  64  90 120 156 197 250 307 366
#     4  10  21  38  63  89 116 153 195 242 296 356
#     4  12  25  40  59  86 120 158 202 248 298 352
#     4  11  23  40  60  85 121 159 197 246 299 352
#
# _framework density 20.100127000000001
#
# number of rings (size 3 to 8) (size 9 to 14) (size 15 to 20)
#    0.000    1.286    2.143    4.929    0.000    5.714 
#    1.286    1.429    0.000    0.000    0.000    0.000 
#    0.000    0.000    0.000    0.000    0.000    0.000 
#
# Total GULP energy -346947.631744 kJ/mol
# GULP energy per Si atom -12390.986848 kJ/mol
# Density = 2.005438 g / cm^3
# Si number density = 20.100127 Si / 1000 Ang^3
#
#
#
# Elastic Constant Matrix: (Units=GPa)
#
#
# Indices 1 2 3 4 5 6 
#
# 1 51.4101 17.8158 15.2884 0.0000 0.0000 0.0000
# 2 17.8158 85.3267 36.7456 0.0000 0.0000 0.0000
# 3 15.2884 36.7456 103.0579 0.0000 0.0000 0.0000
# 4 0.0000 0.0000 0.0000 93.6122 0.0000 0.0000
# 5 0.0000 0.0000 0.0000 0.0000 32.3084 0.0000
# 6 0.0000 0.0000 0.0000 0.0000 0.0000 27.1053
#
#
#
# Elastic Compliance Matrix: (Units=1/GPa)
#
#
# Indices 1 2 3 4 5 6 
#
# 1 0.021265 -0.003641 -0.001857 0.000000 0.000000 0.000000
# 2 -0.003641 0.014469 -0.004619 0.000000 0.000000 0.000000
# 3 -0.001857 -0.004619 0.011626 0.000000 0.000000 0.000000
# 4 0.000000 0.000000 0.000000 0.010682 0.000000 0.000000
# 5 0.000000 0.000000 0.000000 0.000000 0.030952 0.000000
# 6 0.000000 0.000000 0.000000 0.000000 0.000000 0.036893
#
#
# Mechanical properties :
#
#
# Convention : Reuss Voigt Hill
#
# Bulk Modulus (GPa) = 36.86275 42.16602 39.51438
# Shear Modulus (GPa) = 32.22453 41.93484 37.07969
#
# Velocity S-wave (km/s) = 4.00834 4.57256 4.29971
# Velocity P-wave (km/s) = 6.30887 6.99294 6.65969
#
# Compressibility (1/GPa) = 0.02712766
#
# Stress axis : x y z
#
# Youngs Moduli (GPa) = 47.02529 69.11391 86.01730
#
# Poissons Ratio (x) = 0.25161 0.15970
# Poissons Ratio (y) = 0.17120 0.39730
# Poissons Ratio (z) = 0.08731 0.31923
#
# Static dielectric constant tensor:
#      x y z
#    x 3.668730 0.000000 0.000000 
#    y 0.000000 4.026950 0.000000 
#    z 0.000000 0.000000 3.838510 
# 
# 
# High freq. dielectric constant tensor:
#      x y z
#    x 1.785360 0.000000 0.000000 
#    y 0.000000 1.791190 0.000000 
#    z 0.000000 0.000000 1.784620 
# 
# From -- ./inp_files/15681.got.cif
#   From: 2010.03.12/outbox.cif.g09.slc.cpg/sg35_8_cif.got.tgz:15681.got - 2010.04.14 02:02:04.
