data_PCOD8173847
_publ_section_title
;
Structure prediction by ZEFSAII (Michael W. Deem and Ramdas Pophale) SiO2 
 PCOD8173847
Probable space group: C M M 2
;
_chemical_formula_sum "Si O2"
_cell_formula_units_Z 64
_cell_length_a 27.836508
_cell_length_b 8.705005
_cell_length_c 12.926495
_cell_angle_alpha 90.000000
_cell_angle_beta 90.000000
_cell_angle_gamma 90.000000
_cell_volume 3132.308730
_symmetry_space_group_name_H-M "C M M 2"
_symmetry_group_IT_number 35
_symmetry_cell_setting 'orthorhombic'
loop_
_space_group_symop_operation_xyz
x,y,z
-x,-y,z
-x,y,z
x,-y,z
1/2+x,1/2+y,z
1/2-x,1/2-y,z
1/2-x,1/2+y,z
1/2+x,1/2-y,z
loop_
_atom_site_type_symbol
_atom_site_label
_atom_site_fract_x
_atom_site_fract_y
_atom_site_fract_z
Si Si1 0.054877 0.820016 0.942340
Si Si2 0.302427 0.318792 0.817321
Si Si3 0.646144 0.322584 0.412505
Si Si4 0.802617 0.680523 0.220738
Si Si5 0.302779 0.181906 0.608026
Si Si6 0.443091 0.828736 0.730670
Si Si7 0.145596 0.679596 0.009115
Si Si8 0.446482 0.676226 0.523666
O O1 0.072004 0.779626 0.825796
O O2 0.089552 0.728443 0.021776
O O3 0.000000 0.766173 0.961944
O O4 0.060376 0.000000 0.960408
O O5 0.298373 0.500000 0.802775
O O6 0.250000 0.250000 0.836616
O O7 0.326849 0.244830 0.714444
O O8 0.334382 0.280178 0.915753
O O9 0.661783 0.500000 0.414000
O O10 0.661640 0.247606 0.305748
O O11 0.669772 0.236098 0.507540
O O12 0.588454 0.302878 0.424972
O O13 0.798803 0.500000 0.236287
O O14 0.750000 0.750000 0.232824
O O15 0.824873 0.725383 0.110720
O O16 0.250000 0.250000 0.602673
O O17 0.300861 0.000000 0.611035
O O18 0.500000 0.830136 0.721732
O O19 0.423568 0.766940 0.621066
O O20 0.422594 0.000000 0.749717
O O21 0.150283 0.500000 0.985402
O O22 0.500000 0.734903 0.493157
O O23 0.448717 0.500000 0.558688
#
# Coordination Sequence:
#
# PCOD8173847 Si02
#       8
#     8   8   8   8   8   8   8   8
#     4  10  21  37  58  86 122 163 206 252 301 358
#     4  11  22  38  60  88 123 158 197 245 304 370
#     4  11  23  39  62  89 120 158 203 250 305 362
#     4  11  25  45  68  92 119 153 199 252 307 366
#     4  11  22  38  59  85 121 158 197 245 302 366
#     4   9  17  30  51  80 116 158 200 244 294 349
#     4  11  24  41  63  90 120 158 204 252 307 366
#     4   9  19  36  57  83 118 159 203 248 295 352
#
# _framework density 20.432213000000001
#
# number of rings (size 3 to 8) (size 9 to 14) (size 15 to 20)
#    0.000    1.625    0.000    5.625    1.750    6.250 
#    0.000    0.625    0.000    2.250    0.000    0.000 
#    0.000    0.000    0.000    0.000    0.000    0.000 
#
# Total GULP energy -396848.563984 kJ/mol
# GULP energy per Si atom -12401.517625 kJ/mol
# Density = 2.038571 g / cm^3
# Si number density = 20.432213 Si / 1000 Ang^3
#
#
#
# Elastic Constant Matrix: (Units=GPa)
#
#
# Indices 1 2 3 4 5 6 
#
# 1 69.1414 30.5990 50.9346 0.0000 0.0000 0.0000
# 2 30.5990 116.8768 57.8071 0.0000 0.0000 0.0000
# 3 50.9346 57.8071 87.9895 0.0000 0.0000 0.0000
# 4 0.0000 0.0000 0.0000 33.6153 0.0000 0.0000
# 5 0.0000 0.0000 0.0000 0.0000 36.4553 0.0000
# 6 0.0000 0.0000 0.0000 0.0000 0.0000 28.6444
#
#
#
# Elastic Compliance Matrix: (Units=1/GPa)
#
#
# Indices 1 2 3 4 5 6 
#
# 1 0.025283 0.000918 -0.015238 0.000000 0.000000 0.000000
# 2 0.000918 0.012708 -0.008880 0.000000 0.000000 0.000000
# 3 -0.015238 -0.008880 0.026020 0.000000 0.000000 0.000000
# 4 0.000000 0.000000 0.000000 0.029748 0.000000 0.000000
# 5 0.000000 0.000000 0.000000 0.000000 0.027431 0.000000
# 6 0.000000 0.000000 0.000000 0.000000 0.000000 0.034911
#
#
# Mechanical properties :
#
#
# Convention : Reuss Voigt Hill
#
# Bulk Modulus (GPa) = 56.78839 61.40992 59.09915
# Shear Modulus (GPa) = 23.99565 28.72080 26.35822
#
# Velocity S-wave (km/s) = 3.43067 3.75328 3.59560
# Velocity P-wave (km/s) = 6.59898 6.99311 6.79890
#
# Compressibility (1/GPa) = 0.01760923
#
# Stress axis : x y z
#
# Youngs Moduli (GPa) = 39.55288 78.69201 38.43210
#
# Poissons Ratio (x) = -0.07222 0.58564
# Poissons Ratio (y) = -0.03630 0.34127
# Poissons Ratio (z) = 0.60272 0.69878
#
# Static dielectric constant tensor:
#      x y z
#    x 3.955590 0.000000 0.000000 
#    y 0.000000 3.819300 0.000000 
#    z 0.000000 0.000000 3.682620 
# 
# 
# High freq. dielectric constant tensor:
#      x y z
#    x 1.811840 0.000000 0.000000 
#    y 0.000000 1.809910 0.000000 
#    z 0.000000 0.000000 1.780080 
# 
# From -- ./inp_files/11875.got.cif
#   From: 2010.03.12/outbox.cif.g09.slc.cpg/sg35_6_cif.got.tgz:11875.got - 2010.04.14 02:02:04.
