data_PCOD8173277
_publ_section_title
;
Structure prediction by ZEFSAII (Michael W. Deem and Ramdas Pophale) SiO2 
 PCOD8173277
Probable space group: C M M 2
;
_chemical_formula_sum "Si O2"
_cell_formula_units_Z 56
_cell_length_a 9.022149
_cell_length_b 18.201550
_cell_length_c 17.809757
_cell_angle_alpha 90.000000
_cell_angle_beta 90.000000
_cell_angle_gamma 90.000000
_cell_volume 2924.666577
_symmetry_space_group_name_H-M "C M M 2"
_symmetry_group_IT_number 35
_symmetry_cell_setting 'orthorhombic'
loop_
_space_group_symop_operation_xyz
x,y,z
-x,-y,z
-x,y,z
x,-y,z
1/2+x,1/2+y,z
1/2-x,1/2-y,z
1/2-x,1/2+y,z
1/2+x,1/2-y,z
loop_
_atom_site_type_symbol
_atom_site_label
_atom_site_fract_x
_atom_site_fract_y
_atom_site_fract_z
Si Si1 0.828848 0.586071 0.757990
Si Si2 0.673689 0.172147 0.609003
Si Si3 0.675737 0.671442 0.888440
Si Si4 0.826585 0.824767 0.169070
Si Si5 0.672571 0.915173 0.463049
Si Si6 0.174389 0.173849 0.339499
Si Si7 0.324177 0.581474 0.031474
O O1 0.799037 0.500000 0.751591
O O2 0.782933 0.621830 0.679228
O O3 0.723205 0.618711 0.821218
O O4 0.000000 0.602924 0.777647
O O5 0.500000 0.185503 0.605151
O O6 0.750000 0.250000 0.617296
O O7 0.729299 0.131350 0.534107
O O8 0.500000 0.681260 0.887317
O O9 0.750000 0.750000 0.878488
O O10 0.733230 0.634677 0.965609
O O11 0.750000 0.750000 0.143974
O O12 0.783451 0.846790 0.253886
O O13 0.771945 0.888037 0.112364
O O14 0.000000 0.811396 0.161408
O O15 0.500000 0.901178 0.447113
O O16 0.765131 0.891725 0.390295
O O17 0.704425 0.000000 0.480099
O O18 0.250000 0.250000 0.363991
O O19 0.000000 0.182629 0.350595
O O20 0.500000 0.576835 0.027809
O O21 0.255817 0.500000 0.021244
#
# Coordination Sequence:
#
# PCOD8173277 Si02
#       7
#     8   8   8   8   8   8   8
#     4  10  21  38  59  82 110 142 176 217 265 316
#     4  10  21  37  57  80 106 140 180 218 260 313
#     4  11  22  36  56  81 109 142 181 222 264 314
#     4   9  18  33  54  77 103 137 175 216 261 312
#     4  10  21  37  56  78 107 142 178 219 268 318
#     4  10  20  34  54  80 108 140 179 221 265 316
#     4   9  18  33  53  77 105 138 176 218 265 315
#
# _framework density 19.147480999999999
#
# number of rings (size 3 to 8) (size 9 to 14) (size 15 to 20)
#    0.000    2.143    0.000    3.000    0.000    7.429 
#    0.000    2.143    0.000    4.714    0.000    0.000 
#    0.000    0.000    0.000    0.000    0.000    0.000 
#
# Total GULP energy -347285.037586 kJ/mol
# GULP energy per Si atom -12403.037057 kJ/mol
# Density = 1.910390 g / cm^3
# Si number density = 19.147481 Si / 1000 Ang^3
#
#
#
# Elastic Constant Matrix: (Units=GPa)
#
#
# Indices 1 2 3 4 5 6 
#
# 1 47.4372 40.1109 38.5332 0.0000 0.0000 0.0000
# 2 40.1109 139.4534 68.4799 0.0000 0.0000 0.0000
# 3 38.5332 68.4799 127.6601 0.0000 0.0000 0.0000
# 4 0.0000 0.0000 0.0000 34.8026 0.0000 0.0000
# 5 0.0000 0.0000 0.0000 0.0000 24.2766 0.0000
# 6 0.0000 0.0000 0.0000 0.0000 0.0000 26.4008
#
#
#
# Elastic Compliance Matrix: (Units=1/GPa)
#
#
# Indices 1 2 3 4 5 6 
#
# 1 0.031127 -0.005891 -0.006235 0.000000 0.000000 0.000000
# 2 -0.005891 0.010850 -0.004042 0.000000 0.000000 0.000000
# 3 -0.006235 -0.004042 0.011884 0.000000 0.000000 0.000000
# 4 0.000000 0.000000 0.000000 0.028734 0.000000 0.000000
# 5 0.000000 0.000000 0.000000 0.000000 0.041192 0.000000
# 6 0.000000 0.000000 0.000000 0.000000 0.000000 0.037878
#
#
# Mechanical properties :
#
#
# Convention : Reuss Voigt Hill
#
# Bulk Modulus (GPa) = 46.46056 67.64430 57.05243
# Shear Modulus (GPa) = 24.85399 28.25777 26.55588
#
# Velocity S-wave (km/s) = 3.60673 3.84578 3.72817
# Velocity P-wave (km/s) = 6.45460 7.42460 6.95653
#
# Compressibility (1/GPa) = 0.02152363
#
# Stress axis : x y z
#
# Youngs Moduli (GPa) = 32.12687 92.16389 84.14922
#
# Poissons Ratio (x) = 0.54294 0.52469
# Poissons Ratio (y) = 0.18926 0.34014
# Poissons Ratio (z) = 0.20032 0.37254
#
# Static dielectric constant tensor:
#      x y z
#    x 3.345520 0.000000 0.000000 
#    y 0.000000 3.612310 0.000000 
#    z 0.000000 0.000000 3.724830 
# 
# 
# High freq. dielectric constant tensor:
#      x y z
#    x 1.726310 0.000000 0.000000 
#    y 0.000000 1.752660 0.000000 
#    z 0.000000 0.000000 1.759980 
# 
# From -- ./inp_files/15647.got.cif
#   From: 2010.03.12/outbox.cif.g09.slc.cpg/sg35_8_cif.got.tgz:15647.got - 2010.04.14 02:02:04.
