data_PCOD8173813
_publ_section_title
;
Structure prediction by ZEFSAII (Michael W. Deem and Ramdas Pophale) SiO2 
 PCOD8173813
Probable space group: C M M 2
;
_chemical_formula_sum "Si O2"
_cell_formula_units_Z 56
_cell_length_a 8.822811
_cell_length_b 19.296468
_cell_length_c 18.374039
_cell_angle_alpha 90.000000
_cell_angle_beta 90.000000
_cell_angle_gamma 90.000000
_cell_volume 3128.163422
_symmetry_space_group_name_H-M "C M M 2"
_symmetry_group_IT_number 35
_symmetry_cell_setting 'orthorhombic'
loop_
_space_group_symop_operation_xyz
x,y,z
-x,-y,z
-x,y,z
x,-y,z
1/2+x,1/2+y,z
1/2-x,1/2-y,z
1/2-x,1/2+y,z
1/2+x,1/2-y,z
loop_
_atom_site_type_symbol
_atom_site_label
_atom_site_fract_x
_atom_site_fract_y
_atom_site_fract_z
Si Si1 0.820910 0.325961 0.211740
Si Si2 0.324126 0.419263 0.091082
Si Si3 0.175803 0.579744 0.940626
Si Si4 0.322310 0.175552 0.810804
Si Si5 0.822570 0.325338 0.651314
Si Si6 0.322374 0.674881 0.354977
Si Si7 0.176654 0.825368 0.512651
O O1 0.750000 0.250000 0.200427
O O2 0.776074 0.375189 0.145886
O O3 0.758511 0.362326 0.286413
O O4 0.000000 0.318852 0.215564
O O5 0.500000 0.401251 0.101554
O O6 0.290807 0.500000 0.105177
O O7 0.274525 0.398287 0.009965
O O8 0.201293 0.500000 0.920510
O O9 0.237461 0.623163 0.872032
O O10 0.000000 0.595136 0.957485
O O11 0.500000 0.186397 0.817691
O O12 0.250000 0.250000 0.823249
O O13 0.284010 0.142645 0.730837
O O14 0.750000 0.250000 0.651091
O O15 0.750036 0.366793 0.581846
O O16 0.000000 0.320621 0.638373
O O17 0.500000 0.680840 0.338432
O O18 0.250000 0.750000 0.359469
O O19 0.294487 0.637429 0.433764
O O20 0.250000 0.750000 0.508916
O O21 0.000000 0.817350 0.527176
#
# Coordination Sequence:
#
# PCOD8173813 Si02
#       7
#     8   8   8   8   8   8   8
#     4  11  21  33  51  74 101 130 161 198 241 287
#     4  10  21  37  55  74  97 125 159 198 240 288
#     4   9  18  34  53  70  91 121 158 196 233 279
#     4   9  18  30  45  68  95 123 153 190 236 280
#     4   9  15  23  36  56  85 117 150 186 226 273
#     4   9  16  26  40  61  91 123 156 193 234 279
#     4   9  15  22  35  56  84 119 154 187 226 272
#
# _framework density 17.901876999999999
#
# number of rings (size 3 to 8) (size 9 to 14) (size 15 to 20)
#    0.000    2.571    0.000    4.714    0.000    4.286 
#    0.000    1.429    0.000    0.000    0.000    1.000 
#    0.000    3.429    0.000    0.000    0.000    0.000 
#
# Total GULP energy -346888.717021 kJ/mol
# GULP energy per Si atom -12388.882751 kJ/mol
# Density = 1.786113 g / cm^3
# Si number density = 17.901877 Si / 1000 Ang^3
#
#
#
# Elastic Constant Matrix: (Units=GPa)
#
#
# Indices 1 2 3 4 5 6 
#
# 1 107.7789 27.2401 68.9952 0.0000 0.0000 0.0000
# 2 27.2401 37.2147 53.5147 0.0000 0.0000 0.0000
# 3 68.9952 53.5147 182.5432 0.0000 0.0000 0.0000
# 4 0.0000 0.0000 0.0000 -0.2074 0.0000 0.0000
# 5 0.0000 0.0000 0.0000 0.0000 32.8660 0.0000
# 6 0.0000 0.0000 0.0000 0.0000 0.0000 16.8968
#
#
#
# Elastic Compliance Matrix: (Units=1/GPa)
#
#
# Indices 1 2 3 4 5 6 
#
# 1 0.012592 -0.004102 -0.003557 0.000000 0.000000 0.000000
# 2 -0.004102 0.047792 -0.012460 0.000000 0.000000 0.000000
# 3 -0.003557 -0.012460 0.010475 0.000000 0.000000 0.000000
# 4 0.000000 0.000000 0.000000 -4.822373 0.000000 0.000000
# 5 0.000000 0.000000 0.000000 0.000000 0.030427 0.000000
# 6 0.000000 0.000000 0.000000 0.000000 0.000000 0.059183
#
#
# Mechanical properties :
#
#
# Convention : Reuss Voigt Hill
#
# Bulk Modulus (GPa) = 32.65797 69.67075 51.16436
# Shear Modulus (GPa) = -1.08426 21.76354 10.33964
#
# Velocity S-wave (km/s) = -0.77909 3.49049 2.40588
# Velocity P-wave (km/s) = 4.18008 7.43285 6.02994
#
# Compressibility (1/GPa) = 0.03062039
#
# Stress axis : x y z
#
# Youngs Moduli (GPa) = 79.41609 20.92419 95.46307
#
# Poissons Ratio (x) = 0.08584 0.33953
# Poissons Ratio (y) = 0.32580 1.18948
# Poissons Ratio (z) = 0.28245 0.26072
#
# Static dielectric constant tensor:
#      x y z
#    x 3.431970 0.000000 0.000000 
#    y 0.000000 2.776650 0.000000 
#    z 0.000000 0.000000 4.602210 
# 
# 
# High freq. dielectric constant tensor:
#      x y z
#    x 1.705340 0.000000 0.000000 
#    y 0.000000 1.619430 0.000000 
#    z 0.000000 0.000000 1.726980 
# 
# From -- ./inp_files/18234.got.cif
#   From: 2010.03.12/outbox.cif.g09.slc.cpg/sg35_10_cif.got.tgz:18234.got - 2010.04.14 02:02:04.
