data_PCOD8173673
_publ_section_title
;
Structure prediction by ZEFSAII (Michael W. Deem and Ramdas Pophale) SiO2 
 PCOD8173673
Probable space group: C M M 2
;
_chemical_formula_sum "Si O2"
_cell_formula_units_Z 48
_cell_length_a 15.807856
_cell_length_b 8.663429
_cell_length_c 16.824994
_cell_angle_alpha 90.000000
_cell_angle_beta 90.000000
_cell_angle_gamma 90.000000
_cell_volume 2304.186934
_symmetry_space_group_name_H-M "C M M 2"
_symmetry_group_IT_number 35
_symmetry_cell_setting 'orthorhombic'
loop_
_space_group_symop_operation_xyz
x,y,z
-x,-y,z
-x,y,z
x,-y,z
1/2+x,1/2+y,z
1/2-x,1/2-y,z
1/2-x,1/2+y,z
1/2+x,1/2-y,z
loop_
_atom_site_type_symbol
_atom_site_label
_atom_site_fract_x
_atom_site_fract_y
_atom_site_fract_z
Si Si1 0.500000 0.318461 0.609020
Si Si2 0.405145 0.183802 0.168524
Si Si3 0.839520 0.316908 0.000441
Si Si4 0.161804 0.682160 0.696211
Si Si5 0.500000 0.182618 0.437103
Si Si6 0.837871 0.681930 0.334313
Si Si7 0.095589 0.824992 0.849010
O O1 0.500000 0.500000 0.624069
O O2 0.584481 0.248559 0.646222
O O3 0.500000 0.280801 0.516482
O O4 0.500000 0.249164 0.174044
O O5 0.353109 0.244785 0.244622
O O6 0.407468 0.000000 0.168264
O O7 0.363271 0.247083 0.087687
O O8 0.840093 0.500000 0.999233
O O9 0.750000 0.250000 0.974771
O O10 0.904997 0.253391 0.935631
O O11 0.162868 0.500000 0.687136
O O12 0.250000 0.750000 0.662711
O O13 0.153312 0.728844 0.788525
O O14 0.416553 0.232590 0.388583
O O15 0.500000 0.000000 0.455027
O O16 0.830185 0.500000 0.334095
O O17 0.750000 0.750000 0.367724
O O18 0.000000 0.822951 0.816517
O O19 0.129896 0.000000 0.853953
#
# Coordination Sequence:
#
# PCOD8173673 Si02
#       7
#     4   8   8   8   4   8   8
#     4  12  26  46  70  99 134 167 208 263 320 385
#     4   9  17  33  57  84 115 159 210 259 310 371
#     4  11  22  35  54  82 120 162 213 264 313 371
#     4  12  25  44  71 100 132 170 215 262 318 383
#     4  10  22  42  66  91 124 167 208 251 312 387
#     4  10  20  37  63  91 123 162 209 258 313 375
#     4  11  23  40  62  88 124 165 211 263 318 375
#
# _framework density 20.831643
#
# number of rings (size 3 to 8) (size 9 to 14) (size 15 to 20)
#    0.000    1.333    1.667    4.750    0.000    3.000 
#    0.000    2.500    0.000    2.000    0.000    0.000 
#    0.000    0.000    0.000    0.000    0.000    0.000 
#
# Total GULP energy -297678.799856 kJ/mol
# GULP energy per Si atom -12403.283327 kJ/mol
# Density = 2.078423 g / cm^3
# Si number density = 20.831643 Si / 1000 Ang^3
#
#
#
# Elastic Constant Matrix: (Units=GPa)
#
#
# Indices 1 2 3 4 5 6 
#
# 1 159.5127 52.3902 57.0235 0.0000 0.0000 0.0000
# 2 52.3902 113.9668 49.6307 0.0000 0.0000 0.0000
# 3 57.0235 49.6307 128.1958 0.0000 0.0000 0.0000
# 4 0.0000 0.0000 0.0000 27.6182 0.0000 0.0000
# 5 0.0000 0.0000 0.0000 0.0000 21.4877 0.0000
# 6 0.0000 0.0000 0.0000 0.0000 0.0000 31.1030
#
#
#
# Elastic Compliance Matrix: (Units=1/GPa)
#
#
# Indices 1 2 3 4 5 6 
#
# 1 0.008035 -0.002571 -0.002579 0.000000 0.000000 0.000000
# 2 -0.002571 0.011376 -0.003261 0.000000 0.000000 0.000000
# 3 -0.002579 -0.003261 0.010210 0.000000 0.000000 0.000000
# 4 0.000000 0.000000 0.000000 0.036208 0.000000 0.000000
# 5 0.000000 0.000000 0.000000 0.000000 0.046538 0.000000
# 6 0.000000 0.000000 0.000000 0.000000 0.000000 0.032151
#
#
# Mechanical properties :
#
#
# Convention : Reuss Voigt Hill
#
# Bulk Modulus (GPa) = 78.12048 79.97381 79.04715
# Shear Modulus (GPa) = 30.19191 32.21717 31.20454
#
# Velocity S-wave (km/s) = 3.81114 3.93689 3.87452
# Velocity P-wave (km/s) = 7.54643 7.69021 7.61866
#
# Compressibility (1/GPa) = 0.01280074
#
# Stress axis : x y z
#
# Youngs Moduli (GPa) = 124.44961 87.90234 97.94166
#
# Poissons Ratio (x) = 0.22597 0.25259
# Poissons Ratio (y) = 0.31993 0.31937
# Poissons Ratio (z) = 0.32096 0.28663
#
# Static dielectric constant tensor:
#      x y z
#    x 3.880900 0.000000 0.000000 
#    y 0.000000 3.545230 0.000000 
#    z 0.000000 0.000000 3.881310 
# 
# 
# High freq. dielectric constant tensor:
#      x y z
#    x 1.829840 0.000000 0.000000 
#    y 0.000000 1.799630 0.000000 
#    z 0.000000 0.000000 1.818980 
# 
# From -- ./inp_files/18756.got.cif
#   From: 2010.03.12/outbox.cif.g09.slc.cpg/sg35_10_cif.got.tgz:18756.got - 2010.04.14 02:02:04.
