data_PCOD8173724
_publ_section_title
;
Structure prediction by ZEFSAII (Michael W. Deem and Ramdas Pophale) SiO2 
 PCOD8173724
Probable space group: C M M 2
;
_chemical_formula_sum "Si O2"
_cell_formula_units_Z 48
_cell_length_a 15.545043
_cell_length_b 8.996596
_cell_length_c 16.963350
_cell_angle_alpha 90.000000
_cell_angle_beta 90.000000
_cell_angle_gamma 90.000000
_cell_volume 2372.366425
_symmetry_space_group_name_H-M "C M M 2"
_symmetry_group_IT_number 35
_symmetry_cell_setting 'orthorhombic'
loop_
_space_group_symop_operation_xyz
x,y,z
-x,-y,z
-x,y,z
x,-y,z
1/2+x,1/2+y,z
1/2-x,1/2-y,z
1/2-x,1/2+y,z
1/2+x,1/2-y,z
loop_
_atom_site_type_symbol
_atom_site_label
_atom_site_fract_x
_atom_site_fract_y
_atom_site_fract_z
Si Si1 0.663093 0.824940 0.283050
Si Si2 0.341827 0.175478 0.643674
Si Si3 0.838821 0.327485 0.823896
Si Si4 0.000000 0.822672 0.554827
Si Si5 0.500000 0.825381 0.388515
Si Si6 0.402545 0.338583 0.965602
Si Si7 0.102110 0.669631 0.115117
O O1 0.750000 0.750000 0.315652
O O2 0.584368 0.781967 0.339424
O O3 0.643500 0.765203 0.195055
O O4 0.675854 0.000000 0.282340
O O5 0.250000 0.250000 0.624463
O O6 0.367990 0.203376 0.734512
O O7 0.414569 0.253597 0.592677
O O8 0.336827 0.000000 0.624428
O O9 0.830037 0.500000 0.840324
O O10 0.750000 0.250000 0.843584
O O11 0.904861 0.257622 0.885607
O O12 0.000000 0.779181 0.464111
O O13 0.000000 0.000000 0.565878
O O14 0.500000 0.000000 0.411421
O O15 0.500000 0.362258 0.990605
O O16 0.358475 0.500000 0.951828
O O17 0.358284 0.256891 0.039969
O O18 0.129159 0.500000 0.103261
O O19 0.000000 0.683871 0.122746
#
# Coordination Sequence:
#
# PCOD8173724 Si02
#       7
#     8   8   8   4   4   8   8
#     4  10  21  38  63  91 118 155 199 245 301 360
#     4  10  22  42  66  94 126 162 206 256 309 366
#     4  10  21  37  58  82 113 153 197 246 299 352
#     4  12  26  42  66  97 126 163 204 245 306 373
#     4  10  22  44  66  87 122 159 196 245 300 365
#     4  10  21  34  51  81 118 157 200 246 294 342
#     4   9  17  34  57  79 110 155 204 248 295 352
#
# _framework density 20.232963000000002
#
# number of rings (size 3 to 8) (size 9 to 14) (size 15 to 20)
#    0.000    2.000    0.833    2.250    1.167    5.667 
#    0.000    3.333    0.000    0.000    0.000    0.000 
#    0.000    0.000    0.000    0.000    0.000    0.000 
#
# Total GULP energy -297562.777838 kJ/mol
# GULP energy per Si atom -12398.449077 kJ/mol
# Density = 2.018691 g / cm^3
# Si number density = 20.232963 Si / 1000 Ang^3
#
#
#
# Elastic Constant Matrix: (Units=GPa)
#
#
# Indices 1 2 3 4 5 6 
#
# 1 103.6468 57.4517 64.9032 0.0000 0.0000 0.0000
# 2 57.4517 125.1969 75.0230 0.0000 0.0000 0.0000
# 3 64.9032 75.0230 139.3323 0.0000 0.0000 0.0000
# 4 0.0000 0.0000 0.0000 32.4513 0.0000 0.0000
# 5 0.0000 0.0000 0.0000 0.0000 7.0421 0.0000
# 6 0.0000 0.0000 0.0000 0.0000 0.0000 32.1086
#
#
#
# Elastic Compliance Matrix: (Units=1/GPa)
#
#
# Indices 1 2 3 4 5 6 
#
# 1 0.014828 -0.003935 -0.004788 0.000000 0.000000 0.000000
# 2 -0.003935 0.012837 -0.005079 0.000000 0.000000 0.000000
# 3 -0.004788 -0.005079 0.012142 0.000000 0.000000 0.000000
# 4 0.000000 0.000000 0.000000 0.030815 0.000000 0.000000
# 5 0.000000 0.000000 0.000000 0.000000 0.142004 0.000000
# 6 0.000000 0.000000 0.000000 0.000000 0.000000 0.031144
#
#
# Mechanical properties :
#
#
# Convention : Reuss Voigt Hill
#
# Bulk Modulus (GPa) = 81.95103 84.77020 83.36061
# Shear Modulus (GPa) = 18.15266 25.70693 21.92979
#
# Velocity S-wave (km/s) = 2.99855 3.56834 3.29578
# Velocity P-wave (km/s) = 7.25121 7.67890 7.46811
#
# Compressibility (1/GPa) = 0.01220241
#
# Stress axis : x y z
#
# Youngs Moduli (GPa) = 67.44151 77.90225 82.35755
#
# Poissons Ratio (x) = 0.30655 0.39434
# Poissons Ratio (y) = 0.26538 0.41828
# Poissons Ratio (z) = 0.32292 0.39565
#
# Static dielectric constant tensor:
#      x y z
#    x 3.539430 0.000000 0.000000 
#    y 0.000000 3.835310 0.000000 
#    z 0.000000 0.000000 3.751880 
# 
# 
# High freq. dielectric constant tensor:
#      x y z
#    x 1.784550 0.000000 0.000000 
#    y 0.000000 1.793440 0.000000 
#    z 0.000000 0.000000 1.794080 
# 
# From -- ./inp_files/17121.got.cif
#   From: 2010.03.12/outbox.cif.g09.slc.cpg/sg35_9_cif.got.tgz:17121.got - 2010.04.14 02:02:04.
