data_PCOD8173295
_publ_section_title
;
Structure prediction by ZEFSAII (Michael W. Deem and Ramdas Pophale) SiO2 
 PCOD8173295
Probable space group: C M M 2
;
_chemical_formula_sum "Si O2"
_cell_formula_units_Z 64
_cell_length_a 17.524914
_cell_length_b 14.136245
_cell_length_c 12.586092
_cell_angle_alpha 90.000000
_cell_angle_beta 90.000000
_cell_angle_gamma 90.000000
_cell_volume 3118.034103
_symmetry_space_group_name_H-M "C M M 2"
_symmetry_group_IT_number 35
_symmetry_cell_setting 'orthorhombic'
loop_
_space_group_symop_operation_xyz
x,y,z
-x,-y,z
-x,y,z
x,-y,z
1/2+x,1/2+y,z
1/2-x,1/2-y,z
1/2-x,1/2+y,z
1/2+x,1/2-y,z
loop_
_atom_site_type_symbol
_atom_site_label
_atom_site_fract_x
_atom_site_fract_y
_atom_site_fract_z
Si Si1 0.410417 0.109649 0.469320
Si Si2 0.911010 0.890645 0.764963
Si Si3 0.322460 0.389089 0.970930
Si Si4 0.840432 0.609627 0.043228
Si Si5 0.838524 0.270929 0.655049
Si Si6 0.087983 0.896222 0.179040
Si Si7 0.585762 0.109259 0.828226
Si Si8 0.588384 0.198319 0.247785
O O1 0.500000 0.125244 0.487232
O O2 0.364902 0.172216 0.552357
O O3 0.385095 0.144220 0.352861
O O4 0.388157 0.000000 0.482572
O O5 0.862252 0.849073 0.864507
O O6 0.885281 0.827955 0.663872
O O7 0.000000 0.876471 0.790353
O O8 0.893048 0.000000 0.739566
O O9 0.318279 0.500000 0.954760
O O10 0.237745 0.349161 0.992412
O O11 0.373463 0.361596 0.070986
O O12 0.831539 0.500000 0.073294
O O13 0.860510 0.663792 0.150405
O O14 0.904442 0.626876 0.953992
O O15 0.750000 0.250000 0.644355
O O16 0.853757 0.332910 0.759751
O O17 0.101345 0.812005 0.264335
O O18 0.000000 0.907006 0.151972
O O19 0.119285 0.000000 0.218158
O O20 0.500000 0.139601 0.796391
O O21 0.600204 0.000000 0.801382
O O22 0.500000 0.175738 0.222834
#
# Coordination Sequence:
#
# PCOD8173295 Si02
#       8
#     8   8   8   8   8   8   8   8
#     4  10  22  44  71  93 117 157 209 260 308 366
#     4  10  21  38  61  88 122 164 208 251 296 358
#     4   9  18  33  53  82 120 165 202 238 294 359
#     4  10  20  34  54  88 128 159 191 246 314 371
#     4  12  25  40  61  90 123 157 203 252 316 369
#     4   9  18  34  55  80 114 159 209 251 289 347
#     4  10  21  38  62  90 122 161 205 255 308 366
#     4  10  21  37  61  89 118 157 207 256 304 360
#
# _framework density 20.525753000000002
#
# number of rings (size 3 to 8) (size 9 to 14) (size 15 to 20)
#    0.000    2.000    0.000    3.375    1.750    6.250 
#    2.250    0.625    0.000    2.250    0.000    0.000 
#    0.000    0.000    0.000    0.000    0.000    0.000 
#
# Total GULP energy -396731.783355 kJ/mol
# GULP energy per Si atom -12397.868230 kJ/mol
# Density = 2.047904 g / cm^3
# Si number density = 20.525753 Si / 1000 Ang^3
#
#
#
# Elastic Constant Matrix: (Units=GPa)
#
#
# Indices 1 2 3 4 5 6 
#
# 1 99.9962 55.7954 58.8131 0.0000 0.0000 0.0000
# 2 55.7954 122.0454 68.6218 0.0000 0.0000 0.0000
# 3 58.8131 68.6218 113.2123 0.0000 0.0000 0.0000
# 4 0.0000 0.0000 0.0000 38.2025 0.0000 0.0000
# 5 0.0000 0.0000 0.0000 0.0000 8.4120 0.0000
# 6 0.0000 0.0000 0.0000 0.0000 0.0000 25.8654
#
#
#
# Elastic Compliance Matrix: (Units=1/GPa)
#
#
# Indices 1 2 3 4 5 6 
#
# 1 0.015528 -0.003889 -0.005710 0.000000 0.000000 0.000000
# 2 -0.003889 0.013404 -0.006104 0.000000 0.000000 0.000000
# 3 -0.005710 -0.006104 0.015499 0.000000 0.000000 0.000000
# 4 0.000000 0.000000 0.000000 0.026176 0.000000 0.000000
# 5 0.000000 0.000000 0.000000 0.000000 0.118878 0.000000
# 6 0.000000 0.000000 0.000000 0.000000 0.000000 0.038662
#
#
# Mechanical properties :
#
#
# Convention : Reuss Voigt Hill
#
# Bulk Modulus (GPa) = 76.77140 77.96829 77.36985
# Shear Modulus (GPa) = 18.94692 24.63088 21.78890
#
# Velocity S-wave (km/s) = 3.04152 3.46786 3.26166
# Velocity P-wave (km/s) = 7.05820 7.35546 7.20836
#
# Compressibility (1/GPa) = 0.01302568
#
# Stress axis : x y z
#
# Youngs Moduli (GPa) = 64.39795 74.60645 64.51933
#
# Poissons Ratio (x) = 0.29012 0.36840
# Poissons Ratio (y) = 0.25042 0.39384
# Poissons Ratio (z) = 0.36771 0.45542
#
# Static dielectric constant tensor:
#      x y z
#    x 3.764670 0.000000 0.000000 
#    y 0.000000 4.040200 0.000000 
#    z 0.000000 0.000000 3.513760 
# 
# 
# High freq. dielectric constant tensor:
#      x y z
#    x 1.799400 0.000000 0.000000 
#    y 0.000000 1.823140 0.000000 
#    z 0.000000 0.000000 1.775830 
# 
# From -- ./inp_files/13610.got.cif
#   From: 2010.03.12/outbox.cif.g09.slc.cpg/sg35_7_cif.got.tgz:13610.got - 2010.04.14 02:02:04.
