data_PCOD8173098
_publ_section_title
;
Structure prediction by ZEFSAII (Michael W. Deem and Ramdas Pophale) SiO2 
 PCOD8173098
Probable space group: C M M 2
;
_chemical_formula_sum "Si O2"
_cell_formula_units_Z 64
_cell_length_a 28.291275
_cell_length_b 8.919599
_cell_length_c 14.161370
_cell_angle_alpha 90.000000
_cell_angle_beta 90.000000
_cell_angle_gamma 90.000000
_cell_volume 3573.576802
_symmetry_space_group_name_H-M "C M M 2"
_symmetry_group_IT_number 35
_symmetry_cell_setting 'orthorhombic'
loop_
_space_group_symop_operation_xyz
x,y,z
-x,-y,z
-x,y,z
x,-y,z
1/2+x,1/2+y,z
1/2-x,1/2-y,z
1/2-x,1/2+y,z
1/2+x,1/2-y,z
loop_
_atom_site_type_symbol
_atom_site_label
_atom_site_fract_x
_atom_site_fract_y
_atom_site_fract_z
Si Si1 0.300077 0.676363 0.136250
Si Si2 0.199277 0.821899 0.638842
Si Si3 0.553316 0.824223 0.136919
Si Si4 0.123680 0.176047 0.489400
Si Si5 0.554309 0.323641 0.649484
Si Si6 0.118713 0.177070 0.279606
Si Si7 0.371242 0.823313 0.777182
Si Si8 0.133824 0.674902 0.994858
O O1 0.293523 0.500000 0.128191
O O2 0.250000 0.750000 0.157061
O O3 0.334301 0.722885 0.222454
O O4 0.321944 0.736015 0.038377
O O5 0.250000 0.750000 0.629288
O O6 0.169944 0.770443 0.546508
O O7 0.173503 0.759508 0.731591
O O8 0.202940 0.000000 0.647566
O O9 0.500000 0.769394 0.116714
O O10 0.572379 0.745067 0.231012
O O11 0.555132 0.000000 0.155141
O O12 0.585289 0.778649 0.047212
O O13 0.077128 0.221792 0.548797
O O14 0.122542 0.247600 0.384936
O O15 0.126065 0.000000 0.476798
O O16 0.500000 0.275468 0.647466
O O17 0.561243 0.500000 0.668133
O O18 0.579694 0.234131 0.733214
O O19 0.112198 0.000000 0.281736
O O20 0.371832 0.779584 0.886621
O O21 0.366480 0.000000 0.761016
O O22 0.144528 0.500000 0.007367
#
# Coordination Sequence:
#
# PCOD8173098 Si02
#       8
#     8   8   8   8   8   8   8   8
#     4  10  20  33  51  74 100 129 162 202 246 291
#     4  10  20  35  54  75 101 132 165 203 248 297
#     4   9  18  33  51  72 100 131 162 200 247 294
#     4   8  16  32  52  73  99 131 166 202 241 289
#     4   9  18  33  52  74 102 136 169 203 248 297
#     4   9  18  33  52  74  99 129 166 204 241 286
#     4  10  20  34  53  76 100 129 167 209 251 294
#     4   9  19  35  53  72  97 130 166 203 245 293
#
# _framework density 17.909227000000001
#
# number of rings (size 3 to 8) (size 9 to 14) (size 15 to 20)
#    0.000    2.750    0.000    1.875    0.000    4.000 
#    0.000    5.625    0.000    0.000    0.000    0.000 
#    0.000    0.000    0.000    0.000    0.000    0.000 
#
# Total GULP energy -396804.275189 kJ/mol
# GULP energy per Si atom -12400.133600 kJ/mol
# Density = 1.786847 g / cm^3
# Si number density = 17.909227 Si / 1000 Ang^3
#
#
#
# Elastic Constant Matrix: (Units=GPa)
#
#
# Indices 1 2 3 4 5 6 
#
# 1 99.8580 26.2867 34.0291 0.0000 0.0000 0.0000
# 2 26.2867 45.7774 30.9606 0.0000 0.0000 0.0000
# 3 34.0291 30.9606 133.9924 0.0000 0.0000 0.0000
# 4 0.0000 0.0000 0.0000 23.9301 0.0000 0.0000
# 5 0.0000 0.0000 0.0000 0.0000 13.0948 0.0000
# 6 0.0000 0.0000 0.0000 0.0000 0.0000 31.7622
#
#
#
# Elastic Compliance Matrix: (Units=1/GPa)
#
#
# Indices 1 2 3 4 5 6 
#
# 1 0.012132 -0.005787 -0.001744 0.000000 0.000000 0.000000
# 2 -0.005787 0.028651 -0.005151 0.000000 0.000000 0.000000
# 3 -0.001744 -0.005151 0.009096 0.000000 0.000000 0.000000
# 4 0.000000 0.000000 0.000000 0.041788 0.000000 0.000000
# 5 0.000000 0.000000 0.000000 0.000000 0.076366 0.000000
# 6 0.000000 0.000000 0.000000 0.000000 0.000000 0.031484
#
#
# Mechanical properties :
#
#
# Convention : Reuss Voigt Hill
#
# Bulk Modulus (GPa) = 40.78902 51.35340 46.07121
# Shear Modulus (GPa) = 21.45434 26.31417 23.88425
#
# Velocity S-wave (km/s) = 3.46489 3.83731 3.65585
# Velocity P-wave (km/s) = 6.23155 6.95484 6.60311
#
# Compressibility (1/GPa) = 0.02451640
#
# Stress axis : x y z
#
# Youngs Moduli (GPa) = 82.42748 34.90230 109.93731
#
# Poissons Ratio (x) = 0.20198 0.19172
# Poissons Ratio (y) = 0.47701 0.56624
# Poissons Ratio (z) = 0.14374 0.17977
#
# Static dielectric constant tensor:
#      x y z
#    x 3.407210 0.000000 0.000000 
#    y 0.000000 3.202760 0.000000 
#    z 0.000000 0.000000 3.523390 
# 
# 
# High freq. dielectric constant tensor:
#      x y z
#    x 1.697090 0.000000 0.000000 
#    y 0.000000 1.683620 0.000000 
#    z 0.000000 0.000000 1.695720 
# 
# From -- ./inp_files/17756.got.cif
#   From: 2010.03.12/outbox.cif.g09.slc.cpg/sg35_9_cif.got.tgz:17756.got - 2010.04.14 02:02:04.
