data_PCOD8173166
_publ_section_title
;
Structure prediction by ZEFSAII (Michael W. Deem and Ramdas Pophale) SiO2 
 PCOD8173166
Probable space group: C M M 2
;
_chemical_formula_sum "Si O2"
_cell_formula_units_Z 56
_cell_length_a 21.496048
_cell_length_b 13.837491
_cell_length_c 10.092163
_cell_angle_alpha 90.000000
_cell_angle_beta 90.000000
_cell_angle_gamma 90.000000
_cell_volume 3001.927718
_symmetry_space_group_name_H-M "C M M 2"
_symmetry_group_IT_number 35
_symmetry_cell_setting 'orthorhombic'
loop_
_space_group_symop_operation_xyz
x,y,z
-x,-y,z
-x,y,z
x,-y,z
1/2+x,1/2+y,z
1/2-x,1/2-y,z
1/2-x,1/2+y,z
1/2+x,1/2-y,z
loop_
_atom_site_type_symbol
_atom_site_label
_atom_site_fract_x
_atom_site_fract_y
_atom_site_fract_z
Si Si1 0.230507 0.890629 0.708710
Si Si2 0.652988 0.794476 0.071822
Si Si3 0.218307 0.111574 0.148295
Si Si4 0.071898 0.392441 0.286617
Si Si5 0.650185 0.783130 0.777972
Si Si6 0.828714 0.891161 0.434232
Si Si7 0.928070 0.258340 0.523898
O O1 0.302131 0.865377 0.731265
O O2 0.185127 0.820221 0.790428
O O3 0.219128 0.874808 0.553362
O O4 0.216926 0.000000 0.754858
O O5 0.713653 0.859627 0.097917
O O6 0.667621 0.680247 0.079427
O O7 0.601863 0.822085 0.178945
O O8 0.626069 0.812590 0.924031
O O9 0.212129 0.132282 0.304976
O O10 0.204857 0.000000 0.112131
O O11 0.101261 0.500000 0.279410
O O12 0.081803 0.354011 0.435758
O O13 0.000000 0.396034 0.250375
O O14 0.593677 0.778600 0.674202
O O15 0.889401 0.825761 0.452291
O O16 0.854416 0.000000 0.429769
O O17 0.000000 0.226700 0.528268
#
# Coordination Sequence:
#
# PCOD8173166 Si02
#       7
#     8   8   8   8   8   8   8
#     4   9  18  33  53  79 115 147 176 223 276 327
#     4  11  22  35  55  83 115 150 184 225 278 336
#     4  10  20  33  55  86 117 147 181 226 279 336
#     4  10  22  40  59  78 104 143 189 233 279 331
#     4  10  22  34  53  84 111 145 187 222 270 332
#     4   9  18  33  56  87 112 139 180 229 282 329
#     4  10  21  39  59  79 107 145 188 235 277 322
#
# _framework density 18.654679999999999
#
# number of rings (size 3 to 8) (size 9 to 14) (size 15 to 20)
#    0.000    2.143    1.429    2.143    2.000    5.429 
#    0.000    0.000    0.000    2.143    0.000    2.000 
#    0.000    0.000    0.000    0.000    0.000    0.000 
#
# Total GULP energy -347169.891463 kJ/mol
# GULP energy per Si atom -12398.924695 kJ/mol
# Density = 1.861222 g / cm^3
# Si number density = 18.654680 Si / 1000 Ang^3
#
#
#
# Elastic Constant Matrix: (Units=GPa)
#
#
# Indices 1 2 3 4 5 6 
#
# 1 48.5267 37.8690 36.9158 0.0000 0.0000 0.0000
# 2 37.8690 105.9493 40.7363 0.0000 0.0000 0.0000
# 3 36.9158 40.7363 122.7020 0.0000 0.0000 0.0000
# 4 0.0000 0.0000 0.0000 19.3608 0.0000 0.0000
# 5 0.0000 0.0000 0.0000 0.0000 13.4467 0.0000
# 6 0.0000 0.0000 0.0000 0.0000 0.0000 20.5287
#
#
#
# Elastic Compliance Matrix: (Units=1/GPa)
#
#
# Indices 1 2 3 4 5 6 
#
# 1 0.032979 -0.009139 -0.006888 0.000000 0.000000 0.000000
# 2 -0.009139 0.013352 -0.001683 0.000000 0.000000 0.000000
# 3 -0.006888 -0.001683 0.010781 0.000000 0.000000 0.000000
# 4 0.000000 0.000000 0.000000 0.051651 0.000000 0.000000
# 5 0.000000 0.000000 0.000000 0.000000 0.074368 0.000000
# 6 0.000000 0.000000 0.000000 0.000000 0.000000 0.048712
#
#
# Mechanical properties :
#
#
# Convention : Reuss Voigt Hill
#
# Bulk Modulus (GPa) = 46.10091 56.46891 51.28491
# Shear Modulus (GPa) = 18.21536 21.44439 19.82987
#
# Velocity S-wave (km/s) = 3.12821 3.39417 3.26390
# Velocity P-wave (km/s) = 6.14931 6.75995 6.46185
#
# Compressibility (1/GPa) = 0.02169154
#
# Stress axis : x y z
#
# Youngs Moduli (GPa) = 30.32236 74.89358 92.75669
#
# Poissons Ratio (x) = 0.68447 0.63889
# Poissons Ratio (y) = 0.27712 0.15613
# Poissons Ratio (z) = 0.20885 0.12607
#
# Static dielectric constant tensor:
#      x y z
#    x 3.180170 0.000000 0.000000 
#    y 0.000000 3.621250 0.000000 
#    z 0.000000 0.000000 3.543700 
# 
# 
# High freq. dielectric constant tensor:
#      x y z
#    x 1.695010 0.000000 0.000000 
#    y 0.000000 1.732270 0.000000 
#    z 0.000000 0.000000 1.735610 
# 
# From -- ./inp_files/7596.got.cif
#   From: 2010.03.12/outbox.cif.g09.slc.cpg/sg35_4_cif.got.tgz:7596.got - 2010.04.14 02:02:04.
