data_PCOD8173899
_publ_section_title
;
Structure prediction by ZEFSAII (Michael W. Deem and Ramdas Pophale) SiO2 
 PCOD8173899
Probable space group: C M M 2
;
_chemical_formula_sum "Si O2"
_cell_formula_units_Z 40
_cell_length_a 18.206466
_cell_length_b 14.880962
_cell_length_c 7.198219
_cell_angle_alpha 90.000000
_cell_angle_beta 90.000000
_cell_angle_gamma 90.000000
_cell_volume 1950.211521
_symmetry_space_group_name_H-M "C M M 2"
_symmetry_group_IT_number 35
_symmetry_cell_setting 'orthorhombic'
loop_
_space_group_symop_operation_xyz
x,y,z
-x,-y,z
-x,y,z
x,-y,z
1/2+x,1/2+y,z
1/2-x,1/2-y,z
1/2-x,1/2+y,z
1/2+x,1/2-y,z
loop_
_atom_site_type_symbol
_atom_site_label
_atom_site_fract_x
_atom_site_fract_y
_atom_site_fract_z
Si Si1 0.581955 0.097063 0.375000
Si Si2 0.833939 0.231812 0.935875
Si Si3 0.081955 0.402937 0.934798
Si Si4 0.587212 0.393192 0.654899
Si Si5 0.333939 0.731812 0.373922
O O1 0.500000 0.106509 0.453070
O O2 0.581865 0.102319 0.154899
O O3 0.628414 0.178653 0.455127
O O4 0.614643 0.000000 0.438178
O O5 0.750000 0.250000 0.883817
O O6 0.871586 0.321347 0.854671
O O7 0.844781 0.216205 0.154899
O O8 0.871531 0.146803 0.835853
O O9 0.114643 0.500000 0.871620
O O10 0.000000 0.393491 0.856729
O O11 0.500000 0.369502 0.654899
O O12 0.598474 0.500000 0.654899
O O13 0.628469 0.353197 0.473945
O O14 0.250000 0.750000 0.425981
#
# Coordination Sequence:
#
# PCOD8173899 Si02
#       5
#     8   8   8   8   8
#     4   8  14  27  50  79 108 138 175 223 282 348
#     4  10  21  38  61  87 116 152 194 246 307 361
#     4   8  14  27  50  79 108 138 175 223 282 348
#     4  11  25  42  59  83 119 165 214 255 288 338
#     4  10  21  38  61  87 116 152 194 246 307 361
#
# _framework density 20.510597000000001
#
# number of rings (size 3 to 8) (size 9 to 14) (size 15 to 20)
#    0.000    2.600    0.000    3.000    0.000    4.800 
#    0.000    7.000    0.000    3.600    0.000    0.000 
#    0.000    0.000    0.000    0.000    0.000    0.000 
#
# Total GULP energy -247808.615064 kJ/mol
# GULP energy per Si atom -12390.430753 kJ/mol
# Density = 2.046391 g / cm^3
# Si number density = 20.510597 Si / 1000 Ang^3
#
#
#
# Elastic Constant Matrix: (Units=GPa)
#
#
# Indices 1 2 3 4 5 6 
#
# 1 137.6965 91.7253 42.7968 0.0000 0.0000 0.0000
# 2 91.7253 183.8700 42.4921 0.0000 0.0000 0.0000
# 3 42.7968 42.4921 91.9884 0.0000 0.0000 0.0000
# 4 0.0000 0.0000 0.0000 27.0461 0.0000 0.0000
# 5 0.0000 0.0000 0.0000 0.0000 807.3380 0.0000
# 6 0.0000 0.0000 0.0000 0.0000 0.0000 19.2306
#
#
#
# Elastic Compliance Matrix: (Units=1/GPa)
#
#
# Indices 1 2 3 4 5 6 
#
# 1 0.011593 -0.005079 -0.003047 0.000000 0.000000 0.000000
# 2 -0.005079 0.008314 -0.001477 0.000000 0.000000 0.000000
# 3 -0.003047 -0.001477 0.012971 0.000000 0.000000 0.000000
# 4 0.000000 0.000000 0.000000 0.036974 0.000000 0.000000
# 5 0.000000 0.000000 0.000000 0.000000 0.001239 0.000000
# 6 0.000000 0.000000 0.000000 0.000000 0.000000 0.052000
#
#
# Mechanical properties :
#
#
# Convention : Reuss Voigt Hill
#
# Bulk Modulus (GPa) = 73.15142 85.28704 79.21923
# Shear Modulus (GPa) = 34.04725 186.49233 110.26979
#
# Velocity S-wave (km/s) = 4.07871 9.54580 7.34024
# Velocity P-wave (km/s) = 7.61077 12.77374 10.51409
#
# Compressibility (1/GPa) = 0.01367027
#
# Stress axis : x y z
#
# Youngs Moduli (GPa) = 86.26080 120.28303 77.09426
#
# Poissons Ratio (x) = 0.61091 0.23493
# Poissons Ratio (y) = 0.43811 0.11390
# Poissons Ratio (z) = 0.26286 0.17771
#
# Static dielectric constant tensor:
#      x y z
#    x 3.872720 0.000000 0.000000 
#    y 0.000000 4.098160 0.000000 
#    z 0.000000 0.000000 3.488630 
# 
# 
# High freq. dielectric constant tensor:
#      x y z
#    x 1.799460 0.000000 0.000000 
#    y 0.000000 1.808790 0.000000 
#    z 0.000000 0.000000 1.800810 
# 
# From -- ./inp_files/7153.got.cif
#   From: 2010.03.12/outbox.cif.g09.slc.cpg/sg35_4_cif.got.tgz:7153.got - 2010.04.14 02:02:04.
