data_PCOD8173667
_publ_section_title
;
Structure prediction by ZEFSAII (Michael W. Deem and Ramdas Pophale) SiO2 
 PCOD8173667
Probable space group: C M M 2
;
_chemical_formula_sum "Si O2"
_cell_formula_units_Z 40
_cell_length_a 14.449983
_cell_length_b 17.617895
_cell_length_c 7.707259
_cell_angle_alpha 90.000000
_cell_angle_beta 90.000000
_cell_angle_gamma 90.000000
_cell_volume 1962.100765
_symmetry_space_group_name_H-M "C M M 2"
_symmetry_group_IT_number 35
_symmetry_cell_setting 'orthorhombic'
loop_
_space_group_symop_operation_xyz
x,y,z
-x,-y,z
-x,y,z
x,-y,z
1/2+x,1/2+y,z
1/2-x,1/2-y,z
1/2-x,1/2+y,z
1/2+x,1/2-y,z
loop_
_atom_site_type_symbol
_atom_site_label
_atom_site_fract_x
_atom_site_fract_y
_atom_site_fract_z
Si Si1 0.277152 0.163016 0.138220
Si Si2 0.891257 0.412137 0.439483
Si Si3 0.792106 0.589290 0.795725
Si Si4 0.399224 0.589429 0.259439
Si Si5 0.101029 0.090073 0.647875
O O1 0.250000 0.250000 0.144324
O O2 0.341639 0.141339 0.299914
O O3 0.180522 0.118350 0.134925
O O4 0.328754 0.137666 0.960415
O O5 0.867270 0.500000 0.398159
O O6 0.855321 0.390663 0.630658
O O7 0.000000 0.396718 0.431852
O O8 0.798065 0.500000 0.837800
O O9 0.686491 0.617744 0.763774
O O10 0.500000 0.615809 0.189114
O O11 0.394216 0.500000 0.262634
O O12 0.384508 0.621995 0.453477
O O13 0.000000 0.117012 0.720387
O O14 0.103075 0.000000 0.638358
#
# Coordination Sequence:
#
# PCOD8173667 Si02
#       5
#     8   8   8   8   8
#     4  12  25  38  59  89 133 166 196 240 312 385
#     4  10  22  43  69  91 115 158 219 274 308 344
#     4  10  20  37  62  89 118 156 211 263 304 355
#     4   9  17  34  61  89 115 148 196 247 295 352
#     4   8  14  28  55  87 115 143 183 242 300 347
#
# _framework density 20.386313000000001
#
# number of rings (size 3 to 8) (size 9 to 14) (size 15 to 20)
#    0.000    2.200    2.000    3.000    0.000    3.200 
#    0.000    4.000    0.000    0.000    0.000    0.000 
#    0.000    0.000    0.000    0.000    0.000    0.000 
#
# Total GULP energy -247901.016471 kJ/mol
# GULP energy per Si atom -12395.050824 kJ/mol
# Density = 2.033991 g / cm^3
# Si number density = 20.386313 Si / 1000 Ang^3
#
#
#
# Elastic Constant Matrix: (Units=GPa)
#
#
# Indices 1 2 3 4 5 6 
#
# 1 110.2316 36.7053 51.4204 0.0000 0.0000 0.0000
# 2 36.7053 66.5322 60.9263 0.0000 0.0000 0.0000
# 3 51.4204 60.9263 138.3444 0.0000 0.0000 0.0000
# 4 0.0000 0.0000 0.0000 24.7160 0.0000 0.0000
# 5 0.0000 0.0000 0.0000 0.0000 21.2061 0.0000
# 6 0.0000 0.0000 0.0000 0.0000 0.0000 10.2912
#
#
#
# Elastic Compliance Matrix: (Units=1/GPa)
#
#
# Indices 1 2 3 4 5 6 
#
# 1 0.011609 -0.004111 -0.002504 0.000000 0.000000 0.000000
# 2 -0.004111 0.026645 -0.010206 0.000000 0.000000 0.000000
# 3 -0.002504 -0.010206 0.012654 0.000000 0.000000 0.000000
# 4 0.000000 0.000000 0.000000 0.040460 0.000000 0.000000
# 5 0.000000 0.000000 0.000000 0.000000 0.047156 0.000000
# 6 0.000000 0.000000 0.000000 0.000000 0.000000 0.097171
#
#
# Mechanical properties :
#
#
# Convention : Reuss Voigt Hill
#
# Bulk Modulus (GPa) = 57.92353 68.13466 63.02910
# Shear Modulus (GPa) = 18.17574 22.31308 20.24441
#
# Velocity S-wave (km/s) = 2.98915 3.31193 3.15467
# Velocity P-wave (km/s) = 6.35515 6.93682 6.65235
#
# Compressibility (1/GPa) = 0.01726414
#
# Stress axis : x y z
#
# Youngs Moduli (GPa) = 86.14017 37.53104 79.02742
#
# Poissons Ratio (x) = 0.15430 0.19791
# Poissons Ratio (y) = 0.35415 0.80656
# Poissons Ratio (z) = 0.21572 0.38304
#
# Static dielectric constant tensor:
#      x y z
#    x 3.454590 0.000000 0.000000 
#    y 0.000000 3.171640 0.000000 
#    z 0.000000 0.000000 3.753110 
# 
# 
# High freq. dielectric constant tensor:
#      x y z
#    x 1.803860 0.000000 0.000000 
#    y 0.000000 1.748590 0.000000 
#    z 0.000000 0.000000 1.800210 
# 
# From -- ./inp_files/7008.got.cif
#   From: 2010.03.12/outbox.cif.g09.slc.cpg/sg35_4_cif.got.tgz:7008.got - 2010.04.14 02:02:04.
