data_PCOD8173302
_publ_section_title
;
Structure prediction by ZEFSAII (Michael W. Deem and Ramdas Pophale) SiO2 
 PCOD8173302
Probable space group: C M M 2
;
_chemical_formula_sum "Si O2"
_cell_formula_units_Z 56
_cell_length_a 15.000321
_cell_length_b 14.364507
_cell_length_c 12.779835
_cell_angle_alpha 90.000000
_cell_angle_beta 90.000000
_cell_angle_gamma 90.000000
_cell_volume 2753.699368
_symmetry_space_group_name_H-M "C M M 2"
_symmetry_group_IT_number 35
_symmetry_cell_setting 'orthorhombic'
loop_
_space_group_symop_operation_xyz
x,y,z
-x,-y,z
-x,y,z
x,-y,z
1/2+x,1/2+y,z
1/2-x,1/2-y,z
1/2-x,1/2+y,z
1/2+x,1/2-y,z
loop_
_atom_site_type_symbol
_atom_site_label
_atom_site_fract_x
_atom_site_fract_y
_atom_site_fract_z
Si Si1 0.602499 0.203675 0.997910
Si Si2 0.784203 0.606089 0.822186
Si Si3 0.102571 0.397564 0.201400
Si Si4 0.099344 0.102848 0.919311
Si Si5 0.654202 0.778064 0.393980
Si Si6 0.903049 0.103550 0.496246
Si Si7 0.284385 0.106903 0.587021
O O1 0.500000 0.173068 0.979068
O O2 0.662090 0.171028 0.900885
O O3 0.643539 0.160949 0.104619
O O4 0.609700 0.316135 0.006477
O O5 0.813686 0.500000 0.842711
O O6 0.809636 0.636864 0.704541
O O7 0.677058 0.616086 0.833564
O O8 0.148340 0.500000 0.207901
O O9 0.109553 0.345619 0.311194
O O10 0.000000 0.410691 0.175852
O O11 0.000000 0.111433 0.867239
O O12 0.109115 0.000000 0.972005
O O13 0.750000 0.750000 0.349454
O O14 0.598222 0.682792 0.406279
O O15 0.661100 0.830035 0.505938
O O16 0.822158 0.122479 0.575739
O O17 0.000000 0.109168 0.553002
O O18 0.891368 0.000000 0.445826
O O19 0.310118 0.000000 0.566023
#
# Coordination Sequence:
#
# PCOD8173302 Si02
#       7
#     8   8   8   8   8   8   8
#     4  10  21  37  57  80 108 143 183 225 270 323
#     4  10  20  35  57  82 111 145 179 222 272 322
#     4  10  21  38  59  80 104 137 179 225 268 315
#     4   9  19  35  54  79 111 145 181 220 264 318
#     4  10  20  34  55  81 108 139 174 218 267 317
#     4   9  18  33  52  75 107 144 178 213 256 313
#     4   9  19  35  54  79 109 140 176 218 266 319
#
# _framework density 20.336279000000001
#
# number of rings (size 3 to 8) (size 9 to 14) (size 15 to 20)
#    0.000    2.429    0.000    1.714    0.000    6.571 
#    0.000    6.429    0.000    4.286    0.000    0.000 
#    0.000    0.000    0.000    0.000    0.000    0.000 
#
# Total GULP energy -346941.570649 kJ/mol
# GULP energy per Si atom -12390.770380 kJ/mol
# Density = 2.028999 g / cm^3
# Si number density = 20.336279 Si / 1000 Ang^3
#
#
#
# Elastic Constant Matrix: (Units=GPa)
#
#
# Indices 1 2 3 4 5 6 
#
# 1 67.8185 31.1504 33.2366 0.0000 0.0000 0.0000
# 2 31.1504 156.6424 77.0094 0.0000 0.0000 0.0000
# 3 33.2366 77.0094 125.1248 0.0000 0.0000 0.0000
# 4 0.0000 0.0000 0.0000 23.5586 0.0000 0.0000
# 5 0.0000 0.0000 0.0000 0.0000 16.0007 0.0000
# 6 0.0000 0.0000 0.0000 0.0000 0.0000 24.2838
#
#
#
# Elastic Compliance Matrix: (Units=1/GPa)
#
#
# Indices 1 2 3 4 5 6 
#
# 1 0.017258 -0.001689 -0.003544 0.000000 0.000000 0.000000
# 2 -0.001689 0.009319 -0.005287 0.000000 0.000000 0.000000
# 3 -0.003544 -0.005287 0.012187 0.000000 0.000000 0.000000
# 4 0.000000 0.000000 0.000000 0.042447 0.000000 0.000000
# 5 0.000000 0.000000 0.000000 0.000000 0.062497 0.000000
# 6 0.000000 0.000000 0.000000 0.000000 0.000000 0.041180
#
#
# Mechanical properties :
#
#
# Convention : Reuss Voigt Hill
#
# Bulk Modulus (GPa) = 56.42293 70.26428 63.34361
# Shear Modulus (GPa) = 23.60294 26.64792 25.12543
#
# Velocity S-wave (km/s) = 3.41050 3.62382 3.51878
# Velocity P-wave (km/s) = 6.58133 7.22050 6.90831
#
# Compressibility (1/GPa) = 0.01772329
#
# Stress axis : x y z
#
# Youngs Moduli (GPa) = 57.94306 107.30735 82.05271
#
# Poissons Ratio (x) = 0.18130 0.29083
# Poissons Ratio (y) = 0.09789 0.43379
# Poissons Ratio (z) = 0.20538 0.56730
#
# Static dielectric constant tensor:
#      x y z
#    x 3.670160 0.000000 0.000000 
#    y 0.000000 4.213800 0.000000 
#    z 0.000000 0.000000 3.291400 
# 
# 
# High freq. dielectric constant tensor:
#      x y z
#    x 1.786060 0.000000 0.000000 
#    y 0.000000 1.822330 0.000000 
#    z 0.000000 0.000000 1.753960 
# 
# From -- ./inp_files/12971.got.cif
#   From: 2010.03.12/outbox.cif.g09.slc.cpg/sg35_7_cif.got.tgz:12971.got - 2010.04.14 02:02:04.
