data_PCOD8173701
_publ_section_title
;
Structure prediction by ZEFSAII (Michael W. Deem and Ramdas Pophale) SiO2 
 PCOD8173701
Probable space group: C M M 2
;
_chemical_formula_sum "Si O2"
_cell_formula_units_Z 48
_cell_length_a 14.918425
_cell_length_b 8.773750
_cell_length_c 18.881216
_cell_angle_alpha 90.000000
_cell_angle_beta 90.000000
_cell_angle_gamma 90.000000
_cell_volume 2471.372395
_symmetry_space_group_name_H-M "C M M 2"
_symmetry_group_IT_number 35
_symmetry_cell_setting 'orthorhombic'
loop_
_space_group_symop_operation_xyz
x,y,z
-x,-y,z
-x,y,z
x,-y,z
1/2+x,1/2+y,z
1/2-x,1/2-y,z
1/2-x,1/2+y,z
1/2+x,1/2-y,z
loop_
_atom_site_type_symbol
_atom_site_label
_atom_site_fract_x
_atom_site_fract_y
_atom_site_fract_z
Si Si1 0.394467 0.172566 0.497890
Si Si2 0.151193 0.322271 0.989708
Si Si3 0.000000 0.681571 0.885658
Si Si4 0.343985 0.819186 0.341162
Si Si5 0.000000 0.319401 0.724927
Si Si6 0.000000 0.323777 0.102396
Si Si7 0.340889 0.678985 0.638065
Si Si8 0.500000 0.321169 0.251707
O O1 0.500000 0.178423 0.506871
O O2 0.367883 0.233560 0.420655
O O3 0.350375 0.283774 0.554916
O O4 0.359491 0.000000 0.510132
O O5 0.167822 0.500000 0.980583
O O6 0.250000 0.250000 0.994114
O O7 0.091068 0.288313 0.059016
O O8 0.091477 0.259001 0.923627
O O9 0.000000 0.740695 0.805369
O O10 0.000000 0.500000 0.891772
O O11 0.250000 0.750000 0.318382
O O12 0.413402 0.753020 0.286044
O O13 0.344091 0.000000 0.335471
O O14 0.914971 0.257594 0.684829
O O15 0.000000 0.500000 0.721696
O O16 0.000000 0.500000 0.126474
O O17 0.000000 0.212020 0.168682
O O18 0.343741 0.500000 0.649384
O O19 0.250000 0.750000 0.667561
O O20 0.500000 0.500000 0.265668
#
# Coordination Sequence:
#
# PCOD8173701 Si02
#       8
#     8   8   4   8   4   4   8   4
#     4  10  20  38  63  87 114 150 193 245 302 354
#     4   9  18  36  62  90 117 150 190 231 281 339
#     4   8  18  37  60  86 118 155 189 226 284 346
#     4  11  23  41  62  87 117 153 196 245 298 354
#     4  11  22  40  62  85 120 158 194 243 294 348
#     4   9  20  39  60  82 118 159 190 231 286 344
#     4  12  25  40  59  85 116 155 200 247 297 353
#     4  12  25  40  60  87 120 158 199 242 290 348
#
# _framework density 19.422407
#
# number of rings (size 3 to 8) (size 9 to 14) (size 15 to 20)
#    0.000    1.667    1.667    4.500    0.000    4.667 
#    0.000    6.250    0.000    0.000    0.000    0.000 
#    0.000    0.000    0.000    0.000    0.000    0.000 
#
# Total GULP energy -297615.190347 kJ/mol
# GULP energy per Si atom -12400.632931 kJ/mol
# Density = 1.937820 g / cm^3
# Si number density = 19.422407 Si / 1000 Ang^3
#
#
#
# Elastic Constant Matrix: (Units=GPa)
#
#
# Indices 1 2 3 4 5 6 
#
# 1 168.3402 48.2717 64.6279 0.0000 0.0000 0.0000
# 2 48.2717 89.2037 47.0882 0.0000 0.0000 0.0000
# 3 64.6279 47.0882 127.1210 0.0000 0.0000 0.0000
# 4 0.0000 0.0000 0.0000 14.7675 0.0000 0.0000
# 5 0.0000 0.0000 0.0000 0.0000 44.2945 0.0000
# 6 0.0000 0.0000 0.0000 0.0000 0.0000 34.1211
#
#
#
# Elastic Compliance Matrix: (Units=1/GPa)
#
#
# Indices 1 2 3 4 5 6 
#
# 1 0.007860 -0.002665 -0.003009 0.000000 0.000000 0.000000
# 2 -0.002665 0.014839 -0.004142 0.000000 0.000000 0.000000
# 3 -0.003009 -0.004142 0.010930 0.000000 0.000000 0.000000
# 4 0.000000 0.000000 0.000000 0.067716 0.000000 0.000000
# 5 0.000000 0.000000 0.000000 0.000000 0.022576 0.000000
# 6 0.000000 0.000000 0.000000 0.000000 0.000000 0.029307
#
#
# Mechanical properties :
#
#
# Convention : Reuss Voigt Hill
#
# Bulk Modulus (GPa) = 71.43890 78.29337 74.86614
# Shear Modulus (GPa) = 28.16504 33.61510 30.89007
#
# Velocity S-wave (km/s) = 3.81219 4.16473 3.99235
# Velocity P-wave (km/s) = 7.49924 7.97026 7.73833
#
# Compressibility (1/GPa) = 0.01399798
#
# Stress axis : x y z
#
# Youngs Moduli (GPa) = 127.23320 67.39138 91.48904
#
# Poissons Ratio (x) = 0.17960 0.27526
# Poissons Ratio (y) = 0.33907 0.37892
# Poissons Ratio (z) = 0.38280 0.27911
#
# Static dielectric constant tensor:
#      x y z
#    x 3.705090 0.000000 0.000000 
#    y 0.000000 3.459010 0.000000 
#    z 0.000000 0.000000 3.649540 
# 
# 
# High freq. dielectric constant tensor:
#      x y z
#    x 1.773310 0.000000 0.000000 
#    y 0.000000 1.748470 0.000000 
#    z 0.000000 0.000000 1.755750 
# 
# From -- ./inp_files/18822.got.cif
#   From: 2010.03.12/outbox.cif.g09.slc.cpg/sg35_10_cif.got.tgz:18822.got - 2010.04.14 02:02:04.
