data_PCOD8173512
_publ_section_title
;
Structure prediction by ZEFSAII (Michael W. Deem and Ramdas Pophale) SiO2 
 PCOD8173512
Probable space group: C M M 2
;
_chemical_formula_sum "Si O2"
_cell_formula_units_Z 40
_cell_length_a 25.982706
_cell_length_b 8.659218
_cell_length_c 9.766285
_cell_angle_alpha 90.000000
_cell_angle_beta 90.000000
_cell_angle_gamma 90.000000
_cell_volume 2197.315637
_symmetry_space_group_name_H-M "C M M 2"
_symmetry_group_IT_number 35
_symmetry_cell_setting 'orthorhombic'
loop_
_space_group_symop_operation_xyz
x,y,z
-x,-y,z
-x,y,z
x,-y,z
1/2+x,1/2+y,z
1/2-x,1/2-y,z
1/2-x,1/2+y,z
1/2+x,1/2-y,z
loop_
_atom_site_type_symbol
_atom_site_label
_atom_site_fract_x
_atom_site_fract_y
_atom_site_fract_z
Si Si1 0.500000 0.168374 0.576231
Si Si2 0.390385 0.185562 0.592497
Si Si3 0.606935 0.317455 0.889404
Si Si4 0.303222 0.818672 0.389691
Si Si5 0.000000 0.329219 0.900169
Si Si6 0.304549 0.182957 0.075830
O O1 0.446058 0.251527 0.537753
O O2 0.500000 0.152390 0.738821
O O3 0.500000 0.000000 0.506177
O O4 0.377938 0.249734 0.741933
O O5 0.348413 0.247221 0.485638
O O6 0.392622 0.000000 0.601749
O O7 0.605993 0.500000 0.879911
O O8 0.551546 0.260592 0.945451
O O9 0.650040 0.262267 0.993797
O O10 0.250000 0.750000 0.444627
O O11 0.313515 0.769759 0.233707
O O12 0.299919 0.000000 0.404863
O O13 0.000000 0.500000 0.968290
O O14 0.250000 0.250000 0.024615
O O15 0.305310 0.000000 0.053502
#
# Coordination Sequence:
#
# PCOD8173512 Si02
#       6
#     4   8   8   8   4   8
#     4   7  12  25  48  71  94 124 158 196 244 291
#     4   9  17  32  52  75 101 132 169 211 253 300
#     4  11  21  33  52  80 108 137 171 211 256 307
#     4   9  19  34  53  74  99 132 171 210 255 306
#     4   9  17  33  54  75 102 138 172 210 256 303
#     4  10  20  36  54  74 101 137 176 216 261 310
#
# _framework density 18.204029999999999
#
# number of rings (size 3 to 8) (size 9 to 14) (size 15 to 20)
#    0.000    2.600    0.000    3.900    0.000    2.400 
#    0.000    3.000    0.000    3.600    0.000    2.800 
#    0.000    0.000    0.000    0.000    0.000    0.000 
#
# Total GULP energy -247889.480736 kJ/mol
# GULP energy per Si atom -12394.474037 kJ/mol
# Density = 1.816260 g / cm^3
# Si number density = 18.204030 Si / 1000 Ang^3
#
#
#
# Elastic Constant Matrix: (Units=GPa)
#
#
# Indices 1 2 3 4 5 6 
#
# 1 196.4127 42.4916 80.5354 0.0000 0.0000 0.0000
# 2 42.4916 66.6834 25.2249 0.0000 0.0000 0.0000
# 3 80.5354 25.2249 70.5821 0.0000 0.0000 0.0000
# 4 0.0000 0.0000 0.0000 17.7461 0.0000 0.0000
# 5 0.0000 0.0000 0.0000 0.0000 18.8086 0.0000
# 6 0.0000 0.0000 0.0000 0.0000 0.0000 31.9695
#
#
#
# Elastic Compliance Matrix: (Units=1/GPa)
#
#
# Indices 1 2 3 4 5 6 
#
# 1 0.009875 -0.002348 -0.010429 0.000000 0.000000 0.000000
# 2 -0.002348 0.017899 -0.003718 0.000000 0.000000 0.000000
# 3 -0.010429 -0.003718 0.027396 0.000000 0.000000 0.000000
# 4 0.000000 0.000000 0.000000 0.056350 0.000000 0.000000
# 5 0.000000 0.000000 0.000000 0.000000 0.053167 0.000000
# 6 0.000000 0.000000 0.000000 0.000000 0.000000 0.031280
#
#
# Mechanical properties :
#
#
# Convention : Reuss Voigt Hill
#
# Bulk Modulus (GPa) = 45.08341 70.02022 57.55181
# Shear Modulus (GPa) = 21.15501 26.06660 23.61080
#
# Velocity S-wave (km/s) = 3.41267 3.78817 3.60531
# Velocity P-wave (km/s) = 6.35199 7.59482 7.00104
#
# Compressibility (1/GPa) = 0.02218111
#
# Stress axis : x y z
#
# Youngs Moduli (GPa) = 101.26132 55.87015 36.50127
#
# Poissons Ratio (x) = 0.13117 0.38067
# Poissons Ratio (y) = 0.23773 0.13571
# Poissons Ratio (z) = 1.05606 0.20772
#
# Static dielectric constant tensor:
#      x y z
#    x 4.039220 0.000000 0.000000 
#    y 0.000000 3.278290 0.000000 
#    z 0.000000 0.000000 3.182110 
# 
# 
# High freq. dielectric constant tensor:
#      x y z
#    x 1.727220 0.000000 0.000000 
#    y 0.000000 1.696540 0.000000 
#    z 0.000000 0.000000 1.676490 
# 
# From -- ./inp_files/5012.got.cif
#   From: 2010.03.12/outbox.cif.g09.slc.cpg/sg35_3_cif.got.tgz:5012.got - 2010.04.14 02:02:04.
