data_PCOD8173084
_publ_section_title
;
Structure prediction by ZEFSAII (Michael W. Deem and Ramdas Pophale) SiO2 
 PCOD8173084
Probable space group: C M M 2
;
_chemical_formula_sum "Si O2"
_cell_formula_units_Z 64
_cell_length_a 9.095416
_cell_length_b 18.903639
_cell_length_c 20.278989
_cell_angle_alpha 90.000000
_cell_angle_beta 90.000000
_cell_angle_gamma 90.000000
_cell_volume 3486.697594
_symmetry_space_group_name_H-M "C M M 2"
_symmetry_group_IT_number 35
_symmetry_cell_setting 'orthorhombic'
loop_
_space_group_symop_operation_xyz
x,y,z
-x,-y,z
-x,y,z
x,-y,z
1/2+x,1/2+y,z
1/2-x,1/2-y,z
1/2-x,1/2+y,z
1/2+x,1/2-y,z
loop_
_atom_site_type_symbol
_atom_site_label
_atom_site_fract_x
_atom_site_fract_y
_atom_site_fract_z
Si Si1 0.326325 0.325102 0.816400
Si Si2 0.332518 0.083479 0.560155
Si Si3 0.171602 0.178289 0.459542
Si Si4 0.829549 0.081548 0.691465
Si Si5 0.666907 0.916104 0.206545
Si Si6 0.824968 0.079014 0.934953
Si Si7 0.663493 0.584083 0.079937
Si Si8 0.171402 0.821703 0.306738
O O1 0.500000 0.314033 0.820861
O O2 0.250000 0.250000 0.811392
O O3 0.282278 0.371267 0.753196
O O4 0.264956 0.366523 0.880481
O O5 0.500000 0.110236 0.556261
O O6 0.239354 0.114079 0.500072
O O7 0.264763 0.108454 0.629515
O O8 0.321604 0.000000 0.553600
O O9 0.250000 0.250000 0.482462
O O10 0.202857 0.162567 0.383124
O O11 0.000000 0.185289 0.474632
O O12 0.000000 0.091567 0.673667
O O13 0.795333 0.000000 0.708913
O O14 0.500000 0.889851 0.213507
O O15 0.728714 0.887175 0.136741
O O16 0.763050 0.886756 0.266311
O O17 0.678395 0.000000 0.209876
O O18 0.000000 0.074900 0.931918
O O19 0.761711 0.000000 0.921279
O O20 0.776546 0.106797 0.007612
O O21 0.500000 0.615110 0.092464
O O22 0.655613 0.500000 0.081545
O O23 0.250000 0.750000 0.283758
O O24 0.000000 0.814208 0.291842
#
# Coordination Sequence:
#
# PCOD8173084 Si02
#       8
#     8   8   8   8   8   8   8   8
#     4  10  20  33  50  74 103 132 164 206 255 304
#     4  10  21  36  55  80 109 138 169 210 257 304
#     4  10  21  37  57  79 104 136 173 213 256 306
#     4   9  18  34  55  75  97 131 174 214 250 294
#     4  10  20  33  51  77 108 139 172 213 258 304
#     4   8  14  28  52  76  95 124 170 215 251 294
#     4   8  14  27  49  74  98 127 167 214 258 300
#     4  10  21  37  56  77 103 136 174 214 257 307
#
# _framework density 18.355478999999999
#
# number of rings (size 3 to 8) (size 9 to 14) (size 15 to 20)
#    0.000    2.625    0.000    2.625    0.000    6.000 
#    0.000    5.000    0.000    3.375    0.000    0.000 
#    0.000    0.000    0.000    0.000    0.000    0.000 
#
# Total GULP energy -396810.508474 kJ/mol
# GULP energy per Si atom -12400.328390 kJ/mol
# Density = 1.831370 g / cm^3
# Si number density = 18.355479 Si / 1000 Ang^3
#
#
#
# Elastic Constant Matrix: (Units=GPa)
#
#
# Indices 1 2 3 4 5 6 
#
# 1 92.5085 38.8514 64.2610 0.0000 0.0000 0.0000
# 2 38.8514 65.4120 55.3019 0.0000 0.0000 0.0000
# 3 64.2610 55.3019 125.5867 0.0000 0.0000 0.0000
# 4 0.0000 0.0000 0.0000 12.2321 0.0000 0.0000
# 5 0.0000 0.0000 0.0000 0.0000 24.2042 0.0000
# 6 0.0000 0.0000 0.0000 0.0000 0.0000 30.5084
#
#
#
# Elastic Compliance Matrix: (Units=1/GPa)
#
#
# Indices 1 2 3 4 5 6 
#
# 1 0.017570 -0.004516 -0.007002 0.000000 0.000000 0.000000
# 2 -0.004516 0.025516 -0.008925 0.000000 0.000000 0.000000
# 3 -0.007002 -0.008925 0.015475 0.000000 0.000000 0.000000
# 4 0.000000 0.000000 0.000000 0.081752 0.000000 0.000000
# 5 0.000000 0.000000 0.000000 0.000000 0.041315 0.000000
# 6 0.000000 0.000000 0.000000 0.000000 0.000000 0.032778
#
#
# Mechanical properties :
#
#
# Convention : Reuss Voigt Hill
#
# Bulk Modulus (GPa) = 56.57550 66.70397 61.63974
# Shear Modulus (GPa) = 19.14363 21.72847 20.43605
#
# Velocity S-wave (km/s) = 3.23296 3.44431 3.34031
# Velocity P-wave (km/s) = 6.69515 7.22750 6.96641
#
# Compressibility (1/GPa) = 0.01767550
#
# Stress axis : x y z
#
# Youngs Moduli (GPa) = 56.91410 39.19178 64.61904
#
# Poissons Ratio (x) = 0.17700 0.45244
# Poissons Ratio (y) = 0.25705 0.57671
# Poissons Ratio (z) = 0.39850 0.34978
#
# Static dielectric constant tensor:
#      x y z
#    x 3.382720 0.000000 0.000000 
#    y 0.000000 3.187400 0.000000 
#    z 0.000000 0.000000 3.604960 
# 
# 
# High freq. dielectric constant tensor:
#      x y z
#    x 1.703560 0.000000 0.000000 
#    y 0.000000 1.692470 0.000000 
#    z 0.000000 0.000000 1.723560 
# 
# From -- ./inp_files/18308.got.cif
#   From: 2010.03.12/outbox.cif.g09.slc.cpg/sg35_10_cif.got.tgz:18308.got - 2010.04.14 02:02:04.
