data_PCOD8173574
_publ_section_title
;
Structure prediction by ZEFSAII (Michael W. Deem and Ramdas Pophale) SiO2 
 PCOD8173574
Probable space group: C M M 2
;
_chemical_formula_sum "Si O2"
_cell_formula_units_Z 44
_cell_length_a 14.578504
_cell_length_b 9.088214
_cell_length_c 15.977674
_cell_angle_alpha 90.000000
_cell_angle_beta 90.000000
_cell_angle_gamma 90.000000
_cell_volume 2116.922997
_symmetry_space_group_name_H-M "C M M 2"
_symmetry_group_IT_number 35
_symmetry_cell_setting 'orthorhombic'
loop_
_space_group_symop_operation_xyz
x,y,z
-x,-y,z
-x,y,z
x,-y,z
1/2+x,1/2+y,z
1/2-x,1/2-y,z
1/2-x,1/2+y,z
1/2+x,1/2-y,z
loop_
_atom_site_type_symbol
_atom_site_label
_atom_site_fract_x
_atom_site_fract_y
_atom_site_fract_z
Si Si1 0.653736 0.675802 0.559310
Si Si2 0.250000 0.250000 0.848304
Si Si3 0.897343 0.338769 0.720899
Si Si4 0.339262 0.329490 0.152013
Si Si5 0.900433 0.165722 0.976151
Si Si6 0.000000 0.168046 0.279493
Si Si7 0.500000 0.175777 0.451188
O O1 0.656812 0.500000 0.548559
O O2 0.750000 0.750000 0.540947
O O3 0.622347 0.711758 0.653877
O O4 0.587641 0.749642 0.492744
O O5 0.181983 0.346691 0.791179
O O6 0.178843 0.162096 0.906126
O O7 0.895192 0.500000 0.677153
O O8 0.000000 0.310676 0.758589
O O9 0.317405 0.500000 0.140142
O O10 0.250000 0.250000 0.186248
O O11 0.413276 0.300356 0.222474
O O12 0.368445 0.256364 0.062431
O O13 0.000000 0.233335 0.946322
O O14 0.920175 0.000000 0.001519
O O15 0.000000 0.285034 0.353883
O O16 0.000000 0.000000 0.313607
O O17 0.500000 0.000000 0.463912
#
# Coordination Sequence:
#
# PCOD8173574 Si02
#       7
#     8   4   8   8   8   4   4
#     4  12  25  44  72 101 132 174 224 271 334 402
#     4  12  22  36  62  92 130 170 228 278 328 382
#     4  11  24  41  61  90 133 176 219 273 337 395
#     4  10  20  38  64  92 125 168 215 268 328 389
#     4  10  20  36  58  87 124 171 223 271 325 388
#     4  10  22  42  68  95 130 171 216 263 322 399
#     4  12  26  46  72 103 140 171 214 275 332 399
#
# _framework density 20.784884999999999
#
# number of rings (size 3 to 8) (size 9 to 14) (size 15 to 20)
#    0.000    1.091    3.636    3.545    0.000    2.182 
#    0.000    1.818    0.000    1.091    0.000    0.000 
#    0.000    0.000    0.000    0.000    0.000    0.000 
#
# Total GULP energy -272615.579986 kJ/mol
# GULP energy per Si atom -12391.617272 kJ/mol
# Density = 2.073758 g / cm^3
# Si number density = 20.784885 Si / 1000 Ang^3
#
#
#
# Elastic Constant Matrix: (Units=GPa)
#
#
# Indices 1 2 3 4 5 6 
#
# 1 204.1950 63.7249 65.6924 0.0000 0.0000 0.0000
# 2 63.7249 122.9585 48.2165 0.0000 0.0000 0.0000
# 3 65.6924 48.2165 120.2866 0.0000 0.0000 0.0000
# 4 0.0000 0.0000 0.0000 27.0074 0.0000 0.0000
# 5 0.0000 0.0000 0.0000 0.0000 785.8904 0.0000
# 6 0.0000 0.0000 0.0000 0.0000 0.0000 26.3133
#
#
#
# Elastic Compliance Matrix: (Units=1/GPa)
#
#
# Indices 1 2 3 4 5 6 
#
# 1 0.006459 -0.002330 -0.002593 0.000000 0.000000 0.000000
# 2 -0.002330 0.010491 -0.002932 0.000000 0.000000 0.000000
# 3 -0.002593 -0.002932 0.010905 0.000000 0.000000 0.000000
# 4 0.000000 0.000000 0.000000 0.037027 0.000000 0.000000
# 5 0.000000 0.000000 0.000000 0.000000 0.001272 0.000000
# 6 0.000000 0.000000 0.000000 0.000000 0.000000 0.038004
#
#
# Mechanical properties :
#
#
# Convention : Reuss Voigt Hill
#
# Bulk Modulus (GPa) = 82.35596 89.18976 85.77286
# Shear Modulus (GPa) = 40.34960 185.82931 113.08945
#
# Velocity S-wave (km/s) = 4.41079 9.46573 7.38428
# Velocity P-wave (km/s) = 8.10242 12.74640 10.67989
#
# Compressibility (1/GPa) = 0.01214241
#
# Stress axis : x y z
#
# Youngs Moduli (GPa) = 154.82628 95.32428 91.69986
#
# Poissons Ratio (x) = 0.22215 0.23780
# Poissons Ratio (y) = 0.36082 0.26889
# Poissons Ratio (z) = 0.40150 0.27952
#
# Static dielectric constant tensor:
#      x y z
#    x 0.964910 0.000000 0.000000 
#    y 0.000000 3.549090 0.000000 
#    z 0.000000 0.000000 3.672170 
# 
# 
# High freq. dielectric constant tensor:
#      x y z
#    x 1.842850 0.000000 0.000000 
#    y 0.000000 1.793600 0.000000 
#    z 0.000000 0.000000 1.807480 
# 
# From -- ./inp_files/18715.got.cif
#   From: 2010.03.12/outbox.cif.g09.slc.cpg/sg35_10_cif.got.tgz:18715.got - 2010.04.14 02:02:04.
