data_PCOD8173067
_publ_section_title
;
Structure prediction by ZEFSAII (Michael W. Deem and Ramdas Pophale) SiO2 
 PCOD8173067
Probable space group: C M M 2
;
_chemical_formula_sum "Si O2"
_cell_formula_units_Z 64
_cell_length_a 9.106099
_cell_length_b 19.556022
_cell_length_c 20.287205
_cell_angle_alpha 90.000000
_cell_angle_beta 90.000000
_cell_angle_gamma 90.000000
_cell_volume 3612.726648
_symmetry_space_group_name_H-M "C M M 2"
_symmetry_group_IT_number 35
_symmetry_cell_setting 'orthorhombic'
loop_
_space_group_symop_operation_xyz
x,y,z
-x,-y,z
-x,y,z
x,-y,z
1/2+x,1/2+y,z
1/2-x,1/2-y,z
1/2-x,1/2+y,z
1/2+x,1/2-y,z
loop_
_atom_site_type_symbol
_atom_site_label
_atom_site_fract_x
_atom_site_fract_y
_atom_site_fract_z
Si Si1 0.671812 0.180492 0.547540
Si Si2 0.670743 0.419439 0.451952
Si Si3 0.665773 0.581563 0.192939
Si Si4 0.164597 0.581588 0.065125
Si Si5 0.165776 0.418699 0.320848
Si Si6 0.669939 0.181708 0.701102
Si Si7 0.836794 0.081360 0.940113
Si Si8 0.329255 0.420459 0.793518
O O1 0.500000 0.184866 0.530382
O O2 0.750000 0.250000 0.523793
O O3 0.745420 0.116617 0.511508
O O4 0.699728 0.168106 0.624469
O O5 0.500000 0.399336 0.452012
O O6 0.692871 0.500000 0.461345
O O7 0.741569 0.393632 0.383638
O O8 0.500000 0.609603 0.196595
O O9 0.666116 0.500000 0.193596
O O10 0.740124 0.609404 0.126183
O O11 0.756419 0.610245 0.255249
O O12 0.166448 0.500000 0.064684
O O13 0.000000 0.609605 0.072734
O O14 0.229532 0.610543 0.996464
O O15 0.162930 0.500000 0.318252
O O16 0.000000 0.389742 0.325016
O O17 0.500000 0.190946 0.716628
O O18 0.750000 0.250000 0.725443
O O19 0.730880 0.117610 0.740593
O O20 0.784342 0.104220 0.867281
O O21 0.000000 0.109676 0.954272
O O22 0.840938 0.000000 0.942376
O O23 0.500000 0.404911 0.780754
O O24 0.295523 0.500000 0.784774
#
# Coordination Sequence:
#
# PCOD8173067 Si02
#       8
#     8   8   8   8   8   8   8   8
#     4  10  21  37  55  74  97 126 160 199 243 289
#     4  10  20  33  50  73 100 130 163 198 239 289
#     4   9  15  22  33  50  76 113 154 192 231 279
#     4   9  15  21  31  50  77 111 151 192 232 275
#     4   9  16  26  40  59  86 119 154 194 238 281
#     4  10  21  36  54  74  97 126 160 199 242 289
#     4   8  14  25  39  56  82 117 153 188 230 279
#     4   9  18  32  50  72  99 130 162 198 242 291
#
# _framework density 17.715152
#
# number of rings (size 3 to 8) (size 9 to 14) (size 15 to 20)
#    0.000    2.750    0.000    3.000    0.000    8.000 
#    0.000    3.750    0.000    0.000    0.000    0.000 
#    0.000    1.000    0.000    7.000    0.000   13.250 
#
# Total GULP energy -396767.326582 kJ/mol
# GULP energy per Si atom -12398.978956 kJ/mol
# Density = 1.767483 g / cm^3
# Si number density = 17.715152 Si / 1000 Ang^3
#
#
#
# Elastic Constant Matrix: (Units=GPa)
#
#
# Indices 1 2 3 4 5 6 
#
# 1 149.8398 36.8898 79.0525 0.0000 0.0000 0.0000
# 2 36.8898 33.2839 39.1830 0.0000 0.0000 0.0000
# 3 79.0525 39.1830 114.3996 0.0000 0.0000 0.0000
# 4 0.0000 0.0000 0.0000 0.9581 0.0000 0.0000
# 5 0.0000 0.0000 0.0000 0.0000 39.0338 0.0000
# 6 0.0000 0.0000 0.0000 0.0000 0.0000 21.2169
#
#
#
# Elastic Compliance Matrix: (Units=1/GPa)
#
#
# Indices 1 2 3 4 5 6 
#
# 1 0.011066 -0.005467 -0.005774 0.000000 0.000000 0.000000
# 2 -0.005467 0.053045 -0.014391 0.000000 0.000000 0.000000
# 3 -0.005774 -0.014391 0.017660 0.000000 0.000000 0.000000
# 4 0.000000 0.000000 0.000000 1.043780 0.000000 0.000000
# 5 0.000000 0.000000 0.000000 0.000000 0.025619 0.000000
# 6 0.000000 0.000000 0.000000 0.000000 0.000000 0.047132
#
#
# Mechanical properties :
#
#
# Convention : Reuss Voigt Hill
#
# Bulk Modulus (GPa) = 32.77886 67.53045 50.15466
# Shear Modulus (GPa) = 3.96908 21.73496 12.85202
#
# Velocity S-wave (km/s) = 1.49845 3.50653 2.69640
# Velocity P-wave (km/s) = 4.64083 7.38900 6.16987
#
# Compressibility (1/GPa) = 0.03050746
#
# Stress axis : x y z
#
# Youngs Moduli (GPa) = 90.36448 18.85183 56.62372
#
# Poissons Ratio (x) = 0.10307 0.32697
# Poissons Ratio (y) = 0.49405 0.81484
# Poissons Ratio (z) = 0.52180 0.27129
#
# Static dielectric constant tensor:
#      x y z
#    x 3.490240 0.000000 0.000000 
#    y 0.000000 2.703990 0.000000 
#    z 0.000000 0.000000 3.462570 
# 
# 
# High freq. dielectric constant tensor:
#      x y z
#    x 1.700660 0.000000 0.000000 
#    y 0.000000 1.617450 0.000000 
#    z 0.000000 0.000000 1.698270 
# 
# From -- ./inp_files/18502.got.cif
#   From: 2010.03.12/outbox.cif.g09.slc.cpg/sg35_10_cif.got.tgz:18502.got - 2010.04.14 02:02:04.
