data_PCOD8173329
_publ_section_title
;
Structure prediction by ZEFSAII (Michael W. Deem and Ramdas Pophale) SiO2 
 PCOD8173329
Probable space group: C M M 2
;
_chemical_formula_sum "Si O2"
_cell_formula_units_Z 64
_cell_length_a 24.314208
_cell_length_b 14.427685
_cell_length_c 9.605859
_cell_angle_alpha 90.000000
_cell_angle_beta 90.000000
_cell_angle_gamma 90.000000
_cell_volume 3369.713571
_symmetry_space_group_name_H-M "C M M 2"
_symmetry_group_IT_number 35
_symmetry_cell_setting 'orthorhombic'
loop_
_space_group_symop_operation_xyz
x,y,z
-x,-y,z
-x,y,z
x,-y,z
1/2+x,1/2+y,z
1/2-x,1/2-y,z
1/2-x,1/2+y,z
1/2+x,1/2-y,z
loop_
_atom_site_type_symbol
_atom_site_label
_atom_site_fract_x
_atom_site_fract_y
_atom_site_fract_z
Si Si1 0.062224 0.101615 0.156740
Si Si2 0.629953 0.646207 0.907142
Si Si3 0.195900 0.697329 0.031590
Si Si4 0.256051 0.398517 0.791660
Si Si5 0.835634 0.604925 0.311070
Si Si6 0.881043 0.207760 0.391475
Si Si7 0.935882 0.891591 0.642136
Si Si8 0.774588 0.894040 0.485299
O O1 0.097600 0.173666 0.243508
O O2 0.000000 0.138548 0.139827
O O3 0.061983 0.000000 0.228998
O O4 0.089916 0.087722 0.005950
O O5 0.686874 0.594199 0.875732
O O6 0.597689 0.659812 0.762954
O O7 0.643814 0.740208 0.990081
O O8 0.250000 0.750000 0.090986
O O9 0.176184 0.625095 0.148145
O O10 0.211397 0.654502 0.882317
O O11 0.231764 0.500000 0.766799
O O12 0.263888 0.352182 0.639791
O O13 0.859746 0.500000 0.323059
O O14 0.877634 0.679766 0.379668
O O15 0.779171 0.612010 0.393489
O O16 0.923049 0.169339 0.506011
O O17 0.820125 0.168697 0.412520
O O18 0.000000 0.885168 0.674003
O O19 0.917946 0.000000 0.625440
O O20 0.796171 0.000000 0.496606
#
# Coordination Sequence:
#
# PCOD8173329 Si02
#       8
#     8   8   8   8   8   8   8   8
#     4  11  23  38  58  86 117 150 193 239 287 350
#     4  11  21  36  58  86 120 157 187 228 287 350
#     4  10  21  36  55  86 117 158 195 235 282 343
#     4  10  20  34  55  86 121 155 193 231 280 346
#     4  11  24  40  58  84 116 155 202 247 288 334
#     4  12  22  38  61  85 119 156 194 237 291 346
#     4  11  23  39  61  91 124 154 188 233 290 356
#     4  10  21  35  57  88 121 156 190 231 286 354
#
# _framework density 18.992713999999999
#
# number of rings (size 3 to 8) (size 9 to 14) (size 15 to 20)
#    0.000    1.250    2.500    4.500    3.500    3.000 
#    0.000    0.000    0.000    1.500    0.000    0.000 
#    0.000    0.000    0.000    0.000    0.000    0.000 
#
# Total GULP energy -396680.628023 kJ/mol
# GULP energy per Si atom -12396.269626 kJ/mol
# Density = 1.894949 g / cm^3
# Si number density = 18.992714 Si / 1000 Ang^3
#
#
#
# Elastic Constant Matrix: (Units=GPa)
#
#
# Indices 1 2 3 4 5 6 
#
# 1 63.4922 37.3269 33.0974 0.0000 0.0000 0.0000
# 2 37.3269 110.6496 37.1422 0.0000 0.0000 0.0000
# 3 33.0974 37.1422 107.3009 0.0000 0.0000 0.0000
# 4 0.0000 0.0000 0.0000 15.4887 0.0000 0.0000
# 5 0.0000 0.0000 0.0000 0.0000 20.7001 0.0000
# 6 0.0000 0.0000 0.0000 0.0000 0.0000 22.0726
#
#
#
# Elastic Compliance Matrix: (Units=1/GPa)
#
#
# Indices 1 2 3 4 5 6 
#
# 1 0.021533 -0.005696 -0.004670 0.000000 0.000000 0.000000
# 2 -0.005696 0.011733 -0.002304 0.000000 0.000000 0.000000
# 3 -0.004670 -0.002304 0.011558 0.000000 0.000000 0.000000
# 4 0.000000 0.000000 0.000000 0.064563 0.000000 0.000000
# 5 0.000000 0.000000 0.000000 0.000000 0.048309 0.000000
# 6 0.000000 0.000000 0.000000 0.000000 0.000000 0.045305
#
#
# Mechanical properties :
#
#
# Convention : Reuss Voigt Hill
#
# Bulk Modulus (GPa) = 51.32928 55.17507 53.25218
# Shear Modulus (GPa) = 21.29138 23.24402 22.26770
#
# Velocity S-wave (km/s) = 3.35181 3.50214 3.42780
# Velocity P-wave (km/s) = 6.48567 6.74292 6.61555
#
# Compressibility (1/GPa) = 0.01948206
#
# Stress axis : x y z
#
# Youngs Moduli (GPa) = 46.43943 85.23214 86.52224
#
# Poissons Ratio (x) = 0.48552 0.40408
# Poissons Ratio (y) = 0.26454 0.19936
# Poissons Ratio (z) = 0.21688 0.19639
#
# Static dielectric constant tensor:
#      x y z
#    x 3.360930 0.000000 0.000000 
#    y 0.000000 3.759020 0.000000 
#    z 0.000000 0.000000 3.597240 
# 
# 
# High freq. dielectric constant tensor:
#      x y z
#    x 1.716010 0.000000 0.000000 
#    y 0.000000 1.726470 0.000000 
#    z 0.000000 0.000000 1.757350 
# 
# From -- ./inp_files/7836.got.cif
#   From: 2010.03.12/outbox.cif.g09.slc.cpg/sg35_4_cif.got.tgz:7836.got - 2010.04.14 02:02:04.
