data_PCOD8173314
_publ_section_title
;
Structure prediction by ZEFSAII (Michael W. Deem and Ramdas Pophale) SiO2 
 PCOD8173314
Probable space group: C M M 2
;
_chemical_formula_sum "Si O2"
_cell_formula_units_Z 64
_cell_length_a 13.376195
_cell_length_b 26.409528
_cell_length_c 8.610798
_cell_angle_alpha 90.000000
_cell_angle_beta 90.000000
_cell_angle_gamma 90.000000
_cell_volume 3041.841860
_symmetry_space_group_name_H-M "C M M 2"
_symmetry_group_IT_number 35
_symmetry_cell_setting 'orthorhombic'
loop_
_space_group_symop_operation_xyz
x,y,z
-x,-y,z
-x,y,z
x,-y,z
1/2+x,1/2+y,z
1/2-x,1/2-y,z
1/2-x,1/2+y,z
1/2+x,1/2-y,z
loop_
_atom_site_type_symbol
_atom_site_label
_atom_site_fract_x
_atom_site_fract_y
_atom_site_fract_z
Si Si1 0.119879 0.347621 0.464260
Si Si2 0.253308 0.641612 0.183758
Si Si3 0.306423 0.942507 0.644415
Si Si4 0.384070 0.691675 0.936115
Si Si5 0.888245 0.390830 0.935746
Si Si6 0.388340 0.583439 0.807442
Si Si7 0.385667 0.788070 0.758758
Si Si8 0.615311 0.555236 0.159799
O O1 0.181773 0.332263 0.310584
O O2 0.152017 0.404321 0.514032
O O3 0.155924 0.306206 0.591541
O O4 0.000000 0.346123 0.437006
O O5 0.329830 0.600079 0.255118
O O6 0.315940 0.684322 0.090222
O O7 0.186172 0.604265 0.078187
O O8 0.365110 0.931640 0.803898
O O9 0.187978 0.936158 0.676892
O O10 0.328408 0.000000 0.590915
O O11 0.500000 0.700638 0.987442
O O12 0.374729 0.643644 0.823981
O O13 0.337048 0.737721 0.834630
O O14 0.872086 0.333739 0.877260
O O15 0.000000 0.399628 0.995498
O O16 0.500000 0.569596 0.750657
O O17 0.366755 0.559052 0.974716
O O18 0.500000 0.774130 0.732362
O O19 0.500000 0.562526 0.197700
O O20 0.652906 0.500000 0.215714
#
# Coordination Sequence:
#
# PCOD8173314 Si02
#       8
#     8   8   8   8   8   8   8   8
#     4  10  23  41  58  83 125 172 203 244 304 360
#     4  11  20  34  58  91 121 152 196 250 307 365
#     4  11  21  37  58  83 116 161 213 255 300 359
#     4   9  17  34  64  94 119 151 193 248 305 362
#     4  10  20  34  55  83 114 153 203 259 298 339
#     4   9  17  31  55  89 119 145 188 250 308 355
#     4   8  17  36  61  84 114 155 199 241 295 363
#     4   9  17  31  53  84 122 159 194 240 304 366
#
# _framework density 21.039883
#
# number of rings (size 3 to 8) (size 9 to 14) (size 15 to 20)
#    0.000    2.375    2.500    3.000    0.000    2.750 
#    0.000    1.250    5.500    2.250    0.000    3.500 
#    0.000    0.000    0.000    0.000    0.000    0.000 
#
# Total GULP energy -396583.944593 kJ/mol
# GULP energy per Si atom -12393.248269 kJ/mol
# Density = 2.099200 g / cm^3
# Si number density = 21.039883 Si / 1000 Ang^3
#
#
#
# Elastic Constant Matrix: (Units=GPa)
#
#
# Indices 1 2 3 4 5 6 
#
# 1 103.0418 39.9584 41.0301 0.0000 0.0000 0.0000
# 2 39.9584 122.3346 34.9709 0.0000 0.0000 0.0000
# 3 41.0301 34.9709 70.4191 0.0000 0.0000 0.0000
# 4 0.0000 0.0000 0.0000 12.5431 0.0000 0.0000
# 5 0.0000 0.0000 0.0000 0.0000 38.1900 0.0000
# 6 0.0000 0.0000 0.0000 0.0000 0.0000 20.9097
#
#
#
# Elastic Compliance Matrix: (Units=1/GPa)
#
#
# Indices 1 2 3 4 5 6 
#
# 1 0.013248 -0.002472 -0.006492 0.000000 0.000000 0.000000
# 2 -0.002472 0.009988 -0.003520 0.000000 0.000000 0.000000
# 3 -0.006492 -0.003520 0.019731 0.000000 0.000000 0.000000
# 4 0.000000 0.000000 0.000000 0.079725 0.000000 0.000000
# 5 0.000000 0.000000 0.000000 0.000000 0.026185 0.000000
# 6 0.000000 0.000000 0.000000 0.000000 0.000000 0.047825
#
#
# Mechanical properties :
#
#
# Convention : Reuss Voigt Hill
#
# Bulk Modulus (GPa) = 55.55353 58.63492 57.09422
# Shear Modulus (GPa) = 21.96173 26.31763 24.13968
#
# Velocity S-wave (km/s) = 3.23432 3.54057 3.39090
# Velocity P-wave (km/s) = 6.35681 6.68155 6.52120
#
# Compressibility (1/GPa) = 0.01800066
#
# Stress axis : x y z
#
# Youngs Moduli (GPa) = 75.48211 100.12191 50.68110
#
# Poissons Ratio (x) = 0.24745 0.32901
# Poissons Ratio (y) = 0.18656 0.17840
# Poissons Ratio (z) = 0.49001 0.35243
#
# Static dielectric constant tensor:
#      x y z
#    x 4.121920 0.000000 0.000000 
#    y 0.000000 3.917050 0.000000 
#    z 0.000000 0.000000 3.418340 
# 
# 
# High freq. dielectric constant tensor:
#      x y z
#    x 1.844870 0.000000 0.000000 
#    y 0.000000 1.816890 0.000000 
#    z 0.000000 0.000000 1.777700 
# 
# From -- ./inp_files/7862.got.cif
#   From: 2010.03.12/outbox.cif.g09.slc.cpg/sg35_4_cif.got.tgz:7862.got - 2010.04.14 02:02:04.
