data_PCOD8173961
_publ_section_title
;
Structure prediction by ZEFSAII (Michael W. Deem and Ramdas Pophale) SiO2 
 PCOD8173961
Probable space group: C M M 2
;
_chemical_formula_sum "Si O2"
_cell_formula_units_Z 48
_cell_length_a 7.795872
_cell_length_b 15.641641
_cell_length_c 18.995427
_cell_angle_alpha 90.000000
_cell_angle_beta 90.000000
_cell_angle_gamma 90.000000
_cell_volume 2316.306758
_symmetry_space_group_name_H-M "C M M 2"
_symmetry_group_IT_number 35
_symmetry_cell_setting 'orthorhombic'
loop_
_space_group_symop_operation_xyz
x,y,z
-x,-y,z
-x,y,z
x,-y,z
1/2+x,1/2+y,z
1/2-x,1/2-y,z
1/2-x,1/2+y,z
1/2+x,1/2-y,z
loop_
_atom_site_type_symbol
_atom_site_label
_atom_site_fract_x
_atom_site_fract_y
_atom_site_fract_z
Si Si1 0.299929 0.844502 0.905030
Si Si2 0.801092 0.000000 0.657227
Si Si3 0.795674 0.655993 0.402016
Si Si4 0.500000 0.601986 0.140933
Si Si5 0.698702 0.000000 0.496431
Si Si6 0.301662 0.156083 0.751796
Si Si7 0.500000 0.398667 0.302480
Si Si8 0.309920 0.096856 0.051660
O O1 0.500000 0.857158 0.896195
O O2 0.250000 0.750000 0.927508
O O3 0.214120 0.865952 0.828234
O O4 0.238905 0.901871 0.970780
O O5 0.737921 0.085691 0.694004
O O6 0.740860 0.000000 0.577742
O O7 0.000000 0.000000 0.660139
O O8 0.750000 0.750000 0.432139
O O9 0.732321 0.586493 0.459728
O O10 0.676278 0.640118 0.333989
O O11 0.000000 0.648293 0.383899
O O12 0.500000 0.500000 0.131964
O O13 0.500000 0.629825 0.221663
O O14 0.670405 0.640752 0.103178
O O15 0.500000 0.000000 0.484700
O O16 0.500000 0.157894 0.765285
O O17 0.250000 0.250000 0.723874
O O18 0.500000 0.500000 0.312476
O O19 0.500000 0.141296 0.057643
O O20 0.330727 0.000000 0.075523
#
# Coordination Sequence:
#
# PCOD8173961 Si02
#       8
#     8   4   8   4   4   8   4   8
#     4   9  19  33  55  79 107 154 202 250 308 358
#     4  12  26  40  62  94 130 163 206 250 313 377
#     4  11  23  41  69  99 130 166 213 258 309 375
#     4   9  20  36  56  88 115 161 198 245 316 364
#     4  10  24  44  66  98 126 163 206 251 310 374
#     4  10  21  40  61  86 124 165 211 264 313 370
#     4  11  22  40  68  93 131 169 210 260 318 377
#     4   9  18  34  54  81 115 151 202 255 299 364
#
# _framework density 20.722643999999999
#
# number of rings (size 3 to 8) (size 9 to 14) (size 15 to 20)
#    0.000    2.000    1.667    1.250    3.500    2.000 
#    0.000    4.167    0.000    0.000    0.000    0.000 
#    0.000    0.000    0.000    0.000    0.000    0.000 
#
# Total GULP energy -297352.159325 kJ/mol
# GULP energy per Si atom -12389.673305 kJ/mol
# Density = 2.067548 g / cm^3
# Si number density = 20.722644 Si / 1000 Ang^3
#
#
#
# Elastic Constant Matrix: (Units=GPa)
#
#
# Indices 1 2 3 4 5 6 
#
# 1 88.3718 31.5611 60.4508 0.0000 0.0000 0.0000
# 2 31.5611 112.1279 66.0853 0.0000 0.0000 0.0000
# 3 60.4508 66.0853 168.0987 0.0000 0.0000 0.0000
# 4 0.0000 0.0000 0.0000 13.4579 0.0000 0.0000
# 5 0.0000 0.0000 0.0000 0.0000 27.3210 0.0000
# 6 0.0000 0.0000 0.0000 0.0000 0.0000 24.6981
#
#
#
# Elastic Compliance Matrix: (Units=1/GPa)
#
#
# Indices 1 2 3 4 5 6 
#
# 1 0.015168 -0.001373 -0.004915 0.000000 0.000000 0.000000
# 2 -0.001373 0.011732 -0.004119 0.000000 0.000000 0.000000
# 3 -0.004915 -0.004119 0.009336 0.000000 0.000000 0.000000
# 4 0.000000 0.000000 0.000000 0.074306 0.000000 0.000000
# 5 0.000000 0.000000 0.000000 0.000000 0.036602 0.000000
# 6 0.000000 0.000000 0.000000 0.000000 0.000000 0.040489
#
#
# Mechanical properties :
#
#
# Convention : Reuss Voigt Hill
#
# Bulk Modulus (GPa) = 64.83743 76.08809 70.46276
# Shear Modulus (GPa) = 23.40971 27.12882 25.26926
#
# Velocity S-wave (km/s) = 3.36470 3.62213 3.49578
# Velocity P-wave (km/s) = 6.81550 7.36819 7.09723
#
# Compressibility (1/GPa) = 0.01542319
#
# Stress axis : x y z
#
# Youngs Moduli (GPa) = 65.92735 85.23547 107.11655
#
# Poissons Ratio (x) = 0.11700 0.52649
# Poissons Ratio (y) = 0.09049 0.44118
# Poissons Ratio (z) = 0.32404 0.35106
#
# Static dielectric constant tensor:
#      x y z
#    x 4.028120 0.000000 0.000000 
#    y 0.000000 3.764700 0.000000 
#    z 0.000000 0.000000 3.722800 
# 
# 
# High freq. dielectric constant tensor:
#      x y z
#    x 1.818160 0.000000 0.000000 
#    y 0.000000 1.799690 0.000000 
#    z 0.000000 0.000000 1.804370 
# 
# From -- ./inp_files/17974.got.cif
#   From: 2010.03.12/outbox.cif.g09.slc.cpg/sg35_9_cif.got.tgz:17974.got - 2010.04.14 02:02:04.
