data_PCOD8173962
_publ_section_title
;
Structure prediction by ZEFSAII (Michael W. Deem and Ramdas Pophale) SiO2 
 PCOD8173962
Probable space group: C M M 2
;
_chemical_formula_sum "Si O2"
_cell_formula_units_Z 48
_cell_length_a 15.730080
_cell_length_b 8.796990
_cell_length_c 17.041643
_cell_angle_alpha 90.000000
_cell_angle_beta 90.000000
_cell_angle_gamma 90.000000
_cell_volume 2358.177508
_symmetry_space_group_name_H-M "C M M 2"
_symmetry_group_IT_number 35
_symmetry_cell_setting 'orthorhombic'
loop_
_space_group_symop_operation_xyz
x,y,z
-x,-y,z
-x,y,z
x,-y,z
1/2+x,1/2+y,z
1/2-x,1/2-y,z
1/2-x,1/2+y,z
1/2+x,1/2-y,z
loop_
_atom_site_type_symbol
_atom_site_label
_atom_site_fract_x
_atom_site_fract_y
_atom_site_fract_z
Si Si1 0.500000 0.678447 0.003740
Si Si2 0.341755 0.320134 0.896279
Si Si3 0.000000 0.679992 0.173013
Si Si4 0.839042 0.322240 0.734004
Si Si5 0.097393 0.835043 0.589483
Si Si6 0.097445 0.178837 0.418521
Si Si7 0.663409 0.820632 0.266894
O O1 0.500000 0.500000 0.019426
O O2 0.500000 0.766900 0.084172
O O3 0.585582 0.726684 0.957718
O O4 0.330997 0.500000 0.890211
O O5 0.250000 0.250000 0.919832
O O6 0.374039 0.257135 0.812523
O O7 0.084043 0.743199 0.216342
O O8 0.000000 0.500000 0.175431
O O9 0.832767 0.500000 0.750151
O O10 0.750000 0.250000 0.710863
O O11 0.896570 0.288759 0.658423
O O12 0.134990 0.780393 0.505537
O O13 0.000000 0.862830 0.570120
O O14 0.137074 0.000000 0.614755
O O15 0.153832 0.271437 0.357063
O O16 0.000000 0.232429 0.408688
O O17 0.106506 0.000000 0.402334
O O18 0.750000 0.750000 0.231809
O O19 0.669649 0.000000 0.260861
#
# Coordination Sequence:
#
# PCOD8173962 Si02
#       7
#     4   8   4   8   8   8   8
#     4  10  24  42  66  93 118 155 196 233 296 365
#     4  10  21  40  62  89 121 157 197 244 296 352
#     4  10  24  44  64  89 124 155 190 243 298 351
#     4  11  22  36  55  81 113 154 198 243 294 345
#     4   9  19  35  55  81 115 154 196 243 294 344
#     4   9  18  35  59  85 115 156 201 247 299 351
#     4  11  23  40  62  91 122 159 200 244 297 354
#
# _framework density 20.354702
#
# number of rings (size 3 to 8) (size 9 to 14) (size 15 to 20)
#    0.000    2.000    0.833    4.500    1.167    5.000 
#    0.000    5.000    0.000    0.000    0.000    0.000 
#    0.000    0.000    0.000    0.000    0.000    0.000 
#
# Total GULP energy -297535.682488 kJ/mol
# GULP energy per Si atom -12397.320104 kJ/mol
# Density = 2.030837 g / cm^3
# Si number density = 20.354702 Si / 1000 Ang^3
#
#
#
# Elastic Constant Matrix: (Units=GPa)
#
#
# Indices 1 2 3 4 5 6 
#
# 1 115.2806 41.4859 63.7788 0.0000 0.0000 0.0000
# 2 41.4859 83.7954 44.2740 0.0000 0.0000 0.0000
# 3 63.7788 44.2740 136.3498 0.0000 0.0000 0.0000
# 4 0.0000 0.0000 0.0000 33.6307 0.0000 0.0000
# 5 0.0000 0.0000 0.0000 0.0000 18.5706 0.0000
# 6 0.0000 0.0000 0.0000 0.0000 0.0000 29.6646
#
#
#
# Elastic Compliance Matrix: (Units=1/GPa)
#
#
# Indices 1 2 3 4 5 6 
#
# 1 0.012622 -0.003777 -0.004677 0.000000 0.000000 0.000000
# 2 -0.003777 0.015536 -0.003278 0.000000 0.000000 0.000000
# 3 -0.004677 -0.003278 0.010586 0.000000 0.000000 0.000000
# 4 0.000000 0.000000 0.000000 0.029735 0.000000 0.000000
# 5 0.000000 0.000000 0.000000 0.000000 0.053848 0.000000
# 6 0.000000 0.000000 0.000000 0.000000 0.000000 0.033710
#
#
# Mechanical properties :
#
#
# Convention : Reuss Voigt Hill
#
# Bulk Modulus (GPa) = 65.45048 70.50039 67.97543
# Shear Modulus (GPa) = 27.08637 28.76566 27.92602
#
# Velocity S-wave (km/s) = 3.65186 3.76336 3.70803
# Velocity P-wave (km/s) = 7.07151 7.32086 7.19726
#
# Compressibility (1/GPa) = 0.01527873
#
# Stress axis : x y z
#
# Youngs Moduli (GPa) = 79.22939 64.36754 94.46269
#
# Poissons Ratio (x) = 0.24315 0.44183
# Poissons Ratio (y) = 0.29929 0.30962
# Poissons Ratio (z) = 0.37058 0.21097
#
# Static dielectric constant tensor:
#      x y z
#    x 3.754270 0.000000 0.000000 
#    y 0.000000 3.618150 0.000000 
#    z 0.000000 0.000000 3.699910 
# 
# 
# High freq. dielectric constant tensor:
#      x y z
#    x 1.791880 0.000000 0.000000 
#    y 0.000000 1.790820 0.000000 
#    z 0.000000 0.000000 1.797060 
# 
# From -- ./inp_files/15237.got.cif
#   From: 2010.03.12/outbox.cif.g09.slc.cpg/sg35_8_cif.got.tgz:15237.got - 2010.04.14 02:02:04.
