data_PCOD8173043
_publ_section_title
;
Structure prediction by ZEFSAII (Michael W. Deem and Ramdas Pophale) SiO2 
 PCOD8173043
Probable space group: C M M 2
;
_chemical_formula_sum "Si O2"
_cell_formula_units_Z 56
_cell_length_a 9.238979
_cell_length_b 18.558485
_cell_length_c 18.191596
_cell_angle_alpha 90.000000
_cell_angle_beta 90.000000
_cell_angle_gamma 90.000000
_cell_volume 3119.157486
_symmetry_space_group_name_H-M "C M M 2"
_symmetry_group_IT_number 35
_symmetry_cell_setting 'orthorhombic'
loop_
_space_group_symop_operation_xyz
x,y,z
-x,-y,z
-x,y,z
x,-y,z
1/2+x,1/2+y,z
1/2-x,1/2-y,z
1/2-x,1/2+y,z
1/2+x,1/2-y,z
loop_
_atom_site_type_symbol
_atom_site_label
_atom_site_fract_x
_atom_site_fract_y
_atom_site_fract_z
Si Si1 0.663548 0.414192 0.839400
Si Si2 0.337056 0.585967 0.557451
Si Si3 0.172222 0.580250 0.257647
Si Si4 0.667240 0.916733 0.981738
Si Si5 0.663799 0.085940 0.698639
Si Si6 0.329438 0.824891 0.123563
Si Si7 0.161328 0.414205 0.419340
O O1 0.500000 0.384446 0.836132
O O2 0.665007 0.500000 0.837311
O O3 0.738629 0.386773 0.913996
O O4 0.752140 0.383777 0.769805
O O5 0.500000 0.615693 0.563811
O O6 0.336725 0.500000 0.557106
O O7 0.244632 0.615108 0.626162
O O8 0.267343 0.616309 0.482132
O O9 0.235512 0.500000 0.243224
O O10 0.231077 0.634481 0.195836
O O11 0.219372 0.608975 0.338520
O O12 0.000000 0.575760 0.254157
O O13 0.500000 0.906111 0.960759
O O14 0.701408 0.000000 0.998158
O O15 0.711329 0.872848 0.053570
O O16 0.500000 0.115573 0.699160
O O17 0.663527 0.000000 0.699227
O O18 0.500000 0.811717 0.129066
O O19 0.250000 0.750000 0.115736
O O20 0.155159 0.500000 0.422269
O O21 0.000000 0.383440 0.433464
#
# Coordination Sequence:
#
# PCOD8173043 Si02
#       7
#     8   8   8   8   8   8   8
#     4   9  16  25  38  58  84 112 143 182 227 269
#     4   9  15  21  30  48  78 113 144 175 216 263
#     4   8  14  27  48  69  87 114 155 195 226 263
#     4   9  17  30  48  67  87 116 155 192 224 265
#     4   9  15  22  33  50  76 112 150 182 213 255
#     4  10  20  33  49  69  93 119 148 186 231 276
#     4   8  13  22  37  56  77 104 142 184 220 256
#
# _framework density 17.953565999999999
#
# number of rings (size 3 to 8) (size 9 to 14) (size 15 to 20)
#    0.000    3.143    0.000    2.571    0.000    7.429 
#    0.000    0.714    0.000    2.143    0.000    0.000 
#    0.000    1.143    0.000    7.143    0.000   13.143 
#
# Total GULP energy -347100.131051 kJ/mol
# GULP energy per Si atom -12396.433252 kJ/mol
# Density = 1.791270 g / cm^3
# Si number density = 17.953566 Si / 1000 Ang^3
#
#
#
# Elastic Constant Matrix: (Units=GPa)
#
#
# Indices 1 2 3 4 5 6 
#
# 1 115.1626 25.6839 89.8908 0.0000 0.0000 0.0000
# 2 25.6839 38.1826 40.9171 0.0000 0.0000 0.0000
# 3 89.8908 40.9171 192.9625 0.0000 0.0000 0.0000
# 4 0.0000 0.0000 0.0000 0.5716 0.0000 0.0000
# 5 0.0000 0.0000 0.0000 0.0000 22.0635 0.0000
# 6 0.0000 0.0000 0.0000 0.0000 0.0000 13.2984
#
#
#
# Elastic Compliance Matrix: (Units=1/GPa)
#
#
# Indices 1 2 3 4 5 6 
#
# 1 0.013927 -0.003126 -0.005825 0.000000 0.000000 0.000000
# 2 -0.003126 0.034593 -0.005879 0.000000 0.000000 0.000000
# 3 -0.005825 -0.005879 0.009143 0.000000 0.000000 0.000000
# 4 0.000000 0.000000 0.000000 1.749488 0.000000 0.000000
# 5 0.000000 0.000000 0.000000 0.000000 0.045324 0.000000
# 6 0.000000 0.000000 0.000000 0.000000 0.000000 0.075197
#
#
# Mechanical properties :
#
#
# Convention : Reuss Voigt Hill
#
# Bulk Modulus (GPa) = 35.71133 73.25456 54.48295
# Shear Modulus (GPa) = 2.54237 19.84110 11.19174
#
# Velocity S-wave (km/s) = 1.19128 3.32796 2.49945
# Velocity P-wave (km/s) = 4.67187 7.46042 6.22432
#
# Compressibility (1/GPa) = 0.02800232
#
# Stress axis : x y z
#
# Youngs Moduli (GPa) = 71.80086 28.90775 109.37807
#
# Poissons Ratio (x) = 0.09037 0.63714
# Poissons Ratio (y) = 0.22446 0.64304
# Poissons Ratio (z) = 0.41825 0.16995
#
# Static dielectric constant tensor:
#      x y z
#    x 3.316670 0.000000 0.000000 
#    y 0.000000 2.674440 0.000000 
#    z 0.000000 0.000000 3.689150 
# 
# 
# High freq. dielectric constant tensor:
#      x y z
#    x 1.685020 0.000000 0.000000 
#    y 0.000000 1.619090 0.000000 
#    z 0.000000 0.000000 1.716910 
# 
# From -- ./inp_files/18201.got.cif
#   From: 2010.03.12/outbox.cif.g09.slc.cpg/sg35_10_cif.got.tgz:18201.got - 2010.04.14 02:02:04.
