data_PCOD8173323
_publ_section_title
;
Structure prediction by ZEFSAII (Michael W. Deem and Ramdas Pophale) SiO2 
 PCOD8173323
Probable space group: C M M 2
;
_chemical_formula_sum "Si O2"
_cell_formula_units_Z 56
_cell_length_a 9.267289
_cell_length_b 21.557239
_cell_length_c 14.538290
_cell_angle_alpha 90.000000
_cell_angle_beta 90.000000
_cell_angle_gamma 90.000000
_cell_volume 2904.418344
_symmetry_space_group_name_H-M "C M M 2"
_symmetry_group_IT_number 35
_symmetry_cell_setting 'orthorhombic'
loop_
_space_group_symop_operation_xyz
x,y,z
-x,-y,z
-x,y,z
x,-y,z
1/2+x,1/2+y,z
1/2-x,1/2-y,z
1/2-x,1/2+y,z
1/2+x,1/2-y,z
loop_
_atom_site_type_symbol
_atom_site_label
_atom_site_fract_x
_atom_site_fract_y
_atom_site_fract_z
Si Si1 0.831953 0.929338 0.719320
Si Si2 0.167579 0.500000 0.253982
Si Si3 0.665254 0.000000 0.036673
Si Si4 0.338161 0.310607 0.198413
Si Si5 0.166456 0.118507 0.022851
Si Si6 0.165725 0.896054 0.360092
Si Si7 0.334128 0.312260 0.843488
Si Si8 0.833512 0.428185 0.531968
O O1 0.786564 0.875672 0.791004
O O2 0.735649 0.916214 0.630360
O O3 0.000000 0.923675 0.692789
O O4 0.800986 0.000000 0.756309
O O5 0.187625 0.500000 0.145581
O O6 0.245855 0.558839 0.295299
O O7 0.000000 0.500000 0.283348
O O8 0.738843 0.939916 0.992311
O O9 0.500000 0.000000 0.007208
O O10 0.500000 0.294158 0.170097
O O11 0.250000 0.250000 0.184057
O O12 0.282833 0.361443 0.124908
O O13 0.329267 0.331714 0.304456
O O14 0.000000 0.097413 0.020845
O O15 0.193198 0.174620 0.951272
O O16 0.244672 0.887907 0.457731
O O17 0.000000 0.918278 0.374400
O O18 0.500000 0.298191 0.822073
O O19 0.250000 0.250000 0.812521
O O20 0.819691 0.500000 0.502546
O O21 0.000000 0.406930 0.533699
#
# Coordination Sequence:
#
# PCOD8173323 Si02
#       8
#     8   4   4   8   8   8   8   8
#     4   9  19  37  60  87 115 149 193 238 291 354
#     4  11  21  33  51  80 113 146 183 227 276 324
#     4  11  23  35  53  86 119 152 191 239 292 334
#     4  10  22  37  54  78 108 150 196 234 279 331
#     4  10  21  38  59  83 115 154 193 234 285 348
#     4  11  21  34  55  82 112 149 188 228 276 335
#     4  10  22  39  63  89 116 154 197 244 296 352
#     4  10  20  34  55  85 116 146 182 231 291 343
#
# _framework density 19.280968999999999
#
# number of rings (size 3 to 8) (size 9 to 14) (size 15 to 20)
#    0.000    1.857    2.143    1.714    1.000    4.000 
#    0.000    0.714    0.000    0.000    0.000    0.000 
#    0.000    0.000    0.000    0.000    0.000    0.000 
#
# Total GULP energy -347142.716034 kJ/mol
# GULP energy per Si atom -12397.954144 kJ/mol
# Density = 1.923708 g / cm^3
# Si number density = 19.280969 Si / 1000 Ang^3
#
#
#
# Elastic Constant Matrix: (Units=GPa)
#
#
# Indices 1 2 3 4 5 6 
#
# 1 103.8744 56.3672 43.0191 0.0000 0.0000 0.0000
# 2 56.3672 114.2009 38.1947 0.0000 0.0000 0.0000
# 3 43.0191 38.1947 88.1467 0.0000 0.0000 0.0000
# 4 0.0000 0.0000 0.0000 19.4236 0.0000 0.0000
# 5 0.0000 0.0000 0.0000 0.0000 27.4747 0.0000
# 6 0.0000 0.0000 0.0000 0.0000 0.0000 35.0307
#
#
#
# Elastic Compliance Matrix: (Units=1/GPa)
#
#
# Indices 1 2 3 4 5 6 
#
# 1 0.014640 -0.005656 -0.004694 0.000000 0.000000 0.000000
# 2 -0.005656 0.012426 -0.002624 0.000000 0.000000 0.000000
# 3 -0.004694 -0.002624 0.014773 0.000000 0.000000 0.000000
# 4 0.000000 0.000000 0.000000 0.051484 0.000000 0.000000
# 5 0.000000 0.000000 0.000000 0.000000 0.036397 0.000000
# 6 0.000000 0.000000 0.000000 0.000000 0.000000 0.028546
#
#
# Mechanical properties :
#
#
# Convention : Reuss Voigt Hill
#
# Bulk Modulus (GPa) = 62.93093 64.59823 63.76458
# Shear Modulus (GPa) = 26.38364 27.62853 27.00609
#
# Velocity S-wave (km/s) = 3.70317 3.78953 3.74660
# Velocity P-wave (km/s) = 7.14103 7.26111 7.20132
#
# Compressibility (1/GPa) = 0.01589044
#
# Stress axis : x y z
#
# Youngs Moduli (GPa) = 68.30392 80.47761 67.69296
#
# Poissons Ratio (x) = 0.45520 0.31777
# Poissons Ratio (y) = 0.38634 0.17761
# Poissons Ratio (z) = 0.32063 0.21115
#
# Static dielectric constant tensor:
#      x y z
#    x 3.571470 0.000000 0.000000 
#    y 0.000000 3.322650 0.000000 
#    z 0.000000 0.000000 3.487550 
# 
# 
# High freq. dielectric constant tensor:
#      x y z
#    x 1.753520 0.000000 0.000000 
#    y 0.000000 1.732680 0.000000 
#    z 0.000000 0.000000 1.750140 
# 
# From -- ./inp_files/15674.got.cif
#   From: 2010.03.12/outbox.cif.g09.slc.cpg/sg35_8_cif.got.tgz:15674.got - 2010.04.14 02:02:04.
