data_PCOD8173204
_publ_section_title
;
Structure prediction by ZEFSAII (Michael W. Deem and Ramdas Pophale) SiO2 
 PCOD8173204
Probable space group: C M M 2
;
_chemical_formula_sum "Si O2"
_cell_formula_units_Z 48
_cell_length_a 8.481484
_cell_length_b 26.466760
_cell_length_c 11.619774
_cell_angle_alpha 90.000000
_cell_angle_beta 90.000000
_cell_angle_gamma 90.000000
_cell_volume 2608.376673
_symmetry_space_group_name_H-M "C M M 2"
_symmetry_group_IT_number 35
_symmetry_cell_setting 'orthorhombic'
loop_
_space_group_symop_operation_xyz
x,y,z
-x,-y,z
-x,y,z
x,-y,z
1/2+x,1/2+y,z
1/2-x,1/2-y,z
1/2-x,1/2+y,z
1/2+x,1/2-y,z
loop_
_atom_site_type_symbol
_atom_site_label
_atom_site_fract_x
_atom_site_fract_y
_atom_site_fract_z
Si Si1 0.318496 0.867630 0.620450
Si Si2 0.816351 0.630242 0.973242
Si Si3 0.315527 0.557596 0.808026
Si Si4 0.185504 0.804454 0.164144
Si Si5 0.815663 0.804164 0.430093
Si Si6 0.320698 0.699911 0.793263
O O1 0.500000 0.882917 0.614352
O O2 0.228680 0.911362 0.691617
O O3 0.255033 0.854169 0.493070
O O4 0.289478 0.814852 0.686106
O O5 0.778205 0.573704 0.926362
O O6 0.693850 0.659960 0.893741
O O7 0.000000 0.642187 0.951360
O O8 0.769466 0.647345 0.101914
O O9 0.500000 0.564056 0.830528
O O10 0.268974 0.500000 0.783228
O O11 0.250000 0.750000 0.119803
O O12 0.229101 0.811467 0.297016
O O13 0.000000 0.806097 0.140908
O O14 0.750000 0.750000 0.473842
O O15 0.000000 0.803616 0.451407
O O16 0.500000 0.704825 0.752042
O O17 0.250000 0.750000 0.847759
#
# Coordination Sequence:
#
# PCOD8173204 Si02
#       6
#     8   8   8   8   8   8
#     4  11  21  33  51  75 103 133 168 209 255 306
#     4  11  21  33  51  75 103 133 168 209 255 306
#     4  10  21  38  59  80 102 130 167 212 263 315
#     4  10  20  34  52  75 106 143 180 214 250 297
#     4  10  20  34  52  75 106 143 180 214 250 297
#     4  11  20  31  46  67  99 133 168 206 249 301
#
# _framework density 18.402249000000001
#
# number of rings (size 3 to 8) (size 9 to 14) (size 15 to 20)
#    0.000    1.500    0.000    9.000    0.000    3.333 
#    0.000    0.000    0.000    1.000    0.000    7.000 
#    0.000    0.000    0.000    0.000    0.000    0.000 
#
# Total GULP energy -297375.636962 kJ/mol
# GULP energy per Si atom -12390.651540 kJ/mol
# Density = 1.836036 g / cm^3
# Si number density = 18.402249 Si / 1000 Ang^3
#
#
#
# Elastic Constant Matrix: (Units=GPa)
#
#
# Indices 1 2 3 4 5 6 
#
# 1 84.2172 42.5904 32.7929 0.0000 0.0000 0.0000
# 2 42.5904 97.4603 47.1186 0.0000 0.0000 0.0000
# 3 32.7929 47.1186 91.5280 0.0000 0.0000 0.0000
# 4 0.0000 0.0000 0.0000 22.5029 0.0000 0.0000
# 5 0.0000 0.0000 0.0000 0.0000 28.4834 0.0000
# 6 0.0000 0.0000 0.0000 0.0000 0.0000 25.9838
#
#
#
# Elastic Compliance Matrix: (Units=1/GPa)
#
#
# Indices 1 2 3 4 5 6 
#
# 1 0.015763 -0.005536 -0.002798 0.000000 0.000000 0.000000
# 2 -0.005536 0.015605 -0.006050 0.000000 0.000000 0.000000
# 3 -0.002798 -0.006050 0.015042 0.000000 0.000000 0.000000
# 4 0.000000 0.000000 0.000000 0.044439 0.000000 0.000000
# 5 0.000000 0.000000 0.000000 0.000000 0.035108 0.000000
# 6 0.000000 0.000000 0.000000 0.000000 0.000000 0.038485
#
#
# Mechanical properties :
#
#
# Convention : Reuss Voigt Hill
#
# Bulk Modulus (GPa) = 56.67911 57.57883 57.12897
# Shear Modulus (GPa) = 25.11419 25.44094 25.27757
#
# Velocity S-wave (km/s) = 3.69824 3.72222 3.71025
# Velocity P-wave (km/s) = 7.00735 7.05905 7.03325
#
# Compressibility (1/GPa) = 0.01764319
#
# Stress axis : x y z
#
# Youngs Moduli (GPa) = 63.43940 64.08333 66.47837
#
# Poissons Ratio (x) = 0.35476 0.18599
# Poissons Ratio (y) = 0.35119 0.40219
# Poissons Ratio (z) = 0.17749 0.38770
#
# Static dielectric constant tensor:
#      x y z
#    x 3.557790 0.000000 0.000000 
#    y 0.000000 15.803250 0.000000 
#    z 0.000000 0.000000 3.594730 
# 
# 
# High freq. dielectric constant tensor:
#      x y z
#    x 1.731920 0.000000 0.000000 
#    y 0.000000 1.685810 0.000000 
#    z 0.000000 0.000000 1.707390 
# 
# From -- ./inp_files/11484.got.cif
#   From: 2010.03.12/outbox.cif.g09.slc.cpg/sg35_6_cif.got.tgz:11484.got - 2010.04.14 02:02:04.
