data_PCOD8173629
_publ_section_title
;
Structure prediction by ZEFSAII (Michael W. Deem and Ramdas Pophale) SiO2 
 PCOD8173629
Probable space group: C M M 2
;
_chemical_formula_sum "Si O2"
_cell_formula_units_Z 48
_cell_length_a 9.182804
_cell_length_b 34.491854
_cell_length_c 7.758276
_cell_angle_alpha 90.000000
_cell_angle_beta 90.000000
_cell_angle_gamma 90.000000
_cell_volume 2457.293769
_symmetry_space_group_name_H-M "C M M 2"
_symmetry_group_IT_number 35
_symmetry_cell_setting 'orthorhombic'
loop_
_space_group_symop_operation_xyz
x,y,z
-x,-y,z
-x,y,z
x,-y,z
1/2+x,1/2+y,z
1/2-x,1/2-y,z
1/2-x,1/2+y,z
1/2+x,1/2-y,z
loop_
_atom_site_type_symbol
_atom_site_label
_atom_site_fract_x
_atom_site_fract_y
_atom_site_fract_z
Si Si1 0.673300 0.500000 0.493271
Si Si2 0.329707 0.345321 0.011955
Si Si3 0.661448 0.924181 0.393895
Si Si4 0.671737 0.000000 0.847124
Si Si5 0.329458 0.650783 0.407985
Si Si6 0.829184 0.209589 0.708384
Si Si7 0.658189 0.081013 0.995332
O O1 0.500000 0.500000 0.472035
O O2 0.740020 0.537960 0.406740
O O3 0.720630 0.500000 0.688902
O O4 0.500000 0.350545 0.994736
O O5 0.276177 0.310940 0.885908
O O6 0.265376 0.385197 0.933785
O O7 0.285097 0.337042 0.211409
O O8 0.500000 0.930040 0.479196
O O9 0.743511 0.887206 0.475462
O O10 0.640084 0.914887 0.196764
O O11 0.716587 0.961826 0.952975
O O12 0.500000 0.000000 0.798998
O O13 0.500000 0.640880 0.416057
O O14 0.287464 0.684998 0.538545
O O15 0.750000 0.250000 0.691563
O O16 0.000000 0.217237 0.714929
O O17 0.500000 0.087256 0.907285
#
# Coordination Sequence:
#
# PCOD8173629 Si02
#       7
#     4   8   8   4   8   8   8
#     4  12  25  36  50  78 114 152 191 230 274 326
#     4   9  19  36  57  81 112 148 183 227 279 331
#     4  10  20  37  59  82 109 144 186 233 282 332
#     4  10  21  36  52  78 112 146 185 232 278 320
#     4   9  19  37  58  82 114 148 185 230 279 335
#     4  10  22  38  57  83 113 145 183 228 280 338
#     4   9  19  36  58  81 108 143 184 231 280 330
#
# _framework density 19.533685999999999
#
# number of rings (size 3 to 8) (size 9 to 14) (size 15 to 20)
#    0.000    2.333    0.000    1.750    2.333    4.667 
#    0.000    0.833    0.000    0.000    0.000    0.000 
#    0.000    0.000    0.000    0.000    0.000    0.000 
#
# Total GULP energy -297475.924563 kJ/mol
# GULP energy per Si atom -12394.830190 kJ/mol
# Density = 1.948923 g / cm^3
# Si number density = 19.533686 Si / 1000 Ang^3
#
#
#
# Elastic Constant Matrix: (Units=GPa)
#
#
# Indices 1 2 3 4 5 6 
#
# 1 84.7275 70.8990 34.4912 0.0000 0.0000 0.0000
# 2 70.8990 178.6715 55.8565 0.0000 0.0000 0.0000
# 3 34.4912 55.8565 76.4692 0.0000 0.0000 0.0000
# 4 0.0000 0.0000 0.0000 35.8888 0.0000 0.0000
# 5 0.0000 0.0000 0.0000 0.0000 19.7075 0.0000
# 6 0.0000 0.0000 0.0000 0.0000 0.0000 42.5546
#
#
#
# Elastic Compliance Matrix: (Units=1/GPa)
#
#
# Indices 1 2 3 4 5 6 
#
# 1 0.018512 -0.006137 -0.003867 0.000000 0.000000 0.000000
# 2 -0.006137 0.009288 -0.004016 0.000000 0.000000 0.000000
# 3 -0.003867 -0.004016 0.017755 0.000000 0.000000 0.000000
# 4 0.000000 0.000000 0.000000 0.027864 0.000000 0.000000
# 5 0.000000 0.000000 0.000000 0.000000 0.050742 0.000000
# 6 0.000000 0.000000 0.000000 0.000000 0.000000 0.023499
#
#
# Mechanical properties :
#
#
# Convention : Reuss Voigt Hill
#
# Bulk Modulus (GPa) = 57.09583 73.59573 65.34578
# Shear Modulus (GPa) = 27.54247 31.53829 29.54038
#
# Velocity S-wave (km/s) = 3.75907 4.02252 3.89302
# Velocity P-wave (km/s) = 6.93784 7.70275 7.33028
#
# Compressibility (1/GPa) = 0.01751441
#
# Stress axis : x y z
#
# Youngs Moduli (GPa) = 54.01887 107.67132 56.32247
#
# Poissons Ratio (x) = 0.66076 0.21781
# Poissons Ratio (y) = 0.33151 0.22619
# Poissons Ratio (z) = 0.20890 0.43241
#
# Static dielectric constant tensor:
#      x y z
#    x 3.834470 0.000000 0.000000 
#    y 0.000000 3.427520 0.000000 
#    z 0.000000 0.000000 3.676820 
# 
# 
# High freq. dielectric constant tensor:
#      x y z
#    x 1.755870 0.000000 0.000000 
#    y 0.000000 1.760900 0.000000 
#    z 0.000000 0.000000 1.761910 
# 
# From -- ./inp_files/5381.got.cif
#   From: 2010.03.12/outbox.cif.g09.slc.cpg/sg35_3_cif.got.tgz:5381.got - 2010.04.14 02:02:04.
