data_PCOD8173969
_publ_section_title
;
Structure prediction by ZEFSAII (Michael W. Deem and Ramdas Pophale) SiO2 
 PCOD8173969
Probable space group: C M M 2
;
_chemical_formula_sum "Si O2"
_cell_formula_units_Z 48
_cell_length_a 15.848649
_cell_length_b 26.805150
_cell_length_c 5.052861
_cell_angle_alpha 90.000000
_cell_angle_beta 90.000000
_cell_angle_gamma 90.000000
_cell_volume 2146.583765
_symmetry_space_group_name_H-M "C M M 2"
_symmetry_group_IT_number 35
_symmetry_cell_setting 'orthorhombic'
loop_
_space_group_symop_operation_xyz
x,y,z
-x,-y,z
-x,y,z
x,-y,z
1/2+x,1/2+y,z
1/2-x,1/2-y,z
1/2-x,1/2+y,z
1/2+x,1/2-y,z
loop_
_atom_site_type_symbol
_atom_site_label
_atom_site_fract_x
_atom_site_fract_y
_atom_site_fract_z
Si Si1 0.675698 0.897167 0.720250
Si Si2 0.742754 0.945443 0.209797
Si Si3 0.500000 0.149667 0.688378
Si Si4 0.000000 0.286949 0.191511
Si Si5 0.596562 0.556932 0.908227
Si Si6 0.332517 0.656338 0.701467
Si Si7 0.339248 0.278879 0.189615
O O1 0.703694 0.908039 0.420068
O O2 0.578722 0.885298 0.745417
O O3 0.734510 0.849712 0.793388
O O4 0.696102 0.941028 0.926248
O O5 0.725287 0.000000 0.322865
O O6 0.843174 0.936671 0.164966
O O7 0.500000 0.165444 0.383617
O O8 0.500000 0.196648 0.885619
O O9 0.914714 0.258064 0.262809
O O10 0.500000 0.563858 0.999233
O O11 0.609687 0.500000 0.789910
O O12 0.621640 0.601535 0.704016
O O13 0.338100 0.677994 0.408568
O O14 0.367902 0.695737 0.913660
O O15 0.250000 0.250000 0.174816
#
# Coordination Sequence:
#
# PCOD8173969 Si02
#       7
#     8   8   4   4   8   8   8
#     4  11  22  41  65  93 123 173 212 265 320 385
#     4  10  21  40  63  94 132 171 214 262 322 384
#     4  12  24  44  67  92 124 162 223 266 326 402
#     4  12  26  42  66  94 124 166 212 276 332 388
#     4   9  20  39  66  98 136 179 222 268 326 397
#     4  11  23  41  66  93 132 171 217 270 332 396
#     4  12  25  43  65  95 130 172 220 278 340 395
#
# _framework density 22.361114000000001
#
# number of rings (size 3 to 8) (size 9 to 14) (size 15 to 20)
#    0.000    1.167    0.000    7.000    2.333    0.667 
#    0.000    6.667    0.000   22.000    0.000    0.000 
#    0.000    0.000    0.000    0.000    0.000    0.000 
#
# Total GULP energy -297503.613951 kJ/mol
# GULP energy per Si atom -12395.983915 kJ/mol
# Density = 2.231022 g / cm^3
# Si number density = 22.361114 Si / 1000 Ang^3
#
#
#
# Elastic Constant Matrix: (Units=GPa)
#
#
# Indices 1 2 3 4 5 6 
#
# 1 181.8626 50.6737 18.4688 0.0000 0.0000 0.0000
# 2 50.6737 104.6137 31.5330 0.0000 0.0000 0.0000
# 3 18.4688 31.5330 94.0468 0.0000 0.0000 0.0000
# 4 0.0000 0.0000 0.0000 34.7420 0.0000 0.0000
# 5 0.0000 0.0000 0.0000 0.0000 23.3574 0.0000
# 6 0.0000 0.0000 0.0000 0.0000 0.0000 -0.9099
#
#
#
# Elastic Compliance Matrix: (Units=1/GPa)
#
#
# Indices 1 2 3 4 5 6 
#
# 1 0.006361 -0.003009 -0.000240 0.000000 0.000000 0.000000
# 2 -0.003009 0.012057 -0.003452 0.000000 0.000000 0.000000
# 3 -0.000240 -0.003452 0.011838 0.000000 0.000000 0.000000
# 4 0.000000 0.000000 0.000000 0.028784 0.000000 0.000000
# 5 0.000000 0.000000 0.000000 0.000000 0.042813 0.000000
# 6 0.000000 0.000000 0.000000 0.000000 0.000000 -1.098988
#
#
# Mechanical properties :
#
#
# Convention : Reuss Voigt Hill
#
# Bulk Modulus (GPa) = 59.33358 64.65268 61.99313
# Shear Modulus (GPa) = -5.11187 30.09439 12.49126
#
# Velocity S-wave (km/s) = -1.51361 3.67254 2.36607
# Velocity P-wave (km/s) = 4.85151 6.85268 5.93702
#
# Compressibility (1/GPa) = 0.01685386
#
# Stress axis : x y z
#
# Youngs Moduli (GPa) = 157.19606 82.94002 84.47715
#
# Poissons Ratio (x) = 0.24956 0.02031
# Poissons Ratio (y) = 0.47300 0.29159
# Poissons Ratio (z) = 0.03779 0.28628
#
# Static dielectric constant tensor:
#      x y z
#    x 4.102500 0.000000 0.000000 
#    y 0.000000 4.030010 0.000000 
#    z 0.000000 0.000000 3.869160 
# 
# 
# High freq. dielectric constant tensor:
#      x y z
#    x 1.880890 0.000000 0.000000 
#    y 0.000000 1.885000 0.000000 
#    z 0.000000 0.000000 1.880730 
# 
# From -- ./inp_files/1944.got.cif
#   From: 2010.03.12/outbox.cif.g09.slc.cpg/sg35_1_cif.got.tgz:1944.got - 2010.04.14 02:02:04.
