data_PCOD8173289
_publ_section_title
;
Structure prediction by ZEFSAII (Michael W. Deem and Ramdas Pophale) SiO2 
 PCOD8173289
Probable space group: C M M 2
;
_chemical_formula_sum "Si O2"
_cell_formula_units_Z 40
_cell_length_a 8.746822
_cell_length_b 19.382886
_cell_length_c 12.688939
_cell_angle_alpha 90.000000
_cell_angle_beta 90.000000
_cell_angle_gamma 90.000000
_cell_volume 2151.265635
_symmetry_space_group_name_H-M "C M M 2"
_symmetry_group_IT_number 35
_symmetry_cell_setting 'orthorhombic'
loop_
_space_group_symop_operation_xyz
x,y,z
-x,-y,z
-x,y,z
x,-y,z
1/2+x,1/2+y,z
1/2-x,1/2-y,z
1/2-x,1/2+y,z
1/2+x,1/2-y,z
loop_
_atom_site_type_symbol
_atom_site_label
_atom_site_fract_x
_atom_site_fract_y
_atom_site_fract_z
Si Si1 0.320224 0.177482 0.150650
Si Si2 0.820051 0.177276 0.372987
Si Si3 0.668916 0.418235 0.749499
Si Si4 0.321798 0.580289 0.983150
Si Si5 0.174686 0.581162 0.540179
O O1 0.500000 0.185803 0.164503
O O2 0.250000 0.250000 0.113727
O O3 0.249406 0.153789 0.261622
O O4 0.284050 0.120389 0.064206
O O5 0.750000 0.250000 0.410113
O O6 0.783253 0.119023 0.457996
O O7 0.000000 0.185578 0.360906
O O8 0.500000 0.388651 0.723812
O O9 0.659575 0.500000 0.753649
O O10 0.784857 0.393596 0.658668
O O11 0.722305 0.393322 0.865358
O O12 0.500000 0.594873 0.005520
O O13 0.284407 0.500000 0.996707
O O14 0.204728 0.500000 0.528334
O O15 0.000000 0.600634 0.517270
#
# Coordination Sequence:
#
# PCOD8173289 Si02
#       5
#     8   8   8   8   8
#     4  11  22  37  56  77 105 139 176 217 263 315
#     4  11  22  38  58  77 103 138 176 217 264 317
#     4   8  15  30  52  77 106 140 175 212 258 309
#     4   9  18  34  56  81 109 140 175 215 259 309
#     4  10  20  34  54  81 111 140 174 216 259 307
#
# _framework density 18.593705
#
# number of rings (size 3 to 8) (size 9 to 14) (size 15 to 20)
#    0.000    2.200    0.000    6.600    0.000    3.200 
#    0.000    3.000    0.000    4.800    0.000    0.000 
#    0.000    0.000    0.000    0.000    0.000    0.000 
#
# Total GULP energy -247999.217101 kJ/mol
# GULP energy per Si atom -12399.960855 kJ/mol
# Density = 1.855138 g / cm^3
# Si number density = 18.593705 Si / 1000 Ang^3
#
#
#
# Elastic Constant Matrix: (Units=GPa)
#
#
# Indices 1 2 3 4 5 6 
#
# 1 135.0734 42.2994 59.0108 0.0000 0.0000 0.0000
# 2 42.2994 55.4190 54.3112 0.0000 0.0000 0.0000
# 3 59.0108 54.3112 122.6328 0.0000 0.0000 0.0000
# 4 0.0000 0.0000 0.0000 -13.5665 0.0000 0.0000
# 5 0.0000 0.0000 0.0000 0.0000 35.1903 0.0000
# 6 0.0000 0.0000 0.0000 0.0000 0.0000 27.2466
#
#
#
# Elastic Compliance Matrix: (Units=1/GPa)
#
#
# Indices 1 2 3 4 5 6 
#
# 1 0.010168 -0.005240 -0.002572 0.000000 0.000000 0.000000
# 2 -0.005240 0.034582 -0.012794 0.000000 0.000000 0.000000
# 3 -0.002572 -0.012794 0.015058 0.000000 0.000000 0.000000
# 4 0.000000 0.000000 0.000000 -0.073711 0.000000 0.000000
# 5 0.000000 0.000000 0.000000 0.000000 0.028417 0.000000
# 6 0.000000 0.000000 0.000000 0.000000 0.000000 0.036702
#
#
# Mechanical properties :
#
#
# Convention : Reuss Voigt Hill
#
# Bulk Modulus (GPa) = 53.77537 69.37421 61.57479
# Shear Modulus (GPa) = 50.69544 20.27433 35.48489
#
# Velocity S-wave (km/s) = 5.22724 3.30568 4.37330
# Velocity P-wave (km/s) = 8.08802 7.20844 7.66087
#
# Compressibility (1/GPa) = 0.01859587
#
# Stress axis : x y z
#
# Youngs Moduli (GPa) = 98.34664 28.91644 66.40847
#
# Poissons Ratio (x) = 0.15153 0.17081
# Poissons Ratio (y) = 0.51536 0.84964
# Poissons Ratio (z) = 0.25296 0.36996
#
# Static dielectric constant tensor:
#      x y z
#    x 3.464720 0.000000 0.000000 
#    y 0.000000 3.143590 0.000000 
#    z 0.000000 0.000000 3.600790 
# 
# 
# High freq. dielectric constant tensor:
#      x y z
#    x 1.728650 0.000000 0.000000 
#    y 0.000000 1.694500 0.000000 
#    z 0.000000 0.000000 1.732920 
# 
# From -- ./inp_files/9649.got.cif
#   From: 2010.03.12/outbox.cif.g09.slc.cpg/sg35_5_cif.got.tgz:9649.got - 2010.04.14 02:02:04.
