data_PCOD8173316
_publ_section_title
;
Structure prediction by ZEFSAII (Michael W. Deem and Ramdas Pophale) SiO2 
 PCOD8173316
Probable space group: C M M 2
;
_chemical_formula_sum "Si O2"
_cell_formula_units_Z 40
_cell_length_a 15.734038
_cell_length_b 8.986695
_cell_length_c 14.267053
_cell_angle_alpha 90.000000
_cell_angle_beta 90.000000
_cell_angle_gamma 90.000000
_cell_volume 2017.318502
_symmetry_space_group_name_H-M "C M M 2"
_symmetry_group_IT_number 35
_symmetry_cell_setting 'orthorhombic'
loop_
_space_group_symop_operation_xyz
x,y,z
-x,-y,z
-x,y,z
x,-y,z
1/2+x,1/2+y,z
1/2-x,1/2-y,z
1/2-x,1/2+y,z
1/2+x,1/2-y,z
loop_
_atom_site_type_symbol
_atom_site_label
_atom_site_fract_x
_atom_site_fract_y
_atom_site_fract_z
Si Si1 0.336547 0.327373 0.793630
Si Si2 0.664008 0.823525 0.154206
Si Si3 0.095029 0.665473 0.959581
Si Si4 0.000000 0.674710 0.261905
Si Si5 0.840519 0.176612 0.579778
Si Si6 0.500000 0.823631 0.479444
O O1 0.323659 0.500000 0.805400
O O2 0.250000 0.250000 0.823157
O O3 0.405014 0.270698 0.868418
O O4 0.363334 0.287591 0.687842
O O5 0.750000 0.750000 0.193189
O O6 0.585308 0.758987 0.214743
O O7 0.670578 0.000000 0.165118
O O8 0.653014 0.776975 0.045153
O O9 0.123376 0.500000 0.928546
O O10 0.000000 0.662451 0.000146
O O11 0.000000 0.500000 0.244773
O O12 0.000000 0.715540 0.370598
O O13 0.750000 0.250000 0.552649
O O14 0.915118 0.250685 0.520698
O O15 0.835960 0.000000 0.560922
O O16 0.500000 0.000000 0.499288
#
# Coordination Sequence:
#
# PCOD8173316 Si02
#       6
#     8   8   8   4   8   4
#     4  10  21  36  55  80 114 153 192 236 283 336
#     4  10  20  38  61  84 115 153 191 234 285 342
#     4  10  20  34  55  83 116 156 194 231 280 340
#     4   9  20  41  62  83 114 150 191 237 290 353
#     4  10  22  41  62  87 121 158 198 245 295 351
#     4  11  23  39  64  91 116 154 197 245 304 357
#
# _framework density 19.828299999999999
#
# number of rings (size 3 to 8) (size 9 to 14) (size 15 to 20)
#    0.000    2.000    1.000    2.100    1.400    6.000 
#    0.000    4.500    0.000    0.000    0.000    0.000 
#    0.000    0.000    0.000    0.000    0.000    0.000 
#
# Total GULP energy -247985.872601 kJ/mol
# GULP energy per Si atom -12399.293630 kJ/mol
# Density = 1.978317 g / cm^3
# Si number density = 19.828300 Si / 1000 Ang^3
#
#
#
# Elastic Constant Matrix: (Units=GPa)
#
#
# Indices 1 2 3 4 5 6 
#
# 1 157.3192 53.1684 78.1613 0.0000 0.0000 0.0000
# 2 53.1684 73.9840 55.7923 0.0000 0.0000 0.0000
# 3 78.1613 55.7923 115.5972 0.0000 0.0000 0.0000
# 4 0.0000 0.0000 0.0000 20.4604 0.0000 0.0000
# 5 0.0000 0.0000 0.0000 0.0000 26.4904 0.0000
# 6 0.0000 0.0000 0.0000 0.0000 0.0000 36.4292
#
#
#
# Elastic Compliance Matrix: (Units=1/GPa)
#
#
# Indices 1 2 3 4 5 6 
#
# 1 0.010060 -0.003302 -0.005209 0.000000 0.000000 0.000000
# 2 -0.003302 0.022335 -0.008547 0.000000 0.000000 0.000000
# 3 -0.005209 -0.008547 0.016298 0.000000 0.000000 0.000000
# 4 0.000000 0.000000 0.000000 0.048875 0.000000 0.000000
# 5 0.000000 0.000000 0.000000 0.000000 0.037750 0.000000
# 6 0.000000 0.000000 0.000000 0.000000 0.000000 0.027451
#
#
# Mechanical properties :
#
#
# Convention : Reuss Voigt Hill
#
# Bulk Modulus (GPa) = 68.59891 80.12717 74.36304
# Shear Modulus (GPa) = 24.78407 27.32790 26.05598
#
# Velocity S-wave (km/s) = 3.53928 3.71648 3.62896
# Velocity P-wave (km/s) = 7.16753 7.67558 7.42590
#
# Compressibility (1/GPa) = 0.01457749
#
# Stress axis : x y z
#
# Youngs Moduli (GPa) = 99.40136 44.77297 61.35786
#
# Poissons Ratio (x) = 0.14783 0.31959
# Poissons Ratio (y) = 0.32821 0.52444
# Poissons Ratio (z) = 0.51774 0.38269
#
# Static dielectric constant tensor:
#      x y z
#    x 3.625250 0.000000 0.000000 
#    y 0.000000 3.507170 0.000000 
#    z 0.000000 0.000000 3.601580 
# 
# 
# High freq. dielectric constant tensor:
#      x y z
#    x 1.782160 0.000000 0.000000 
#    y 0.000000 1.762350 0.000000 
#    z 0.000000 0.000000 1.772220 
# 
# From -- ./inp_files/14746.got.cif
#   From: 2010.03.12/outbox.cif.g09.slc.cpg/sg35_8_cif.got.tgz:14746.got - 2010.04.14 02:02:04.
