data_PCOD8173543
_publ_section_title
;
Structure prediction by ZEFSAII (Michael W. Deem and Ramdas Pophale) SiO2 
 PCOD8173543
Probable space group: C M M 2
;
_chemical_formula_sum "Si O2"
_cell_formula_units_Z 56
_cell_length_a 20.931939
_cell_length_b 8.696616
_cell_length_c 14.697061
_cell_angle_alpha 90.000000
_cell_angle_beta 90.000000
_cell_angle_gamma 90.000000
_cell_volume 2675.409417
_symmetry_space_group_name_H-M "C M M 2"
_symmetry_group_IT_number 35
_symmetry_cell_setting 'orthorhombic'
loop_
_space_group_symop_operation_xyz
x,y,z
-x,-y,z
-x,y,z
x,-y,z
1/2+x,1/2+y,z
1/2-x,1/2-y,z
1/2-x,1/2+y,z
1/2+x,1/2-y,z
loop_
_atom_site_type_symbol
_atom_site_label
_atom_site_fract_x
_atom_site_fract_y
_atom_site_fract_z
Si Si1 0.686030 0.317965 0.721090
Si Si2 0.362683 0.815825 0.896496
Si Si3 0.572140 0.319783 0.591766
Si Si4 0.815263 0.681141 0.272414
Si Si5 0.500000 0.174138 0.888622
Si Si6 0.071146 0.317868 0.397924
Si Si7 0.500000 0.671652 0.069047
Si Si8 0.860088 0.823955 0.094425
O O1 0.689964 0.500000 0.727142
O O2 0.750000 0.250000 0.673418
O O3 0.686535 0.245176 0.822214
O O4 0.623443 0.263158 0.665987
O O5 0.432237 0.752754 0.858661
O O6 0.361651 0.000000 0.904943
O O7 0.346987 0.744000 0.994395
O O8 0.500000 0.277616 0.625152
O O9 0.578440 0.500000 0.574186
O O10 0.589132 0.235219 0.498711
O O11 0.812195 0.500000 0.280469
O O12 0.750000 0.750000 0.314030
O O13 0.875808 0.748074 0.328494
O O14 0.819654 0.729291 0.167095
O O15 0.500000 0.000000 0.857209
O O16 0.500000 0.189390 0.997822
O O17 0.071840 0.500000 0.395552
O O18 0.000000 0.256845 0.371216
O O19 0.500000 0.500000 0.022539
O O20 0.565349 0.689190 0.125894
O O21 0.836991 0.000000 0.094872
#
# Coordination Sequence:
#
# PCOD8173543 Si02
#       8
#     8   8   8   8   4   8   4   8
#     4  11  24  40  59  86 121 159 200 245 295 351
#     4  10  20  36  57  84 118 157 201 245 295 349
#     4   9  20  40  65  92 119 151 192 240 295 353
#     4  11  24  40  59  86 121 159 200 245 295 351
#     4   8  16  30  50  78 109 142 185 236 287 340
#     4   9  20  40  65  92 119 151 192 240 295 353
#     4   8  16  30  50  78 109 142 185 236 287 340
#     4  10  20  36  57  84 118 157 201 245 295 349
#
# _framework density 20.931376
#
# number of rings (size 3 to 8) (size 9 to 14) (size 15 to 20)
#    0.000    2.286    0.000    1.714    2.000    4.571 
#    0.000    5.714    0.000    0.000    0.000    0.000 
#    0.000    0.000    0.000    0.000    0.000    0.000 
#
# Total GULP energy -347012.246560 kJ/mol
# GULP energy per Si atom -12393.294520 kJ/mol
# Density = 2.088373 g / cm^3
# Si number density = 20.931376 Si / 1000 Ang^3
#
#
#
# Elastic Constant Matrix: (Units=GPa)
#
#
# Indices 1 2 3 4 5 6 
#
# 1 140.1982 35.3037 68.9231 0.0000 0.0000 0.0000
# 2 35.3037 52.1338 22.8081 0.0000 0.0000 0.0000
# 3 68.9231 22.8081 98.7415 0.0000 0.0000 0.0000
# 4 0.0000 0.0000 0.0000 31.0520 0.0000 0.0000
# 5 0.0000 0.0000 0.0000 0.0000 24.3969 0.0000
# 6 0.0000 0.0000 0.0000 0.0000 0.0000 30.7388
#
#
#
# Elastic Compliance Matrix: (Units=1/GPa)
#
#
# Indices 1 2 3 4 5 6 
#
# 1 0.011895 -0.004920 -0.007166 0.000000 0.000000 0.000000
# 2 -0.004920 0.023372 -0.001965 0.000000 0.000000 0.000000
# 3 -0.007166 -0.001965 0.015583 0.000000 0.000000 0.000000
# 4 0.000000 0.000000 0.000000 0.032204 0.000000 0.000000
# 5 0.000000 0.000000 0.000000 0.000000 0.040989 0.000000
# 6 0.000000 0.000000 0.000000 0.000000 0.000000 0.032532
#
#
# Mechanical properties :
#
#
# Convention : Reuss Voigt Hill
#
# Bulk Modulus (GPa) = 43.95757 60.57145 52.26451
# Shear Modulus (GPa) = 26.00651 28.17347 27.08999
#
# Velocity S-wave (km/s) = 3.52869 3.67276 3.60144
# Velocity P-wave (km/s) = 6.13584 6.85467 6.50519
#
# Compressibility (1/GPa) = 0.02274921
#
# Stress axis : x y z
#
# Youngs Moduli (GPa) = 84.07203 42.78556 64.17066
#
# Poissons Ratio (x) = 0.21048 0.45986
# Poissons Ratio (y) = 0.41359 0.12608
# Poissons Ratio (z) = 0.60248 0.08407
#
# Static dielectric constant tensor:
#      x y z
#    x 4.287250 0.000000 0.000000 
#    y 0.000000 3.630080 0.000000 
#    z 0.000000 0.000000 3.523010 
# 
# 
# High freq. dielectric constant tensor:
#      x y z
#    x 1.838550 0.000000 0.000000 
#    y 0.000000 1.813280 0.000000 
#    z 0.000000 0.000000 1.795040 
# 
# From -- ./inp_files/17495.got.cif
#   From: 2010.03.12/outbox.cif.g09.slc.cpg/sg35_9_cif.got.tgz:17495.got - 2010.04.14 02:02:04.
