data_PCOD8173971
_publ_section_title
;
Structure prediction by ZEFSAII (Michael W. Deem and Ramdas Pophale) SiO2 
 PCOD8173971
Probable space group: C M M 2
;
_chemical_formula_sum "Si O2"
_cell_formula_units_Z 48
_cell_length_a 15.727241
_cell_length_b 8.591199
_cell_length_c 16.663543
_cell_angle_alpha 90.000000
_cell_angle_beta 90.000000
_cell_angle_gamma 90.000000
_cell_volume 2251.508896
_symmetry_space_group_name_H-M "C M M 2"
_symmetry_group_IT_number 35
_symmetry_cell_setting 'orthorhombic'
loop_
_space_group_symop_operation_xyz
x,y,z
-x,-y,z
-x,y,z
x,-y,z
1/2+x,1/2+y,z
1/2-x,1/2-y,z
1/2-x,1/2+y,z
1/2+x,1/2-y,z
loop_
_atom_site_type_symbol
_atom_site_label
_atom_site_fract_x
_atom_site_fract_y
_atom_site_fract_z
Si Si1 0.342836 0.681082 0.789060
Si Si2 0.660478 0.682786 0.100519
Si Si3 0.901971 0.324178 0.629354
Si Si4 0.000000 0.316676 0.192075
Si Si5 0.339416 0.816557 0.458298
Si Si6 0.000000 0.817597 0.367003
Si Si7 0.596935 0.823817 0.947018
O O1 0.340567 0.500000 0.807029
O O2 0.250000 0.750000 0.792739
O O3 0.383164 0.709127 0.702138
O O4 0.399703 0.763339 0.856202
O O5 0.654995 0.500000 0.117859
O O6 0.750000 0.750000 0.132615
O O7 0.584547 0.772194 0.144032
O O8 0.653294 0.716096 0.005195
O O9 0.876398 0.500000 0.654570
O O10 0.849783 0.268927 0.551586
O O11 0.000000 0.315685 0.605002
O O12 0.000000 0.500000 0.208588
O O13 0.000000 0.222671 0.274031
O O14 0.250000 0.750000 0.426543
O O15 0.415190 0.749153 0.406075
O O16 0.340839 0.000000 0.447820
O O17 0.000000 0.000000 0.379774
O O18 0.500000 0.817521 0.976353
O O19 0.631886 0.000000 0.951448
#
# Coordination Sequence:
#
# PCOD8173971 Si02
#       7
#     8   8   8   4   8   4   8
#     4  12  25  39  57  86 125 169 222 277 330 388
#     4  12  25  44  71 103 139 178 224 274 330 396
#     4  10  21  40  64  91 127 170 217 270 330 391
#     4  12  26  48  74 103 138 175 218 272 334 399
#     4  11  23  43  69 101 136 178 223 274 333 397
#     4  12  26  46  72 103 136 175 220 272 332 399
#     4  11  23  41  65  92 128 173 221 272 332 393
#
# _framework density 21.319037000000002
#
# number of rings (size 3 to 8) (size 9 to 14) (size 15 to 20)
#    0.000    0.667    1.667    7.000    0.000    6.667 
#    0.000    3.333    0.000    0.000    0.000    0.000 
#    0.000    0.000    0.000    0.000    0.000    0.000 
#
# Total GULP energy -297762.477576 kJ/mol
# GULP energy per Si atom -12406.769899 kJ/mol
# Density = 2.127051 g / cm^3
# Si number density = 21.319037 Si / 1000 Ang^3
#
#
#
# Elastic Constant Matrix: (Units=GPa)
#
#
# Indices 1 2 3 4 5 6 
#
# 1 136.5849 26.6036 39.0831 0.0000 0.0000 0.0000
# 2 26.6036 75.4023 15.4222 0.0000 0.0000 0.0000
# 3 39.0831 15.4222 94.9224 0.0000 0.0000 0.0000
# 4 0.0000 0.0000 0.0000 36.1769 0.0000 0.0000
# 5 0.0000 0.0000 0.0000 0.0000 5.1811 0.0000
# 6 0.0000 0.0000 0.0000 0.0000 0.0000 30.6619
#
#
#
# Elastic Compliance Matrix: (Units=1/GPa)
#
#
# Indices 1 2 3 4 5 6 
#
# 1 0.008706 -0.002419 -0.003192 0.000000 0.000000 0.000000
# 2 -0.002419 0.014390 -0.001342 0.000000 0.000000 0.000000
# 3 -0.003192 -0.001342 0.012067 0.000000 0.000000 0.000000
# 4 0.000000 0.000000 0.000000 0.027642 0.000000 0.000000
# 5 0.000000 0.000000 0.000000 0.000000 0.193007 0.000000
# 6 0.000000 0.000000 0.000000 0.000000 0.000000 0.032614
#
#
# Mechanical properties :
#
#
# Convention : Reuss Voigt Hill
#
# Bulk Modulus (GPa) = 47.04081 52.12525 49.58303
# Shear Modulus (GPa) = 16.15942 29.45737 22.80840
#
# Velocity S-wave (km/s) = 2.75613 3.72121 3.27442
# Velocity P-wave (km/s) = 5.67815 6.55487 6.13220
#
# Compressibility (1/GPa) = 0.02125814
#
# Stress axis : x y z
#
# Youngs Moduli (GPa) = 114.86561 69.49224 82.87042
#
# Poissons Ratio (x) = 0.16809 0.26448
# Poissons Ratio (y) = 0.27784 0.11122
# Poissons Ratio (z) = 0.36660 0.09326
#
# Static dielectric constant tensor:
#      x y z
#    x 3.998820 0.000000 0.000000 
#    y 0.000000 4.012710 0.000000 
#    z 0.000000 0.000000 4.003880 
# 
# 
# High freq. dielectric constant tensor:
#      x y z
#    x 1.851300 0.000000 0.000000 
#    y 0.000000 1.845840 0.000000 
#    z 0.000000 0.000000 1.836520 
# 
# From -- ./inp_files/18800.got.cif
#   From: 2010.03.12/outbox.cif.g09.slc.cpg/sg35_10_cif.got.tgz:18800.got - 2010.04.14 02:02:04.
