data_PCOD8173539
_publ_section_title
;
Structure prediction by ZEFSAII (Michael W. Deem and Ramdas Pophale) SiO2 
 PCOD8173539
Probable space group: C M M 2
;
_chemical_formula_sum "Si O2"
_cell_formula_units_Z 64
_cell_length_a 15.463919
_cell_length_b 17.073375
_cell_length_c 11.874695
_cell_angle_alpha 90.000000
_cell_angle_beta 90.000000
_cell_angle_gamma 90.000000
_cell_volume 3135.172269
_symmetry_space_group_name_H-M "C M M 2"
_symmetry_group_IT_number 35
_symmetry_cell_setting 'orthorhombic'
loop_
_space_group_symop_operation_xyz
x,y,z
-x,-y,z
-x,y,z
x,-y,z
1/2+x,1/2+y,z
1/2-x,1/2-y,z
1/2-x,1/2+y,z
1/2+x,1/2-y,z
loop_
_atom_site_type_symbol
_atom_site_label
_atom_site_fract_x
_atom_site_fract_y
_atom_site_fract_z
Si Si1 0.191299 0.672889 0.275630
Si Si2 0.756213 0.342470 0.660113
Si Si3 0.095565 0.907505 0.053257
Si Si4 0.857646 0.910239 0.297367
Si Si5 0.253199 0.909587 0.903495
Si Si6 0.907833 0.148942 0.533780
Si Si7 0.099447 0.410581 0.080425
Si Si8 0.594965 0.173534 0.508426
O O1 0.250000 0.750000 0.254437
O O2 0.254263 0.598765 0.292754
O O3 0.128725 0.653309 0.171774
O O4 0.132180 0.681428 0.383907
O O5 0.750000 0.250000 0.639785
O O6 0.763867 0.360788 0.790494
O O7 0.671437 0.385550 0.607077
O O8 0.839896 0.374062 0.590945
O O9 0.103947 0.875152 0.180681
O O10 0.000000 0.885494 0.005939
O O11 0.109209 0.000000 0.060654
O O12 0.171223 0.873973 0.972916
O O13 0.895515 0.861534 0.400415
O O14 0.883505 0.000000 0.314634
O O15 0.236379 0.000000 0.873666
O O16 0.341894 0.898267 0.970670
O O17 0.914973 0.240391 0.559139
O O18 0.000000 0.109707 0.569504
O O19 0.110370 0.500000 0.125255
O O20 0.000000 0.393963 0.047408
O O21 0.500000 0.132468 0.506183
#
# Coordination Sequence:
#
# PCOD8173539 Si02
#       8
#     8   8   8   8   8   8   8   8
#     4  12  20  36  61  89 121 153 189 237 294 350
#     4  10  21  39  57  79 111 150 191 241 291 341
#     4   9  18  34  55  80 114 153 186 225 286 352
#     4  11  20  34  58  86 119 154 187 225 279 349
#     4  10  21  38  59  81 109 150 198 247 294 343
#     4  10  20  36  57  83 114 151 189 228 284 346
#     4  10  22  41  63  87 118 158 201 245 296 352
#     4  10  20  37  59  82 112 151 190 232 287 346
#
# _framework density 20.413550000000001
#
# number of rings (size 3 to 8) (size 9 to 14) (size 15 to 20)
#    0.000    1.750    3.750    1.500    0.000    2.750 
#    0.000    0.000    0.000    1.500    0.000    0.000 
#    0.000    0.000    0.000    0.000    0.000    0.000 
#
# Total GULP energy -396652.616568 kJ/mol
# GULP energy per Si atom -12395.394268 kJ/mol
# Density = 2.036709 g / cm^3
# Si number density = 20.413550 Si / 1000 Ang^3
#
#
#
# Elastic Constant Matrix: (Units=GPa)
#
#
# Indices 1 2 3 4 5 6 
#
# 1 204.6138 26.7453 78.4200 0.0000 0.0000 0.0000
# 2 26.7453 20.7984 25.8910 0.0000 0.0000 0.0000
# 3 78.4200 25.8910 129.3928 0.0000 0.0000 0.0000
# 4 0.0000 0.0000 0.0000 26.6751 0.0000 0.0000
# 5 0.0000 0.0000 0.0000 0.0000 16.1180 0.0000
# 6 0.0000 0.0000 0.0000 0.0000 0.0000 12.8774
#
#
#
# Elastic Compliance Matrix: (Units=1/GPa)
#
#
# Indices 1 2 3 4 5 6 
#
# 1 0.006700 -0.004742 -0.003112 0.000000 0.000000 0.000000
# 2 -0.004742 0.067386 -0.010610 0.000000 0.000000 0.000000
# 3 -0.003112 -0.010610 0.011737 0.000000 0.000000 0.000000
# 4 0.000000 0.000000 0.000000 0.037488 0.000000 0.000000
# 5 0.000000 0.000000 0.000000 0.000000 0.062042 0.000000
# 6 0.000000 0.000000 0.000000 0.000000 0.000000 0.077656
#
#
# Mechanical properties :
#
#
# Convention : Reuss Voigt Hill
#
# Bulk Modulus (GPa) = 20.45142 68.54640 44.49891
# Shear Modulus (GPa) = 15.81107 26.05067 20.93087
#
# Velocity S-wave (km/s) = 2.78607 3.57619 3.20557
# Velocity P-wave (km/s) = 4.51552 7.12067 5.96213
#
# Compressibility (1/GPa) = 0.04889636
#
# Stress axis : x y z
#
# Youngs Moduli (GPa) = 149.26291 14.83988 85.19922
#
# Poissons Ratio (x) = 0.07037 0.26510
# Poissons Ratio (y) = 0.70777 0.90395
# Poissons Ratio (z) = 0.46444 0.15745
#
# Static dielectric constant tensor:
#      x y z
#    x 4.291000 0.000000 0.000000 
#    y 0.000000 3.363170 0.000000 
#    z 0.000000 0.000000 3.513080 
# 
# 
# High freq. dielectric constant tensor:
#      x y z
#    x 1.820710 0.000000 0.000000 
#    y 0.000000 1.757570 0.000000 
#    z 0.000000 0.000000 1.786560 
# 
# From -- ./inp_files/13221.got.cif
#   From: 2010.03.12/outbox.cif.g09.slc.cpg/sg35_7_cif.got.tgz:13221.got - 2010.04.14 02:02:04.
