data_PCOD8173149
_publ_section_title
;
Structure prediction by ZEFSAII (Michael W. Deem and Ramdas Pophale) SiO2 
 PCOD8173149
Probable space group: C M M 2
;
_chemical_formula_sum "Si O2"
_cell_formula_units_Z 64
_cell_length_a 9.211595
_cell_length_b 31.198388
_cell_length_c 11.517735
_cell_angle_alpha 90.000000
_cell_angle_beta 90.000000
_cell_angle_gamma 90.000000
_cell_volume 3310.046328
_symmetry_space_group_name_H-M "C M M 2"
_symmetry_group_IT_number 35
_symmetry_cell_setting 'orthorhombic'
loop_
_space_group_symop_operation_xyz
x,y,z
-x,-y,z
-x,y,z
x,-y,z
1/2+x,1/2+y,z
1/2-x,1/2-y,z
1/2-x,1/2+y,z
1/2+x,1/2-y,z
loop_
_atom_site_type_symbol
_atom_site_label
_atom_site_fract_x
_atom_site_fract_y
_atom_site_fract_z
Si Si1 0.341801 0.786542 0.518530
Si Si2 0.673121 0.295597 0.985195
Si Si3 0.657372 0.451196 0.798924
Si Si4 0.331656 0.824876 0.754958
Si Si5 0.665829 0.911964 0.620344
Si Si6 0.838078 0.372545 0.381369
Si Si7 0.670887 0.624357 0.149589
Si Si8 0.329427 0.949810 0.019823
O O1 0.500000 0.767538 0.538041
O O2 0.250000 0.750000 0.455894
O O3 0.277960 0.796845 0.645822
O O4 0.348403 0.825789 0.433161
O O5 0.500000 0.288327 0.979841
O O6 0.750000 0.250000 0.016201
O O7 0.729170 0.313430 0.862380
O O8 0.714027 0.332170 0.080237
O O9 0.500000 0.427282 0.805248
O O10 0.628273 0.500000 0.826438
O O11 0.728051 0.448050 0.670906
O O12 0.768172 0.434010 0.895955
O O13 0.500000 0.816096 0.787656
O O14 0.312120 0.873303 0.711438
O O15 0.500000 0.927492 0.621682
O O16 0.711926 0.902993 0.487605
O O17 0.717396 0.371196 0.282888
O O18 0.000000 0.385747 0.335847
O O19 0.500000 0.616273 0.140476
O O20 0.752895 0.581254 0.111160
O O21 0.500000 0.941170 0.020315
O O22 0.296234 0.000000 0.047755
#
# Coordination Sequence:
#
# PCOD8173149 Si02
#       8
#     8   8   8   8   8   8   8   8
#     4   9  18  32  51  76 104 134 172 220 271 322
#     4  11  24  38  53  78 111 147 187 228 274 330
#     4  10  20  33  52  82 117 145 171 212 267 323
#     4   9  18  33  53  78 107 137 172 219 274 327
#     4   9  18  34  56  80 106 140 181 221 266 324
#     4   9  20  38  56  75 103 141 184 226 268 320
#     4  11  24  40  58  82 111 145 188 236 284 330
#     4  10  21  38  62  89 114 145 185 225 272 333
#
# _framework density 19.335077999999999
#
# number of rings (size 3 to 8) (size 9 to 14) (size 15 to 20)
#    0.000    2.250    0.000    4.125    0.000    9.000 
#    0.000    5.625    0.000    0.750    0.000    0.000 
#    0.000    0.000    0.000    0.000    0.000    0.000 
#
# Total GULP energy -396522.692858 kJ/mol
# GULP energy per Si atom -12391.334152 kJ/mol
# Density = 1.929107 g / cm^3
# Si number density = 19.335078 Si / 1000 Ang^3
#
#
#
# Elastic Constant Matrix: (Units=GPa)
#
#
# Indices 1 2 3 4 5 6 
#
# 1 111.5007 45.8338 60.6097 0.0000 0.0000 0.0000
# 2 45.8338 51.8933 38.9651 0.0000 0.0000 0.0000
# 3 60.6097 38.9651 113.6015 0.0000 0.0000 0.0000
# 4 0.0000 0.0000 0.0000 -168.4626 0.0000 0.0000
# 5 0.0000 0.0000 0.0000 0.0000 34.7379 0.0000
# 6 0.0000 0.0000 0.0000 0.0000 0.0000 27.8346
#
#
#
# Elastic Compliance Matrix: (Units=1/GPa)
#
#
# Indices 1 2 3 4 5 6 
#
# 1 0.015902 -0.010337 -0.004939 0.000000 0.000000 0.000000
# 2 -0.010337 0.032674 -0.005692 0.000000 0.000000 0.000000
# 3 -0.004939 -0.005692 0.013390 0.000000 0.000000 0.000000
# 4 0.000000 0.000000 0.000000 -0.005936 0.000000 0.000000
# 5 0.000000 0.000000 0.000000 0.000000 0.028787 0.000000
# 6 0.000000 0.000000 0.000000 0.000000 0.000000 0.035926
#
#
# Mechanical properties :
#
#
# Convention : Reuss Voigt Hill
#
# Bulk Modulus (GPa) = 49.92298 63.09029 56.50663
# Shear Modulus (GPa) = 29.52342 -12.40555 8.55894
#
# Velocity S-wave (km/s) = 3.91184 -2.53575 2.10624
# Velocity P-wave (km/s) = 6.80289 4.91197 5.93324
#
# Compressibility (1/GPa) = 0.02003086
#
# Stress axis : x y z
#
# Youngs Moduli (GPa) = 62.88370 30.60504 74.68225
#
# Poissons Ratio (x) = 0.31637 0.36884
# Poissons Ratio (y) = 0.65003 0.42510
# Poissons Ratio (z) = 0.31057 0.17421
#
# Static dielectric constant tensor:
#      x y z
#    x 3.339410 0.000000 0.000000 
#    y 0.000000 3.557500 0.000000 
#    z 0.000000 0.000000 3.483770 
# 
# 
# High freq. dielectric constant tensor:
#      x y z
#    x 1.758540 0.000000 0.000000 
#    y 0.000000 1.746670 0.000000 
#    z 0.000000 0.000000 1.744520 
# 
# From -- ./inp_files/11831.got.cif
#   From: 2010.03.12/outbox.cif.g09.slc.cpg/sg35_6_cif.got.tgz:11831.got - 2010.04.14 02:02:04.
