data_PCOD8173771
_publ_section_title
;
Structure prediction by ZEFSAII (Michael W. Deem and Ramdas Pophale) SiO2 
 PCOD8173771
Probable space group: C M M 2
;
_chemical_formula_sum "Si O2"
_cell_formula_units_Z 48
_cell_length_a 9.202109
_cell_length_b 18.076199
_cell_length_c 15.503730
_cell_angle_alpha 90.000000
_cell_angle_beta 90.000000
_cell_angle_gamma 90.000000
_cell_volume 2578.877324
_symmetry_space_group_name_H-M "C M M 2"
_symmetry_group_IT_number 35
_symmetry_cell_setting 'orthorhombic'
loop_
_space_group_symop_operation_xyz
x,y,z
-x,-y,z
-x,y,z
x,-y,z
1/2+x,1/2+y,z
1/2-x,1/2-y,z
1/2-x,1/2+y,z
1/2+x,1/2-y,z
loop_
_atom_site_type_symbol
_atom_site_label
_atom_site_fract_x
_atom_site_fract_y
_atom_site_fract_z
Si Si1 0.328630 0.584450 0.702500
Si Si2 0.834023 0.086699 0.364881
Si Si3 0.327223 0.917595 0.055926
Si Si4 0.669611 0.673569 0.537150
Si Si5 0.661603 0.911948 0.867747
Si Si6 0.327134 0.172403 0.220221
O O1 0.500000 0.588542 0.710738
O O2 0.277256 0.500000 0.687878
O O3 0.271403 0.632957 0.622797
O O4 0.262564 0.617880 0.790779
O O5 0.795517 0.121280 0.456889
O O6 0.722181 0.117299 0.295005
O O7 0.000000 0.105580 0.338181
O O8 0.809760 0.000000 0.373310
O O9 0.500000 0.922854 0.055798
O O10 0.273249 0.861429 0.129273
O O11 0.263577 0.000000 0.074214
O O12 0.276143 0.887399 0.961788
O O13 0.500000 0.689962 0.545574
O O14 0.750000 0.750000 0.523188
O O15 0.500000 0.879825 0.853030
O O16 0.657184 0.000000 0.867940
O O17 0.500000 0.182323 0.224079
O O18 0.250000 0.250000 0.234774
#
# Coordination Sequence:
#
# PCOD8173771 Si02
#       6
#     8   8   8   8   8   8
#     4   9  17  31  51  74 100 131 168 209 253 300
#     4  10  21  38  59  81 104 132 169 213 260 310
#     4   8  15  30  52  75  99 131 171 212 255 304
#     4  10  21  36  53  74 103 138 170 204 251 305
#     4   8  14  27  49  75 100 128 166 211 255 298
#     4  11  22  36  54  77 107 141 175 212 257 308
#
# _framework density 18.612749999999998
#
# number of rings (size 3 to 8) (size 9 to 14) (size 15 to 20)
#    0.000    2.667    0.000    3.000    0.000    5.667 
#    0.000    2.500    0.000   11.000    0.000    0.000 
#    0.000    0.000    0.000    0.000    0.000    0.000 
#
# Total GULP energy -297555.435497 kJ/mol
# GULP energy per Si atom -12398.143146 kJ/mol
# Density = 1.857039 g / cm^3
# Si number density = 18.612750 Si / 1000 Ang^3
#
#
#
# Elastic Constant Matrix: (Units=GPa)
#
#
# Indices 1 2 3 4 5 6 
#
# 1 47.5540 35.2196 47.9612 0.0000 0.0000 0.0000
# 2 35.2196 94.5033 59.1340 0.0000 0.0000 0.0000
# 3 47.9612 59.1340 157.6004 0.0000 0.0000 0.0000
# 4 0.0000 0.0000 0.0000 2.7273 0.0000 0.0000
# 5 0.0000 0.0000 0.0000 0.0000 33.1668 0.0000
# 6 0.0000 0.0000 0.0000 0.0000 0.0000 19.7827
#
#
#
# Elastic Compliance Matrix: (Units=1/GPa)
#
#
# Indices 1 2 3 4 5 6 
#
# 1 0.034655 -0.008254 -0.007449 0.000000 0.000000 0.000000
# 2 -0.008254 0.015794 -0.003414 0.000000 0.000000 0.000000
# 3 -0.007449 -0.003414 0.009893 0.000000 0.000000 0.000000
# 4 0.000000 0.000000 0.000000 0.366667 0.000000 0.000000
# 5 0.000000 0.000000 0.000000 0.000000 0.030151 0.000000
# 6 0.000000 0.000000 0.000000 0.000000 0.000000 0.050549
#
#
# Mechanical properties :
#
#
# Convention : Reuss Voigt Hill
#
# Bulk Modulus (GPa) = 45.23411 64.92081 55.07746
# Shear Modulus (GPa) = 9.03648 21.62487 15.33068
#
# Velocity S-wave (km/s) = 2.20580 3.41226 2.87307
# Velocity P-wave (km/s) = 5.55364 7.10494 6.37664
#
# Compressibility (1/GPa) = 0.02210721
#
# Stress axis : x y z
#
# Youngs Moduli (GPa) = 28.85603 63.31427 101.07923
#
# Poissons Ratio (x) = 0.52259 0.75296
# Poissons Ratio (y) = 0.23818 0.34512
# Poissons Ratio (z) = 0.21495 0.21618
#
# Static dielectric constant tensor:
#      x y z
#    x 3.235370 0.000000 0.000000 
#    y 0.000000 3.290260 0.000000 
#    z 0.000000 0.000000 3.848140 
# 
# 
# High freq. dielectric constant tensor:
#      x y z
#    x 1.699490 0.000000 0.000000 
#    y 0.000000 1.706000 0.000000 
#    z 0.000000 0.000000 1.742130 
# 
# From -- ./inp_files/15106.got.cif
#   From: 2010.03.12/outbox.cif.g09.slc.cpg/sg35_8_cif.got.tgz:15106.got - 2010.04.14 02:02:04.
