data_PCOD8173973
_publ_section_title
;
Structure prediction by ZEFSAII (Michael W. Deem and Ramdas Pophale) SiO2 
 PCOD8173973
Probable space group: C M M 2
;
_chemical_formula_sum "Si O2"
_cell_formula_units_Z 40
_cell_length_a 8.534227
_cell_length_b 14.516157
_cell_length_c 16.442705
_cell_angle_alpha 90.000000
_cell_angle_beta 90.000000
_cell_angle_gamma 90.000000
_cell_volume 2036.991010
_symmetry_space_group_name_H-M "C M M 2"
_symmetry_group_IT_number 35
_symmetry_cell_setting 'orthorhombic'
loop_
_space_group_symop_operation_xyz
x,y,z
-x,-y,z
-x,y,z
x,-y,z
1/2+x,1/2+y,z
1/2-x,1/2-y,z
1/2-x,1/2+y,z
1/2+x,1/2-y,z
loop_
_atom_site_type_symbol
_atom_site_label
_atom_site_fract_x
_atom_site_fract_y
_atom_site_fract_z
Si Si1 0.821446 0.000000 0.288900
Si Si2 0.683468 0.500000 0.858091
Si Si3 0.181822 0.500000 0.460812
Si Si4 0.816705 0.852515 0.153738
Si Si5 0.683589 0.000000 0.034910
Si Si6 0.685012 0.851033 0.743051
Si Si7 0.815168 0.850768 0.574022
O O1 0.788053 0.907834 0.237181
O O2 0.704167 0.000000 0.364247
O O3 0.000000 0.000000 0.320243
O O4 0.500000 0.500000 0.841621
O O5 0.759827 0.589835 0.818959
O O6 0.717705 0.500000 0.952958
O O7 0.262790 0.410313 0.497647
O O8 0.000000 0.500000 0.482305
O O9 0.750000 0.750000 0.162875
O O10 0.000000 0.849270 0.132138
O O11 0.727432 0.906947 0.082743
O O12 0.500000 0.000000 0.015755
O O13 0.500000 0.848976 0.738761
O O14 0.750000 0.750000 0.757034
O O15 0.748933 0.892848 0.658220
O O16 0.750000 0.750000 0.558843
O O17 0.000000 0.847993 0.580177
#
# Coordination Sequence:
#
# PCOD8173973 Si02
#       7
#     4   4   4   8   4   8   8
#     4   9  21  40  59  85 120 153 192 239 285 340
#     4  12  24  40  60  86 119 155 194 240 292 341
#     4  12  24  38  58  86 119 155 194 240 292 343
#     4  10  21  40  65  90 118 153 190 232 285 345
#     4  11  23  40  61  89 120 151 192 239 287 342
#     4  11  22  39  60  86 117 153 197 242 290 344
#     4  11  22  39  60  84 115 154 198 243 291 343
#
# _framework density 19.636807999999998
#
# number of rings (size 3 to 8) (size 9 to 14) (size 15 to 20)
#    0.000    1.200    0.000    9.300    0.000    4.000 
#    0.000    6.000    0.000    0.000    0.000    0.000 
#    0.000    0.000    0.000    0.000    0.000    0.000 
#
# Total GULP energy -248097.837286 kJ/mol
# GULP energy per Si atom -12404.891864 kJ/mol
# Density = 1.959211 g / cm^3
# Si number density = 19.636808 Si / 1000 Ang^3
#
#
#
# Elastic Constant Matrix: (Units=GPa)
#
#
# Indices 1 2 3 4 5 6 
#
# 1 169.4389 45.5370 38.0304 0.0000 0.0000 0.0000
# 2 45.5370 127.9978 51.6822 0.0000 0.0000 0.0000
# 3 38.0304 51.6822 111.0896 0.0000 0.0000 0.0000
# 4 0.0000 0.0000 0.0000 19.7391 0.0000 0.0000
# 5 0.0000 0.0000 0.0000 0.0000 36.7449 0.0000
# 6 0.0000 0.0000 0.0000 0.0000 0.0000 30.5831
#
#
#
# Elastic Compliance Matrix: (Units=1/GPa)
#
#
# Indices 1 2 3 4 5 6 
#
# 1 0.006713 -0.001798 -0.001462 0.000000 0.000000 0.000000
# 2 -0.001798 0.010101 -0.004084 0.000000 0.000000 0.000000
# 3 -0.001462 -0.004084 0.011402 0.000000 0.000000 0.000000
# 4 0.000000 0.000000 0.000000 0.050661 0.000000 0.000000
# 5 0.000000 0.000000 0.000000 0.000000 0.027215 0.000000
# 6 0.000000 0.000000 0.000000 0.000000 0.000000 0.032698
#
#
# Mechanical properties :
#
#
# Convention : Reuss Voigt Hill
#
# Bulk Modulus (GPa) = 73.91387 75.44729 74.68058
# Shear Modulus (GPa) = 31.64819 35.63185 33.64002
#
# Velocity S-wave (km/s) = 4.01892 4.26437 4.14346
# Velocity P-wave (km/s) = 7.69791 7.92157 7.81054
#
# Compressibility (1/GPa) = 0.01352926
#
# Stress axis : x y z
#
# Youngs Moduli (GPa) = 148.96153 98.99715 87.70350
#
# Poissons Ratio (x) = 0.17801 0.12819
# Poissons Ratio (y) = 0.26785 0.35817
# Poissons Ratio (z) = 0.21773 0.40429
#
# Static dielectric constant tensor:
#      x y z
#    x 3.742610 0.000000 0.000000 
#    y 0.000000 3.675860 0.000000 
#    z 0.000000 0.000000 3.568450 
# 
# 
# High freq. dielectric constant tensor:
#      x y z
#    x 1.787080 0.000000 0.000000 
#    y 0.000000 1.774890 0.000000 
#    z 0.000000 0.000000 1.764220 
# 
# From -- ./inp_files/14858.got.cif
#   From: 2010.03.12/outbox.cif.g09.slc.cpg/sg35_8_cif.got.tgz:14858.got - 2010.04.14 02:02:04.
