data_PCOD8173604
_publ_section_title
;
Structure prediction by ZEFSAII (Michael W. Deem and Ramdas Pophale) SiO2 
 PCOD8173604
Probable space group: C M M 2
;
_chemical_formula_sum "Si O2"
_cell_formula_units_Z 64
_cell_length_a 8.750686
_cell_length_b 29.095613
_cell_length_c 12.271447
_cell_angle_alpha 90.000000
_cell_angle_beta 90.000000
_cell_angle_gamma 90.000000
_cell_volume 3124.391071
_symmetry_space_group_name_H-M "C M M 2"
_symmetry_group_IT_number 35
_symmetry_cell_setting 'orthorhombic'
loop_
_space_group_symop_operation_xyz
x,y,z
-x,-y,z
-x,y,z
x,-y,z
1/2+x,1/2+y,z
1/2-x,1/2-y,z
1/2-x,1/2+y,z
1/2+x,1/2-y,z
loop_
_atom_site_type_symbol
_atom_site_label
_atom_site_fract_x
_atom_site_fract_y
_atom_site_fract_z
Si Si1 0.169312 0.829717 0.506000
Si Si2 0.680455 0.699424 0.091748
Si Si3 0.178764 0.203796 0.731745
Si Si4 0.671076 0.568722 0.582030
Si Si5 0.679797 0.859812 0.899361
Si Si6 0.678216 0.551615 0.823545
Si Si7 0.678937 0.950460 0.361712
Si Si8 0.321128 0.852381 0.292175
O O1 0.207669 0.793540 0.601280
O O2 0.172462 0.876878 0.572124
O O3 0.292381 0.827942 0.408964
O O4 0.000000 0.821150 0.456258
O O5 0.500000 0.704263 0.086122
O O6 0.750000 0.750000 0.084006
O O7 0.726836 0.675108 0.203646
O O8 0.737297 0.667742 0.994410
O O9 0.250000 0.250000 0.783209
O O10 0.267921 0.160988 0.783992
O O11 0.000000 0.200257 0.760529
O O12 0.500000 0.548989 0.571332
O O13 0.739309 0.554562 0.699195
O O14 0.769442 0.546568 0.486334
O O15 0.500000 0.855960 0.916462
O O16 0.729164 0.913362 0.900935
O O17 0.500000 0.565191 0.826759
O O18 0.705523 0.500000 0.868069
O O19 0.500000 0.943537 0.362633
O O20 0.743771 0.905351 0.298598
O O21 0.723459 0.000000 0.306276
O O22 0.500000 0.850198 0.263990
#
# Coordination Sequence:
#
# PCOD8173604 Si02
#       8
#     8   8   8   8   8   8   8   8
#     4   9  18  34  56  82 121 165 203 245 299 356
#     4  12  26  47  72  93 116 150 200 255 312 372
#     4  11  22  38  59  87 122 160 202 248 304 369
#     4   9  16  30  52  80 116 162 208 248 290 343
#     4  12  25  42  64  90 123 159 202 253 308 364
#     4  10  20  36  59  88 124 166 208 251 302 358
#     4   9  18  32  52  83 124 166 204 244 292 347
#     4  10  21  38  61  90 124 159 202 251 304 360
#
# _framework density 20.483991
#
# number of rings (size 3 to 8) (size 9 to 14) (size 15 to 20)
#    0.000    1.750    1.250    3.750    0.000    3.500 
#    0.000    1.875    0.000    2.250    0.000    0.000 
#    0.000    0.000    0.000    0.000    0.000    0.000 
#
# Total GULP energy -396698.739228 kJ/mol
# GULP energy per Si atom -12396.835601 kJ/mol
# Density = 2.043737 g / cm^3
# Si number density = 20.483991 Si / 1000 Ang^3
#
#
#
# Elastic Constant Matrix: (Units=GPa)
#
#
# Indices 1 2 3 4 5 6 
#
# 1 96.7582 48.4952 39.2388 0.0000 0.0000 0.0000
# 2 48.4952 126.8574 48.5583 0.0000 0.0000 0.0000
# 3 39.2388 48.5583 87.8156 0.0000 0.0000 0.0000
# 4 0.0000 0.0000 0.0000 19.0564 0.0000 0.0000
# 5 0.0000 0.0000 0.0000 0.0000 28.1651 0.0000
# 6 0.0000 0.0000 0.0000 0.0000 0.0000 25.8117
#
#
#
# Elastic Compliance Matrix: (Units=1/GPa)
#
#
# Indices 1 2 3 4 5 6 
#
# 1 0.013880 -0.003719 -0.004146 0.000000 0.000000 0.000000
# 2 -0.003719 0.010996 -0.004418 0.000000 0.000000 0.000000
# 3 -0.004146 -0.004418 0.015683 0.000000 0.000000 0.000000
# 4 0.000000 0.000000 0.000000 0.052476 0.000000 0.000000
# 5 0.000000 0.000000 0.000000 0.000000 0.035505 0.000000
# 6 0.000000 0.000000 0.000000 0.000000 0.000000 0.038742
#
#
# Mechanical properties :
#
#
# Convention : Reuss Voigt Hill
#
# Bulk Modulus (GPa) = 62.52816 64.89066 63.70941
# Shear Modulus (GPa) = 25.35759 26.28257 25.82008
#
# Velocity S-wave (km/s) = 3.52223 3.58589 3.55420
# Velocity P-wave (km/s) = 6.86536 6.99231 6.92912
#
# Compressibility (1/GPa) = 0.01599280
#
# Stress axis : x y z
#
# Youngs Moduli (GPa) = 72.04427 90.94239 63.76326
#
# Poissons Ratio (x) = 0.33825 0.26433
# Poissons Ratio (y) = 0.26796 0.28173
# Poissons Ratio (z) = 0.29866 0.40182
#
# Static dielectric constant tensor:
#      x y z
#    x 3.653160 0.000000 0.000000 
#    y 0.000000 4.022090 0.000000 
#    z 0.000000 0.000000 3.527500 
# 
# 
# High freq. dielectric constant tensor:
#      x y z
#    x 1.794140 0.000000 0.000000 
#    y 0.000000 1.816060 0.000000 
#    z 0.000000 0.000000 1.778270 
# 
# From -- ./inp_files/11904.got.cif
#   From: 2010.03.12/outbox.cif.g09.slc.cpg/sg35_6_cif.got.tgz:11904.got - 2010.04.14 02:02:04.
