data_PCOD8173669
_publ_section_title
;
Structure prediction by ZEFSAII (Michael W. Deem and Ramdas Pophale) SiO2 
 PCOD8173669
Probable space group: C M M 2
;
_chemical_formula_sum "Si O2"
_cell_formula_units_Z 40
_cell_length_a 9.194516
_cell_length_b 22.690490
_cell_length_c 9.834587
_cell_angle_alpha 90.000000
_cell_angle_beta 90.000000
_cell_angle_gamma 90.000000
_cell_volume 2051.770938
_symmetry_space_group_name_H-M "C M M 2"
_symmetry_group_IT_number 35
_symmetry_cell_setting 'orthorhombic'
loop_
_space_group_symop_operation_xyz
x,y,z
-x,-y,z
-x,y,z
x,-y,z
1/2+x,1/2+y,z
1/2-x,1/2-y,z
1/2-x,1/2+y,z
1/2+x,1/2-y,z
loop_
_atom_site_type_symbol
_atom_site_label
_atom_site_fract_x
_atom_site_fract_y
_atom_site_fract_z
Si Si1 0.665531 0.192779 0.566720
Si Si2 0.670219 0.500000 0.456269
Si Si3 0.168811 0.189600 0.069183
Si Si4 0.169730 0.500000 0.742575
Si Si5 0.664560 0.124559 0.838629
Si Si6 0.832313 0.124574 0.342629
O O1 0.500000 0.209947 0.534538
O O2 0.750000 0.250000 0.618386
O O3 0.677199 0.144225 0.682963
O O4 0.735613 0.168561 0.429846
O O5 0.500000 0.500000 0.485403
O O6 0.745829 0.500000 0.601479
O O7 0.716314 0.442875 0.368155
O O8 0.250000 0.250000 0.106070
O O9 0.194316 0.141034 0.185841
O O10 0.000000 0.204561 0.049278
O O11 0.227270 0.162149 0.929968
O O12 0.210403 0.556036 0.836094
O O13 0.000000 0.500000 0.704445
O O14 0.500000 0.133225 0.892934
O O15 0.000000 0.133854 0.383792
#
# Coordination Sequence:
#
# PCOD8173669 Si02
#       6
#     8   4   8   4   8   8
#     4  11  22  36  58  86 116 153 198 248 297 352
#     4  10  20  37  62  90 122 156 194 243 296 350
#     4  11  24  41  61  86 121 160 201 247 297 354
#     4  10  20  39  62  90 124 154 194 245 294 350
#     4  10  22  39  61  88 120 156 196 244 296 352
#     4  10  22  39  60  88 120 156 197 244 295 352
#
# _framework density 19.495355
#
# number of rings (size 3 to 8) (size 9 to 14) (size 15 to 20)
#    0.000    1.600    2.000    2.400    0.000    8.000 
#    0.000    1.000    0.000    0.000    0.000    0.000 
#    0.000    0.000    0.000    0.000    0.000    0.000 
#
# Total GULP energy -248086.554117 kJ/mol
# GULP energy per Si atom -12404.327706 kJ/mol
# Density = 1.945098 g / cm^3
# Si number density = 19.495355 Si / 1000 Ang^3
#
#
#
# Elastic Constant Matrix: (Units=GPa)
#
#
# Indices 1 2 3 4 5 6 
#
# 1 92.4049 42.4374 37.2592 0.0000 0.0000 0.0000
# 2 42.4374 119.0369 21.2624 0.0000 0.0000 0.0000
# 3 37.2592 21.2624 73.3767 0.0000 0.0000 0.0000
# 4 0.0000 0.0000 0.0000 33.3887 0.0000 0.0000
# 5 0.0000 0.0000 0.0000 0.0000 30.2210 0.0000
# 6 0.0000 0.0000 0.0000 0.0000 0.0000 25.3795
#
#
#
# Elastic Compliance Matrix: (Units=1/GPa)
#
#
# Indices 1 2 3 4 5 6 
#
# 1 0.015476 -0.004338 -0.006601 0.000000 0.000000 0.000000
# 2 -0.004338 0.010075 -0.000717 0.000000 0.000000 0.000000
# 3 -0.006601 -0.000717 0.017188 0.000000 0.000000 0.000000
# 4 0.000000 0.000000 0.000000 0.029950 0.000000 0.000000
# 5 0.000000 0.000000 0.000000 0.000000 0.033090 0.000000
# 6 0.000000 0.000000 0.000000 0.000000 0.000000 0.039402
#
#
# Mechanical properties :
#
#
# Convention : Reuss Voigt Hill
#
# Bulk Modulus (GPa) = 51.47484 54.08183 52.77834
# Shear Modulus (GPa) = 28.57646 30.05514 29.31580
#
# Velocity S-wave (km/s) = 3.83274 3.93065 3.88201
# Velocity P-wave (km/s) = 6.78583 6.95709 6.87200
#
# Compressibility (1/GPa) = 0.01942697
#
# Stress axis : x y z
#
# Youngs Moduli (GPa) = 64.61602 99.25201 58.18011
#
# Poissons Ratio (x) = 0.43057 0.38407
# Poissons Ratio (y) = 0.28032 0.04170
# Poissons Ratio (z) = 0.42655 0.07114
#
# Static dielectric constant tensor:
#      x y z
#    x 3.643590 0.000000 0.000000 
#    y 0.000000 3.882750 0.000000 
#    z 0.000000 0.000000 3.310500 
# 
# 
# High freq. dielectric constant tensor:
#      x y z
#    x 1.762280 0.000000 0.000000 
#    y 0.000000 1.776370 0.000000 
#    z 0.000000 0.000000 1.750450 
# 
# From -- ./inp_files/5034.got.cif
#   From: 2010.03.12/outbox.cif.g09.slc.cpg/sg35_3_cif.got.tgz:5034.got - 2010.04.14 02:02:04.
