data_PCOD8173929
_publ_section_title
;
Structure prediction by ZEFSAII (Michael W. Deem and Ramdas Pophale) SiO2 
 PCOD8173929
Probable space group: C M M 2
;
_chemical_formula_sum "Si O2"
_cell_formula_units_Z 64
_cell_length_a 14.966022
_cell_length_b 15.401887
_cell_length_c 13.774913
_cell_angle_alpha 90.000000
_cell_angle_beta 90.000000
_cell_angle_gamma 90.000000
_cell_volume 3175.186041
_symmetry_space_group_name_H-M "C M M 2"
_symmetry_group_IT_number 35
_symmetry_cell_setting 'orthorhombic'
loop_
_space_group_symop_operation_xyz
x,y,z
-x,-y,z
-x,y,z
x,-y,z
1/2+x,1/2+y,z
1/2-x,1/2-y,z
1/2-x,1/2+y,z
1/2+x,1/2-y,z
loop_
_atom_site_type_symbol
_atom_site_label
_atom_site_fract_x
_atom_site_fract_y
_atom_site_fract_z
Si Si1 0.894241 0.249999 0.983620
Si Si2 0.398089 0.902469 0.121669
Si Si3 0.605310 0.749999 0.768540
Si Si4 0.398089 0.597531 0.121671
Si Si5 0.103520 0.099500 0.626532
Si Si6 0.250000 0.599626 0.471302
Si Si7 0.250000 0.847567 0.257778
Si Si8 0.603520 0.900500 0.626534
O O1 0.851207 0.249999 0.875922
O O2 0.000000 0.249999 0.975233
O O3 0.862056 0.336467 0.039695
O O4 0.862055 0.163533 0.039697
O O5 0.500000 0.880331 0.150955
O O6 0.338698 0.894891 0.218338
O O7 0.390542 0.000000 0.079642
O O8 0.500000 0.749999 0.778489
O O9 0.635911 0.662952 0.712531
O O10 0.635910 0.837047 0.712533
O O11 0.500000 0.619669 0.150957
O O12 0.390542 0.500000 0.079644
O O13 0.338698 0.605109 0.218340
O O14 0.161252 0.122413 0.532005
O O15 0.000000 0.115367 0.599882
O O16 0.120502 0.000000 0.659852
O O17 0.250000 0.500000 0.440005
O O18 0.249998 0.655012 0.373832
O O19 0.161253 0.622412 0.532008
O O20 0.250000 0.750000 0.218562
O O21 0.500000 0.884632 0.599883
O O22 0.620500 0.000000 0.659855
#
# Coordination Sequence:
#
# PCOD8173929 Si02
#       8
#     8   8   8   8   8   8   8   8
#     4   9  18  35  57  86 115 145 190 232 278 336
#     4  10  21  39  61  84 116 153 189 234 283 335
#     4   9  18  33  57  84 113 147 184 226 274 332
#     4  10  21  39  61  84 116 153 189 234 283 335
#     4   9  19  36  56  80 112 147 183 226 274 325
#     4  10  22  38  56  81 110 143 188 232 274 333
#     4  12  24  38  60  86 115 150 190 239 287 341
#     4   9  19  36  56  80 112 147 183 226 274 325
#
# _framework density 20.156300000000002
#
# number of rings (size 3 to 8) (size 9 to 14) (size 15 to 20)
#    0.000    2.250    1.250    1.125    1.750    2.000 
#    0.000   10.000    0.000    3.000    0.000    0.000 
#    0.000    0.000    0.000    0.000    0.000    0.000 
#
# Total GULP energy -396790.238989 kJ/mol
# GULP energy per Si atom -12399.694968 kJ/mol
# Density = 2.011042 g / cm^3
# Si number density = 20.156300 Si / 1000 Ang^3
#
#
#
# Elastic Constant Matrix: (Units=GPa)
#
#
# Indices 1 2 3 4 5 6 
#
# 1 90.9396 36.0339 52.3360 0.0000 0.0000 0.0000
# 2 36.0339 137.6215 70.9189 0.0000 0.0000 0.0000
# 3 52.3360 70.9189 156.5001 0.0000 0.0000 0.0000
# 4 0.0000 0.0000 0.0000 27.4219 0.0000 0.0000
# 5 0.0000 0.0000 0.0000 0.0000 10.8562 0.0000
# 6 0.0000 0.0000 0.0000 0.0000 0.0000 18.2297
#
#
#
# Elastic Compliance Matrix: (Units=1/GPa)
#
#
# Indices 1 2 3 4 5 6 
#
# 1 0.013889 -0.001622 -0.003910 0.000000 0.000000 0.000000
# 2 -0.001622 0.009669 -0.003839 0.000000 0.000000 0.000000
# 3 -0.003910 -0.003839 0.009437 0.000000 0.000000 0.000000
# 4 0.000000 0.000000 0.000000 0.036467 0.000000 0.000000
# 5 0.000000 0.000000 0.000000 0.000000 0.092113 0.000000
# 6 0.000000 0.000000 0.000000 0.000000 0.000000 0.054856
#
#
# Mechanical properties :
#
#
# Convention : Reuss Voigt Hill
#
# Bulk Modulus (GPa) = 70.15777 78.18212 74.16994
# Shear Modulus (GPa) = 20.83987 26.35305 23.59646
#
# Velocity S-wave (km/s) = 3.21894 3.61977 3.42522
# Velocity P-wave (km/s) = 6.97839 7.50616 7.24708
#
# Compressibility (1/GPa) = 0.01425359
#
# Stress axis : x y z
#
# Youngs Moduli (GPa) = 71.99936 103.41821 105.96470
#
# Poissons Ratio (x) = 0.16773 0.41430
# Poissons Ratio (y) = 0.11677 0.40684
# Poissons Ratio (z) = 0.28150 0.39707
#
# Static dielectric constant tensor:
#      x y z
#    x 3.595470 0.000000 0.000000 
#    y 0.000000 3.817500 0.000000 
#    z 0.000000 0.000000 3.572770 
# 
# 
# High freq. dielectric constant tensor:
#      x y z
#    x 1.785820 0.000000 0.000000 
#    y 0.000000 1.800600 0.000000 
#    z 0.000000 0.000000 1.767550 
# 
# From -- ./inp_files/13599.got.cif
#   From: 2010.03.12/outbox.cif.g09.slc.cpg/sg35_7_cif.got.tgz:13599.got - 2010.04.14 02:02:04.
