data_PCOD8173687
_publ_section_title
;
Structure prediction by ZEFSAII (Michael W. Deem and Ramdas Pophale) SiO2 
 PCOD8173687
Probable space group: C M M 2
;
_chemical_formula_sum "Si O2"
_cell_formula_units_Z 40
_cell_length_a 7.950498
_cell_length_b 20.475938
_cell_length_c 12.969102
_cell_angle_alpha 90.000000
_cell_angle_beta 90.000000
_cell_angle_gamma 90.000000
_cell_volume 2111.290747
_symmetry_space_group_name_H-M "C M M 2"
_symmetry_group_IT_number 35
_symmetry_cell_setting 'orthorhombic'
loop_
_space_group_symop_operation_xyz
x,y,z
-x,-y,z
-x,y,z
x,-y,z
1/2+x,1/2+y,z
1/2-x,1/2-y,z
1/2-x,1/2+y,z
1/2+x,1/2-y,z
loop_
_atom_site_type_symbol
_atom_site_label
_atom_site_fract_x
_atom_site_fract_y
_atom_site_fract_z
Si Si1 0.819746 0.150415 0.851400
Si Si2 0.000000 0.656128 0.582198
Si Si3 0.000000 0.424515 0.377016
Si Si4 0.801289 0.681299 0.071491
Si Si5 0.750000 0.250000 0.684051
Si Si6 0.690782 0.425549 0.227920
Si Si7 0.500000 0.075539 0.775907
O O1 0.852487 0.203766 0.761782
O O2 0.667819 0.101984 0.828678
O O3 0.000000 0.113063 0.860669
O O4 0.778451 0.185473 0.958393
O O5 0.000000 0.627901 0.468173
O O6 0.155338 0.702843 0.605500
O O7 0.000000 0.593246 0.656023
O O8 0.829813 0.409325 0.314282
O O9 0.000000 0.500000 0.415034
O O10 0.750000 0.750000 0.125854
O O11 0.717697 0.621221 0.131162
O O12 0.000000 0.671146 0.068552
O O13 0.500000 0.416035 0.271679
O O14 0.716020 0.500000 0.189819
O O15 0.500000 0.000000 0.792430
#
# Coordination Sequence:
#
# PCOD8173687 Si02
#       7
#     8   4   4   8   4   8   4
#     4  11  21  37  61  85 124 168 203 251 315 373
#     4  10  21  40  64  90 121 162 204 264 318 371
#     4  10  21  43  68  87 121 167 210 259 323 372
#     4  12  23  37  60  94 127 165 211 259 310 379
#     4  10  20  38  60  90 124 160 206 254 316 380
#     4  10  22  43  66  90 124 167 210 259 319 381
#     4  10  23  39  58  89 121 157 212 261 305 373
#
# _framework density 18.945754999999998
#
# number of rings (size 3 to 8) (size 9 to 14) (size 15 to 20)
#    0.000    1.400    4.000    2.100    0.000    1.200 
#    3.600    0.000    0.000    2.400    0.000    0.000 
#    0.000    0.000    0.000    0.000    0.000    0.000 
#
# Total GULP energy -247828.465507 kJ/mol
# GULP energy per Si atom -12391.423275 kJ/mol
# Density = 1.890263 g / cm^3
# Si number density = 18.945755 Si / 1000 Ang^3
#
#
#
# Elastic Constant Matrix: (Units=GPa)
#
#
# Indices 1 2 3 4 5 6 
#
# 1 176.4599 56.6190 50.6813 0.0000 0.0000 0.0000
# 2 56.6190 126.7709 65.2580 0.0000 0.0000 0.0000
# 3 50.6813 65.2580 108.0697 0.0000 0.0000 0.0000
# 4 0.0000 0.0000 0.0000 22.0864 0.0000 0.0000
# 5 0.0000 0.0000 0.0000 0.0000 28.8852 0.0000
# 6 0.0000 0.0000 0.0000 0.0000 0.0000 26.0623
#
#
#
# Elastic Compliance Matrix: (Units=1/GPa)
#
#
# Indices 1 2 3 4 5 6 
#
# 1 0.006899 -0.002054 -0.001995 0.000000 0.000000 0.000000
# 2 -0.002054 0.012058 -0.006318 0.000000 0.000000 0.000000
# 3 -0.001995 -0.006318 0.014004 0.000000 0.000000 0.000000
# 4 0.000000 0.000000 0.000000 0.045277 0.000000 0.000000
# 5 0.000000 0.000000 0.000000 0.000000 0.034620 0.000000
# 6 0.000000 0.000000 0.000000 0.000000 0.000000 0.038370
#
#
# Mechanical properties :
#
#
# Convention : Reuss Voigt Hill
#
# Bulk Modulus (GPa) = 81.78779 84.04635 82.91707
# Shear Modulus (GPa) = 28.40312 31.32293 29.86302
#
# Velocity S-wave (km/s) = 3.87613 4.07048 3.97449
# Velocity P-wave (km/s) = 7.95586 8.15780 8.05746
#
# Compressibility (1/GPa) = 0.01222676
#
# Stress axis : x y z
#
# Youngs Moduli (GPa) = 144.94531 82.93245 71.40886
#
# Poissons Ratio (x) = 0.17038 0.14246
# Poissons Ratio (y) = 0.29777 0.45115
# Poissons Ratio (z) = 0.28916 0.52395
#
# Static dielectric constant tensor:
#      x y z
#    x 3.740050 0.000000 0.000000 
#    y 0.000000 3.431480 0.000000 
#    z 0.000000 0.000000 3.216180 
# 
# 
# High freq. dielectric constant tensor:
#      x y z
#    x 1.758970 0.000000 0.000000 
#    y 0.000000 1.735870 0.000000 
#    z 0.000000 0.000000 1.713890 
# 
# From -- ./inp_files/11244.got.cif
#   From: 2010.03.12/outbox.cif.g09.slc.cpg/sg35_6_cif.got.tgz:11244.got - 2010.04.14 02:02:04.
