data_PCOD8173085
_publ_section_title
;
Structure prediction by ZEFSAII (Michael W. Deem and Ramdas Pophale) SiO2 
 PCOD8173085
Probable space group: C M M 2
;
_chemical_formula_sum "Si O2"
_cell_formula_units_Z 56
_cell_length_a 8.863986
_cell_length_b 18.667701
_cell_length_c 18.202539
_cell_angle_alpha 90.000000
_cell_angle_beta 90.000000
_cell_angle_gamma 90.000000
_cell_volume 3011.978503
_symmetry_space_group_name_H-M "C M M 2"
_symmetry_group_IT_number 35
_symmetry_cell_setting 'orthorhombic'
loop_
_space_group_symop_operation_xyz
x,y,z
-x,-y,z
-x,y,z
x,-y,z
1/2+x,1/2+y,z
1/2-x,1/2-y,z
1/2-x,1/2+y,z
1/2+x,1/2-y,z
loop_
_atom_site_type_symbol
_atom_site_label
_atom_site_fract_x
_atom_site_fract_y
_atom_site_fract_z
Si Si1 0.175459 0.673277 0.504960
Si Si2 0.327417 0.584688 0.792846
Si Si3 0.178509 0.171554 0.361800
Si Si4 0.669653 0.585177 0.085884
Si Si5 0.675323 0.172774 0.667179
Si Si6 0.170232 0.585393 0.940303
Si Si7 0.673375 0.084625 0.234115
O O1 0.250000 0.750000 0.510384
O O2 0.259406 0.633688 0.437141
O O3 0.199492 0.638375 0.585450
O O4 0.000000 0.679750 0.485175
O O5 0.500000 0.609242 0.792971
O O6 0.310493 0.500000 0.787868
O O7 0.245088 0.616799 0.722888
O O8 0.252296 0.614273 0.867392
O O9 0.250000 0.250000 0.351909
O O10 0.224365 0.121603 0.294842
O O11 0.000000 0.178299 0.365287
O O12 0.500000 0.615364 0.093140
O O13 0.667246 0.500000 0.082329
O O14 0.768500 0.611085 0.154847
O O15 0.743919 0.616153 0.011618
O O16 0.500000 0.182710 0.684043
O O17 0.750000 0.250000 0.676006
O O18 0.172588 0.500000 0.941621
O O19 0.000000 0.614606 0.940918
O O20 0.500000 0.108050 0.242932
O O21 0.692965 0.000000 0.242494
#
# Coordination Sequence:
#
# PCOD8173085 Si02
#       7
#     8   8   8   8   8   8   8
#     4   9  17  31  51  74  98 127 166 208 248 293
#     4  10  20  33  50  74 104 135 168 209 254 297
#     4  11  21  34  54  77 102 132 168 208 250 298
#     4   9  16  27  45  70  99 130 166 206 247 292
#     4  10  20  34  54  77 101 131 167 207 250 299
#     4   9  16  27  45  69  97 130 168 207 247 292
#     4  10  20  34  52  75 104 135 168 208 253 298
#
# _framework density 18.59243
#
# number of rings (size 3 to 8) (size 9 to 14) (size 15 to 20)
#    0.000    2.286    0.000    4.714    0.000    6.857 
#    0.000    0.714    0.000    1.714    0.000    6.000 
#    0.000    0.000    0.000    0.000    0.000    0.000 
#
# Total GULP energy -347114.389487 kJ/mol
# GULP energy per Si atom -12396.942482 kJ/mol
# Density = 1.855011 g / cm^3
# Si number density = 18.592430 Si / 1000 Ang^3
#
#
#
# Elastic Constant Matrix: (Units=GPa)
#
#
# Indices 1 2 3 4 5 6 
#
# 1 168.9377 26.3825 84.3590 0.0000 0.0000 0.0000
# 2 26.3825 16.8194 28.9899 0.0000 0.0000 0.0000
# 3 84.3590 28.9899 173.1435 0.0000 0.0000 0.0000
# 4 0.0000 0.0000 0.0000 -2.2871 0.0000 0.0000
# 5 0.0000 0.0000 0.0000 0.0000 40.3310 0.0000
# 6 0.0000 0.0000 0.0000 0.0000 0.0000 22.8100
#
#
#
# Elastic Compliance Matrix: (Units=1/GPa)
#
#
# Indices 1 2 3 4 5 6 
#
# 1 0.008675 -0.008887 -0.002739 0.000000 0.000000 0.000000
# 2 -0.008887 0.092677 -0.011187 0.000000 0.000000 0.000000
# 3 -0.002739 -0.011187 0.008983 0.000000 0.000000 0.000000
# 4 0.000000 0.000000 0.000000 -0.437243 0.000000 0.000000
# 5 0.000000 0.000000 0.000000 0.000000 0.024795 0.000000
# 6 0.000000 0.000000 0.000000 0.000000 0.000000 0.043840
#
#
# Mechanical properties :
#
#
# Convention : Reuss Voigt Hill
#
# Bulk Modulus (GPa) = 15.45368 70.92927 43.19147
# Shear Modulus (GPa) = -26.16736 26.78208 0.30736
#
# Velocity S-wave (km/s) = -3.75563 3.79949 0.40703
# Velocity P-wave (km/s) = 3.23674 7.58159 4.84789
#
# Compressibility (1/GPa) = 0.06470951
#
# Stress axis : x y z
#
# Youngs Moduli (GPa) = 115.27852 10.79014 111.32177
#
# Poissons Ratio (x) = 0.09589 0.30486
# Poissons Ratio (y) = 1.02445 1.24540
# Poissons Ratio (z) = 0.31569 0.12071
#
# Static dielectric constant tensor:
#      x y z
#    x 3.670830 0.000000 0.000000 
#    y 0.000000 2.829850 0.000000 
#    z 0.000000 0.000000 4.005860 
# 
# 
# High freq. dielectric constant tensor:
#      x y z
#    x 1.744600 0.000000 0.000000 
#    y 0.000000 1.656820 0.000000 
#    z 0.000000 0.000000 1.746320 
# 
# From -- ./inp_files/15608.got.cif
#   From: 2010.03.12/outbox.cif.g09.slc.cpg/sg35_8_cif.got.tgz:15608.got - 2010.04.14 02:02:04.
