data_PCOD8173690
_publ_section_title
;
Structure prediction by ZEFSAII (Michael W. Deem and Ramdas Pophale) SiO2 
 PCOD8173690
Probable space group: C M M 2
;
_chemical_formula_sum "Si O2"
_cell_formula_units_Z 48
_cell_length_a 14.972479
_cell_length_b 8.562133
_cell_length_c 19.048300
_cell_angle_alpha 90.000000
_cell_angle_beta 90.000000
_cell_angle_gamma 90.000000
_cell_volume 2441.922658
_symmetry_space_group_name_H-M "C M M 2"
_symmetry_group_IT_number 35
_symmetry_cell_setting 'orthorhombic'
loop_
_space_group_symop_operation_xyz
x,y,z
-x,-y,z
-x,y,z
x,-y,z
1/2+x,1/2+y,z
1/2-x,1/2-y,z
1/2-x,1/2+y,z
1/2+x,1/2-y,z
loop_
_atom_site_type_symbol
_atom_site_label
_atom_site_fract_x
_atom_site_fract_y
_atom_site_fract_z
Si Si1 0.159106 0.814632 0.291690
Si Si2 0.157020 0.817499 0.000331
Si Si3 0.000000 0.683764 0.909817
Si Si4 0.648687 0.814579 0.645668
Si Si5 0.500000 0.815149 0.753399
Si Si6 0.000000 0.184877 0.388021
Si Si7 0.395660 0.180545 0.145105
Si Si8 0.500000 0.313959 0.546774
O O1 0.250000 0.750000 0.324932
O O2 0.149347 0.735990 0.216139
O O3 0.085145 0.753011 0.345541
O O4 0.157441 0.000000 0.283083
O O5 0.250000 0.750000 0.973730
O O6 0.143586 0.781571 0.082072
O O7 0.151918 0.000000 0.987786
O O8 0.085447 0.735304 0.952161
O O9 0.000000 0.500000 0.903821
O O10 0.000000 0.757624 0.831498
O O11 0.750000 0.750000 0.648312
O O12 0.591011 0.760563 0.713888
O O13 0.592016 0.750601 0.579841
O O14 0.654478 0.000000 0.639963
O O15 0.500000 0.000000 0.755803
O O16 0.000000 0.248671 0.466971
O O17 0.000000 0.000000 0.389700
O O18 0.500000 0.211668 0.150759
O O19 0.373116 0.000000 0.130952
O O20 0.500000 0.500000 0.552317
#
# Coordination Sequence:
#
# PCOD8173690 Si02
#       8
#     8   8   4   8   4   4   8   4
#     4  11  22  39  59  83 114 151 194 242 295 351
#     4  12  25  41  61  86 117 156 199 245 296 351
#     4  11  22  41  63  88 121 155 192 241 294 350
#     4  10  20  38  62  92 122 156 196 237 286 342
#     4   8  19  38  61  87 121 156 192 238 288 342
#     4   9  21  39  59  82 117 155 192 237 290 348
#     4  11  22  38  61  86 113 148 195 248 298 351
#     4  10  20  38  61  89 121 156 196 242 290 342
#
# _framework density 19.656642000000002
#
# number of rings (size 3 to 8) (size 9 to 14) (size 15 to 20)
#    0.000    1.500    1.667    4.500    0.000    2.000 
#    0.000   11.667    0.000    0.000    0.000    0.000 
#    0.000    0.000    0.000    0.000    0.000    0.000 
#
# Total GULP energy -297611.031547 kJ/mol
# GULP energy per Si atom -12400.459648 kJ/mol
# Density = 1.961190 g / cm^3
# Si number density = 19.656642 Si / 1000 Ang^3
#
#
#
# Elastic Constant Matrix: (Units=GPa)
#
#
# Indices 1 2 3 4 5 6 
#
# 1 181.1994 34.6527 74.0571 0.0000 0.0000 0.0000
# 2 34.6527 60.7472 11.8752 0.0000 0.0000 0.0000
# 3 74.0571 11.8752 150.4618 0.0000 0.0000 0.0000
# 4 0.0000 0.0000 0.0000 25.6357 0.0000 0.0000
# 5 0.0000 0.0000 0.0000 0.0000 59.9692 0.0000
# 6 0.0000 0.0000 0.0000 0.0000 0.0000 24.2178
#
#
#
# Elastic Compliance Matrix: (Units=1/GPa)
#
#
# Indices 1 2 3 4 5 6 
#
# 1 0.007641 -0.003680 -0.003470 0.000000 0.000000 0.000000
# 2 -0.003680 0.018492 0.000352 0.000000 0.000000 0.000000
# 3 -0.003470 0.000352 0.008327 0.000000 0.000000 0.000000
# 4 0.000000 0.000000 0.000000 0.039008 0.000000 0.000000
# 5 0.000000 0.000000 0.000000 0.000000 0.016675 0.000000
# 6 0.000000 0.000000 0.000000 0.000000 0.000000 0.041292
#
#
# Mechanical properties :
#
#
# Convention : Reuss Voigt Hill
#
# Bulk Modulus (GPa) = 47.93350 70.39761 59.16556
# Shear Modulus (GPa) = 32.89760 40.08610 36.49185
#
# Velocity S-wave (km/s) = 4.09542 4.52078 4.31334
# Velocity P-wave (km/s) = 6.84117 7.94615 7.41427
#
# Compressibility (1/GPa) = 0.02086224
#
# Stress axis : x y z
#
# Youngs Moduli (GPa) = 130.87317 54.07666 120.09754
#
# Poissons Ratio (x) = 0.19902 0.41679
# Poissons Ratio (y) = 0.48165 -0.04227
# Poissons Ratio (z) = 0.45418 -0.01903
#
# Static dielectric constant tensor:
#      x y z
#    x 3.824640 0.000000 0.000000 
#    y 0.000000 3.421110 0.000000 
#    z 0.000000 0.000000 3.783170 
# 
# 
# High freq. dielectric constant tensor:
#      x y z
#    x 1.784280 0.000000 0.000000 
#    y 0.000000 1.765420 0.000000 
#    z 0.000000 0.000000 1.764890 
# 
# From -- ./inp_files/18824.got.cif
#   From: 2010.03.12/outbox.cif.g09.slc.cpg/sg35_10_cif.got.tgz:18824.got - 2010.04.14 02:02:04.
