data_PCOD8173634
_publ_section_title
;
Structure prediction by ZEFSAII (Michael W. Deem and Ramdas Pophale) SiO2 
 PCOD8173634
Probable space group: C M M 2
;
_chemical_formula_sum "Si O2"
_cell_formula_units_Z 40
_cell_length_a 25.804245
_cell_length_b 8.645436
_cell_length_c 9.120074
_cell_angle_alpha 90.000000
_cell_angle_beta 90.000000
_cell_angle_gamma 90.000000
_cell_volume 2034.587721
_symmetry_space_group_name_H-M "C M M 2"
_symmetry_group_IT_number 35
_symmetry_cell_setting 'orthorhombic'
loop_
_space_group_symop_operation_xyz
x,y,z
-x,-y,z
-x,y,z
x,-y,z
1/2+x,1/2+y,z
1/2-x,1/2-y,z
1/2-x,1/2+y,z
1/2+x,1/2-y,z
loop_
_atom_site_type_symbol
_atom_site_label
_atom_site_fract_x
_atom_site_fract_y
_atom_site_fract_z
Si Si1 0.401897 0.316211 0.750000
Si Si2 0.097841 0.682100 0.430940
Si Si3 0.500000 0.317171 0.935731
Si Si4 0.804768 0.183550 0.268725
Si Si5 0.803769 0.818121 0.935337
Si Si6 0.000000 0.816283 0.265134
O O1 0.402996 0.500000 0.722213
O O2 0.406994 0.225851 0.599753
O O3 0.449140 0.260154 0.851171
O O4 0.349563 0.261411 0.830213
O O5 0.094859 0.500000 0.411080
O O6 0.151823 0.744705 0.371112
O O7 0.051115 0.758874 0.344466
O O8 0.500000 0.500000 0.945689
O O9 0.500000 0.249332 0.099920
O O10 0.750000 0.250000 0.323519
O O11 0.805298 0.000000 0.285296
O O12 0.815049 0.237245 0.101365
O O13 0.750000 0.750000 0.875409
O O14 0.799042 0.000000 0.932373
O O15 0.000000 0.000000 0.266957
#
# Coordination Sequence:
#
# PCOD8173634 Si02
#       6
#     8   8   4   8   8   4
#     4  10  20  37  59  84 113 149 189 234 286 343
#     4  12  25  39  56  86 122 156 193 236 284 342
#     4   9  19  37  64  88 106 137 188 239 288 342
#     4  10  20  38  62  88 116 152 194 240 289 341
#     4   9  19  35  58  85 113 146 191 237 283 338
#     4  11  22  41  66  88 112 149 192 239 290 344
#
# _framework density 19.660001999999999
#
# number of rings (size 3 to 8) (size 9 to 14) (size 15 to 20)
#    0.000    1.800    0.000    4.500    0.000    6.400 
#    0.000    6.000    0.000    0.000    0.000    0.000 
#    0.000    0.000    0.000    0.000    0.000    0.000 
#
# Total GULP energy -248075.436640 kJ/mol
# GULP energy per Si atom -12403.771832 kJ/mol
# Density = 1.961525 g / cm^3
# Si number density = 19.660002 Si / 1000 Ang^3
#
#
#
# Elastic Constant Matrix: (Units=GPa)
#
#
# Indices 1 2 3 4 5 6 
#
# 1 179.9525 43.8761 95.2322 0.0000 0.0000 0.0000
# 2 43.8761 73.9981 40.6253 0.0000 0.0000 0.0000
# 3 95.2322 40.6253 147.2205 0.0000 0.0000 0.0000
# 4 0.0000 0.0000 0.0000 20.9084 0.0000 0.0000
# 5 0.0000 0.0000 0.0000 0.0000 7.3045 0.0000
# 6 0.0000 0.0000 0.0000 0.0000 0.0000 33.7058
#
#
#
# Elastic Compliance Matrix: (Units=1/GPa)
#
#
# Indices 1 2 3 4 5 6 
#
# 1 0.008817 -0.002471 -0.005022 0.000000 0.000000 0.000000
# 2 -0.002471 0.016619 -0.002988 0.000000 0.000000 0.000000
# 3 -0.005022 -0.002988 0.010865 0.000000 0.000000 0.000000
# 4 0.000000 0.000000 0.000000 0.047828 0.000000 0.000000
# 5 0.000000 0.000000 0.000000 0.000000 0.136902 0.000000
# 6 0.000000 0.000000 0.000000 0.000000 0.000000 0.029668
#
#
# Mechanical properties :
#
#
# Convention : Reuss Voigt Hill
#
# Bulk Modulus (GPa) = 65.18461 84.51538 74.85000
# Shear Modulus (GPa) = 18.06529 27.14624 22.60576
#
# Velocity S-wave (km/s) = 3.03460 3.71992 3.39460
# Velocity P-wave (km/s) = 6.74584 7.84425 7.31569
#
# Compressibility (1/GPa) = 0.01534104
#
# Stress axis : x y z
#
# Youngs Moduli (GPa) = 113.41816 60.17125 92.03683
#
# Poissons Ratio (x) = 0.14869 0.46216
# Poissons Ratio (y) = 0.28026 0.27497
# Poissons Ratio (z) = 0.56953 0.17977
#
# Static dielectric constant tensor:
#      x y z
#    x 3.928930 0.000000 0.000000 
#    y 0.000000 3.464980 0.000000 
#    z 0.000000 0.000000 3.754780 
# 
# 
# High freq. dielectric constant tensor:
#      x y z
#    x 1.785700 0.000000 0.000000 
#    y 0.000000 1.755050 0.000000 
#    z 0.000000 0.000000 1.773260 
# 
# From -- ./inp_files/9664.got.cif
#   From: 2010.03.12/outbox.cif.g09.slc.cpg/sg35_5_cif.got.tgz:9664.got - 2010.04.14 02:02:04.
