data_PCOD8173231
_publ_section_title
;
Structure prediction by ZEFSAII (Michael W. Deem and Ramdas Pophale) SiO2 
 PCOD8173231
Probable space group: C M M 2
;
_chemical_formula_sum "Si O2"
_cell_formula_units_Z 56
_cell_length_a 9.002348
_cell_length_b 17.613172
_cell_length_c 18.230224
_cell_angle_alpha 90.000000
_cell_angle_beta 90.000000
_cell_angle_gamma 90.000000
_cell_volume 2890.582562
_symmetry_space_group_name_H-M "C M M 2"
_symmetry_group_IT_number 35
_symmetry_cell_setting 'orthorhombic'
loop_
_space_group_symop_operation_xyz
x,y,z
-x,-y,z
-x,y,z
x,-y,z
1/2+x,1/2+y,z
1/2-x,1/2-y,z
1/2-x,1/2+y,z
1/2+x,1/2-y,z
loop_
_atom_site_type_symbol
_atom_site_label
_atom_site_fract_x
_atom_site_fract_y
_atom_site_fract_z
Si Si1 0.666555 0.409341 0.322780
Si Si2 0.333157 0.090238 0.625014
Si Si3 0.832907 0.590392 0.179688
Si Si4 0.823818 0.668509 0.900240
Si Si5 0.668372 0.409758 0.767236
Si Si6 0.832772 0.409737 0.463816
Si Si7 0.669327 0.590142 0.034576
O O1 0.500000 0.379028 0.313395
O O2 0.670440 0.500000 0.323426
O O3 0.763070 0.377879 0.254990
O O4 0.730065 0.376153 0.399320
O O5 0.500000 0.120575 0.639716
O O6 0.223047 0.120825 0.687924
O O7 0.277163 0.117794 0.544439
O O8 0.335260 0.000000 0.626433
O O9 0.833711 0.500000 0.180978
O O10 0.734051 0.619591 0.111848
O O11 0.000000 0.622014 0.171857
O O12 0.750000 0.750000 0.899553
O O13 0.776279 0.623311 0.828200
O O14 0.000000 0.676333 0.901958
O O15 0.770713 0.623031 0.970951
O O16 0.500000 0.381466 0.779903
O O17 0.677292 0.500000 0.771364
O O18 0.828662 0.500000 0.460742
O O19 0.000000 0.381022 0.450389
O O20 0.500000 0.618996 0.026626
O O21 0.676128 0.500000 0.029562
#
# Coordination Sequence:
#
# PCOD8173231 Si02
#       7
#     8   8   8   8   8   8   8
#     4   9  15  21  31  51  82 120 159 198 242 289
#     4   8  14  25  41  62  89 123 163 203 243 289
#     4   9  16  26  41  62  89 123 163 202 241 288
#     4  12  25  40  57  76 101 131 165 205 251 302
#     4  10  20  34  53  77 104 133 167 207 250 297
#     4   8  13  21  33  51  80 119 159 197 238 286
#     4  10  20  35  55  78 104 132 165 206 250 297
#
# _framework density 19.373256999999999
#
# number of rings (size 3 to 8) (size 9 to 14) (size 15 to 20)
#    0.000    2.571    0.000    4.286    0.000    7.429 
#    0.000    2.857    0.000    0.000    0.000    0.000 
#    0.000    1.143    0.000    6.286    0.000   13.000 
#
# Total GULP energy -347110.199979 kJ/mol
# GULP energy per Si atom -12396.792856 kJ/mol
# Density = 1.932916 g / cm^3
# Si number density = 19.373257 Si / 1000 Ang^3
#
#
#
# Elastic Constant Matrix: (Units=GPa)
#
#
# Indices 1 2 3 4 5 6 
#
# 1 166.7303 21.7534 87.2319 0.0000 0.0000 0.0000
# 2 21.7534 14.2193 20.9646 0.0000 0.0000 0.0000
# 3 87.2319 20.9646 179.2350 0.0000 0.0000 0.0000
# 4 0.0000 0.0000 0.0000 -4.2126 0.0000 0.0000
# 5 0.0000 0.0000 0.0000 0.0000 41.0887 0.0000
# 6 0.0000 0.0000 0.0000 0.0000 0.0000 16.6378
#
#
#
# Elastic Compliance Matrix: (Units=1/GPa)
#
#
# Indices 1 2 3 4 5 6 
#
# 1 0.008854 -0.008691 -0.003293 0.000000 0.000000 0.000000
# 2 -0.008691 0.093514 -0.006708 0.000000 0.000000 0.000000
# 3 -0.003293 -0.006708 0.007966 0.000000 0.000000 0.000000
# 4 0.000000 0.000000 0.000000 -0.237385 0.000000 0.000000
# 5 0.000000 0.000000 0.000000 0.000000 0.024338 0.000000
# 6 0.000000 0.000000 0.000000 0.000000 0.000000 0.060104
#
#
# Mechanical properties :
#
#
# Convention : Reuss Voigt Hill
#
# Bulk Modulus (GPa) = 13.70795 68.89829 41.30312
# Shear Modulus (GPa) = 261.88439 26.05176 143.96808
#
# Velocity S-wave (km/s) = 11.63923 3.67103 8.62984
# Velocity P-wave (km/s) = 13.70110 7.32185 10.98475
#
# Compressibility (1/GPa) = 0.07295036
#
# Stress axis : x y z
#
# Youngs Moduli (GPa) = 112.93820 10.69363 125.52625
#
# Poissons Ratio (x) = 0.09294 0.41333
# Poissons Ratio (y) = 0.98156 0.84205
# Poissons Ratio (z) = 0.37188 0.07173
#
# Static dielectric constant tensor:
#      x y z
#    x 3.763600 0.000000 0.000000 
#    y 0.000000 2.899410 0.000000 
#    z 0.000000 0.000000 3.971430 
# 
# 
# High freq. dielectric constant tensor:
#      x y z
#    x 1.764470 0.000000 0.000000 
#    y 0.000000 1.678620 0.000000 
#    z 0.000000 0.000000 1.777650 
# 
# From -- ./inp_files/18251.got.cif
#   From: 2010.03.12/outbox.cif.g09.slc.cpg/sg35_10_cif.got.tgz:18251.got - 2010.04.14 02:02:04.
