data_PCOD8173794
_publ_section_title
;
Structure prediction by ZEFSAII (Michael W. Deem and Ramdas Pophale) SiO2 
 PCOD8173794
Probable space group: C M M 2
;
_chemical_formula_sum "Si O2"
_cell_formula_units_Z 48
_cell_length_a 8.836973
_cell_length_b 15.697533
_cell_length_c 16.842486
_cell_angle_alpha 90.000000
_cell_angle_beta 90.000000
_cell_angle_gamma 90.000000
_cell_volume 2336.367346
_symmetry_space_group_name_H-M "C M M 2"
_symmetry_group_IT_number 35
_symmetry_cell_setting 'orthorhombic'
loop_
_space_group_symop_operation_xyz
x,y,z
-x,-y,z
-x,y,z
x,-y,z
1/2+x,1/2+y,z
1/2-x,1/2-y,z
1/2-x,1/2+y,z
1/2+x,1/2-y,z
loop_
_atom_site_type_symbol
_atom_site_label
_atom_site_fract_x
_atom_site_fract_y
_atom_site_fract_z
Si Si1 0.178034 0.901315 0.880300
Si Si2 0.824179 0.663222 0.565902
Si Si3 0.820712 0.662171 0.034004
Si Si4 0.180018 0.340985 0.387365
Si Si5 0.673631 0.500000 0.115122
Si Si6 0.663022 0.596685 0.708076
Si Si7 0.826989 0.000000 0.302896
O O1 0.223481 0.865700 0.791960
O O2 0.000000 0.886900 0.895297
O O3 0.221792 0.000000 0.893084
O O4 0.275517 0.846765 0.941910
O O5 0.750000 0.750000 0.594562
O O6 0.769657 0.636520 0.477920
O O7 0.778153 0.597478 0.634259
O O8 0.000000 0.675228 0.563774
O O9 0.750000 0.750000 0.067603
O O10 0.755360 0.584145 0.084261
O O11 0.000000 0.664864 0.043856
O O12 0.250000 0.250000 0.362038
O O13 0.244203 0.415315 0.333020
O O14 0.000000 0.336285 0.377946
O O15 0.500000 0.500000 0.085272
O O16 0.682848 0.500000 0.209241
O O17 0.500000 0.638281 0.684173
O O18 0.632421 0.500000 0.730529
O O19 0.000000 0.000000 0.332950
#
# Coordination Sequence:
#
# PCOD8173794 Si02
#       7
#     8   8   8   8   4   8   4
#     4   9  18  36  60  84 120 163 204 256 310 359
#     4  10  21  36  55  80 114 157 200 250 303 352
#     4  12  25  41  66  97 126 165 209 250 306 368
#     4  10  22  41  64  92 128 165 207 257 308 364
#     4  11  25  47  69  94 129 160 197 253 308 369
#     4   9  19  34  54  83 116 158 203 247 300 353
#     4  11  25  43  69  98 123 162 203 243 310 377
#
# _framework density 20.544715
#
# number of rings (size 3 to 8) (size 9 to 14) (size 15 to 20)
#    0.000    1.833    0.833    4.000    1.167    5.667 
#    0.000    1.667    0.000    0.000    0.000    0.000 
#    0.000    0.000    0.000    0.000    0.000    0.000 
#
# Total GULP energy -297512.905469 kJ/mol
# GULP energy per Si atom -12396.371061 kJ/mol
# Density = 2.049795 g / cm^3
# Si number density = 20.544715 Si / 1000 Ang^3
#
#
#
# Elastic Constant Matrix: (Units=GPa)
#
#
# Indices 1 2 3 4 5 6 
#
# 1 121.1169 58.2347 47.8468 0.0000 0.0000 0.0000
# 2 58.2347 122.3488 47.5593 0.0000 0.0000 0.0000
# 3 47.8468 47.5593 97.4661 0.0000 0.0000 0.0000
# 4 0.0000 0.0000 0.0000 5.3571 0.0000 0.0000
# 5 0.0000 0.0000 0.0000 0.0000 27.4536 0.0000
# 6 0.0000 0.0000 0.0000 0.0000 0.0000 33.2779
#
#
#
# Elastic Compliance Matrix: (Units=1/GPa)
#
#
# Indices 1 2 3 4 5 6 
#
# 1 0.011716 -0.004123 -0.003740 0.000000 0.000000 0.000000
# 2 -0.004123 0.011537 -0.003606 0.000000 0.000000 0.000000
# 3 -0.003740 -0.003606 0.013855 0.000000 0.000000 0.000000
# 4 0.000000 0.000000 0.000000 0.186667 0.000000 0.000000
# 5 0.000000 0.000000 0.000000 0.000000 0.036425 0.000000
# 6 0.000000 0.000000 0.000000 0.000000 0.000000 0.030050
#
#
# Mechanical properties :
#
#
# Convention : Reuss Voigt Hill
#
# Bulk Modulus (GPa) = 70.56160 72.02370 71.29265
# Shear Modulus (GPa) = 15.72761 25.70379 20.71570
#
# Velocity S-wave (km/s) = 2.76982 3.54095 3.17885
# Velocity P-wave (km/s) = 6.68200 7.20076 6.94622
#
# Compressibility (1/GPa) = 0.01417201
#
# Stress axis : x y z
#
# Youngs Moduli (GPa) = 85.35183 86.67481 72.17428
#
# Poissons Ratio (x) = 0.35735 0.26992
# Poissons Ratio (y) = 0.35189 0.26025
# Poissons Ratio (z) = 0.31920 0.31253
#
# Static dielectric constant tensor:
#      x y z
#    x 3.788430 0.000000 0.000000 
#    y 0.000000 3.610900 0.000000 
#    z 0.000000 0.000000 3.826500 
# 
# 
# High freq. dielectric constant tensor:
#      x y z
#    x 1.805280 0.000000 0.000000 
#    y 0.000000 1.798160 0.000000 
#    z 0.000000 0.000000 1.809580 
# 
# From -- ./inp_files/17928.got.cif
#   From: 2010.03.12/outbox.cif.g09.slc.cpg/sg35_9_cif.got.tgz:17928.got - 2010.04.14 02:02:04.
