data_PCOD8173383
_publ_section_title
;
Structure prediction by ZEFSAII (Michael W. Deem and Ramdas Pophale) SiO2 
 PCOD8173383
Probable space group: C M M 2
;
_chemical_formula_sum "Si O2"
_cell_formula_units_Z 64
_cell_length_a 9.215996
_cell_length_b 18.603972
_cell_length_c 20.423401
_cell_angle_alpha 90.000000
_cell_angle_beta 90.000000
_cell_angle_gamma 90.000000
_cell_volume 3501.676481
_symmetry_space_group_name_H-M "C M M 2"
_symmetry_group_IT_number 35
_symmetry_cell_setting 'orthorhombic'
loop_
_space_group_symop_operation_xyz
x,y,z
-x,-y,z
-x,y,z
x,-y,z
1/2+x,1/2+y,z
1/2-x,1/2-y,z
1/2-x,1/2+y,z
1/2+x,1/2-y,z
loop_
_atom_site_type_symbol
_atom_site_label
_atom_site_fract_x
_atom_site_fract_y
_atom_site_fract_z
Si Si1 0.169967 0.674642 0.072700
Si Si2 0.335833 0.914206 0.694262
Si Si3 0.836308 0.085524 0.819491
Si Si4 0.171189 0.176311 0.300753
Si Si5 0.168078 0.820638 0.449698
Si Si6 0.330502 0.917103 0.947811
Si Si7 0.668253 0.916471 0.199338
Si Si8 0.332629 0.583236 0.568573
O O1 0.250000 0.750000 0.076533
O O2 0.213581 0.626570 0.134632
O O3 0.000000 0.689994 0.071207
O O4 0.219519 0.631026 0.008694
O O5 0.500000 0.885573 0.697378
O O6 0.248892 0.883441 0.756692
O O7 0.261504 0.884511 0.628111
O O8 0.330997 0.000000 0.694892
O O9 0.756894 0.111842 0.885155
O O10 0.000000 0.115658 0.818787
O O11 0.835867 0.000000 0.816804
O O12 0.250000 0.250000 0.279509
O O13 0.208760 0.156756 0.375835
O O14 0.232843 0.110723 0.258744
O O15 0.000000 0.185268 0.288738
O O16 0.250000 0.750000 0.472283
O O17 0.214882 0.882812 0.499605
O O18 0.000000 0.802933 0.454576
O O19 0.500000 0.908628 0.932546
O O20 0.292982 0.000000 0.963693
O O21 0.500000 0.903875 0.216857
O O22 0.700949 0.000000 0.187027
O O23 0.500000 0.598546 0.585157
O O24 0.300530 0.500000 0.560188
#
# Coordination Sequence:
#
# PCOD8173383 Si02
#       8
#     8   8   8   8   8   8   8   8
#     4  10  21  36  54  75 101 135 171 206 248 300
#     4   9  16  26  42  67  98 130 164 202 245 294
#     4   9  16  26  43  69  99 129 161 200 247 296
#     4  10  20  35  55  78 104 136 174 213 255 306
#     4   9  19  34  52  73  99 133 169 206 249 299
#     4   9  17  31  51  73  97 127 164 205 248 295
#     4  10  21  37  56  79 107 137 170 211 258 305
#     4   9  17  30  48  70  97 129 165 206 251 296
#
# _framework density 18.276959000000002
#
# number of rings (size 3 to 8) (size 9 to 14) (size 15 to 20)
#    0.000    2.625    0.000    1.875    0.000    8.250 
#    0.000    1.250    0.000    4.500    0.000    5.250 
#    0.000    0.000    0.000    0.000    0.000    0.000 
#
# Total GULP energy -396832.088022 kJ/mol
# GULP energy per Si atom -12401.002751 kJ/mol
# Density = 1.823536 g / cm^3
# Si number density = 18.276959 Si / 1000 Ang^3
#
#
#
# Elastic Constant Matrix: (Units=GPa)
#
#
# Indices 1 2 3 4 5 6 
#
# 1 90.6288 46.0076 72.6076 0.0000 0.0000 0.0000
# 2 46.0076 80.5940 65.1103 0.0000 0.0000 0.0000
# 3 72.6076 65.1103 151.7930 0.0000 0.0000 0.0000
# 4 0.0000 0.0000 0.0000 10.0310 0.0000 0.0000
# 5 0.0000 0.0000 0.0000 0.0000 33.9085 0.0000
# 6 0.0000 0.0000 0.0000 0.0000 0.0000 24.9915
#
#
#
# Elastic Compliance Matrix: (Units=1/GPa)
#
#
# Indices 1 2 3 4 5 6 
#
# 1 0.019341 -0.005458 -0.006910 0.000000 0.000000 0.000000
# 2 -0.005458 0.020528 -0.006194 0.000000 0.000000 0.000000
# 3 -0.006910 -0.006194 0.012550 0.000000 0.000000 0.000000
# 4 0.000000 0.000000 0.000000 0.099691 0.000000 0.000000
# 5 0.000000 0.000000 0.000000 0.000000 0.029491 0.000000
# 6 0.000000 0.000000 0.000000 0.000000 0.000000 0.040014
#
#
# Mechanical properties :
#
#
# Convention : Reuss Voigt Hill
#
# Bulk Modulus (GPa) = 65.38683 76.71855 71.05269
# Shear Modulus (GPa) = 18.95090 23.07219 21.01155
#
# Velocity S-wave (km/s) = 3.22355 3.55683 3.39428
# Velocity P-wave (km/s) = 7.05041 7.67690 7.37031
#
# Compressibility (1/GPa) = 0.01529360
#
# Stress axis : x y z
#
# Youngs Moduli (GPa) = 51.70351 48.71335 79.67907
#
# Poissons Ratio (x) = 0.26590 0.55059
# Poissons Ratio (y) = 0.28222 0.49357
# Poissons Ratio (z) = 0.35728 0.30175
#
# Static dielectric constant tensor:
#      x y z
#    x 3.416400 0.000000 0.000000 
#    y 0.000000 3.092000 0.000000 
#    z 0.000000 0.000000 3.603530 
# 
# 
# High freq. dielectric constant tensor:
#      x y z
#    x 1.710090 0.000000 0.000000 
#    y 0.000000 1.674370 0.000000 
#    z 0.000000 0.000000 1.723320 
# 
# From -- ./inp_files/18385.got.cif
#   From: 2010.03.12/outbox.cif.g09.slc.cpg/sg35_10_cif.got.tgz:18385.got - 2010.04.14 02:02:04.
