data_PCOD8173889
_publ_section_title
;
Structure prediction by ZEFSAII (Michael W. Deem and Ramdas Pophale) SiO2 
 PCOD8173889
Probable space group: C M M 2
;
_chemical_formula_sum "Si O2"
_cell_formula_units_Z 56
_cell_length_a 18.138406
_cell_length_b 8.749896
_cell_length_c 17.874747
_cell_angle_alpha 90.000000
_cell_angle_beta 90.000000
_cell_angle_gamma 90.000000
_cell_volume 2836.886191
_symmetry_space_group_name_H-M "C M M 2"
_symmetry_group_IT_number 35
_symmetry_cell_setting 'orthorhombic'
loop_
_space_group_symop_operation_xyz
x,y,z
-x,-y,z
-x,y,z
x,-y,z
1/2+x,1/2+y,z
1/2-x,1/2-y,z
1/2-x,1/2+y,z
1/2+x,1/2-y,z
loop_
_atom_site_type_symbol
_atom_site_label
_atom_site_fract_x
_atom_site_fract_y
_atom_site_fract_z
Si Si1 0.585631 0.675676 0.012270
Si Si2 0.084456 0.321073 0.298033
Si Si3 0.828732 0.179035 0.162612
Si Si4 0.417258 0.818104 0.735226
Si Si5 0.084994 0.821436 0.455430
Si Si6 0.670076 0.179377 0.878685
Si Si7 0.170187 0.680598 0.590840
O O1 0.500000 0.715928 0.015421
O O2 0.599816 0.500000 0.990133
O O3 0.618579 0.712748 0.093033
O O4 0.623065 0.783385 0.951678
O O5 0.096350 0.500000 0.310732
O O6 0.137758 0.262253 0.233960
O O7 0.107283 0.233883 0.373235
O O8 0.000000 0.283331 0.276481
O O9 0.750000 0.250000 0.143523
O O10 0.821347 0.000000 0.179261
O O11 0.500000 0.751301 0.739299
O O12 0.371293 0.754025 0.805681
O O13 0.380120 0.759106 0.658970
O O14 0.419446 0.000000 0.737294
O O15 0.135272 0.731960 0.513287
O O16 0.000000 0.781864 0.472126
O O17 0.101092 0.000000 0.462225
O O18 0.750000 0.250000 0.885759
O O19 0.679322 0.000000 0.871845
O O20 0.176727 0.500000 0.591688
O O21 0.250000 0.750000 0.601661
#
# Coordination Sequence:
#
# PCOD8173889 Si02
#       7
#     8   8   8   8   8   8   8
#     4  10  22  40  61  86 116 150 190 236 286 340
#     4  10  21  38  61  88 116 148 189 234 282 339
#     4  11  23  39  59  84 116 152 190 234 286 339
#     4   9  19  36  58  84 113 148 191 237 285 338
#     4  10  21  38  60  86 116 149 188 234 284 340
#     4  11  22  37  59  86 118 154 192 235 284 338
#     4  11  22  37  58  83 115 152 191 236 286 339
#
# _framework density 19.739954999999998
#
# number of rings (size 3 to 8) (size 9 to 14) (size 15 to 20)
#    0.000    1.714    0.000    4.286    0.000    6.571 
#    0.000    5.000    0.000    5.143    0.000    0.000 
#    0.000    0.000    0.000    0.000    0.000    0.000 
#
# Total GULP energy -347355.640306 kJ/mol
# GULP energy per Si atom -12405.558582 kJ/mol
# Density = 1.969503 g / cm^3
# Si number density = 19.739955 Si / 1000 Ang^3
#
#
#
# Elastic Constant Matrix: (Units=GPa)
#
#
# Indices 1 2 3 4 5 6 
#
# 1 144.4944 37.2292 65.0337 0.0000 0.0000 0.0000
# 2 37.2292 61.8235 29.1889 0.0000 0.0000 0.0000
# 3 65.0337 29.1889 110.0659 0.0000 0.0000 0.0000
# 4 0.0000 0.0000 0.0000 -0.5502 0.0000 0.0000
# 5 0.0000 0.0000 0.0000 0.0000 17.2703 0.0000
# 6 0.0000 0.0000 0.0000 0.0000 0.0000 25.1851
#
#
#
# Elastic Compliance Matrix: (Units=1/GPa)
#
#
# Indices 1 2 3 4 5 6 
#
# 1 0.010133 -0.003744 -0.004994 0.000000 0.000000 0.000000
# 2 -0.003744 0.019874 -0.003058 0.000000 0.000000 0.000000
# 3 -0.004994 -0.003058 0.012847 0.000000 0.000000 0.000000
# 4 0.000000 0.000000 0.000000 -1.817445 0.000000 0.000000
# 5 0.000000 0.000000 0.000000 0.000000 0.057903 0.000000
# 6 0.000000 0.000000 0.000000 0.000000 0.000000 0.039706
#
#
# Mechanical properties :
#
#
# Convention : Reuss Voigt Hill
#
# Bulk Modulus (GPa) = 51.91836 64.36528 58.14182
# Shear Modulus (GPa) = -3.03588 20.70983 8.83698
#
# Velocity S-wave (km/s) = -1.24148 3.24255 2.11812
# Velocity P-wave (km/s) = 4.92983 6.83346 5.95816
#
# Compressibility (1/GPa) = 0.01926101
#
# Stress axis : x y z
#
# Youngs Moduli (GPa) = 98.68528 50.31814 77.83620
#
# Poissons Ratio (x) = 0.18839 0.38875
# Poissons Ratio (y) = 0.36948 0.23804
# Poissons Ratio (z) = 0.49288 0.15388
#
# Static dielectric constant tensor:
#      x y z
#    x 3.742540 0.000000 0.000000 
#    y 0.000000 3.569830 0.000000 
#    z 0.000000 0.000000 3.701860 
# 
# 
# High freq. dielectric constant tensor:
#      x y z
#    x 1.781550 0.000000 0.000000 
#    y 0.000000 1.765140 0.000000 
#    z 0.000000 0.000000 1.784240 
# 
# From -- ./inp_files/17411.got.cif
#   From: 2010.03.12/outbox.cif.g09.slc.cpg/sg35_9_cif.got.tgz:17411.got - 2010.04.14 02:02:04.
