data_PCOD8173561
_publ_section_title
;
Structure prediction by ZEFSAII (Michael W. Deem and Ramdas Pophale) SiO2 
 PCOD8173561
Probable space group: C M M 2
;
_chemical_formula_sum "Si O2"
_cell_formula_units_Z 48
_cell_length_a 8.705335
_cell_length_b 18.969665
_cell_length_c 15.009017
_cell_angle_alpha 90.000000
_cell_angle_beta 90.000000
_cell_angle_gamma 90.000000
_cell_volume 2478.548373
_symmetry_space_group_name_H-M "C M M 2"
_symmetry_group_IT_number 35
_symmetry_cell_setting 'orthorhombic'
loop_
_space_group_symop_operation_xyz
x,y,z
-x,-y,z
-x,y,z
x,-y,z
1/2+x,1/2+y,z
1/2-x,1/2-y,z
1/2-x,1/2+y,z
1/2+x,1/2-y,z
loop_
_atom_site_type_symbol
_atom_site_label
_atom_site_fract_x
_atom_site_fract_y
_atom_site_fract_z
Si Si1 0.678905 0.582688 0.611620
Si Si2 0.180283 0.080245 0.106771
Si Si3 0.318274 0.174494 0.459248
Si Si4 0.820721 0.322928 0.963374
Si Si5 0.681911 0.675104 0.271136
Si Si6 0.181437 0.675871 0.758540
O O1 0.500000 0.600167 0.600407
O O2 0.711113 0.500000 0.611446
O O3 0.772736 0.616444 0.530949
O O4 0.740127 0.612971 0.704666
O O5 0.232023 0.119439 0.196525
O O6 0.000000 0.087160 0.092237
O O7 0.233931 0.000000 0.116126
O O8 0.261003 0.112090 0.020485
O O9 0.500000 0.181482 0.453376
O O10 0.250000 0.250000 0.487324
O O11 0.252587 0.149548 0.364329
O O12 0.750000 0.250000 0.998904
O O13 0.774311 0.336755 0.861241
O O14 0.000000 0.315890 0.975179
O O15 0.500000 0.681238 0.281508
O O16 0.750000 0.750000 0.242153
O O17 0.250000 0.750000 0.724793
O O18 0.000000 0.676050 0.742087
#
# Coordination Sequence:
#
# PCOD8173561 Si02
#       6
#     8   8   8   8   8   8
#     4  11  24  40  58  82 114 151 187 226 277 334
#     4  10  22  38  56  81 115 153 188 227 278 333
#     4  11  22  38  61  86 113 146 186 231 278 329
#     4  10  21  37  59  85 112 146 187 233 280 328
#     4  10  20  36  58  83 111 145 188 234 279 328
#     4  10  21  38  60  85 113 145 186 233 279 329
#
# _framework density 19.366174000000001
#
# number of rings (size 3 to 8) (size 9 to 14) (size 15 to 20)
#    0.000    1.667    0.000    5.500    0.000    7.667 
#    0.000    5.000    0.000    0.000    0.000    0.000 
#    0.000    0.000    0.000    0.000    0.000    0.000 
#
# Total GULP energy -297737.511358 kJ/mol
# GULP energy per Si atom -12405.729640 kJ/mol
# Density = 1.932210 g / cm^3
# Si number density = 19.366174 Si / 1000 Ang^3
#
#
#
# Elastic Constant Matrix: (Units=GPa)
#
#
# Indices 1 2 3 4 5 6 
#
# 1 86.7906 51.8756 49.1594 0.0000 0.0000 0.0000
# 2 51.8756 129.6620 82.8083 0.0000 0.0000 0.0000
# 3 49.1594 82.8083 121.2182 0.0000 0.0000 0.0000
# 4 0.0000 0.0000 0.0000 -58.3394 0.0000 0.0000
# 5 0.0000 0.0000 0.0000 0.0000 30.2979 0.0000
# 6 0.0000 0.0000 0.0000 0.0000 0.0000 32.8867
#
#
#
# Elastic Compliance Matrix: (Units=1/GPa)
#
#
# Indices 1 2 3 4 5 6 
#
# 1 0.016058 -0.004019 -0.003767 0.000000 0.000000 0.000000
# 2 -0.004019 0.014687 -0.008403 0.000000 0.000000 0.000000
# 3 -0.003767 -0.008403 0.015518 0.000000 0.000000 0.000000
# 4 0.000000 0.000000 0.000000 -0.017141 0.000000 0.000000
# 5 0.000000 0.000000 0.000000 0.000000 0.033006 0.000000
# 6 0.000000 0.000000 0.000000 0.000000 0.000000 0.030407
#
#
# Mechanical properties :
#
#
# Convention : Reuss Voigt Hill
#
# Bulk Modulus (GPa) = 72.02212 78.37303 75.19757
# Shear Modulus (GPa) = 38.59802 11.22421 24.91112
#
# Velocity S-wave (km/s) = 4.46922 2.41005 3.59042
# Velocity P-wave (km/s) = 7.99389 6.94992 7.49011
#
# Compressibility (1/GPa) = 0.01388462
#
# Stress axis : x y z
#
# Youngs Moduli (GPa) = 62.27603 68.08730 64.44204
#
# Poissons Ratio (x) = 0.27363 0.24273
# Poissons Ratio (y) = 0.25027 0.54153
# Poissons Ratio (z) = 0.23457 0.57217
#
# Static dielectric constant tensor:
#      x y z
#    x 3.649470 0.000000 0.000000 
#    y 0.000000 3.553890 0.000000 
#    z 0.000000 0.000000 3.654230 
# 
# 
# High freq. dielectric constant tensor:
#      x y z
#    x 1.767120 0.000000 0.000000 
#    y 0.000000 1.750130 0.000000 
#    z 0.000000 0.000000 1.766490 
# 
# From -- ./inp_files/15095.got.cif
#   From: 2010.03.12/outbox.cif.g09.slc.cpg/sg35_8_cif.got.tgz:15095.got - 2010.04.14 02:02:04.
