data_PCOD8173355
_publ_section_title
;
Structure prediction by ZEFSAII (Michael W. Deem and Ramdas Pophale) SiO2 
 PCOD8173355
Probable space group: C M M 2
;
_chemical_formula_sum "Si O2"
_cell_formula_units_Z 64
_cell_length_a 17.636892
_cell_length_b 14.093639
_cell_length_c 12.336009
_cell_angle_alpha 90.000000
_cell_angle_beta 90.000000
_cell_angle_gamma 90.000000
_cell_volume 3066.336949
_symmetry_space_group_name_H-M "C M M 2"
_symmetry_group_IT_number 35
_symmetry_cell_setting 'orthorhombic'
loop_
_space_group_symop_operation_xyz
x,y,z
-x,-y,z
-x,y,z
x,-y,z
1/2+x,1/2+y,z
1/2-x,1/2-y,z
1/2-x,1/2+y,z
1/2+x,1/2-y,z
loop_
_atom_site_type_symbol
_atom_site_label
_atom_site_fract_x
_atom_site_fract_y
_atom_site_fract_z
Si Si1 0.184614 0.892097 0.361250
Si Si2 0.170879 0.395867 0.725109
Si Si3 0.584973 0.365732 0.565026
Si Si4 0.582391 0.851842 0.530381
Si Si5 0.836397 0.104637 0.783899
Si Si6 0.651853 0.814317 0.314321
Si Si7 0.912024 0.390321 0.096628
Si Si8 0.088753 0.270884 0.889494
O O1 0.147091 0.903039 0.479482
O O2 0.270413 0.855003 0.364570
O O3 0.144135 0.801546 0.301205
O O4 0.178753 0.000000 0.308169
O O5 0.167323 0.500000 0.777062
O O6 0.148173 0.404720 0.597818
O O7 0.255729 0.355273 0.740204
O O8 0.108770 0.331496 0.783725
O O9 0.500000 0.402172 0.534578
O O10 0.586478 0.254185 0.572637
O O11 0.606083 0.402950 0.683615
O O12 0.500000 0.897296 0.554936
O O13 0.591585 0.853640 0.400588
O O14 0.867337 0.171052 0.880600
O O15 0.827689 0.000000 0.834872
O O16 0.638185 0.860577 0.198454
O O17 0.897361 0.500000 0.068052
O O18 0.000000 0.371586 0.122430
O O19 0.884120 0.326770 0.996145
O O20 0.000000 0.251312 0.891906
#
# Coordination Sequence:
#
# PCOD8173355 Si02
#       8
#     8   8   8   8   8   8   8   8
#     4  10  21  37  58  89 123 164 210 251 305 368
#     4  11  23  38  58  89 126 164 201 251 317 379
#     4  10  20  35  57  87 125 169 209 248 299 368
#     4  10  20  34  57  90 127 164 200 251 312 369
#     4  11  23  38  59  90 125 168 213 253 306 374
#     4  10  21  39  62  89 125 163 205 260 310 369
#     4  10  22  42  68  93 119 158 207 256 312 378
#     4  11  23  41  64  89 119 158 207 264 315 367
#
# _framework density 20.87181
#
# number of rings (size 3 to 8) (size 9 to 14) (size 15 to 20)
#    0.000    1.625    1.250    3.375    0.000    6.750 
#    4.500    0.625    0.000    0.750    0.000    0.000 
#    0.000    0.000    0.000    0.000    0.000    0.000 
#
# Total GULP energy -396527.472019 kJ/mol
# GULP energy per Si atom -12391.483501 kJ/mol
# Density = 2.082430 g / cm^3
# Si number density = 20.871810 Si / 1000 Ang^3
#
#
#
# Elastic Constant Matrix: (Units=GPa)
#
#
# Indices 1 2 3 4 5 6 
#
# 1 112.6829 41.1478 50.1010 0.0000 0.0000 0.0000
# 2 41.1478 129.9526 47.3089 0.0000 0.0000 0.0000
# 3 50.1010 47.3089 112.2266 0.0000 0.0000 0.0000
# 4 0.0000 0.0000 0.0000 17.1792 0.0000 0.0000
# 5 0.0000 0.0000 0.0000 0.0000 21.8559 0.0000
# 6 0.0000 0.0000 0.0000 0.0000 0.0000 -0.7961
#
#
#
# Elastic Compliance Matrix: (Units=1/GPa)
#
#
# Indices 1 2 3 4 5 6 
#
# 1 0.011538 -0.002101 -0.004265 0.000000 0.000000 0.000000
# 2 -0.002101 0.009473 -0.003055 0.000000 0.000000 0.000000
# 3 -0.004265 -0.003055 0.012103 0.000000 0.000000 0.000000
# 4 0.000000 0.000000 0.000000 0.058210 0.000000 0.000000
# 5 0.000000 0.000000 0.000000 0.000000 0.045754 0.000000
# 6 0.000000 0.000000 0.000000 0.000000 0.000000 -1.256055
#
#
# Mechanical properties :
#
#
# Convention : Reuss Voigt Hill
#
# Bulk Modulus (GPa) = 70.07420 70.21974 70.14697
# Shear Modulus (GPa) = -4.56463 22.06809 8.75173
#
# Velocity S-wave (km/s) = -1.48045 3.25517 2.04992
# Velocity P-wave (km/s) = 5.54294 6.91697 6.26772
#
# Compressibility (1/GPa) = 0.01427059
#
# Stress axis : x y z
#
# Youngs Moduli (GPa) = 86.67028 105.56841 82.62606
#
# Poissons Ratio (x) = 0.22175 0.35243
# Poissons Ratio (y) = 0.18205 0.25245
# Poissons Ratio (z) = 0.36968 0.32255
#
# Static dielectric constant tensor:
#      x y z
#    x 3.846230 0.000000 0.000000 
#    y 0.000000 4.213770 0.000000 
#    z 0.000000 0.000000 3.460310 
# 
# 
# High freq. dielectric constant tensor:
#      x y z
#    x 1.819870 0.000000 0.000000 
#    y 0.000000 1.833730 0.000000 
#    z 0.000000 0.000000 1.782230 
# 
# From -- ./inp_files/13603.got.cif
#   From: 2010.03.12/outbox.cif.g09.slc.cpg/sg35_7_cif.got.tgz:13603.got - 2010.04.14 02:02:04.
