data_PCOD8173974
_publ_section_title
;
Structure prediction by ZEFSAII (Michael W. Deem and Ramdas Pophale) SiO2 
 PCOD8173974
Probable space group: C M M 2
;
_chemical_formula_sum "Si O2"
_cell_formula_units_Z 64
_cell_length_a 8.656468
_cell_length_b 30.793571
_cell_length_c 11.859675
_cell_angle_alpha 90.000000
_cell_angle_beta 90.000000
_cell_angle_gamma 90.000000
_cell_volume 3161.357212
_symmetry_space_group_name_H-M "C M M 2"
_symmetry_group_IT_number 35
_symmetry_cell_setting 'orthorhombic'
loop_
_space_group_symop_operation_xyz
x,y,z
-x,-y,z
-x,y,z
x,-y,z
1/2+x,1/2+y,z
1/2-x,1/2-y,z
1/2-x,1/2+y,z
1/2+x,1/2-y,z
loop_
_atom_site_type_symbol
_atom_site_label
_atom_site_fract_x
_atom_site_fract_y
_atom_site_fract_z
Si Si1 0.681198 0.205621 0.598960
Si Si2 0.818777 0.875468 0.222870
Si Si3 0.817884 0.205043 0.071907
Si Si4 0.818887 0.822835 0.827380
Si Si5 0.681476 0.121375 0.465497
Si Si6 0.823178 0.950729 0.052855
Si Si7 0.677142 0.549081 0.615716
Si Si8 0.679028 0.084049 0.833404
O O1 0.500000 0.208570 0.588966
O O2 0.750000 0.250000 0.547523
O O3 0.728659 0.201536 0.728992
O O4 0.743604 0.164622 0.528075
O O5 0.762047 0.834358 0.150193
O O6 0.717937 0.875161 0.334529
O O7 0.778102 0.919175 0.155026
O O8 0.000000 0.872931 0.251948
O O9 0.750000 0.250000 0.119194
O O10 0.000000 0.207550 0.073434
O O11 0.758335 0.196904 0.945022
O O12 0.784626 0.873675 0.826579
O O13 0.000000 0.815475 0.810060
O O14 0.500000 0.115557 0.485347
O O15 0.769211 0.080103 0.515314
O O16 0.000000 0.942027 0.015616
O O17 0.799724 0.000000 0.094952
O O18 0.713906 0.942532 0.946390
O O19 0.500000 0.559284 0.646883
O O20 0.696282 0.500000 0.571624
O O21 0.781815 0.554494 0.726290
O O22 0.500000 0.097418 0.829808
#
# Coordination Sequence:
#
# PCOD8173974 Si02
#       8
#     8   8   8   8   8   8   8   8
#     4  11  24  41  62  92 126 162 205 253 309 369
#     4  10  22  42  63  87 120 161 209 256 303 358
#     4  10  22  39  61  90 123 158 200 250 301 358
#     4  11  21  38  64  91 124 163 203 250 305 367
#     4  11  25  43  63  91 124 160 206 260 313 362
#     4  10  21  40  65  90 120 160 206 252 300 364
#     4  11  24  42  66  93 122 163 209 250 302 369
#     4  12  23  36  60  94 130 163 197 247 309 370
#
# _framework density 20.24447
#
# number of rings (size 3 to 8) (size 9 to 14) (size 15 to 20)
#    0.000    1.250    2.500    3.375    0.000    8.250 
#    0.000    3.750    0.000    0.000    0.000    0.000 
#    0.000    0.000    0.000    0.000    0.000    0.000 
#
# Total GULP energy -396997.766519 kJ/mol
# GULP energy per Si atom -12406.180204 kJ/mol
# Density = 2.019839 g / cm^3
# Si number density = 20.244470 Si / 1000 Ang^3
#
#
#
# Elastic Constant Matrix: (Units=GPa)
#
#
# Indices 1 2 3 4 5 6 
#
# 1 47.0961 29.5832 25.5667 0.0000 0.0000 0.0000
# 2 29.5832 156.6787 52.7825 0.0000 0.0000 0.0000
# 3 25.5667 52.7825 116.9075 0.0000 0.0000 0.0000
# 4 0.0000 0.0000 0.0000 12.6920 0.0000 0.0000
# 5 0.0000 0.0000 0.0000 0.0000 29.5576 0.0000
# 6 0.0000 0.0000 0.0000 0.0000 0.0000 31.0266
#
#
#
# Elastic Compliance Matrix: (Units=1/GPa)
#
#
# Indices 1 2 3 4 5 6 
#
# 1 0.025605 -0.003477 -0.004030 0.000000 0.000000 0.000000
# 2 -0.003477 0.008000 -0.002851 0.000000 0.000000 0.000000
# 3 -0.004030 -0.002851 0.010722 0.000000 0.000000 0.000000
# 4 0.000000 0.000000 0.000000 0.078790 0.000000 0.000000
# 5 0.000000 0.000000 0.000000 0.000000 0.033832 0.000000
# 6 0.000000 0.000000 0.000000 0.000000 0.000000 0.032230
#
#
# Mechanical properties :
#
#
# Convention : Reuss Voigt Hill
#
# Bulk Modulus (GPa) = 42.35375 59.61635 50.98505
# Shear Modulus (GPa) = 22.96048 28.83858 25.89953
#
# Velocity S-wave (km/s) = 3.37138 3.77837 3.58066
# Velocity P-wave (km/s) = 6.01012 6.96756 6.50648
#
# Compressibility (1/GPa) = 0.02361066
#
# Stress axis : x y z
#
# Youngs Moduli (GPa) = 39.05506 125.00677 93.26287
#
# Poissons Ratio (x) = 0.43465 0.37582
# Poissons Ratio (y) = 0.13580 0.26592
# Poissons Ratio (z) = 0.15738 0.35643
#
# Static dielectric constant tensor:
#      x y z
#    x 3.562180 0.000000 0.000000 
#    y 0.000000 4.024690 0.000000 
#    z 0.000000 0.000000 3.611130 
# 
# 
# High freq. dielectric constant tensor:
#      x y z
#    x 1.787780 0.000000 0.000000 
#    y 0.000000 1.807110 0.000000 
#    z 0.000000 0.000000 1.784070 
# 
# From -- ./inp_files/12015.got.cif
#   From: 2010.03.12/outbox.cif.g09.slc.cpg/sg35_7_cif.got.tgz:12015.got - 2010.04.14 02:02:04.
