data_PCOD8173738
_publ_section_title
;
Structure prediction by ZEFSAII (Michael W. Deem and Ramdas Pophale) SiO2 
 PCOD8173738
Probable space group: C M M 2
;
_chemical_formula_sum "Si O2"
_cell_formula_units_Z 64
_cell_length_a 9.153689
_cell_length_b 19.370439
_cell_length_c 20.269860
_cell_angle_alpha 90.000000
_cell_angle_beta 90.000000
_cell_angle_gamma 90.000000
_cell_volume 3594.068628
_symmetry_space_group_name_H-M "C M M 2"
_symmetry_group_IT_number 35
_symmetry_cell_setting 'orthorhombic'
loop_
_space_group_symop_operation_xyz
x,y,z
-x,-y,z
-x,y,z
x,-y,z
1/2+x,1/2+y,z
1/2-x,1/2-y,z
1/2-x,1/2+y,z
1/2+x,1/2-y,z
loop_
_atom_site_type_symbol
_atom_site_label
_atom_site_fract_x
_atom_site_fract_y
_atom_site_fract_z
Si Si1 0.830409 0.180722 0.610950
Si Si2 0.827615 0.819900 0.760050
Si Si3 0.670213 0.180361 0.401105
Si Si4 0.330751 0.818797 0.247236
Si Si5 0.827078 0.076436 0.011613
Si Si6 0.173560 0.922319 0.869764
Si Si7 0.170838 0.079859 0.495469
Si Si8 0.332109 0.417825 0.153850
O O1 0.750000 0.250000 0.587282
O O2 0.785184 0.159434 0.685248
O O3 0.787979 0.117028 0.564139
O O4 0.000000 0.198080 0.606871
O O5 0.750000 0.750000 0.781041
O O6 0.763767 0.877574 0.809527
O O7 0.000000 0.810326 0.767989
O O8 0.500000 0.187484 0.418226
O O9 0.750000 0.250000 0.425670
O O10 0.697992 0.168348 0.324111
O O11 0.737412 0.114039 0.436914
O O12 0.500000 0.809895 0.231217
O O13 0.250000 0.750000 0.222608
O O14 0.269167 0.884691 0.209129
O O15 0.779973 0.111333 0.941520
O O16 0.000000 0.070565 0.014687
O O17 0.759647 0.000000 0.009444
O O18 0.779148 0.111223 0.081241
O O19 0.000000 0.924367 0.865094
O O20 0.235391 0.000000 0.862894
O O21 0.000000 0.087925 0.479262
O O22 0.215919 0.000000 0.501674
O O23 0.500000 0.397451 0.167746
O O24 0.312655 0.500000 0.156445
#
# Coordination Sequence:
#
# PCOD8173738 Si02
#       8
#     8   8   8   8   8   8   8   8
#     4   9  18  32  49  69  94 126 162 196 233 281
#     4   9  17  29  46  68  94 124 157 195 237 280
#     4  10  21  37  56  75  96 126 163 199 237 286
#     4  10  21  36  53  73  98 127 160 200 242 285
#     4   7  11  22  41  66  94 122 155 194 233 276
#     4   8  13  23  43  69  92 118 157 200 236 273
#     4  10  21  35  51  74 103 130 157 196 243 286
#     4   9  17  30  50  74  99 129 163 199 241 289
#
# _framework density 17.807116000000001
#
# number of rings (size 3 to 8) (size 9 to 14) (size 15 to 20)
#    0.000    3.000    0.000    2.625    0.000    4.500 
#    0.000    5.625    0.000    2.625    0.000    5.250 
#    0.000    0.000    0.000    0.000    0.000    0.000 
#
# Total GULP energy -396557.444005 kJ/mol
# GULP energy per Si atom -12392.420125 kJ/mol
# Density = 1.776659 g / cm^3
# Si number density = 17.807116 Si / 1000 Ang^3
#
#
#
# Elastic Constant Matrix: (Units=GPa)
#
#
# Indices 1 2 3 4 5 6 
#
# 1 55.0688 44.3329 48.5136 0.0000 0.0000 0.0000
# 2 44.3329 109.5526 72.4288 0.0000 0.0000 0.0000
# 3 48.5136 72.4288 111.9280 0.0000 0.0000 0.0000
# 4 0.0000 0.0000 0.0000 26.9862 0.0000 0.0000
# 5 0.0000 0.0000 0.0000 0.0000 13.3297 0.0000
# 6 0.0000 0.0000 0.0000 0.0000 0.0000 27.1780
#
#
#
# Elastic Compliance Matrix: (Units=1/GPa)
#
#
# Indices 1 2 3 4 5 6 
#
# 1 0.031877 -0.006580 -0.009559 0.000000 0.000000 0.000000
# 2 -0.006580 0.017311 -0.008350 0.000000 0.000000 0.000000
# 3 -0.009559 -0.008350 0.018481 0.000000 0.000000 0.000000
# 4 0.000000 0.000000 0.000000 0.037056 0.000000 0.000000
# 5 0.000000 0.000000 0.000000 0.000000 0.075021 0.000000
# 6 0.000000 0.000000 0.000000 0.000000 0.000000 0.036795
#
#
# Mechanical properties :
#
#
# Convention : Reuss Voigt Hill
#
# Bulk Modulus (GPa) = 53.50064 67.45557 60.47811
# Shear Modulus (GPa) = 18.39929 20.91702 19.65816
#
# Velocity S-wave (km/s) = 3.21792 3.43103 3.32618
# Velocity P-wave (km/s) = 6.62694 7.32526 6.98483
#
# Compressibility (1/GPa) = 0.01869136
#
# Stress axis : x y z
#
# Youngs Moduli (GPa) = 31.37015 57.76516 54.11031
#
# Poissons Ratio (x) = 0.38012 0.51722
# Poissons Ratio (y) = 0.20643 0.45183
# Poissons Ratio (z) = 0.29986 0.48235
#
# Static dielectric constant tensor:
#      x y z
#    x 3.037720 0.000000 0.000000 
#    y 0.000000 3.198100 0.000000 
#    z 0.000000 0.000000 3.682060 
# 
# 
# High freq. dielectric constant tensor:
#      x y z
#    x 1.660600 0.000000 0.000000 
#    y 0.000000 1.668400 0.000000 
#    z 0.000000 0.000000 1.706980 
# 
# From -- ./inp_files/18358.got.cif
#   From: 2010.03.12/outbox.cif.g09.slc.cpg/sg35_10_cif.got.tgz:18358.got - 2010.04.14 02:02:04.
