data_PCOD8173343
_publ_section_title
;
Structure prediction by ZEFSAII (Michael W. Deem and Ramdas Pophale) SiO2 
 PCOD8173343
Probable space group: C M M 2
;
_chemical_formula_sum "Si O2"
_cell_formula_units_Z 56
_cell_length_a 21.713275
_cell_length_b 8.648078
_cell_length_c 14.713882
_cell_angle_alpha 90.000000
_cell_angle_beta 90.000000
_cell_angle_gamma 90.000000
_cell_volume 2762.944744
_symmetry_space_group_name_H-M "C M M 2"
_symmetry_group_IT_number 35
_symmetry_cell_setting 'orthorhombic'
loop_
_space_group_symop_operation_xyz
x,y,z
-x,-y,z
-x,y,z
x,-y,z
1/2+x,1/2+y,z
1/2-x,1/2-y,z
1/2-x,1/2+y,z
1/2+x,1/2-y,z
loop_
_atom_site_type_symbol
_atom_site_label
_atom_site_fract_x
_atom_site_fract_y
_atom_site_fract_z
Si Si1 0.684170 0.183482 0.027960
Si Si2 0.132532 0.676505 0.839112
Si Si3 0.000000 0.327748 0.804148
Si Si4 0.070569 0.821913 0.338772
Si Si5 0.885088 0.681848 0.516517
Si Si6 0.000000 0.180166 0.617537
Si Si7 0.187063 0.181101 0.669597
Si Si8 0.930852 0.317563 0.145692
O O1 0.750000 0.250000 0.061864
O O2 0.625534 0.249631 0.084941
O O3 0.686518 0.000000 0.037373
O O4 0.673412 0.235111 0.923504
O O5 0.150124 0.500000 0.814569
O O6 0.139101 0.782002 0.749834
O O7 0.060411 0.689797 0.867482
O O8 0.000000 0.500000 0.759216
O O9 0.000000 0.200327 0.725405
O O10 0.115180 0.761526 0.418040
O O11 0.084782 0.725567 0.248896
O O12 0.000000 0.797612 0.370794
O O13 0.084756 0.000000 0.318520
O O14 0.886580 0.500000 0.502265
O O15 0.825614 0.733582 0.573843
O O16 0.941157 0.738462 0.576695
O O17 0.000000 0.000000 0.591624
O O18 0.250000 0.250000 0.708225
O O19 0.188811 0.000000 0.651510
O O20 0.932236 0.500000 0.135517
O O21 0.000000 0.252680 0.119886
#
# Coordination Sequence:
#
# PCOD8173343 Si02
#       8
#     8   8   4   8   8   4   8   8
#     4  10  22  39  61  88 118 157 202 250 301 362
#     4  10  21  37  59  87 119 157 200 245 299 357
#     4  10  20  34  56  85 120 157 200 245 296 356
#     4  10  20  35  58  88 121 152 189 239 300 359
#     4  12  23  37  59  86 118 157 198 239 290 350
#     4  12  22  34  54  85 120 153 192 239 290 340
#     4  12  25  41  59  81 115 157 203 251 298 353
#     4   9  19  37  61  88 118 151 196 249 305 365
#
# _framework density 20.268229999999999
#
# number of rings (size 3 to 8) (size 9 to 14) (size 15 to 20)
#    0.000    1.429    2.143    4.071    1.000    2.857 
#    0.000    0.714    0.000    1.714    0.000    0.000 
#    0.000    0.000    0.000    0.000    0.000    0.000 
#
# Total GULP energy -347154.411932 kJ/mol
# GULP energy per Si atom -12398.371855 kJ/mol
# Density = 2.022210 g / cm^3
# Si number density = 20.268230 Si / 1000 Ang^3
#
#
#
# Elastic Constant Matrix: (Units=GPa)
#
#
# Indices 1 2 3 4 5 6 
#
# 1 115.3690 21.9584 46.6610 0.0000 0.0000 0.0000
# 2 21.9584 51.3954 12.0523 0.0000 0.0000 0.0000
# 3 46.6610 12.0523 94.5086 0.0000 0.0000 0.0000
# 4 0.0000 0.0000 0.0000 21.3981 0.0000 0.0000
# 5 0.0000 0.0000 0.0000 0.0000 23.9052 0.0000
# 6 0.0000 0.0000 0.0000 0.0000 0.0000 26.6309
#
#
#
# Elastic Compliance Matrix: (Units=1/GPa)
#
#
# Indices 1 2 3 4 5 6 
#
# 1 0.011469 -0.003682 -0.005193 0.000000 0.000000 0.000000
# 2 -0.003682 0.021239 -0.000890 0.000000 0.000000 0.000000
# 3 -0.005193 -0.000890 0.013258 0.000000 0.000000 0.000000
# 4 0.000000 0.000000 0.000000 0.046733 0.000000 0.000000
# 5 0.000000 0.000000 0.000000 0.000000 0.041832 0.000000
# 6 0.000000 0.000000 0.000000 0.000000 0.000000 0.037550
#
#
# Mechanical properties :
#
#
# Convention : Reuss Voigt Hill
#
# Bulk Modulus (GPa) = 37.82852 46.95739 42.39295
# Shear Modulus (GPa) = 24.94699 26.42693 25.68696
#
# Velocity S-wave (km/s) = 3.51214 3.61482 3.56385
# Velocity P-wave (km/s) = 5.92885 6.37501 6.15598
#
# Compressibility (1/GPa) = 0.02643508
#
# Stress axis : x y z
#
# Youngs Moduli (GPa) = 87.19186 47.08310 75.42363
#
# Poissons Ratio (x) = 0.17337 0.39167
# Poissons Ratio (y) = 0.32107 0.06716
# Poissons Ratio (z) = 0.45278 0.04193
#
# Static dielectric constant tensor:
#      x y z
#    x 3.948770 0.000000 0.000000 
#    y 0.000000 3.544410 0.000000 
#    z 0.000000 0.000000 3.583520 
# 
# 
# High freq. dielectric constant tensor:
#      x y z
#    x 1.790760 0.000000 0.000000 
#    y 0.000000 1.784010 0.000000 
#    z 0.000000 0.000000 1.784170 
# 
# From -- ./inp_files/15664.got.cif
#   From: 2010.03.12/outbox.cif.g09.slc.cpg/sg35_8_cif.got.tgz:15664.got - 2010.04.14 02:02:04.
