data_PCOD8173261
_publ_section_title
;
Structure prediction by ZEFSAII (Michael W. Deem and Ramdas Pophale) SiO2 
 PCOD8173261
Probable space group: C M M 2
;
_chemical_formula_sum "Si O2"
_cell_formula_units_Z 56
_cell_length_a 14.571358
_cell_length_b 14.429164
_cell_length_c 12.820482
_cell_angle_alpha 90.000000
_cell_angle_beta 90.000000
_cell_angle_gamma 90.000000
_cell_volume 2695.538575
_symmetry_space_group_name_H-M "C M M 2"
_symmetry_group_IT_number 35
_symmetry_cell_setting 'orthorhombic'
loop_
_space_group_symop_operation_xyz
x,y,z
-x,-y,z
-x,y,z
x,-y,z
1/2+x,1/2+y,z
1/2-x,1/2-y,z
1/2-x,1/2+y,z
1/2+x,1/2-y,z
loop_
_atom_site_type_symbol
_atom_site_label
_atom_site_fract_x
_atom_site_fract_y
_atom_site_fract_z
Si Si1 0.798900 0.608046 0.317100
Si Si2 0.104545 0.389575 0.109089
Si Si3 0.600057 0.604956 0.385081
Si Si4 0.099911 0.708340 0.733755
Si Si5 0.293067 0.893821 0.906669
Si Si6 0.350960 0.772592 0.510643
Si Si7 0.898692 0.103126 0.831829
O O1 0.818940 0.500000 0.329110
O O2 0.843502 0.647981 0.211575
O O3 0.688851 0.629377 0.313076
O O4 0.849612 0.657173 0.413369
O O5 0.108078 0.500000 0.108384
O O6 0.000000 0.353231 0.108385
O O7 0.157851 0.349817 0.007922
O O8 0.500000 0.612384 0.326792
O O9 0.612477 0.500000 0.428211
O O10 0.597662 0.677414 0.480158
O O11 0.176466 0.657569 0.801566
O O12 0.102429 0.681140 0.611580
O O13 0.112228 0.819863 0.742030
O O14 0.000000 0.678153 0.777005
O O15 0.182427 0.882674 0.917428
O O16 0.322828 0.000000 0.895496
O O17 0.250000 0.750000 0.549192
O O18 0.000000 0.112129 0.885452
O O19 0.887932 0.000000 0.781838
#
# Coordination Sequence:
#
# PCOD8173261 Si02
#       7
#     8   8   8   8   8   8   8
#     4   9  19  36  57  82 110 141 180 224 271 322
#     4   9  18  34  56  80 108 145 185 221 261 317
#     4   9  18  34  55  78 108 145 182 221 266 319
#     4  11  22  35  54  81 113 146 180 221 269 323
#     4  10  20  36  58  82 110 142 179 224 271 322
#     4  10  20  34  53  79 112 146 180 222 270 321
#     4   9  19  36  56  78 107 144 183 222 266 318
#
# _framework density 20.775068000000001
#
# number of rings (size 3 to 8) (size 9 to 14) (size 15 to 20)
#    0.000    2.429    0.000    2.143    0.000    3.143 
#    0.000    9.286    0.000    6.000    0.000    0.000 
#    0.000    0.000    0.000    0.000    0.000    0.000 
#
# Total GULP energy -346945.549171 kJ/mol
# GULP energy per Si atom -12390.912470 kJ/mol
# Density = 2.072778 g / cm^3
# Si number density = 20.775068 Si / 1000 Ang^3
#
#
#
# Elastic Constant Matrix: (Units=GPa)
#
#
# Indices 1 2 3 4 5 6 
#
# 1 161.0240 38.8457 73.4315 0.0000 0.0000 0.0000
# 2 38.8457 64.3619 40.6941 0.0000 0.0000 0.0000
# 3 73.4315 40.6941 146.1291 0.0000 0.0000 0.0000
# 4 0.0000 0.0000 0.0000 19.7976 0.0000 0.0000
# 5 0.0000 0.0000 0.0000 0.0000 23.0410 0.0000
# 6 0.0000 0.0000 0.0000 0.0000 0.0000 22.3494
#
#
#
# Elastic Compliance Matrix: (Units=1/GPa)
#
#
# Indices 1 2 3 4 5 6 
#
# 1 0.008493 -0.002946 -0.003447 0.000000 0.000000 0.000000
# 2 -0.002946 0.019880 -0.004055 0.000000 0.000000 0.000000
# 3 -0.003447 -0.004055 0.009705 0.000000 0.000000 0.000000
# 4 0.000000 0.000000 0.000000 0.050511 0.000000 0.000000
# 5 0.000000 0.000000 0.000000 0.000000 0.043401 0.000000
# 6 0.000000 0.000000 0.000000 0.000000 0.000000 0.044744
#
#
# Mechanical properties :
#
#
# Convention : Reuss Voigt Hill
#
# Bulk Modulus (GPa) = 58.20987 75.27308 66.74148
# Shear Modulus (GPa) = 24.58710 27.60718 26.09714
#
# Velocity S-wave (km/s) = 3.44392 3.64931 3.54810
# Velocity P-wave (km/s) = 6.62526 7.35307 6.99863
#
# Compressibility (1/GPa) = 0.01717922
#
# Stress axis : x y z
#
# Youngs Moduli (GPa) = 117.74197 50.30289 103.03974
#
# Poissons Ratio (x) = 0.14821 0.35522
# Poissons Ratio (y) = 0.34691 0.41788
# Poissons Ratio (z) = 0.40590 0.20400
#
# Static dielectric constant tensor:
#      x y z
#    x 4.128690 0.000000 0.000000 
#    y 0.000000 3.728960 0.000000 
#    z 0.000000 0.000000 3.421970 
# 
# 
# High freq. dielectric constant tensor:
#      x y z
#    x 1.836150 0.000000 0.000000 
#    y 0.000000 1.805240 0.000000 
#    z 0.000000 0.000000 1.772820 
# 
# From -- ./inp_files/12988.got.cif
#   From: 2010.03.12/outbox.cif.g09.slc.cpg/sg35_7_cif.got.tgz:12988.got - 2010.04.14 02:02:04.
