data_PCOD8173363
_publ_section_title
;
Structure prediction by ZEFSAII (Michael W. Deem and Ramdas Pophale) SiO2 
 PCOD8173363
Probable space group: C M M 2
;
_chemical_formula_sum "Si O2"
_cell_formula_units_Z 48
_cell_length_a 14.550604
_cell_length_b 8.907858
_cell_length_c 19.207860
_cell_angle_alpha 90.000000
_cell_angle_beta 90.000000
_cell_angle_gamma 90.000000
_cell_volume 2489.621285
_symmetry_space_group_name_H-M "C M M 2"
_symmetry_group_IT_number 35
_symmetry_cell_setting 'orthorhombic'
loop_
_space_group_symop_operation_xyz
x,y,z
-x,-y,z
-x,y,z
x,-y,z
1/2+x,1/2+y,z
1/2-x,1/2-y,z
1/2-x,1/2+y,z
1/2+x,1/2-y,z
loop_
_atom_site_type_symbol
_atom_site_label
_atom_site_fract_x
_atom_site_fract_y
_atom_site_fract_z
Si Si1 0.651237 0.675251 0.122020
Si Si2 0.651167 0.823670 0.834710
Si Si3 0.000000 0.323328 0.213654
Si Si4 0.000000 0.821999 0.576407
Si Si5 0.151239 0.174570 0.472016
Si Si6 0.500000 0.826526 0.723845
Si Si7 0.348216 0.674402 0.968894
Si Si8 0.500000 0.672647 0.358883
O O1 0.660401 0.500000 0.139542
O O2 0.750000 0.750000 0.125455
O O3 0.589850 0.753682 0.179334
O O4 0.605373 0.696887 0.044851
O O5 0.750000 0.750000 0.822030
O O6 0.589888 0.785612 0.768073
O O7 0.600965 0.755373 0.904073
O O8 0.661548 0.000000 0.845608
O O9 0.000000 0.500000 0.202419
O O10 0.000000 0.285568 0.294729
O O11 0.907828 0.762239 0.537650
O O12 0.000000 0.773238 0.655649
O O13 0.000000 0.000000 0.570158
O O14 0.250000 0.250000 0.466806
O O15 0.091920 0.206006 0.402846
O O16 0.169503 0.000000 0.481723
O O17 0.500000 0.000000 0.702118
O O18 0.338857 0.500000 0.950921
O O19 0.250000 0.750000 0.973151
O O20 0.500000 0.500000 0.333391
#
# Coordination Sequence:
#
# PCOD8173363 Si02
#       8
#     8   8   4   4   8   4   8   4
#     4  10  21  38  58  81 111 147 189 237 287 338
#     4  10  20  35  53  75 105 141 182 227 275 325
#     4  12  25  38  56  84 116 152 191 228 276 334
#     4   9  20  38  57  81 113 144 176 215 262 318
#     4   9  19  37  62  88 111 141 178 216 264 319
#     4  10  23  38  52  76 110 146 181 220 268 318
#     4   9  17  31  53  78 103 136 181 231 280 328
#     4   9  20  40  59  79 115 150 178 221 270 320
#
# _framework density 19.28004
#
# number of rings (size 3 to 8) (size 9 to 14) (size 15 to 20)
#    0.000    2.333    0.000    4.250    0.000    6.667 
#    0.000    8.333    0.000    0.000    0.000    0.000 
#    0.000    0.000    0.000    0.000    0.000    0.000 
#
# Total GULP energy -297472.045208 kJ/mol
# GULP energy per Si atom -12394.668550 kJ/mol
# Density = 1.923616 g / cm^3
# Si number density = 19.280040 Si / 1000 Ang^3
#
#
#
# Elastic Constant Matrix: (Units=GPa)
#
#
# Indices 1 2 3 4 5 6 
#
# 1 124.2747 52.0958 56.1325 0.0000 0.0000 0.0000
# 2 52.0958 113.2888 58.4988 0.0000 0.0000 0.0000
# 3 56.1325 58.4988 127.6733 0.0000 0.0000 0.0000
# 4 0.0000 0.0000 0.0000 35.3750 0.0000 0.0000
# 5 0.0000 0.0000 0.0000 0.0000 22.8188 0.0000
# 6 0.0000 0.0000 0.0000 0.0000 0.0000 24.9559
#
#
#
# Elastic Compliance Matrix: (Units=1/GPa)
#
#
# Indices 1 2 3 4 5 6 
#
# 1 0.010923 -0.003331 -0.003276 0.000000 0.000000 0.000000
# 2 -0.003331 0.012579 -0.004299 0.000000 0.000000 0.000000
# 3 -0.003276 -0.004299 0.011242 0.000000 0.000000 0.000000
# 4 0.000000 0.000000 0.000000 0.028269 0.000000 0.000000
# 5 0.000000 0.000000 0.000000 0.000000 0.043824 0.000000
# 6 0.000000 0.000000 0.000000 0.000000 0.000000 0.040071
#
#
# Mechanical properties :
#
#
# Convention : Reuss Voigt Hill
#
# Bulk Modulus (GPa) = 77.32817 77.63234 77.48026
# Shear Modulus (GPa) = 28.89680 29.86389 29.38035
#
# Velocity S-wave (km/s) = 3.87563 3.93994 3.90792
# Velocity P-wave (km/s) = 7.76030 7.81349 7.78694
#
# Compressibility (1/GPa) = 0.01293190
#
# Stress axis : x y z
#
# Youngs Moduli (GPa) = 91.55126 79.49971 88.94849
#
# Poissons Ratio (x) = 0.26484 0.29139
# Poissons Ratio (y) = 0.30498 0.38237
# Poissons Ratio (z) = 0.29992 0.34175
#
# Static dielectric constant tensor:
#      x y z
#    x 3.516210 0.000000 0.000000 
#    y 0.000000 3.515030 0.000000 
#    z 0.000000 0.000000 3.799920 
# 
# 
# High freq. dielectric constant tensor:
#      x y z
#    x 1.745520 0.000000 0.000000 
#    y 0.000000 1.753610 0.000000 
#    z 0.000000 0.000000 1.756190 
# 
# From -- ./inp_files/18834.got.cif
#   From: 2010.03.12/outbox.cif.g09.slc.cpg/sg35_10_cif.got.tgz:18834.got - 2010.04.14 02:02:04.
