data_PCOD8173700
_publ_section_title
;
Structure prediction by ZEFSAII (Michael W. Deem and Ramdas Pophale) SiO2 
 PCOD8173700
Probable space group: C M M 2
;
_chemical_formula_sum "Si O2"
_cell_formula_units_Z 48
_cell_length_a 14.951375
_cell_length_b 8.727513
_cell_length_c 19.017225
_cell_angle_alpha 90.000000
_cell_angle_beta 90.000000
_cell_angle_gamma 90.000000
_cell_volume 2481.525735
_symmetry_space_group_name_H-M "C M M 2"
_symmetry_group_IT_number 35
_symmetry_cell_setting 'orthorhombic'
loop_
_space_group_symop_operation_xyz
x,y,z
-x,-y,z
-x,y,z
x,-y,z
1/2+x,1/2+y,z
1/2-x,1/2-y,z
1/2-x,1/2+y,z
1/2+x,1/2-y,z
loop_
_atom_site_type_symbol
_atom_site_label
_atom_site_fract_x
_atom_site_fract_y
_atom_site_fract_z
Si Si1 0.894647 0.824029 0.539680
Si Si2 0.840719 0.681630 0.394124
Si Si3 0.500000 0.323460 0.148966
Si Si4 0.840819 0.681672 0.685471
Si Si5 0.500000 0.819469 0.299496
Si Si6 0.649610 0.319077 0.036992
Si Si7 0.500000 0.182557 0.940875
Si Si8 0.000000 0.681600 0.781220
O O1 0.855115 0.740980 0.472405
O O2 0.855608 0.742602 0.607491
O O3 0.000000 0.806110 0.539393
O O4 0.863920 0.000000 0.539278
O O5 0.838406 0.500000 0.395755
O O6 0.750000 0.750000 0.363221
O O7 0.914700 0.746509 0.340659
O O8 0.500000 0.500000 0.169897
O O9 0.500000 0.224982 0.218718
O O10 0.590924 0.283039 0.106558
O O11 0.838633 0.500000 0.682967
O O12 0.750000 0.750000 0.716241
O O13 0.914762 0.744695 0.739193
O O14 0.500000 0.000000 0.304371
O O15 0.658190 0.500000 0.024593
O O16 0.750000 0.250000 0.042543
O O17 0.592177 0.246960 0.973571
O O18 0.500000 0.241297 0.860754
O O19 0.500000 0.000000 0.948310
O O20 0.000000 0.500000 0.780994
#
# Coordination Sequence:
#
# PCOD8173700 Si02
#       8
#     8   8   4   8   4   8   4   4
#     4  11  22  37  59  85 110 144 193 244 292 344
#     4  11  23  40  59  83 113 150 193 238 290 345
#     4   9  21  39  60  86 120 153 191 237 284 338
#     4  11  22  39  59  82 113 151 192 239 291 345
#     4  10  23  40  59  83 117 154 191 232 286 346
#     4  10  21  39  62  92 122 156 197 237 285 341
#     4  10  20  38  62  90 122 156 194 240 290 344
#     4   9  21  39  59  83 117 155 192 233 288 346
#
# _framework density 19.342939000000001
#
# number of rings (size 3 to 8) (size 9 to 14) (size 15 to 20)
#    0.000    1.667    1.667    3.250    0.000    5.333 
#    0.000    8.333    0.000    0.000    0.000    0.000 
#    0.000    0.000    0.000    0.000    0.000    0.000 
#
# Total GULP energy -297604.232395 kJ/mol
# GULP energy per Si atom -12400.176350 kJ/mol
# Density = 1.929891 g / cm^3
# Si number density = 19.342939 Si / 1000 Ang^3
#
#
#
# Elastic Constant Matrix: (Units=GPa)
#
#
# Indices 1 2 3 4 5 6 
#
# 1 180.7163 59.1447 80.8755 0.0000 0.0000 0.0000
# 2 59.1447 85.9128 35.7825 0.0000 0.0000 0.0000
# 3 80.8755 35.7825 138.9562 0.0000 0.0000 0.0000
# 4 0.0000 0.0000 0.0000 35.4363 0.0000 0.0000
# 5 0.0000 0.0000 0.0000 0.0000 -57.4003 0.0000
# 6 0.0000 0.0000 0.0000 0.0000 0.0000 34.5064
#
#
#
# Elastic Compliance Matrix: (Units=1/GPa)
#
#
# Indices 1 2 3 4 5 6 
#
# 1 0.008734 -0.004363 -0.003960 0.000000 0.000000 0.000000
# 2 -0.004363 0.015218 -0.001379 0.000000 0.000000 0.000000
# 3 -0.003960 -0.001379 0.009856 0.000000 0.000000 0.000000
# 4 0.000000 0.000000 0.000000 0.028220 0.000000 0.000000
# 5 0.000000 0.000000 0.000000 0.000000 -0.017422 0.000000
# 6 0.000000 0.000000 0.000000 0.000000 0.000000 0.028980
#
#
# Mechanical properties :
#
#
# Convention : Reuss Voigt Hill
#
# Bulk Modulus (GPa) = 69.42699 84.13230 76.77964
# Shear Modulus (GPa) = 51.12933 17.82733 34.47833
#
# Velocity S-wave (km/s) = 5.14689 3.03915 4.22652
# Velocity P-wave (km/s) = 8.44341 7.47695 7.97484
#
# Compressibility (1/GPa) = 0.01440362
#
# Stress axis : x y z
#
# Youngs Moduli (GPa) = 114.50118 65.71182 101.45888
#
# Poissons Ratio (x) = 0.28672 0.40173
# Poissons Ratio (y) = 0.49960 0.13994
# Poissons Ratio (z) = 0.45337 0.09063
#
# Static dielectric constant tensor:
#      x y z
#    x 4.034060 0.000000 0.000000 
#    y 0.000000 3.522730 0.000000 
#    z 0.000000 0.000000 3.578790 
# 
# 
# High freq. dielectric constant tensor:
#      x y z
#    x 1.772110 0.000000 0.000000 
#    y 0.000000 1.755650 0.000000 
#    z 0.000000 0.000000 1.750590 
# 
# From -- ./inp_files/18827.got.cif
#   From: 2010.03.12/outbox.cif.g09.slc.cpg/sg35_10_cif.got.tgz:18827.got - 2010.04.14 02:02:04.
