data_PCOD8173482
_publ_section_title
;
Structure prediction by ZEFSAII (Michael W. Deem and Ramdas Pophale) SiO2 
 PCOD8173482
Probable space group: C M M 2
;
_chemical_formula_sum "Si O2"
_cell_formula_units_Z 64
_cell_length_a 8.781010
_cell_length_b 30.918943
_cell_length_c 11.986031
_cell_angle_alpha 90.000000
_cell_angle_beta 90.000000
_cell_angle_gamma 90.000000
_cell_volume 3254.201995
_symmetry_space_group_name_H-M "C M M 2"
_symmetry_group_IT_number 35
_symmetry_cell_setting 'orthorhombic'
loop_
_space_group_symop_operation_xyz
x,y,z
-x,-y,z
-x,y,z
x,-y,z
1/2+x,1/2+y,z
1/2-x,1/2-y,z
1/2-x,1/2+y,z
1/2+x,1/2-y,z
loop_
_atom_site_type_symbol
_atom_site_label
_atom_site_fract_x
_atom_site_fract_y
_atom_site_fract_z
Si Si1 0.680721 0.321663 0.512870
Si Si2 0.819568 0.375327 0.137494
Si Si3 0.318817 0.205686 0.282631
Si Si4 0.677738 0.048209 0.737509
Si Si5 0.822273 0.049390 0.274762
Si Si6 0.678886 0.421069 0.515141
Si Si7 0.681193 0.793614 0.741660
Si Si8 0.180879 0.625404 0.887186
O O1 0.500000 0.315954 0.506174
O O2 0.756754 0.299611 0.406832
O O3 0.730980 0.371467 0.517963
O O4 0.746102 0.297997 0.620231
O O5 0.759179 0.334253 0.207494
O O6 0.765484 0.420212 0.189447
O O7 0.000000 0.375198 0.136163
O O8 0.752909 0.372363 0.012199
O O9 0.500000 0.208291 0.283530
O O10 0.250000 0.250000 0.231986
O O11 0.500000 0.056679 0.724326
O O12 0.747886 0.052970 0.615781
O O13 0.746676 0.082763 0.825043
O O14 0.712618 0.000000 0.782674
O O15 0.763035 0.057954 0.400019
O O16 0.000000 0.060458 0.267544
O O17 0.787989 0.000000 0.241530
O O18 0.500000 0.425847 0.527140
O O19 0.500000 0.791360 0.732809
O O20 0.750000 0.750000 0.795587
O O21 0.736562 0.832745 0.819666
O O22 0.000000 0.623544 0.891557
#
# Coordination Sequence:
#
# PCOD8173482 Si02
#       8
#     8   8   8   8   8   8   8   8
#     4  11  21  36  60  87 115 149 189 229 282 341
#     4  10  22  40  61  84 111 149 197 241 281 330
#     4  11  23  38  59  86 116 149 188 234 286 340
#     4  10  20  35  58  86 114 147 188 231 277 332
#     4  10  21  38  59  85 118 153 187 230 288 343
#     4  10  20  35  58  84 116 151 183 226 283 341
#     4  11  22  38  60  85 117 150 186 232 283 337
#     4   9  20  39  59  81 112 150 189 234 283 328
#
# _framework density 19.666879999999999
#
# number of rings (size 3 to 8) (size 9 to 14) (size 15 to 20)
#    0.000    1.750    2.500    1.875    0.000    3.500 
#    0.000    3.125    0.000    0.000    0.000    0.000 
#    0.000    0.000    0.000    0.000    0.000    0.000 
#
# Total GULP energy -396898.856850 kJ/mol
# GULP energy per Si atom -12403.089277 kJ/mol
# Density = 1.962212 g / cm^3
# Si number density = 19.666880 Si / 1000 Ang^3
#
#
#
# Elastic Constant Matrix: (Units=GPa)
#
#
# Indices 1 2 3 4 5 6 
#
# 1 38.0174 30.7312 19.7750 0.0000 0.0000 0.0000
# 2 30.7312 150.8471 67.8155 0.0000 0.0000 0.0000
# 3 19.7750 67.8155 146.8249 0.0000 0.0000 0.0000
# 4 0.0000 0.0000 0.0000 13.8836 0.0000 0.0000
# 5 0.0000 0.0000 0.0000 0.0000 12.7426 0.0000
# 6 0.0000 0.0000 0.0000 0.0000 0.0000 31.4976
#
#
#
# Elastic Compliance Matrix: (Units=1/GPa)
#
#
# Indices 1 2 3 4 5 6 
#
# 1 0.031795 -0.005745 -0.001629 0.000000 0.000000 0.000000
# 2 -0.005745 0.009405 -0.003570 0.000000 0.000000 0.000000
# 3 -0.001629 -0.003570 0.008679 0.000000 0.000000 0.000000
# 4 0.000000 0.000000 0.000000 0.072027 0.000000 0.000000
# 5 0.000000 0.000000 0.000000 0.000000 0.078477 0.000000
# 6 0.000000 0.000000 0.000000 0.000000 0.000000 0.031748
#
#
# Mechanical properties :
#
#
# Convention : Reuss Voigt Hill
#
# Bulk Modulus (GPa) = 35.72584 63.59250 49.65917
# Shear Modulus (GPa) = 18.98617 26.11594 22.55105
#
# Velocity S-wave (km/s) = 3.11044 3.64801 3.38990
# Velocity P-wave (km/s) = 5.57716 7.08159 6.37392
#
# Compressibility (1/GPa) = 0.02799094
#
# Stress axis : x y z
#
# Youngs Moduli (GPa) = 31.45145 106.33067 115.21917
#
# Poissons Ratio (x) = 0.61089 0.18766
# Poissons Ratio (y) = 0.18070 0.41133
# Poissons Ratio (z) = 0.05122 0.37960
#
# Static dielectric constant tensor:
#      x y z
#    x 3.362710 0.000000 0.000000 
#    y 0.000000 4.003930 0.000000 
#    z 0.000000 0.000000 3.684780 
# 
# 
# High freq. dielectric constant tensor:
#      x y z
#    x 1.748230 0.000000 0.000000 
#    y 0.000000 1.786790 0.000000 
#    z 0.000000 0.000000 1.763550 
# 
# From -- ./inp_files/11853.got.cif
#   From: 2010.03.12/outbox.cif.g09.slc.cpg/sg35_6_cif.got.tgz:11853.got - 2010.04.14 02:02:04.
