data_PCOD8173061
_publ_section_title
;
Structure prediction by ZEFSAII (Michael W. Deem and Ramdas Pophale) SiO2 
 PCOD8173061
Probable space group: C M M 2
;
_chemical_formula_sum "Si O2"
_cell_formula_units_Z 64
_cell_length_a 9.418552
_cell_length_b 19.337662
_cell_length_c 20.142085
_cell_angle_alpha 90.000000
_cell_angle_beta 90.000000
_cell_angle_gamma 90.000000
_cell_volume 3668.533837
_symmetry_space_group_name_H-M "C M M 2"
_symmetry_group_IT_number 35
_symmetry_cell_setting 'orthorhombic'
loop_
_space_group_symop_operation_xyz
x,y,z
-x,-y,z
-x,y,z
x,-y,z
1/2+x,1/2+y,z
1/2-x,1/2-y,z
1/2-x,1/2+y,z
1/2+x,1/2-y,z
loop_
_atom_site_type_symbol
_atom_site_label
_atom_site_fract_x
_atom_site_fract_y
_atom_site_fract_z
Si Si1 0.657416 0.082182 0.924740
Si Si2 0.665938 0.578749 0.047309
Si Si3 0.331981 0.422983 0.422590
Si Si4 0.834040 0.818552 0.311175
Si Si5 0.335068 0.317525 0.160047
Si Si6 0.663981 0.081219 0.776707
Si Si7 0.164427 0.817615 0.532619
Si Si8 0.333774 0.681171 0.685880
O O1 0.500000 0.109562 0.941195
O O2 0.702748 0.107126 0.851219
O O3 0.659265 0.000000 0.924321
O O4 0.761571 0.111035 0.981554
O O5 0.500000 0.584046 0.034762
O O6 0.714679 0.500000 0.059149
O O7 0.713496 0.620357 0.112443
O O8 0.500000 0.429816 0.422146
O O9 0.263816 0.500000 0.422539
O O10 0.281516 0.381653 0.357119
O O11 0.282236 0.382117 0.488480
O O12 0.750000 0.750000 0.332090
O O13 0.799899 0.839599 0.235398
O O14 0.000000 0.803221 0.321791
O O15 0.500000 0.300466 0.151416
O O16 0.250000 0.250000 0.138547
O O17 0.500000 0.099381 0.760428
O O18 0.771016 0.117666 0.726650
O O19 0.689796 0.000000 0.769428
O O20 0.250000 0.750000 0.510658
O O21 0.192442 0.836509 0.608934
O O22 0.000000 0.801525 0.518945
O O23 0.500000 0.690970 0.701649
O O24 0.250000 0.750000 0.706733
#
# Coordination Sequence:
#
# PCOD8173061 Si02
#       8
#     8   8   8   8   8   8   8   8
#     4   8  15  29  48  69  93 122 155 189 229 280
#     4   9  17  29  46  68  93 120 152 193 235 273
#     4   9  17  29  47  72  98 122 152 192 234 273
#     4   9  17  30  49  69  90 122 159 191 226 273
#     4   9  18  31  46  67  94 122 154 191 231 274
#     4   9  18  33  52  73  98 127 159 198 242 287
#     4   9  18  32  50  70  93 124 159 194 231 276
#     4  10  20  33  50  72  98 128 162 200 241 286
#
# _framework density 17.445661999999999
#
# number of rings (size 3 to 8) (size 9 to 14) (size 15 to 20)
#    0.000    3.000    0.000    1.500    0.000    2.750 
#    0.000    5.625    0.000    3.000    0.000    3.500 
#    0.000    0.000    0.000    0.000    0.000    0.000 
#
# Total GULP energy -396733.407273 kJ/mol
# GULP energy per Si atom -12397.918977 kJ/mol
# Density = 1.740595 g / cm^3
# Si number density = 17.445662 Si / 1000 Ang^3
#
#
#
# Elastic Constant Matrix: (Units=GPa)
#
#
# Indices 1 2 3 4 5 6 
#
# 1 57.4966 48.4851 50.4202 0.0000 0.0000 0.0000
# 2 48.4851 110.4179 75.4762 0.0000 0.0000 0.0000
# 3 50.4202 75.4762 119.2170 0.0000 0.0000 0.0000
# 4 0.0000 0.0000 0.0000 23.1435 0.0000 0.0000
# 5 0.0000 0.0000 0.0000 0.0000 21.9807 0.0000
# 6 0.0000 0.0000 0.0000 0.0000 0.0000 26.4302
#
#
#
# Elastic Compliance Matrix: (Units=1/GPa)
#
#
# Indices 1 2 3 4 5 6 
#
# 1 0.031454 -0.008318 -0.008037 0.000000 0.000000 0.000000
# 2 -0.008318 0.018166 -0.007983 0.000000 0.000000 0.000000
# 3 -0.008037 -0.007983 0.016841 0.000000 0.000000 0.000000
# 4 0.000000 0.000000 0.000000 0.043209 0.000000 0.000000
# 5 0.000000 0.000000 0.000000 0.000000 0.045494 0.000000
# 6 0.000000 0.000000 0.000000 0.000000 0.000000 0.037835
#
#
# Mechanical properties :
#
#
# Convention : Reuss Voigt Hill
#
# Bulk Modulus (GPa) = 56.22492 70.65494 63.43993
# Shear Modulus (GPa) = 20.19361 21.82756 21.01059
#
# Velocity S-wave (km/s) = 3.40592 3.54103 3.47413
# Velocity P-wave (km/s) = 6.91127 7.57010 7.24817
#
# Compressibility (1/GPa) = 0.01778571
#
# Stress axis : x y z
#
# Youngs Moduli (GPa) = 31.79197 55.04893 59.37984
#
# Poissons Ratio (x) = 0.45792 0.47721
# Poissons Ratio (y) = 0.26446 0.47400
# Poissons Ratio (z) = 0.25550 0.43943
#
# Static dielectric constant tensor:
#      x y z
#    x 3.170300 0.000000 0.000000 
#    y 0.000000 3.209250 0.000000 
#    z 0.000000 0.000000 3.448450 
# 
# 
# High freq. dielectric constant tensor:
#      x y z
#    x 1.659130 0.000000 0.000000 
#    y 0.000000 1.656790 0.000000 
#    z 0.000000 0.000000 1.685060 
# 
# From -- ./inp_files/18417.got.cif
#   From: 2010.03.12/outbox.cif.g09.slc.cpg/sg35_10_cif.got.tgz:18417.got - 2010.04.14 02:02:04.
