data_PCOD8173722
_publ_section_title
;
Structure prediction by ZEFSAII (Michael W. Deem and Ramdas Pophale) SiO2 
 PCOD8173722
Probable space group: C M M 2
;
_chemical_formula_sum "Si O2"
_cell_formula_units_Z 64
_cell_length_a 8.627901
_cell_length_b 28.551581
_cell_length_c 15.715617
_cell_angle_alpha 90.000000
_cell_angle_beta 90.000000
_cell_angle_gamma 90.000000
_cell_volume 3871.388459
_symmetry_space_group_name_H-M "C M M 2"
_symmetry_group_IT_number 35
_symmetry_cell_setting 'orthorhombic'
loop_
_space_group_symop_operation_xyz
x,y,z
-x,-y,z
-x,y,z
x,-y,z
1/2+x,1/2+y,z
1/2-x,1/2-y,z
1/2-x,1/2+y,z
1/2+x,1/2-y,z
loop_
_atom_site_type_symbol
_atom_site_label
_atom_site_fract_x
_atom_site_fract_y
_atom_site_fract_z
Si Si1 0.817446 0.201092 0.942660
Si Si2 0.180383 0.054564 0.027606
Si Si3 0.685543 0.052494 0.713890
Si Si4 0.669403 0.055458 0.531879
Si Si5 0.184290 0.553933 0.347336
Si Si6 0.681070 0.389190 0.194722
Si Si7 0.817584 0.298897 0.127148
Si Si8 0.682336 0.889580 0.874125
O O1 0.750000 0.250000 0.908250
O O2 0.768745 0.159996 0.879044
O O3 0.000000 0.205109 0.948812
O O4 0.752578 0.188681 0.035425
O O5 0.280845 0.077019 0.953139
O O6 0.000000 0.063578 0.008314
O O7 0.220053 0.000000 0.033616
O O8 0.230434 0.077740 0.116497
O O9 0.500000 0.052316 0.709792
O O10 0.752679 0.070118 0.621240
O O11 0.745434 0.086457 0.787970
O O12 0.745472 0.000000 0.734190
O O13 0.500000 0.079090 0.530530
O O14 0.749871 0.068572 0.441766
O O15 0.649390 0.000000 0.534503
O O16 0.224857 0.500000 0.327830
O O17 0.274627 0.585941 0.281755
O O18 0.000000 0.561843 0.341610
O O19 0.500000 0.378379 0.192889
O O20 0.772562 0.340199 0.191387
O O21 0.750000 0.250000 0.162067
O O22 0.000000 0.294193 0.118186
O O23 0.500000 0.880771 0.870974
#
# Coordination Sequence:
#
# PCOD8173722 Si02
#       8
#     8   8   8   8   8   8   8   8
#     4  11  21  35  52  70  93 123 158 199 243 286
#     4  10  21  34  45  60  91 134 170 197 230 275
#     4   8  14  25  43  69  99 128 160 198 238 281
#     4   7  11  23  43  66  93 124 158 199 243 282
#     4   9  17  29  47  71  97 127 165 205 242 284
#     4  11  21  33  48  68  96 132 165 196 237 285
#     4  11  21  35  54  74  94 120 156 200 243 285
#     4  11  20  30  47  72  97 126 162 200 239 284
#
# _framework density 16.531535999999999
#
# number of rings (size 3 to 8) (size 9 to 14) (size 15 to 20)
#    0.000    2.250    1.250    6.000    0.000    2.000 
#    0.000    0.000    0.000    1.500    0.000    4.375 
#    0.000    4.000    0.000    0.000    0.000    0.000 
#
# Total GULP energy -396636.628432 kJ/mol
# GULP energy per Si atom -12394.894639 kJ/mol
# Density = 1.649391 g / cm^3
# Si number density = 16.531536 Si / 1000 Ang^3
#
#
#
# Elastic Constant Matrix: (Units=GPa)
#
#
# Indices 1 2 3 4 5 6 
#
# 1 74.6730 34.8173 30.8596 0.0000 0.0000 0.0000
# 2 34.8173 106.4855 58.5587 0.0000 0.0000 0.0000
# 3 30.8596 58.5587 129.4109 0.0000 0.0000 0.0000
# 4 0.0000 0.0000 0.0000 11.3305 0.0000 0.0000
# 5 0.0000 0.0000 0.0000 0.0000 10.9852 0.0000
# 6 0.0000 0.0000 0.0000 0.0000 0.0000 24.9097
#
#
#
# Elastic Compliance Matrix: (Units=1/GPa)
#
#
# Indices 1 2 3 4 5 6 
#
# 1 0.016161 -0.004213 -0.001947 0.000000 0.000000 0.000000
# 2 -0.004213 0.013600 -0.005150 0.000000 0.000000 0.000000
# 3 -0.001947 -0.005150 0.010522 0.000000 0.000000 0.000000
# 4 0.000000 0.000000 0.000000 0.088257 0.000000 0.000000
# 5 0.000000 0.000000 0.000000 0.000000 0.091032 0.000000
# 6 0.000000 0.000000 0.000000 0.000000 0.000000 0.040145
#
#
# Mechanical properties :
#
#
# Convention : Reuss Voigt Hill
#
# Bulk Modulus (GPa) = 56.61516 62.11561 59.36539
# Shear Modulus (GPa) = 17.34755 21.86732 19.60743
#
# Velocity S-wave (km/s) = 3.24290 3.64093 3.44766
# Velocity P-wave (km/s) = 6.95291 7.43846 7.19978
#
# Compressibility (1/GPa) = 0.01766311
#
# Stress axis : x y z
#
# Youngs Moduli (GPa) = 61.87754 73.52735 95.04046
#
# Poissons Ratio (x) = 0.30979 0.18507
# Poissons Ratio (y) = 0.26071 0.48941
# Poissons Ratio (z) = 0.12049 0.37863
#
# Static dielectric constant tensor:
#      x y z
#    x 2.934640 0.000000 0.000000 
#    y 0.000000 3.097960 0.000000 
#    z 0.000000 0.000000 3.372700 
# 
# 
# High freq. dielectric constant tensor:
#      x y z
#    x 1.623200 0.000000 0.000000 
#    y 0.000000 1.620880 0.000000 
#    z 0.000000 0.000000 1.629940 
# 
# From -- ./inp_files/16229.got.cif
#   From: 2010.03.12/outbox.cif.g09.slc.cpg/sg35_9_cif.got.tgz:16229.got - 2010.04.14 02:02:04.
