data_PCOD8173912
_publ_section_title
;
Structure prediction by ZEFSAII (Michael W. Deem and Ramdas Pophale) SiO2 
 PCOD8173912
Probable space group: C M M 2
;
_chemical_formula_sum "Si O2"
_cell_formula_units_Z 64
_cell_length_a 19.147351
_cell_length_b 18.424096
_cell_length_c 9.109173
_cell_angle_alpha 90.000000
_cell_angle_beta 90.000000
_cell_angle_gamma 90.000000
_cell_volume 3213.466943
_symmetry_space_group_name_H-M "C M M 2"
_symmetry_group_IT_number 35
_symmetry_cell_setting 'orthorhombic'
loop_
_space_group_symop_operation_xyz
x,y,z
-x,-y,z
-x,y,z
x,-y,z
1/2+x,1/2+y,z
1/2-x,1/2-y,z
1/2-x,1/2+y,z
1/2+x,1/2-y,z
loop_
_atom_site_type_symbol
_atom_site_label
_atom_site_fract_x
_atom_site_fract_y
_atom_site_fract_z
Si Si1 0.578595 0.833892 0.269250
Si Si2 0.077928 0.335324 0.747692
Si Si3 0.673820 0.718935 0.434047
Si Si4 0.141050 0.419033 0.490968
Si Si5 0.874731 0.582028 0.996238
Si Si6 0.217341 0.918598 0.307435
Si Si7 0.720307 0.581134 0.961481
Si Si8 0.176532 0.786511 0.778481
O O1 0.500000 0.810639 0.229535
O O2 0.616160 0.769990 0.360055
O O3 0.578258 0.904176 0.376597
O O4 0.619713 0.858049 0.123935
O O5 0.132587 0.360705 0.621628
O O6 0.112140 0.265020 0.827467
O O7 0.000000 0.318820 0.685591
O O8 0.069661 0.398153 0.869968
O O9 0.750000 0.750000 0.395974
O O10 0.661633 0.640012 0.361573
O O11 0.664629 0.703208 0.605758
O O12 0.136178 0.500000 0.554991
O O13 0.212144 0.404861 0.401257
O O14 0.887485 0.500000 0.056453
O O15 0.800590 0.587537 0.911522
O O16 0.190020 0.000000 0.337090
O O17 0.226414 0.904927 0.135182
O O18 0.690857 0.500000 0.928822
O O19 0.672705 0.638100 0.870696
O O20 0.250000 0.750000 0.817067
#
# Coordination Sequence:
#
# PCOD8173912 Si02
#       8
#     8   8   8   8   8   8   8   8
#     4  12  24  38  59  90 125 165 209 255 307 374
#     4  12  25  40  57  87 127 169 212 257 310 377
#     4  11  21  38  60  87 119 158 202 255 307 364
#     4  11  21  38  61  87 123 167 207 246 301 368
#     4  11  23  40  59  86 125 168 211 255 306 373
#     4  10  21  38  62  90 117 151 202 256 308 365
#     4  10  21  38  62  90 118 153 203 254 306 364
#     4  11  22  38  60  87 118 159 204 254 309 365
#
# _framework density 19.916184999999999
#
# number of rings (size 3 to 8) (size 9 to 14) (size 15 to 20)
#    0.000    1.000    5.000    2.250    1.750    4.000 
#    0.000    0.000    0.000    0.750    0.000    3.500 
#    0.000    0.000    0.000    0.000    0.000    0.000 
#
# Total GULP energy -396515.624456 kJ/mol
# GULP energy per Si atom -12391.113264 kJ/mol
# Density = 1.987085 g / cm^3
# Si number density = 19.916185 Si / 1000 Ang^3
#
#
#
# Elastic Constant Matrix: (Units=GPa)
#
#
# Indices 1 2 3 4 5 6 
#
# 1 67.5089 54.5448 24.8088 0.0000 0.0000 0.0000
# 2 54.5448 144.7416 62.2065 0.0000 0.0000 0.0000
# 3 24.8088 62.2065 97.9501 0.0000 0.0000 0.0000
# 4 0.0000 0.0000 0.0000 42.7300 0.0000 0.0000
# 5 0.0000 0.0000 0.0000 0.0000 19.7361 0.0000
# 6 0.0000 0.0000 0.0000 0.0000 0.0000 19.5398
#
#
#
# Elastic Compliance Matrix: (Units=1/GPa)
#
#
# Indices 1 2 3 4 5 6 
#
# 1 0.021309 -0.007855 -0.000409 0.000000 0.000000 0.000000
# 2 -0.007855 0.012398 -0.005884 0.000000 0.000000 0.000000
# 3 -0.000409 -0.005884 0.014050 0.000000 0.000000 0.000000
# 4 0.000000 0.000000 0.000000 0.023403 0.000000 0.000000
# 5 0.000000 0.000000 0.000000 0.000000 0.050669 0.000000
# 6 0.000000 0.000000 0.000000 0.000000 0.000000 0.051178
#
#
# Mechanical properties :
#
#
# Convention : Reuss Voigt Hill
#
# Bulk Modulus (GPa) = 51.38342 65.92454 58.65398
# Shear Modulus (GPa) = 24.06297 27.64387 25.85342
#
# Velocity S-wave (km/s) = 3.47970 3.72964 3.60684
# Velocity P-wave (km/s) = 6.48076 7.19165 6.84544
#
# Compressibility (1/GPa) = 0.01946153
#
# Stress axis : x y z
#
# Youngs Moduli (GPa) = 46.92781 80.66045 71.17548
#
# Poissons Ratio (x) = 0.63355 0.02911
# Poissons Ratio (y) = 0.36859 0.41881
# Poissons Ratio (z) = 0.01919 0.47462
#
# Static dielectric constant tensor:
#      x y z
#    x 3.257220 0.000000 0.000000 
#    y 0.000000 3.832690 0.000000 
#    z 0.000000 0.000000 3.675990 
# 
# 
# High freq. dielectric constant tensor:
#      x y z
#    x 1.728980 0.000000 0.000000 
#    y 0.000000 1.780960 0.000000 
#    z 0.000000 0.000000 1.790150 
# 
# From -- ./inp_files/9453.got.cif
#   From: 2010.03.12/outbox.cif.g09.slc.cpg/sg35_5_cif.got.tgz:9453.got - 2010.04.14 02:02:04.
