data_PCOD8173079
_publ_section_title
;
Structure prediction by ZEFSAII (Michael W. Deem and Ramdas Pophale) SiO2 
 PCOD8173079
Probable space group: C M M 2
;
_chemical_formula_sum "Si O2"
_cell_formula_units_Z 64
_cell_length_a 28.251360
_cell_length_b 8.597170
_cell_length_c 15.379064
_cell_angle_alpha 90.000000
_cell_angle_beta 90.000000
_cell_angle_gamma 90.000000
_cell_volume 3735.293895
_symmetry_space_group_name_H-M "C M M 2"
_symmetry_group_IT_number 35
_symmetry_cell_setting 'orthorhombic'
loop_
_space_group_symop_operation_xyz
x,y,z
-x,-y,z
-x,y,z
x,-y,z
1/2+x,1/2+y,z
1/2-x,1/2-y,z
1/2-x,1/2+y,z
1/2+x,1/2-y,z
loop_
_atom_site_type_symbol
_atom_site_label
_atom_site_fract_x
_atom_site_fract_y
_atom_site_fract_z
Si Si1 0.053591 0.680924 0.076090
Si Si2 0.555173 0.179704 0.399554
Si Si3 0.298398 0.318904 0.317475
Si Si4 0.556137 0.325586 0.899665
Si Si5 0.396025 0.322301 0.236006
Si Si6 0.894125 0.181136 0.562715
Si Si7 0.300479 0.816130 0.504950
Si Si8 0.555517 0.178997 0.722446
O O1 0.053408 0.500000 0.056541
O O2 0.086096 0.714247 0.158772
O O3 0.000000 0.739427 0.095427
O O4 0.076111 0.762874 0.991284
O O5 0.500000 0.216115 0.405167
O O6 0.577341 0.285299 0.325046
O O7 0.577678 0.219904 0.491755
O O8 0.565054 0.000000 0.377689
O O9 0.291836 0.500000 0.341234
O O10 0.250000 0.250000 0.276967
O O11 0.339982 0.293559 0.247944
O O12 0.311314 0.226891 0.405076
O O13 0.500000 0.318429 0.905316
O O14 0.574685 0.500000 0.884894
O O15 0.573489 0.219997 0.819450
O O16 0.406536 0.500000 0.211255
O O17 0.839851 0.236948 0.565584
O O18 0.916796 0.211197 0.656298
O O19 0.897166 0.000000 0.539309
O O20 0.250000 0.750000 0.534888
O O21 0.301751 0.000000 0.516858
O O22 0.500000 0.214469 0.712962
O O23 0.567030 0.000000 0.702657
#
# Coordination Sequence:
#
# PCOD8173079 Si02
#       8
#     8   8   8   8   8   8   8   8
#     4  10  20  33  50  73 102 136 173 211 252 300
#     4  11  23  36  49  68  98 137 176 210 249 299
#     4  10  20  34  52  74  98 128 167 212 258 305
#     4   9  17  31  51  74 100 131 168 211 257 300
#     4  11  22  34  50  73 101 133 171 210 253 304
#     4  12  23  35  51  74 102 135 174 211 253 303
#     4  11  21  35  55  75  99 130 167 213 260 304
#     4  10  20  34  52  75 104 137 173 212 255 303
#
# _framework density 17.133859999999999
#
# number of rings (size 3 to 8) (size 9 to 14) (size 15 to 20)
#    0.000    1.500    1.250    6.000    0.000    8.500 
#    0.000    0.000    0.000    0.000    0.000    0.875 
#    0.000    2.000    0.000    0.000    0.000    0.000 
#
# Total GULP energy -396928.150694 kJ/mol
# GULP energy per Si atom -12404.004709 kJ/mol
# Density = 1.709486 g / cm^3
# Si number density = 17.133860 Si / 1000 Ang^3
#
#
#
# Elastic Constant Matrix: (Units=GPa)
#
#
# Indices 1 2 3 4 5 6 
#
# 1 82.3592 32.4742 34.6310 0.0000 0.0000 0.0000
# 2 32.4742 69.2469 12.2918 0.0000 0.0000 0.0000
# 3 34.6310 12.2918 87.5977 0.0000 0.0000 0.0000
# 4 0.0000 0.0000 0.0000 32.2246 0.0000 0.0000
# 5 0.0000 0.0000 0.0000 0.0000 4.0528 0.0000
# 6 0.0000 0.0000 0.0000 0.0000 0.0000 23.8020
#
#
#
# Elastic Compliance Matrix: (Units=1/GPa)
#
#
# Indices 1 2 3 4 5 6 
#
# 1 0.017429 -0.007128 -0.005890 0.000000 0.000000 0.000000
# 2 -0.007128 0.017725 0.000331 0.000000 0.000000 0.000000
# 3 -0.005890 0.000331 0.013698 0.000000 0.000000 0.000000
# 4 0.000000 0.000000 0.000000 0.031032 0.000000 0.000000
# 5 0.000000 0.000000 0.000000 0.000000 0.246746 0.000000
# 6 0.000000 0.000000 0.000000 0.000000 0.000000 0.042013
#
#
# Mechanical properties :
#
#
# Convention : Reuss Voigt Hill
#
# Bulk Modulus (GPa) = 42.59420 44.22199 43.40809
# Shear Modulus (GPa) = 12.44260 22.66964 17.55612
#
# Velocity S-wave (km/s) = 2.69773 3.64138 3.20448
# Velocity P-wave (km/s) = 5.88365 6.59888 6.25150
#
# Compressibility (1/GPa) = 0.02347738
#
# Stress axis : x y z
#
# Youngs Moduli (GPa) = 57.37440 56.41685 73.00282
#
# Poissons Ratio (x) = 0.40215 0.43001
# Poissons Ratio (y) = 0.40897 -0.02415
# Poissons Ratio (z) = 0.33795 -0.01866
#
# Static dielectric constant tensor:
#      x y z
#    x 3.215080 0.000000 0.000000 
#    y 0.000000 3.361210 0.000000 
#    z 0.000000 0.000000 3.116970 
# 
# 
# High freq. dielectric constant tensor:
#      x y z
#    x 1.641520 0.000000 0.000000 
#    y 0.000000 1.681730 0.000000 
#    z 0.000000 0.000000 1.645620 
# 
# From -- ./inp_files/17777.got.cif
#   From: 2010.03.12/outbox.cif.g09.slc.cpg/sg35_9_cif.got.tgz:17777.got - 2010.04.14 02:02:04.
