data_PCOD8173998
_publ_section_title
;
Structure prediction by ZEFSAII (Michael W. Deem and Ramdas Pophale) SiO2 
 PCOD8173998
Probable space group: C M M 2
;
_chemical_formula_sum "Si O2"
_cell_formula_units_Z 56
_cell_length_a 9.271746
_cell_length_b 21.438446
_cell_length_c 14.392770
_cell_angle_alpha 90.000000
_cell_angle_beta 90.000000
_cell_angle_gamma 90.000000
_cell_volume 2860.877173
_symmetry_space_group_name_H-M "C M M 2"
_symmetry_group_IT_number 35
_symmetry_cell_setting 'orthorhombic'
loop_
_space_group_symop_operation_xyz
x,y,z
-x,-y,z
-x,y,z
x,-y,z
1/2+x,1/2+y,z
1/2-x,1/2-y,z
1/2-x,1/2+y,z
1/2+x,1/2-y,z
loop_
_atom_site_type_symbol
_atom_site_label
_atom_site_fract_x
_atom_site_fract_y
_atom_site_fract_z
Si Si1 0.163006 0.928137 0.627020
Si Si2 0.835932 0.617548 0.120435
Si Si3 0.169231 0.071750 0.841923
Si Si4 0.838270 0.310694 0.296252
Si Si5 0.166733 0.000000 0.134242
Si Si6 0.832565 0.685924 0.938370
Si Si7 0.835859 0.395926 0.459543
Si Si8 0.831263 0.000000 0.352028
O O1 0.206145 0.919932 0.733477
O O2 0.269587 0.887417 0.562377
O O3 0.000000 0.905123 0.610464
O O4 0.178921 0.000000 0.596163
O O5 0.781921 0.637768 0.222922
O O6 0.735485 0.560856 0.086727
O O7 0.000000 0.593096 0.123648
O O8 0.820407 0.675170 0.048959
O O9 0.263798 0.124185 0.892177
O O10 0.000000 0.083547 0.860473
O O11 0.208425 0.000000 0.871871
O O12 0.750000 0.250000 0.280612
O O13 0.829964 0.331062 0.403803
O O14 0.000000 0.294607 0.266795
O O15 0.201363 0.000000 0.243171
O O16 0.000000 0.000000 0.109607
O O17 0.750000 0.750000 0.911010
O O18 0.000000 0.691990 0.907364
O O19 0.738816 0.440336 0.397935
O O20 0.000000 0.420545 0.467456
O O21 0.000000 0.000000 0.373555
#
# Coordination Sequence:
#
# PCOD8173998 Si02
#       8
#     8   8   8   8   4   8   8   4
#     4   9  18  34  57  85 116 150 187 231 289 348
#     4  10  22  40  59  82 118 155 188 237 296 349
#     4   9  20  40  64  90 123 158 193 244 306 361
#     4  10  22  38  55  76 108 151 195 235 282 335
#     4  11  23  35  55  88 117 152 197 239 286 342
#     4  11  24  41  64  90 118 157 202 249 301 360
#     4  11  21  33  54  83 114 150 188 232 281 332
#     4  11  21  33  51  80 113 148 187 227 274 328
#
# _framework density 19.574414999999998
#
# number of rings (size 3 to 8) (size 9 to 14) (size 15 to 20)
#    0.000    1.857    2.143    2.571    1.000    4.286 
#    0.000    2.143    0.000    1.714    0.000    0.000 
#    0.000    0.000    0.000    0.000    0.000    0.000 
#
# Total GULP energy -347127.368177 kJ/mol
# GULP energy per Si atom -12397.406006 kJ/mol
# Density = 1.952986 g / cm^3
# Si number density = 19.574415 Si / 1000 Ang^3
#
#
#
# Elastic Constant Matrix: (Units=GPa)
#
#
# Indices 1 2 3 4 5 6 
#
# 1 110.7468 65.0402 40.3386 0.0000 0.0000 0.0000
# 2 65.0402 113.4590 31.7893 0.0000 0.0000 0.0000
# 3 40.3386 31.7893 70.1786 0.0000 0.0000 0.0000
# 4 0.0000 0.0000 0.0000 21.1807 0.0000 0.0000
# 5 0.0000 0.0000 0.0000 0.0000 32.4599 0.0000
# 6 0.0000 0.0000 0.0000 0.0000 0.0000 36.6909
#
#
#
# Elastic Compliance Matrix: (Units=1/GPa)
#
#
# Indices 1 2 3 4 5 6 
#
# 1 0.015272 -0.007210 -0.005512 0.000000 0.000000 0.000000
# 2 -0.007210 0.013499 -0.001970 0.000000 0.000000 0.000000
# 3 -0.005512 -0.001970 0.018310 0.000000 0.000000 0.000000
# 4 0.000000 0.000000 0.000000 0.047213 0.000000 0.000000
# 5 0.000000 0.000000 0.000000 0.000000 0.030807 0.000000
# 6 0.000000 0.000000 0.000000 0.000000 0.000000 0.027255
#
#
# Mechanical properties :
#
#
# Convention : Reuss Voigt Hill
#
# Bulk Modulus (GPa) = 56.51078 63.19116 59.85097
# Shear Modulus (GPa) = 26.64679 28.54738 27.59709
#
# Velocity S-wave (km/s) = 3.69359 3.82305 3.75888
# Velocity P-wave (km/s) = 6.86459 7.20001 7.03430
#
# Compressibility (1/GPa) = 0.01769574
#
# Stress axis : x y z
#
# Youngs Moduli (GPa) = 65.48022 74.07954 54.61400
#
# Poissons Ratio (x) = 0.53412 0.30104
# Poissons Ratio (y) = 0.47212 0.10761
# Poissons Ratio (z) = 0.36094 0.14596
#
# Static dielectric constant tensor:
#      x y z
#    x 3.595260 0.000000 0.000000 
#    y 0.000000 3.306050 0.000000 
#    z 0.000000 0.000000 3.659920 
# 
# 
# High freq. dielectric constant tensor:
#      x y z
#    x 1.766160 0.000000 0.000000 
#    y 0.000000 1.742410 0.000000 
#    z 0.000000 0.000000 1.767780 
# 
# From -- ./inp_files/15673.got.cif
#   From: 2010.03.12/outbox.cif.g09.slc.cpg/sg35_8_cif.got.tgz:15673.got - 2010.04.14 02:02:04.
