data_PCOD8173822
_publ_section_title
;
Structure prediction by ZEFSAII (Michael W. Deem and Ramdas Pophale) SiO2 
 PCOD8173822
Probable space group: C M M 2
;
_chemical_formula_sum "Si O2"
_cell_formula_units_Z 56
_cell_length_a 21.132233
_cell_length_b 8.787942
_cell_length_c 14.512988
_cell_angle_alpha 90.000000
_cell_angle_beta 90.000000
_cell_angle_gamma 90.000000
_cell_volume 2695.190136
_symmetry_space_group_name_H-M "C M M 2"
_symmetry_group_IT_number 35
_symmetry_cell_setting 'orthorhombic'
loop_
_space_group_symop_operation_xyz
x,y,z
-x,-y,z
-x,y,z
x,-y,z
1/2+x,1/2+y,z
1/2-x,1/2-y,z
1/2-x,1/2+y,z
1/2+x,1/2-y,z
loop_
_atom_site_type_symbol
_atom_site_label
_atom_site_fract_x
_atom_site_fract_y
_atom_site_fract_z
Si Si1 0.000000 0.830345 0.117330
Si Si2 0.429883 0.680545 0.829796
Si Si3 0.814119 0.180554 0.951958
Si Si4 0.370952 0.179450 0.120384
Si Si5 0.070117 0.180545 0.622571
Si Si6 0.870952 0.679450 0.331983
Si Si7 0.685881 0.319446 0.500409
Si Si8 0.000000 0.830345 0.335037
O O1 0.938632 0.739369 0.084582
O O2 0.000000 0.843737 0.226183
O O3 0.000000 0.000000 0.072752
O O4 0.500000 0.731069 0.865733
O O5 0.425998 0.500000 0.828763
O O6 0.374126 0.745069 0.894540
O O7 0.419565 0.742911 0.726183
O O8 0.750000 0.250000 0.908602
O O9 0.810395 0.000000 0.950256
O O10 0.818715 0.239827 0.057148
O O11 0.358329 0.226626 0.226183
O O12 0.368243 0.000000 0.107713
O O13 0.125874 0.245069 0.557827
O O14 0.000000 0.231069 0.586634
O O15 0.074002 0.000000 0.623604
O O16 0.868243 0.500000 0.344654
O O17 0.818715 0.760173 0.395219
O O18 0.938632 0.739369 0.367785
O O19 0.689605 0.500000 0.502111
O O20 0.750000 0.250000 0.543765
O O21 0.000000 0.000000 0.379615
#
# Coordination Sequence:
#
# PCOD8173822 Si02
#       8
#     4   8   8   8   8   8   8   4
#     4   9  17  31  53  81 110 143 188 237 285 340
#     4   8  16  34  60  88 115 145 187 238 290 346
#     4  11  23  37  57  85 118 155 196 240 292 350
#     4  10  21  37  56  80 114 155 197 243 293 341
#     4   8  16  34  60  88 115 145 187 238 290 346
#     4  10  21  37  56  80 114 155 197 243 293 341
#     4  11  23  37  57  85 118 155 196 240 292 350
#     4   9  17  31  53  81 110 143 188 237 285 340
#
# _framework density 20.777754999999999
#
# number of rings (size 3 to 8) (size 9 to 14) (size 15 to 20)
#    0.000    2.429    0.000    3.000    2.000    4.571 
#    0.000    0.000    0.000    2.571    0.000    8.000 
#    0.000    0.000    0.000    0.000    0.000    0.000 
#
# Total GULP energy -347146.440464 kJ/mol
# GULP energy per Si atom -12398.087159 kJ/mol
# Density = 2.073046 g / cm^3
# Si number density = 20.777755 Si / 1000 Ang^3
#
#
#
# Elastic Constant Matrix: (Units=GPa)
#
#
# Indices 1 2 3 4 5 6 
#
# 1 167.9950 38.7557 72.4718 0.0000 0.0000 0.0000
# 2 38.7557 69.5604 29.1721 0.0000 0.0000 0.0000
# 3 72.4718 29.1721 84.6247 0.0000 0.0000 0.0000
# 4 0.0000 0.0000 0.0000 13.2208 0.0000 0.0000
# 5 0.0000 0.0000 0.0000 0.0000 65.0766 0.0000
# 6 0.0000 0.0000 0.0000 0.0000 0.0000 36.4397
#
#
#
# Elastic Compliance Matrix: (Units=1/GPa)
#
#
# Indices 1 2 3 4 5 6 
#
# 1 0.009733 -0.002253 -0.007559 0.000000 0.000000 0.000000
# 2 -0.002253 0.017327 -0.004044 0.000000 0.000000 0.000000
# 3 -0.007559 -0.004044 0.019684 0.000000 0.000000 0.000000
# 4 0.000000 0.000000 0.000000 0.075638 0.000000 0.000000
# 5 0.000000 0.000000 0.000000 0.000000 0.015367 0.000000
# 6 0.000000 0.000000 0.000000 0.000000 0.000000 0.027443
#
#
# Mechanical properties :
#
#
# Convention : Reuss Voigt Hill
#
# Bulk Modulus (GPa) = 52.53864 66.99770 59.76817
# Shear Modulus (GPa) = 25.09457 35.06613 30.08035
#
# Velocity S-wave (km/s) = 3.47906 4.11259 3.80902
# Velocity P-wave (km/s) = 6.44045 7.40717 6.94066
#
# Compressibility (1/GPa) = 0.01903361
#
# Stress axis : x y z
#
# Youngs Moduli (GPa) = 102.74281 57.71341 50.80259
#
# Poissons Ratio (x) = 0.13002 0.38400
# Poissons Ratio (y) = 0.23146 0.20543
# Poissons Ratio (z) = 0.77660 0.23338
#
# Static dielectric constant tensor:
#      x y z
#    x 4.048490 0.000000 0.000000 
#    y 0.000000 3.432280 0.000000 
#    z 0.000000 0.000000 3.833560 
# 
# 
# High freq. dielectric constant tensor:
#      x y z
#    x 1.820180 0.000000 0.000000 
#    y 0.000000 1.784710 0.000000 
#    z 0.000000 0.000000 1.807250 
# 
# From -- ./inp_files/17463.got.cif
#   From: 2010.03.12/outbox.cif.g09.slc.cpg/sg35_9_cif.got.tgz:17463.got - 2010.04.14 02:02:04.
