data_PCOD8173219
_publ_section_title
;
Structure prediction by ZEFSAII (Michael W. Deem and Ramdas Pophale) SiO2 
 PCOD8173219
Probable space group: C M M 2
;
_chemical_formula_sum "Si O2"
_cell_formula_units_Z 48
_cell_length_a 17.728547
_cell_length_b 9.158003
_cell_length_c 15.627112
_cell_angle_alpha 90.000000
_cell_angle_beta 90.000000
_cell_angle_gamma 90.000000
_cell_volume 2537.188004
_symmetry_space_group_name_H-M "C M M 2"
_symmetry_group_IT_number 35
_symmetry_cell_setting 'orthorhombic'
loop_
_space_group_symop_operation_xyz
x,y,z
-x,-y,z
-x,y,z
x,-y,z
1/2+x,1/2+y,z
1/2-x,1/2-y,z
1/2-x,1/2+y,z
1/2+x,1/2-y,z
loop_
_atom_site_type_symbol
_atom_site_label
_atom_site_fract_x
_atom_site_fract_y
_atom_site_fract_z
Si Si1 0.089544 0.835505 0.812630
Si Si2 0.410181 0.664703 0.624892
Si Si3 0.410011 0.835671 0.462452
Si Si4 0.329621 0.173815 0.147080
Si Si5 0.089462 0.165401 0.296894
Si Si6 0.914326 0.328693 0.976408
O O1 0.117731 0.780737 0.718932
O O2 0.121973 0.738257 0.889966
O O3 0.000000 0.826786 0.814044
O O4 0.117435 0.000000 0.827810
O O5 0.500000 0.666057 0.622282
O O6 0.381525 0.500000 0.608133
O O7 0.377616 0.770026 0.551278
O O8 0.500000 0.835331 0.463519
O O9 0.379741 0.736591 0.384630
O O10 0.379061 0.000000 0.451948
O O11 0.250000 0.250000 0.158721
O O12 0.384958 0.233601 0.219252
O O13 0.322342 0.000000 0.155813
O O14 0.363878 0.221078 0.056043
O O15 0.000000 0.163260 0.297121
O O16 0.121150 0.000000 0.288985
O O17 0.913314 0.500000 0.964813
O O18 0.000000 0.273010 0.991632
#
# Coordination Sequence:
#
# PCOD8173219 Si02
#       6
#     8   8   8   8   8   8
#     4   8  14  24  40  64  94 127 161 197 237 283
#     4   8  13  22  36  58  92 129 160 193 236 284
#     4   9  16  25  40  65  96 129 163 199 240 286
#     4  11  23  38  54  73  99 130 166 208 254 302
#     4  10  20  34  53  76 101 131 167 206 249 298
#     4   9  18  32  50  72  98 128 161 200 246 293
#
# _framework density 18.918583000000002
#
# number of rings (size 3 to 8) (size 9 to 14) (size 15 to 20)
#    0.000    2.833    0.000    3.000    0.000    5.667 
#    0.000    5.000    0.000    0.000    0.000    1.167 
#    0.000    5.333    0.000    0.000    0.000    0.000 
#
# Total GULP energy -297492.360604 kJ/mol
# GULP energy per Si atom -12395.515025 kJ/mol
# Density = 1.887552 g / cm^3
# Si number density = 18.918583 Si / 1000 Ang^3
#
#
#
# Elastic Constant Matrix: (Units=GPa)
#
#
# Indices 1 2 3 4 5 6 
#
# 1 12.6933 15.9992 13.0485 0.0000 0.0000 0.0000
# 2 15.9992 97.5906 71.2907 0.0000 0.0000 0.0000
# 3 13.0485 71.2907 169.2927 0.0000 0.0000 0.0000
# 4 0.0000 0.0000 0.0000 40.4408 0.0000 0.0000
# 5 0.0000 0.0000 0.0000 0.0000 -0.1618 0.0000
# 6 0.0000 0.0000 0.0000 0.0000 0.0000 16.3597
#
#
#
# Elastic Compliance Matrix: (Units=1/GPa)
#
#
# Indices 1 2 3 4 5 6 
#
# 1 0.099458 -0.015462 -0.001155 0.000000 0.000000 0.000000
# 2 -0.015462 0.017203 -0.006053 0.000000 0.000000 0.000000
# 3 -0.001155 -0.006053 0.008545 0.000000 0.000000 0.000000
# 4 0.000000 0.000000 0.000000 0.024728 0.000000 0.000000
# 5 0.000000 0.000000 0.000000 0.000000 -6.180934 0.000000
# 6 0.000000 0.000000 0.000000 0.000000 0.000000 0.061126
#
#
# Mechanical properties :
#
#
# Convention : Reuss Voigt Hill
#
# Bulk Modulus (GPa) = 12.52077 53.36150 32.94113
# Shear Modulus (GPa) = -0.84776 23.27695 11.21459
#
# Velocity S-wave (km/s) = -0.67014 3.51148 2.43735
# Velocity P-wave (km/s) = 2.45639 6.68638 5.03694
#
# Compressibility (1/GPa) = 0.07986729
#
# Stress axis : x y z
#
# Youngs Moduli (GPa) = 10.05452 58.12842 117.03035
#
# Poissons Ratio (x) = 0.89877 0.13514
# Poissons Ratio (y) = 0.15546 0.70835
# Poissons Ratio (z) = 0.01161 0.35184
#
# Static dielectric constant tensor:
#      x y z
#    x 2.868110 0.000000 0.000000 
#    y 0.000000 3.645390 0.000000 
#    z 0.000000 0.000000 3.932570 
# 
# 
# High freq. dielectric constant tensor:
#      x y z
#    x 1.667940 0.000000 0.000000 
#    y 0.000000 1.738630 0.000000 
#    z 0.000000 0.000000 1.756960 
# 
# From -- ./inp_files/15161.got.cif
#   From: 2010.03.12/outbox.cif.g09.slc.cpg/sg35_8_cif.got.tgz:15161.got - 2010.04.14 02:02:04.
