data_PCOD8173095
_publ_section_title
;
Structure prediction by ZEFSAII (Michael W. Deem and Ramdas Pophale) SiO2 
 PCOD8173095
Probable space group: C M M 2
;
_chemical_formula_sum "Si O2"
_cell_formula_units_Z 64
_cell_length_a 29.120915
_cell_length_b 9.365735
_cell_length_c 12.380833
_cell_angle_alpha 90.000000
_cell_angle_beta 90.000000
_cell_angle_gamma 90.000000
_cell_volume 3376.733199
_symmetry_space_group_name_H-M "C M M 2"
_symmetry_group_IT_number 35
_symmetry_cell_setting 'orthorhombic'
loop_
_space_group_symop_operation_xyz
x,y,z
-x,-y,z
-x,y,z
x,-y,z
1/2+x,1/2+y,z
1/2-x,1/2-y,z
1/2-x,1/2+y,z
1/2+x,1/2-y,z
loop_
_atom_site_type_symbol
_atom_site_label
_atom_site_fract_x
_atom_site_fract_y
_atom_site_fract_z
Si Si1 0.290734 0.661544 0.651820
Si Si2 0.431610 0.339852 0.502943
Si Si3 0.950437 0.334978 0.298467
Si Si4 0.648140 0.167020 0.229915
Si Si5 0.798876 0.670677 0.013384
Si Si6 0.828402 0.159681 0.431401
Si Si7 0.050648 0.168753 0.740897
Si Si8 0.357671 0.335637 0.840669
O O1 0.273985 0.500000 0.649034
O O2 0.250000 0.750000 0.708109
O O3 0.297093 0.717899 0.529104
O O4 0.336764 0.675806 0.721064
O O5 0.452011 0.500000 0.495964
O O6 0.455124 0.245600 0.411395
O O7 0.377989 0.342656 0.483918
O O8 0.442525 0.269919 0.619843
O O9 0.943107 0.500000 0.325689
O O10 0.905899 0.282878 0.228764
O O11 0.000000 0.311257 0.237494
O O12 0.675640 0.239434 0.327893
O O13 0.651926 0.000000 0.248212
O O14 0.673117 0.212735 0.120603
O O15 0.791658 0.500000 0.001744
O O16 0.750000 0.750000 0.013654
O O17 0.830373 0.728704 0.917403
O O18 0.814140 0.000000 0.395313
O O19 0.089671 0.220041 0.826175
O O20 0.000000 0.212876 0.784445
O O21 0.056364 0.000000 0.731561
O O22 0.354891 0.500000 0.883478
#
# Coordination Sequence:
#
# PCOD8173095 Si02
#       8
#     8   8   8   8   8   8   8   8
#     4  10  20  33  50  76 108 140 173 213 265 323
#     4   9  15  27  48  75 107 144 181 215 252 302
#     4   9  17  30  49  75 108 144 178 212 257 313
#     4   9  20  37  55  77 106 138 176 220 266 318
#     4  11  24  42  62  82 103 134 182 234 282 331
#     4   9  17  31  51  76 109 142 173 213 262 314
#     4   9  16  28  51  81 111 146 184 219 262 316
#     4  10  20  37  58  80 111 144 180 225 271 322
#
# _framework density 18.953230000000001
#
# number of rings (size 3 to 8) (size 9 to 14) (size 15 to 20)
#    0.000    2.500    1.250    1.125    0.000    4.250 
#    0.000    3.750    0.000    1.875    0.000    0.000 
#    0.000    0.000    0.000    0.000    0.000    0.000 
#
# Total GULP energy -396524.970558 kJ/mol
# GULP energy per Si atom -12391.405330 kJ/mol
# Density = 1.891009 g / cm^3
# Si number density = 18.953230 Si / 1000 Ang^3
#
#
#
# Elastic Constant Matrix: (Units=GPa)
#
#
# Indices 1 2 3 4 5 6 
#
# 1 129.1713 40.6249 56.2320 0.0000 0.0000 0.0000
# 2 40.6249 50.3457 41.7555 0.0000 0.0000 0.0000
# 3 56.2320 41.7555 97.9241 0.0000 0.0000 0.0000
# 4 0.0000 0.0000 0.0000 25.7700 0.0000 0.0000
# 5 0.0000 0.0000 0.0000 0.0000 19.4896 0.0000
# 6 0.0000 0.0000 0.0000 0.0000 0.0000 16.3762
#
#
#
# Elastic Compliance Matrix: (Units=1/GPa)
#
#
# Indices 1 2 3 4 5 6 
#
# 1 0.011317 -0.005789 -0.004030 0.000000 0.000000 0.000000
# 2 -0.005789 0.033692 -0.011042 0.000000 0.000000 0.000000
# 3 -0.004030 -0.011042 0.017235 0.000000 0.000000 0.000000
# 4 0.000000 0.000000 0.000000 0.038805 0.000000 0.000000
# 5 0.000000 0.000000 0.000000 0.000000 0.051310 0.000000
# 6 0.000000 0.000000 0.000000 0.000000 0.000000 0.061064
#
#
# Mechanical properties :
#
#
# Convention : Reuss Voigt Hill
#
# Bulk Modulus (GPa) = 48.73111 61.62953 55.18032
# Shear Modulus (GPa) = 19.08503 21.58238 20.33370
#
# Velocity S-wave (km/s) = 3.17670 3.37815 3.27897
# Velocity P-wave (km/s) = 6.26277 6.91398 6.59641
#
# Compressibility (1/GPa) = 0.02052077
#
# Stress axis : x y z
#
# Youngs Moduli (GPa) = 88.36418 29.68038 58.02298
#
# Poissons Ratio (x) = 0.17183 0.23383
# Poissons Ratio (y) = 0.51158 0.64069
# Poissons Ratio (z) = 0.35610 0.32773
#
# Static dielectric constant tensor:
#      x y z
#    x 3.797680 0.000000 0.000000 
#    y 0.000000 3.356840 0.000000 
#    z 0.000000 0.000000 3.336570 
# 
# 
# High freq. dielectric constant tensor:
#      x y z
#    x 1.753600 0.000000 0.000000 
#    y 0.000000 1.714630 0.000000 
#    z 0.000000 0.000000 1.713960 
# 
# From -- ./inp_files/11985.got.cif
#   From: 2010.03.12/outbox.cif.g09.slc.cpg/sg35_6_cif.got.tgz:11985.got - 2010.04.14 02:02:04.
