data_PCOD8173691
_publ_section_title
;
Structure prediction by ZEFSAII (Michael W. Deem and Ramdas Pophale) SiO2 
 PCOD8173691
Probable space group: C M M 2
;
_chemical_formula_sum "Si O2"
_cell_formula_units_Z 40
_cell_length_a 7.520252
_cell_length_b 19.281228
_cell_length_c 14.662431
_cell_angle_alpha 90.000000
_cell_angle_beta 90.000000
_cell_angle_gamma 90.000000
_cell_volume 2126.048000
_symmetry_space_group_name_H-M "C M M 2"
_symmetry_group_IT_number 35
_symmetry_cell_setting 'orthorhombic'
loop_
_space_group_symop_operation_xyz
x,y,z
-x,-y,z
-x,y,z
x,-y,z
1/2+x,1/2+y,z
1/2-x,1/2-y,z
1/2-x,1/2+y,z
1/2+x,1/2-y,z
loop_
_atom_site_type_symbol
_atom_site_label
_atom_site_fract_x
_atom_site_fract_y
_atom_site_fract_z
Si Si1 0.500000 0.916783 0.129490
Si Si2 0.709743 0.328663 0.030133
Si Si3 0.303132 0.582824 0.468825
Si Si4 0.500000 0.917829 0.338987
Si Si5 0.292865 0.326352 0.824428
Si Si6 0.788052 0.923216 0.668856
O O1 0.320493 0.884244 0.088142
O O2 0.500000 0.894502 0.234930
O O3 0.500000 0.000000 0.115546
O O4 0.500000 0.344677 0.040879
O O5 0.750000 0.250000 0.062563
O O6 0.781261 0.337812 0.926458
O O7 0.500000 0.612545 0.448536
O O8 0.309436 0.500000 0.469166
O O9 0.173734 0.612054 0.390465
O O10 0.233913 0.606637 0.569161
O O11 0.500000 0.000000 0.346746
O O12 0.500000 0.339946 0.828268
O O13 0.250000 0.250000 0.789400
O O14 0.204322 0.377490 0.750420
O O15 0.000000 0.924540 0.673803
O O16 0.709774 0.000000 0.682393
#
# Coordination Sequence:
#
# PCOD8173691 Si02
#       6
#     4   8   8   4   8   8
#     4  11  24  38  57  91 120 138 187 260 299 323
#     4  10  20  38  62  82 109 156 199 227 278 356
#     4   8  14  27  48  71 100 140 178 210 259 329
#     4   9  18  32  49  75 109 138 173 226 282 329
#     4   9  18  31  51  76 103 139 181 215 258 326
#     4   8  14  27  48  74 102 135 174 214 256 308
#
# _framework density 18.814252
#
# number of rings (size 3 to 8) (size 9 to 14) (size 15 to 20)
#    0.000    3.000    1.000    1.200    1.400    2.000 
#    1.800    4.000    0.000    1.200    0.000    0.000 
#    0.000    0.000    0.000    0.000    0.000    0.000 
#
# Total GULP energy -247853.163748 kJ/mol
# GULP energy per Si atom -12392.658187 kJ/mol
# Density = 1.877143 g / cm^3
# Si number density = 18.814252 Si / 1000 Ang^3
#
#
#
# Elastic Constant Matrix: (Units=GPa)
#
#
# Indices 1 2 3 4 5 6 
#
# 1 89.4954 32.5625 54.9644 0.0000 0.0000 0.0000
# 2 32.5625 81.3340 68.9196 0.0000 0.0000 0.0000
# 3 54.9644 68.9196 152.8702 0.0000 0.0000 0.0000
# 4 0.0000 0.0000 0.0000 7.7621 0.0000 0.0000
# 5 0.0000 0.0000 0.0000 0.0000 18.6280 0.0000
# 6 0.0000 0.0000 0.0000 0.0000 0.0000 19.8379
#
#
#
# Elastic Compliance Matrix: (Units=1/GPa)
#
#
# Indices 1 2 3 4 5 6 
#
# 1 0.014593 -0.002259 -0.004228 0.000000 0.000000 0.000000
# 2 -0.002259 0.020245 -0.008315 0.000000 0.000000 0.000000
# 3 -0.004228 -0.008315 0.011810 0.000000 0.000000 0.000000
# 4 0.000000 0.000000 0.000000 0.128831 0.000000 0.000000
# 5 0.000000 0.000000 0.000000 0.000000 0.053683 0.000000
# 6 0.000000 0.000000 0.000000 0.000000 0.000000 0.050408
#
#
# Mechanical properties :
#
#
# Convention : Reuss Voigt Hill
#
# Bulk Modulus (GPa) = 58.67419 70.73251 64.70335
# Shear Modulus (GPa) = 15.88024 20.39581 18.13802
#
# Velocity S-wave (km/s) = 2.90841 3.29608 3.10830
# Velocity P-wave (km/s) = 6.52167 7.22235 6.88094
#
# Compressibility (1/GPa) = 0.01704327
#
# Stress axis : x y z
#
# Youngs Moduli (GPa) = 68.52793 49.39396 84.67104
#
# Poissons Ratio (x) = 0.11160 0.35800
# Poissons Ratio (y) = 0.15484 0.70404
# Poissons Ratio (z) = 0.28974 0.41071
#
# Static dielectric constant tensor:
#      x y z
#    x 3.443820 0.000000 0.000000 
#    y 0.000000 3.238680 0.000000 
#    z 0.000000 0.000000 3.762600 
# 
# 
# High freq. dielectric constant tensor:
#      x y z
#    x 1.730880 0.000000 0.000000 
#    y 0.000000 1.688620 0.000000 
#    z 0.000000 0.000000 1.733300 
# 
# From -- ./inp_files/11187.got.cif
#   From: 2010.03.12/outbox.cif.g09.slc.cpg/sg35_6_cif.got.tgz:11187.got - 2010.04.14 02:02:04.
