data_PCOD8173118
_publ_section_title
;
Structure prediction by ZEFSAII (Michael W. Deem and Ramdas Pophale) SiO2 
 PCOD8173118
Probable space group: C M M 2
;
_chemical_formula_sum "Si O2"
_cell_formula_units_Z 56
_cell_length_a 19.061672
_cell_length_b 8.735270
_cell_length_c 17.805900
_cell_angle_alpha 90.000000
_cell_angle_beta 90.000000
_cell_angle_gamma 90.000000
_cell_volume 2964.839960
_symmetry_space_group_name_H-M "C M M 2"
_symmetry_group_IT_number 35
_symmetry_cell_setting 'orthorhombic'
loop_
_space_group_symop_operation_xyz
x,y,z
-x,-y,z
-x,y,z
x,-y,z
1/2+x,1/2+y,z
1/2-x,1/2-y,z
1/2-x,1/2+y,z
1/2+x,1/2-y,z
loop_
_atom_site_type_symbol
_atom_site_label
_atom_site_fract_x
_atom_site_fract_y
_atom_site_fract_z
Si Si1 0.824495 0.180041 0.585190
Si Si2 0.082556 0.825866 0.306751
Si Si3 0.422087 0.318283 0.138574
Si Si4 0.675882 0.179393 0.428301
Si Si5 0.919335 0.821885 0.864377
Si Si6 0.173299 0.181309 0.004942
Si Si7 0.582255 0.175193 0.708874
O O1 0.750000 0.250000 0.608674
O O2 0.850908 0.248465 0.506262
O O3 0.880548 0.218022 0.648613
O O4 0.816532 0.000000 0.576526
O O5 0.102225 0.772216 0.222378
O O6 0.119828 0.712174 0.363905
O O7 0.000000 0.813326 0.319338
O O8 0.107834 0.000000 0.320737
O O9 0.500000 0.251677 0.121696
O O10 0.426417 0.500000 0.132514
O O11 0.366453 0.253036 0.078585
O O12 0.750000 0.250000 0.403962
O O13 0.684654 0.000000 0.439743
O O14 0.870975 0.766544 0.932674
O O15 0.895301 0.726282 0.792046
O O16 0.000000 0.788005 0.885937
O O17 0.908474 0.000000 0.846377
O O18 0.250000 0.250000 0.000256
O O19 0.178990 0.000000 0.008967
O O20 0.500000 0.198797 0.697728
O O21 0.605023 0.000000 0.696906
#
# Coordination Sequence:
#
# PCOD8173118 Si02
#       7
#     8   8   8   8   8   8   8
#     4  11  22  38  59  81 108 141 179 220 265 318
#     4   9  18  34  56  81 108 139 178 222 268 319
#     4   8  15  31  55  78 101 135 178 219 259 308
#     4  11  22  37  56  78 108 143 180 220 265 318
#     4   9  18  34  55  76 100 136 181 222 261 310
#     4  10  20  33  51  77 107 137 173 218 265 313
#     4  10  21  37  57  82 111 141 176 219 266 316
#
# _framework density 18.888034000000001
#
# number of rings (size 3 to 8) (size 9 to 14) (size 15 to 20)
#    0.000    2.286    0.000    5.143    0.000    5.143 
#    0.000    3.571    0.000    2.143    0.000    0.000 
#    0.000    0.000    0.000    0.000    0.000    0.000 
#
# Total GULP energy -347249.382024 kJ/mol
# GULP energy per Si atom -12401.763644 kJ/mol
# Density = 1.884504 g / cm^3
# Si number density = 18.888034 Si / 1000 Ang^3
#
#
#
# Elastic Constant Matrix: (Units=GPa)
#
#
# Indices 1 2 3 4 5 6 
#
# 1 91.5395 37.7132 80.2491 0.0000 0.0000 0.0000
# 2 37.7132 96.6204 51.1628 0.0000 0.0000 0.0000
# 3 80.2491 51.1628 144.1677 0.0000 0.0000 0.0000
# 4 0.0000 0.0000 0.0000 24.1793 0.0000 0.0000
# 5 0.0000 0.0000 0.0000 0.0000 18.8779 0.0000
# 6 0.0000 0.0000 0.0000 0.0000 0.0000 29.6273
#
#
#
# Elastic Compliance Matrix: (Units=1/GPa)
#
#
# Indices 1 2 3 4 5 6 
#
# 1 0.021842 -0.002571 -0.011246 0.000000 0.000000 0.000000
# 2 -0.002571 0.013047 -0.003199 0.000000 0.000000 0.000000
# 3 -0.011246 -0.003199 0.014332 0.000000 0.000000 0.000000
# 4 0.000000 0.000000 0.000000 0.041358 0.000000 0.000000
# 5 0.000000 0.000000 0.000000 0.000000 0.052972 0.000000
# 6 0.000000 0.000000 0.000000 0.000000 0.000000 0.033753
#
#
# Mechanical properties :
#
#
# Convention : Reuss Voigt Hill
#
# Bulk Modulus (GPa) = 65.83541 74.50865 70.17203
# Shear Modulus (GPa) = 23.10553 25.41706 24.26130
#
# Velocity S-wave (km/s) = 3.50135 3.67232 3.58785
# Velocity P-wave (km/s) = 7.16081 7.58382 7.37535
#
# Compressibility (1/GPa) = 0.01518940
#
# Stress axis : x y z
#
# Youngs Moduli (GPa) = 45.78305 76.64434 69.77541
#
# Poissons Ratio (x) = 0.19702 0.78469
# Poissons Ratio (y) = 0.11769 0.22324
# Poissons Ratio (z) = 0.51487 0.24522
#
# Static dielectric constant tensor:
#      x y z
#    x 3.439040 0.000000 0.000000 
#    y 0.000000 3.312820 0.000000 
#    z 0.000000 0.000000 3.621350 
# 
# 
# High freq. dielectric constant tensor:
#      x y z
#    x 1.729670 0.000000 0.000000 
#    y 0.000000 1.720640 0.000000 
#    z 0.000000 0.000000 1.745630 
# 
# From -- ./inp_files/15628.got.cif
#   From: 2010.03.12/outbox.cif.g09.slc.cpg/sg35_8_cif.got.tgz:15628.got - 2010.04.14 02:02:04.
