data_PCOD8173325
_publ_section_title
;
Structure prediction by ZEFSAII (Michael W. Deem and Ramdas Pophale) SiO2 
 PCOD8173325
Probable space group: C M M 2
;
_chemical_formula_sum "Si O2"
_cell_formula_units_Z 56
_cell_length_a 23.624154
_cell_length_b 12.998856
_cell_length_c 8.810905
_cell_angle_alpha 90.000000
_cell_angle_beta 90.000000
_cell_angle_gamma 90.000000
_cell_volume 2705.714172
_symmetry_space_group_name_H-M "C M M 2"
_symmetry_group_IT_number 35
_symmetry_cell_setting 'orthorhombic'
loop_
_space_group_symop_operation_xyz
x,y,z
-x,-y,z
-x,y,z
x,-y,z
1/2+x,1/2+y,z
1/2-x,1/2-y,z
1/2-x,1/2+y,z
1/2+x,1/2-y,z
loop_
_atom_site_type_symbol
_atom_site_label
_atom_site_fract_x
_atom_site_fract_y
_atom_site_fract_z
Si Si1 0.842248 0.122258 0.508860
Si Si2 0.000000 0.378804 0.193431
Si Si3 0.401745 0.213585 0.002864
Si Si4 0.814385 0.734368 0.254443
Si Si5 0.110845 0.382868 0.700535
Si Si6 0.215833 0.381212 0.532511
Si Si7 0.000000 0.378915 0.546908
Si Si8 0.565405 0.380596 0.762298
O O1 0.849010 0.174760 0.343431
O O2 0.779137 0.165992 0.556442
O O3 0.891309 0.154477 0.628214
O O4 0.842624 0.000000 0.485943
O O5 0.000000 0.355067 0.370558
O O6 0.000000 0.500000 0.157891
O O7 0.946452 0.322457 0.125461
O O8 0.394222 0.123276 0.880704
O O9 0.419548 0.317912 0.915070
O O10 0.343593 0.222083 0.092794
O O11 0.750000 0.750000 0.207515
O O12 0.811181 0.634589 0.364700
O O13 0.112289 0.500000 0.645156
O O14 0.169497 0.329690 0.645929
O O15 0.055654 0.328452 0.624867
O O16 0.222837 0.500000 0.568178
O O17 0.000000 0.500000 0.582136
O O18 0.500000 0.361622 0.712592
O O19 0.575271 0.500000 0.800902
#
# Coordination Sequence:
#
# PCOD8173325 Si02
#       8
#     8   4   8   8   8   8   4   8
#     4   9  19  39  64  85 109 149 203 253 294 339
#     4  11  23  39  58  85 120 155 193 232 284 353
#     4  12  23  37  56  87 121 160 186 235 298 358
#     4  10  22  38  57  86 122 156 194 242 294 354
#     4  10  20  34  55  85 119 154 194 234 279 341
#     4   9  18  35  59  86 116 154 200 246 286 337
#     4   9  19  35  55  77 110 155 196 232 267 323
#     4  10  22  41  61  83 113 151 198 254 304 348
#
# _framework density 20.696939
#
# number of rings (size 3 to 8) (size 9 to 14) (size 15 to 20)
#    0.000    2.000    0.714    2.571    0.000    4.571 
#    1.286    0.000    0.000    0.000    0.000    0.000 
#    0.000    0.000    0.000    0.000    0.000    0.000 
#
# Total GULP energy -346975.485412 kJ/mol
# GULP energy per Si atom -12391.981622 kJ/mol
# Density = 2.064983 g / cm^3
# Si number density = 20.696939 Si / 1000 Ang^3
#
#
#
# Elastic Constant Matrix: (Units=GPa)
#
#
# Indices 1 2 3 4 5 6 
#
# 1 146.7355 41.6848 85.5355 0.0000 0.0000 0.0000
# 2 41.6848 44.9698 22.5596 0.0000 0.0000 0.0000
# 3 85.5355 22.5596 134.5305 0.0000 0.0000 0.0000
# 4 0.0000 0.0000 0.0000 28.3896 0.0000 0.0000
# 5 0.0000 0.0000 0.0000 0.0000 62.7124 0.0000
# 6 0.0000 0.0000 0.0000 0.0000 0.0000 28.0053
#
#
#
# Elastic Compliance Matrix: (Units=1/GPa)
#
#
# Indices 1 2 3 4 5 6 
#
# 1 0.013477 -0.008946 -0.007068 0.000000 0.000000 0.000000
# 2 -0.008946 0.030219 0.000621 0.000000 0.000000 0.000000
# 3 -0.007068 0.000621 0.011823 0.000000 0.000000 0.000000
# 4 0.000000 0.000000 0.000000 0.035224 0.000000 0.000000
# 5 0.000000 0.000000 0.000000 0.000000 0.015946 0.000000
# 6 0.000000 0.000000 0.000000 0.000000 0.000000 0.035707
#
#
# Mechanical properties :
#
#
# Convention : Reuss Voigt Hill
#
# Bulk Modulus (GPa) = 40.43559 69.53285 54.98422
# Shear Modulus (GPa) = 27.55912 35.58518 31.57215
#
# Velocity S-wave (km/s) = 3.65301 4.15100 3.90994
# Velocity P-wave (km/s) = 6.11327 7.52616 6.85620
#
# Compressibility (1/GPa) = 0.02473069
#
# Stress axis : x y z
#
# Youngs Moduli (GPa) = 74.20115 33.09213 84.57854
#
# Poissons Ratio (x) = 0.29606 0.59784
# Poissons Ratio (y) = 0.66384 -0.05251
# Poissons Ratio (z) = 0.52449 -0.02054
#
# Static dielectric constant tensor:
#      x y z
#    x 4.054180 0.000000 0.000000 
#    y 0.000000 3.821030 0.000000 
#    z 0.000000 0.000000 3.497990 
# 
# 
# High freq. dielectric constant tensor:
#      x y z
#    x 1.831990 0.000000 0.000000 
#    y 0.000000 1.822920 0.000000 
#    z 0.000000 0.000000 1.788960 
# 
# From -- ./inp_files/9335.got.cif
#   From: 2010.03.12/outbox.cif.g09.slc.cpg/sg35_5_cif.got.tgz:9335.got - 2010.04.14 02:02:04.
