data_PCOD8173207
_publ_section_title
;
Structure prediction by ZEFSAII (Michael W. Deem and Ramdas Pophale) SiO2 
 PCOD8173207
Probable space group: C M M 2
;
_chemical_formula_sum "Si O2"
_cell_formula_units_Z 64
_cell_length_a 28.893015
_cell_length_b 9.360892
_cell_length_c 12.465858
_cell_angle_alpha 90.000000
_cell_angle_beta 90.000000
_cell_angle_gamma 90.000000
_cell_volume 3371.570717
_symmetry_space_group_name_H-M "C M M 2"
_symmetry_group_IT_number 35
_symmetry_cell_setting 'orthorhombic'
loop_
_space_group_symop_operation_xyz
x,y,z
-x,-y,z
-x,y,z
x,-y,z
1/2+x,1/2+y,z
1/2-x,1/2-y,z
1/2-x,1/2+y,z
1/2+x,1/2-y,z
loop_
_atom_site_type_symbol
_atom_site_label
_atom_site_fract_x
_atom_site_fract_y
_atom_site_fract_z
Si Si1 0.078616 0.659461 0.225400
Si Si2 0.949373 0.157648 0.043684
Si Si3 0.706039 0.167276 0.395586
Si Si4 0.553918 0.169435 0.666094
Si Si5 0.817826 0.659583 0.154702
Si Si6 0.108831 0.167769 0.848279
Si Si7 0.294342 0.331720 0.945264
Si Si8 0.394137 0.169474 0.452745
O O1 0.058138 0.500000 0.231812
O O2 0.045346 0.753797 0.152708
O O3 0.127404 0.660009 0.165590
O O4 0.081861 0.727994 0.344248
O O5 0.000000 0.151247 0.990159
O O6 0.931073 0.000000 0.073706
O O7 0.915166 0.225649 0.956523
O O8 0.750000 0.250000 0.445229
O O9 0.703330 0.203456 0.269281
O O10 0.659439 0.221850 0.456938
O O11 0.713169 0.000000 0.414694
O O12 0.500000 0.217049 0.674483
O O13 0.586684 0.244310 0.751979
O O14 0.575002 0.220034 0.552436
O O15 0.558117 0.000000 0.680252
O O16 0.801129 0.500000 0.121331
O O17 0.802797 0.773092 0.065296
O O18 0.163337 0.198841 0.863322
O O19 0.098792 0.000000 0.830250
O O20 0.285072 0.500000 0.954305
O O21 0.250000 0.250000 0.895735
O O22 0.392453 0.000000 0.441981
#
# Coordination Sequence:
#
# PCOD8173207 Si02
#       8
#     8   8   8   8   8   8   8   8
#     4   9  17  31  53  79 110 145 179 219 265 319
#     4  10  20  34  52  76 109 145 177 216 272 332
#     4   9  17  30  49  75 109 147 181 214 260 316
#     4  10  21  38  62  86 104 134 185 237 279 323
#     4   9  17  30  49  76 110 146 182 221 261 308
#     4  10  22  40  58  77 108 147 182 222 276 332
#     4  11  22  35  54  79 108 145 184 221 269 324
#     4   8  17  35  55  78 110 142 174 221 279 324
#
# _framework density 18.982250000000001
#
# number of rings (size 3 to 8) (size 9 to 14) (size 15 to 20)
#    0.000    2.500    1.250    2.625    0.000    4.500 
#    0.000    5.000    0.000    3.000    0.000    0.000 
#    0.000    0.000    0.000    0.000    0.000    0.000 
#
# Total GULP energy -396619.880636 kJ/mol
# GULP energy per Si atom -12394.371270 kJ/mol
# Density = 1.893905 g / cm^3
# Si number density = 18.982250 Si / 1000 Ang^3
#
#
#
# Elastic Constant Matrix: (Units=GPa)
#
#
# Indices 1 2 3 4 5 6 
#
# 1 121.8503 44.1168 60.0851 0.0000 0.0000 0.0000
# 2 44.1168 65.6853 45.9128 0.0000 0.0000 0.0000
# 3 60.0851 45.9128 110.3571 0.0000 0.0000 0.0000
# 4 0.0000 0.0000 0.0000 11.9947 0.0000 0.0000
# 5 0.0000 0.0000 0.0000 0.0000 23.3318 0.0000
# 6 0.0000 0.0000 0.0000 0.0000 0.0000 22.6602
#
#
#
# Elastic Compliance Matrix: (Units=1/GPa)
#
#
# Indices 1 2 3 4 5 6 
#
# 1 0.012302 -0.005049 -0.004597 0.000000 0.000000 0.000000
# 2 -0.005049 0.023539 -0.007044 0.000000 0.000000 0.000000
# 3 -0.004597 -0.007044 0.014495 0.000000 0.000000 0.000000
# 4 0.000000 0.000000 0.000000 0.083370 0.000000 0.000000
# 5 0.000000 0.000000 0.000000 0.000000 0.042860 0.000000
# 6 0.000000 0.000000 0.000000 0.000000 0.000000 0.044130
#
#
# Mechanical properties :
#
#
# Convention : Reuss Voigt Hill
#
# Bulk Modulus (GPa) = 58.97927 66.45803 62.71865
# Shear Modulus (GPa) = 19.25087 21.44920 20.35004
#
# Velocity S-wave (km/s) = 3.18803 3.36514 3.27778
# Velocity P-wave (km/s) = 6.68503 7.08417 6.88749
#
# Compressibility (1/GPa) = 0.01695511
#
# Stress axis : x y z
#
# Youngs Moduli (GPa) = 81.28933 42.48290 68.98854
#
# Poissons Ratio (x) = 0.21449 0.31716
# Poissons Ratio (y) = 0.41042 0.48597
# Poissons Ratio (z) = 0.37371 0.29926
#
# Static dielectric constant tensor:
#      x y z
#    x 3.650280 0.000000 0.000000 
#    y 0.000000 3.303850 0.000000 
#    z 0.000000 0.000000 3.380500 
# 
# 
# High freq. dielectric constant tensor:
#      x y z
#    x 1.751180 0.000000 0.000000 
#    y 0.000000 1.717330 0.000000 
#    z 0.000000 0.000000 1.715500 
# 
# From -- ./inp_files/14520.got.cif
#   From: 2010.03.12/outbox.cif.g09.slc.cpg/sg35_8_cif.got.tgz:14520.got - 2010.04.14 02:02:04.
