data_PCOD8173964
_publ_section_title
;
Structure prediction by ZEFSAII (Michael W. Deem and Ramdas Pophale) SiO2 
 PCOD8173964
Probable space group: C M M 2
;
_chemical_formula_sum "Si O2"
_cell_formula_units_Z 64
_cell_length_a 8.720277
_cell_length_b 30.904403
_cell_length_c 11.923419
_cell_angle_alpha 90.000000
_cell_angle_beta 90.000000
_cell_angle_gamma 90.000000
_cell_volume 3213.301263
_symmetry_space_group_name_H-M "C M M 2"
_symmetry_group_IT_number 35
_symmetry_cell_setting 'orthorhombic'
loop_
_space_group_symop_operation_xyz
x,y,z
-x,-y,z
-x,y,z
x,-y,z
1/2+x,1/2+y,z
1/2-x,1/2-y,z
1/2-x,1/2+y,z
1/2+x,1/2-y,z
loop_
_atom_site_type_symbol
_atom_site_label
_atom_site_fract_x
_atom_site_fract_y
_atom_site_fract_z
Si Si1 0.824136 0.048696 0.957740
Si Si2 0.318400 0.952338 0.503954
Si Si3 0.180245 0.627670 0.360363
Si Si4 0.819563 0.823974 0.744179
Si Si5 0.819436 0.293686 0.966905
Si Si6 0.679984 0.122096 0.100600
Si Si7 0.319988 0.916877 0.742952
Si Si8 0.680988 0.295533 0.499186
O O1 0.720138 0.052543 0.846911
O O2 0.000000 0.059062 0.927214
O O3 0.805778 0.000000 0.003947
O O4 0.768202 0.080614 0.054670
O O5 0.500000 0.954069 0.497175
O O6 0.256118 0.916486 0.417136
O O7 0.266889 0.940216 0.629402
O O8 0.251119 0.000000 0.474153
O O9 0.221344 0.626508 0.230313
O O10 0.264289 0.668377 0.413075
O O11 0.000000 0.632735 0.382245
O O12 0.734414 0.796360 0.838537
O O13 0.776187 0.873635 0.758457
O O14 0.760929 0.807116 0.623943
O O15 0.000000 0.817998 0.758896
O O16 0.750000 0.250000 0.020995
O O17 0.000000 0.290525 0.972527
O O18 0.760731 0.335014 0.037057
O O19 0.500000 0.115207 0.080612
O O20 0.500000 0.905810 0.742212
O O21 0.500000 0.292735 0.495008
O O22 0.750000 0.250000 0.460561
#
# Coordination Sequence:
#
# PCOD8173964 Si02
#       8
#     8   8   8   8   8   8   8   8
#     4  11  24  40  60  88 123 162 201 244 298 357
#     4   9  18  33  57  89 120 153 193 239 293 350
#     4  10  21  40  63  87 119 156 201 252 298 347
#     4  11  22  37  60  90 122 156 195 242 301 361
#     4  11  23  39  60  88 119 154 198 244 301 359
#     4  10  23  41  62  88 117 158 206 251 297 350
#     4  11  20  34  60  90 121 157 196 243 299 360
#     4  11  24  40  61  89 122 157 198 244 296 357
#
# _framework density 19.917211999999999
#
# number of rings (size 3 to 8) (size 9 to 14) (size 15 to 20)
#    0.000    1.500    2.500    2.625    0.000    6.000 
#    0.000    2.500    0.000    1.125    0.000    0.000 
#    0.000    0.000    0.000    0.000    0.000    0.000 
#
# Total GULP energy -396932.972983 kJ/mol
# GULP energy per Si atom -12404.155406 kJ/mol
# Density = 1.987188 g / cm^3
# Si number density = 19.917212 Si / 1000 Ang^3
#
#
#
# Elastic Constant Matrix: (Units=GPa)
#
#
# Indices 1 2 3 4 5 6 
#
# 1 47.2106 36.0936 34.5091 0.0000 0.0000 0.0000
# 2 36.0936 166.1031 63.6339 0.0000 0.0000 0.0000
# 3 34.5091 63.6339 128.1206 0.0000 0.0000 0.0000
# 4 0.0000 0.0000 0.0000 10.9092 0.0000 0.0000
# 5 0.0000 0.0000 0.0000 0.0000 21.4508 0.0000
# 6 0.0000 0.0000 0.0000 0.0000 0.0000 28.4232
#
#
#
# Elastic Compliance Matrix: (Units=1/GPa)
#
#
# Indices 1 2 3 4 5 6 
#
# 1 0.028373 -0.003998 -0.005656 0.000000 0.000000 0.000000
# 2 -0.003998 0.007999 -0.002896 0.000000 0.000000 0.000000
# 3 -0.005656 -0.002896 0.010767 0.000000 0.000000 0.000000
# 4 0.000000 0.000000 0.000000 0.091666 0.000000 0.000000
# 5 0.000000 0.000000 0.000000 0.000000 0.046618 0.000000
# 6 0.000000 0.000000 0.000000 0.000000 0.000000 0.035183
#
#
# Mechanical properties :
#
#
# Convention : Reuss Voigt Hill
#
# Bulk Modulus (GPa) = 45.37694 67.76749 56.57221
# Shear Modulus (GPa) = 19.75877 25.96981 22.86429
#
# Velocity S-wave (km/s) = 3.15309 3.61486 3.39184
# Velocity P-wave (km/s) = 6.00735 7.17784 6.61852
#
# Compressibility (1/GPa) = 0.02203762
#
# Stress axis : x y z
#
# Youngs Moduli (GPa) = 35.24461 125.02293 92.87744
#
# Poissons Ratio (x) = 0.49990 0.52535
# Poissons Ratio (y) = 0.14092 0.26894
# Poissons Ratio (z) = 0.19936 0.36203
#
# Static dielectric constant tensor:
#      x y z
#    x 3.476770 0.000000 0.000000 
#    y 0.000000 3.875570 0.000000 
#    z 0.000000 0.000000 3.652100 
# 
# 
# High freq. dielectric constant tensor:
#      x y z
#    x 1.765260 0.000000 0.000000 
#    y 0.000000 1.794320 0.000000 
#    z 0.000000 0.000000 1.773520 
# 
# From -- ./inp_files/11938.got.cif
#   From: 2010.03.12/outbox.cif.g09.slc.cpg/sg35_6_cif.got.tgz:11938.got - 2010.04.14 02:02:04.
