data_PCOD8173627
_publ_section_title
;
Structure prediction by ZEFSAII (Michael W. Deem and Ramdas Pophale) SiO2 
 PCOD8173627
Probable space group: C M M 2
;
_chemical_formula_sum "Si O2"
_cell_formula_units_Z 48
_cell_length_a 8.863326
_cell_length_b 15.514287
_cell_length_c 18.585403
_cell_angle_alpha 90.000000
_cell_angle_beta 90.000000
_cell_angle_gamma 90.000000
_cell_volume 2555.645003
_symmetry_space_group_name_H-M "C M M 2"
_symmetry_group_IT_number 35
_symmetry_cell_setting 'orthorhombic'
loop_
_space_group_symop_operation_xyz
x,y,z
-x,-y,z
-x,y,z
x,-y,z
1/2+x,1/2+y,z
1/2-x,1/2-y,z
1/2-x,1/2+y,z
1/2+x,1/2-y,z
loop_
_atom_site_type_symbol
_atom_site_label
_atom_site_fract_x
_atom_site_fract_y
_atom_site_fract_z
Si Si1 0.823365 0.338175 0.025890
Si Si2 0.678557 0.161832 0.366958
Si Si3 0.678947 0.500000 0.778998
Si Si4 0.678427 0.000000 0.624942
Si Si5 0.679990 0.000000 0.114687
Si Si6 0.176992 0.662540 0.530473
Si Si7 0.821812 0.659982 0.859903
Si Si8 0.820265 0.500000 0.277236
O O1 0.750000 0.250000 0.053330
O O2 0.757486 0.415786 0.073801
O O3 0.000000 0.328654 0.036631
O O4 0.782722 0.357060 0.943151
O O5 0.500000 0.168957 0.361359
O O6 0.750000 0.250000 0.337447
O O7 0.730951 0.144378 0.448884
O O8 0.741249 0.084385 0.317965
O O9 0.500000 0.500000 0.788152
O O10 0.723423 0.500000 0.696123
O O11 0.747659 0.584537 0.814714
O O12 0.727508 0.916618 0.579675
O O13 0.500000 0.000000 0.642162
O O14 0.741746 0.000000 0.195932
O O15 0.500000 0.000000 0.112333
O O16 0.250000 0.750000 0.560965
O O17 0.000000 0.675100 0.532776
O O18 0.750000 0.750000 0.834198
O O19 0.000000 0.661898 0.845753
O O20 0.000000 0.500000 0.278282
#
# Coordination Sequence:
#
# PCOD8173627 Si02
#       8
#     8   8   4   4   4   8   8   4
#     4   9  18  33  54  77 101 131 171 214 256 301
#     4   9  17  31  51  75  99 129 170 213 253 298
#     4  12  25  38  54  80 111 142 174 212 260 318
#     4  10  21  37  54  73 101 138 172 208 256 310
#     4   9  17  30  48  73 104 139 172 204 248 303
#     4   9  18  33  54  76  99 129 169 213 256 301
#     4  10  20  37  59  81 105 137 177 222 266 312
#     4   9  17  29  48  72 102 139 174 204 244 303
#
# _framework density 18.781952
#
# number of rings (size 3 to 8) (size 9 to 14) (size 15 to 20)
#    0.000    2.500    0.000    2.250    0.000    6.000 
#    0.000    2.500    0.000    5.000    0.000    0.000 
#    0.000    0.000    0.000    0.000    0.000    0.000 
#
# Total GULP energy -297637.583412 kJ/mol
# GULP energy per Si atom -12401.565975 kJ/mol
# Density = 1.873920 g / cm^3
# Si number density = 18.781952 Si / 1000 Ang^3
#
#
#
# Elastic Constant Matrix: (Units=GPa)
#
#
# Indices 1 2 3 4 5 6 
#
# 1 45.0853 49.4793 37.5111 0.0000 0.0000 0.0000
# 2 49.4793 208.0430 103.6558 0.0000 0.0000 0.0000
# 3 37.5111 103.6558 116.3269 0.0000 0.0000 0.0000
# 4 0.0000 0.0000 0.0000 17.6351 0.0000 0.0000
# 5 0.0000 0.0000 0.0000 0.0000 18.0894 0.0000
# 6 0.0000 0.0000 0.0000 0.0000 0.0000 34.7837
#
#
#
# Elastic Compliance Matrix: (Units=1/GPa)
#
#
# Indices 1 2 3 4 5 6 
#
# 1 0.032508 -0.004512 -0.006463 0.000000 0.000000 0.000000
# 2 -0.004512 0.009271 -0.006806 0.000000 0.000000 0.000000
# 3 -0.006463 -0.006806 0.016745 0.000000 0.000000 0.000000
# 4 0.000000 0.000000 0.000000 0.056705 0.000000 0.000000
# 5 0.000000 0.000000 0.000000 0.000000 0.055281 0.000000
# 6 0.000000 0.000000 0.000000 0.000000 0.000000 0.028749
#
#
# Mechanical properties :
#
#
# Convention : Reuss Voigt Hill
#
# Bulk Modulus (GPa) = 43.54700 83.41641 63.48170
# Shear Modulus (GPa) = 20.62071 26.02225 23.32148
#
# Velocity S-wave (km/s) = 3.31705 3.72626 3.52759
# Velocity P-wave (km/s) = 6.15681 7.93869 7.10384
#
# Compressibility (1/GPa) = 0.02296370
#
# Stress axis : x y z
#
# Youngs Moduli (GPa) = 30.76134 107.86537 59.71865
#
# Poissons Ratio (x) = 0.48665 0.38594
# Poissons Ratio (y) = 0.13878 0.40645
# Poissons Ratio (z) = 0.19880 0.73415
#
# Static dielectric constant tensor:
#      x y z
#    x 3.202190 0.000000 0.000000 
#    y 0.000000 3.676740 0.000000 
#    z 0.000000 0.000000 3.538030 
# 
# 
# High freq. dielectric constant tensor:
#      x y z
#    x 1.705990 0.000000 0.000000 
#    y 0.000000 1.746790 0.000000 
#    z 0.000000 0.000000 1.726120 
# 
# From -- ./inp_files/17950.got.cif
#   From: 2010.03.12/outbox.cif.g09.slc.cpg/sg35_9_cif.got.tgz:17950.got - 2010.04.14 02:02:04.
