data_PCOD8173006
_publ_section_title
;
Structure prediction by ZEFSAII (Michael W. Deem and Ramdas Pophale) SiO2 
 PCOD8173006
Probable space group: C M M 2
;
_chemical_formula_sum "Si O2"
_cell_formula_units_Z 64
_cell_length_a 28.301325
_cell_length_b 8.755647
_cell_length_c 15.504595
_cell_angle_alpha 90.000000
_cell_angle_beta 90.000000
_cell_angle_gamma 90.000000
_cell_volume 3841.983000
_symmetry_space_group_name_H-M "C M M 2"
_symmetry_group_IT_number 35
_symmetry_cell_setting 'orthorhombic'
loop_
_space_group_symop_operation_xyz
x,y,z
-x,-y,z
-x,y,z
x,-y,z
1/2+x,1/2+y,z
1/2-x,1/2-y,z
1/2-x,1/2+y,z
1/2+x,1/2-y,z
loop_
_atom_site_type_symbol
_atom_site_label
_atom_site_fract_x
_atom_site_fract_y
_atom_site_fract_z
Si Si1 0.144870 0.179346 0.002680
Si Si2 0.801814 0.321400 0.156976
Si Si3 0.301657 0.320586 0.516463
Si Si4 0.699103 0.823362 0.348002
Si Si5 0.356165 0.322113 0.687094
Si Si6 0.446815 0.176553 0.738882
Si Si7 0.553340 0.823103 0.939865
Si Si8 0.698882 0.819925 0.843026
O O1 0.161689 0.236443 0.095485
O O2 0.152066 0.000000 0.994428
O O3 0.089656 0.220281 0.993523
O O4 0.176215 0.260326 0.930663
O O5 0.798138 0.500000 0.133974
O O6 0.750000 0.250000 0.146770
O O7 0.823608 0.298074 0.253488
O O8 0.296375 0.500000 0.509724
O O9 0.250000 0.250000 0.529778
O O10 0.327155 0.258197 0.428687
O O11 0.333997 0.272024 0.596491
O O12 0.750000 0.750000 0.343365
O O13 0.703598 0.000000 0.370572
O O14 0.348002 0.500000 0.706303
O O15 0.411777 0.282965 0.683944
O O16 0.333416 0.222938 0.762542
O O17 0.500000 0.215621 0.709553
O O18 0.440374 0.213839 0.839452
O O19 0.435328 0.000000 0.721108
O O20 0.500000 0.783381 0.969464
O O21 0.564567 0.000000 0.957603
O O22 0.750000 0.750000 0.828541
O O23 0.703435 0.000000 0.849397
#
# Coordination Sequence:
#
# PCOD8173006 Si02
#       8
#     8   8   8   8   8   8   8   8
#     4  12  23  34  50  74 101 131 167 203 244 295
#     4  10  20  34  51  73 101 132 167 206 247 292
#     4  10  20  32  48  71 101 132 165 203 244 291
#     4   9  17  30  50  72  95 126 164 204 246 289
#     4  11  22  34  49  74 101 131 168 203 245 294
#     4   9  18  33  53  74  96 127 165 206 252 294
#     4   9  18  34  54  74  97 127 164 206 251 293
#     4  12  24  37  50  66  96 135 171 206 242 285
#
# _framework density 16.658064
#
# number of rings (size 3 to 8) (size 9 to 14) (size 15 to 20)
#    0.000    1.750    1.250    6.000    0.000    5.000 
#    0.000    1.250    0.000    0.000    0.000    0.875 
#    0.000    5.000    0.000    0.000    0.000    0.000 
#
# Total GULP energy -396767.340077 kJ/mol
# GULP energy per Si atom -12398.979377 kJ/mol
# Density = 1.662015 g / cm^3
# Si number density = 16.658064 Si / 1000 Ang^3
#
#
#
# Elastic Constant Matrix: (Units=GPa)
#
#
# Indices 1 2 3 4 5 6 
#
# 1 85.6724 33.6934 39.4784 0.0000 0.0000 0.0000
# 2 33.6934 101.3773 45.0462 0.0000 0.0000 0.0000
# 3 39.4784 45.0462 104.6954 0.0000 0.0000 0.0000
# 4 0.0000 0.0000 0.0000 27.6901 0.0000 0.0000
# 5 0.0000 0.0000 0.0000 0.0000 10.2606 0.0000
# 6 0.0000 0.0000 0.0000 0.0000 0.0000 27.6234
#
#
#
# Elastic Compliance Matrix: (Units=1/GPa)
#
#
# Indices 1 2 3 4 5 6 
#
# 1 0.014841 -0.003024 -0.004295 0.000000 0.000000 0.000000
# 2 -0.003024 0.012812 -0.004372 0.000000 0.000000 0.000000
# 3 -0.004295 -0.004372 0.013052 0.000000 0.000000 0.000000
# 4 0.000000 0.000000 0.000000 0.036114 0.000000 0.000000
# 5 0.000000 0.000000 0.000000 0.000000 0.097461 0.000000
# 6 0.000000 0.000000 0.000000 0.000000 0.000000 0.036201
#
#
# Mechanical properties :
#
#
# Convention : Reuss Voigt Hill
#
# Bulk Modulus (GPa) = 57.72809 58.68679 58.20744
# Shear Modulus (GPa) = 20.86484 24.68328 22.77406
#
# Velocity S-wave (km/s) = 3.54296 3.85354 3.70151
# Velocity P-wave (km/s) = 7.17403 7.42337 7.29977
#
# Compressibility (1/GPa) = 0.01732259
#
# Stress axis : x y z
#
# Youngs Moduli (GPa) = 67.38166 78.05231 76.61500
#
# Poissons Ratio (x) = 0.23603 0.32907
# Poissons Ratio (y) = 0.20376 0.33497
# Poissons Ratio (z) = 0.28941 0.34126
#
# Static dielectric constant tensor:
#      x y z
#    x 3.092060 0.000000 0.000000 
#    y 0.000000 3.233290 0.000000 
#    z 0.000000 0.000000 3.504230 
# 
# 
# High freq. dielectric constant tensor:
#      x y z
#    x 1.620150 0.000000 0.000000 
#    y 0.000000 1.657020 0.000000 
#    z 0.000000 0.000000 1.634660 
# 
# From -- ./inp_files/17744.got.cif
#   From: 2010.03.12/outbox.cif.g09.slc.cpg/sg35_9_cif.got.tgz:17744.got - 2010.04.14 02:02:04.
