data_PCOD8173481
_publ_section_title
;
Structure prediction by ZEFSAII (Michael W. Deem and Ramdas Pophale) SiO2 
 PCOD8173481
Probable space group: C M M 2
;
_chemical_formula_sum "Si O2"
_cell_formula_units_Z 48
_cell_length_a 8.622874
_cell_length_b 16.086684
_cell_length_c 16.973553
_cell_angle_alpha 90.000000
_cell_angle_beta 90.000000
_cell_angle_gamma 90.000000
_cell_volume 2354.460082
_symmetry_space_group_name_H-M "C M M 2"
_symmetry_group_IT_number 35
_symmetry_cell_setting 'orthorhombic'
loop_
_space_group_symop_operation_xyz
x,y,z
-x,-y,z
-x,y,z
x,-y,z
1/2+x,1/2+y,z
1/2-x,1/2-y,z
1/2-x,1/2+y,z
1/2+x,1/2-y,z
loop_
_atom_site_type_symbol
_atom_site_label
_atom_site_fract_x
_atom_site_fract_y
_atom_site_fract_z
Si Si1 0.816405 0.161533 0.998990
Si Si2 0.683180 0.500000 0.726166
Si Si3 0.316237 0.842804 0.635477
Si Si4 0.182630 0.000000 0.908308
Si Si5 0.819193 0.837803 0.471032
Si Si6 0.833507 0.407253 0.323773
Si Si7 0.317099 0.662996 0.177862
O O1 0.750000 0.250000 0.968631
O O2 0.749731 0.084455 0.947892
O O3 0.000000 0.167615 0.992027
O O4 0.762896 0.144078 0.088743
O O5 0.500000 0.500000 0.711471
O O6 0.752914 0.414349 0.692770
O O7 0.728087 0.500000 0.817556
O O8 0.500000 0.838053 0.643322
O O9 0.250000 0.750000 0.654647
O O10 0.268518 0.872650 0.548018
O O11 0.000000 0.000000 0.922106
O O12 0.750000 0.750000 0.449512
O O13 0.788829 0.889280 0.392682
O O14 0.000000 0.834375 0.491247
O O15 0.882202 0.500000 0.336041
O O16 0.753865 0.402085 0.238410
O O17 0.000000 0.357116 0.328988
O O18 0.500000 0.662095 0.183901
O O19 0.250000 0.750000 0.207080
#
# Coordination Sequence:
#
# PCOD8173481 Si02
#       7
#     8   4   8   4   8   8   8
#     4   9  19  37  61  88 119 157 199 247 299 357
#     4  11  23  41  65  94 127 164 203 249 308 373
#     4  11  23  42  66  93 126 163 206 254 307 366
#     4   9  20  39  63  90 121 158 197 243 300 363
#     4  11  22  39  62  86 115 152 198 244 294 354
#     4  11  24  38  53  79 117 155 196 244 295 345
#     4  10  20  35  58  82 112 151 197 243 293 350
#
# _framework density 20.386838999999998
#
# number of rings (size 3 to 8) (size 9 to 14) (size 15 to 20)
#    0.000    1.667    0.000    5.750    2.333    2.667 
#    0.000    3.750    0.000    0.000    0.000    0.000 
#    0.000    0.000    0.000    0.000    0.000    0.000 
#
# Total GULP energy -297459.114825 kJ/mol
# GULP energy per Si atom -12394.129784 kJ/mol
# Density = 2.034044 g / cm^3
# Si number density = 20.386839 Si / 1000 Ang^3
#
#
#
# Elastic Constant Matrix: (Units=GPa)
#
#
# Indices 1 2 3 4 5 6 
#
# 1 112.6689 43.3091 45.6128 0.0000 0.0000 0.0000
# 2 43.3091 127.5554 79.6341 0.0000 0.0000 0.0000
# 3 45.6128 79.6341 133.3004 0.0000 0.0000 0.0000
# 4 0.0000 0.0000 0.0000 38.7955 0.0000 0.0000
# 5 0.0000 0.0000 0.0000 0.0000 26.0967 0.0000
# 6 0.0000 0.0000 0.0000 0.0000 0.0000 27.4893
#
#
#
# Elastic Compliance Matrix: (Units=1/GPa)
#
#
# Indices 1 2 3 4 5 6 
#
# 1 0.010657 -0.002140 -0.002368 0.000000 0.000000 0.000000
# 2 -0.002140 0.012933 -0.006994 0.000000 0.000000 0.000000
# 3 -0.002368 -0.006994 0.012490 0.000000 0.000000 0.000000
# 4 0.000000 0.000000 0.000000 0.025776 0.000000 0.000000
# 5 0.000000 0.000000 0.000000 0.000000 0.038319 0.000000
# 6 0.000000 0.000000 0.000000 0.000000 0.000000 0.036378
#
#
# Mechanical properties :
#
#
# Convention : Reuss Voigt Hill
#
# Bulk Modulus (GPa) = 76.47540 78.95964 77.71752
# Shear Modulus (GPa) = 30.50360 32.14085 31.32222
#
# Velocity S-wave (km/s) = 3.87232 3.97489 3.92394
# Velocity P-wave (km/s) = 7.58859 7.73829 7.66380
#
# Compressibility (1/GPa) = 0.01307610
#
# Stress axis : x y z
#
# Youngs Moduli (GPa) = 93.83637 77.32435 80.06214
#
# Poissons Ratio (x) = 0.16546 0.18961
# Poissons Ratio (y) = 0.20079 0.55993
# Poissons Ratio (z) = 0.22223 0.54079
#
# Static dielectric constant tensor:
#      x y z
#    x 3.630960 0.000000 0.000000 
#    y 0.000000 3.802680 0.000000 
#    z 0.000000 0.000000 3.796680 
# 
# 
# High freq. dielectric constant tensor:
#      x y z
#    x 1.801800 0.000000 0.000000 
#    y 0.000000 1.797050 0.000000 
#    z 0.000000 0.000000 1.797170 
# 
# From -- ./inp_files/17108.got.cif
#   From: 2010.03.12/outbox.cif.g09.slc.cpg/sg35_9_cif.got.tgz:17108.got - 2010.04.14 02:02:04.
