data_PCOD8173111
_publ_section_title
;
Structure prediction by ZEFSAII (Michael W. Deem and Ramdas Pophale) SiO2 
 PCOD8173111
Probable space group: C M M 2
;
_chemical_formula_sum "Si O2"
_cell_formula_units_Z 56
_cell_length_a 18.036722
_cell_length_b 9.156695
_cell_length_c 17.996593
_cell_angle_alpha 90.000000
_cell_angle_beta 90.000000
_cell_angle_gamma 90.000000
_cell_volume 2972.259030
_symmetry_space_group_name_H-M "C M M 2"
_symmetry_group_IT_number 35
_symmetry_cell_setting 'orthorhombic'
loop_
_space_group_symop_operation_xyz
x,y,z
-x,-y,z
-x,y,z
x,-y,z
1/2+x,1/2+y,z
1/2-x,1/2-y,z
1/2-x,1/2+y,z
1/2+x,1/2-y,z
loop_
_atom_site_type_symbol
_atom_site_label
_atom_site_fract_x
_atom_site_fract_y
_atom_site_fract_z
Si Si1 0.583025 0.326492 0.061300
Si Si2 0.084938 0.828937 0.350482
Si Si3 0.827931 0.172868 0.205176
Si Si4 0.413288 0.667045 0.770209
Si Si5 0.915366 0.671021 0.497741
Si Si6 0.672691 0.329267 0.919620
Si Si7 0.171765 0.672836 0.643841
O O1 0.500000 0.261091 0.057862
O O2 0.578862 0.500000 0.057908
O O3 0.620899 0.274140 0.137389
O O4 0.630375 0.266909 0.991880
O O5 0.133384 0.775547 0.281140
O O6 0.115017 0.750105 0.424220
O O7 0.000000 0.785050 0.334616
O O8 0.093091 0.000000 0.363367
O O9 0.750000 0.250000 0.197335
O O10 0.816445 0.000000 0.203538
O O11 0.500000 0.694309 0.778135
O O12 0.395742 0.500000 0.747304
O O13 0.377417 0.705842 0.848805
O O14 0.382139 0.776316 0.708966
O O15 0.909869 0.500000 0.483806
O O16 0.864533 0.720732 0.566051
O O17 0.000000 0.718459 0.514714
O O18 0.688337 0.500000 0.928290
O O19 0.750000 0.250000 0.909709
O O20 0.182308 0.500000 0.649164
O O21 0.250000 0.750000 0.653051
#
# Coordination Sequence:
#
# PCOD8173111 Si02
#       7
#     8   8   8   8   8   8   8
#     4   9  17  32  55  78 101 135 178 218 255 300
#     4   9  18  33  53  76 101 132 173 216 255 302
#     4  10  20  33  51  76 105 136 171 212 258 307
#     4  10  21  37  57  81 108 139 178 221 264 314
#     4   9  19  36  56  77 102 134 172 214 262 315
#     4  10  20  34  54  80 109 140 174 214 260 310
#     4  11  23  38  56  79 108 141 178 219 265 317
#
# _framework density 18.840889000000001
#
# number of rings (size 3 to 8) (size 9 to 14) (size 15 to 20)
#    0.000    2.286    0.000    2.571    0.000    8.286 
#    0.000    4.286    0.000    3.429    0.000    0.000 
#    0.000    0.000    0.000    0.000    0.000    0.000 
#
# Total GULP energy -347289.961424 kJ/mol
# GULP energy per Si atom -12403.212908 kJ/mol
# Density = 1.879801 g / cm^3
# Si number density = 18.840889 Si / 1000 Ang^3
#
#
#
# Elastic Constant Matrix: (Units=GPa)
#
#
# Indices 1 2 3 4 5 6 
#
# 1 137.5178 41.3951 75.6868 0.0000 0.0000 0.0000
# 2 41.3951 40.1862 49.5855 0.0000 0.0000 0.0000
# 3 75.6868 49.5855 157.5374 0.0000 0.0000 0.0000
# 4 0.0000 0.0000 0.0000 -21.5237 0.0000 0.0000
# 5 0.0000 0.0000 0.0000 0.0000 12.0640 0.0000
# 6 0.0000 0.0000 0.0000 0.0000 0.0000 26.6088
#
#
#
# Elastic Compliance Matrix: (Units=1/GPa)
#
#
# Indices 1 2 3 4 5 6 
#
# 1 0.011288 -0.008070 -0.002883 0.000000 0.000000 0.000000
# 2 -0.008070 0.046455 -0.010745 0.000000 0.000000 0.000000
# 3 -0.002883 -0.010745 0.011115 0.000000 0.000000 0.000000
# 4 0.000000 0.000000 0.000000 -0.046460 0.000000 0.000000
# 5 0.000000 0.000000 0.000000 0.000000 0.082891 0.000000
# 6 0.000000 0.000000 0.000000 0.000000 0.000000 0.037582
#
#
# Mechanical properties :
#
#
# Convention : Reuss Voigt Hill
#
# Bulk Modulus (GPa) = 39.27448 74.28625 56.78036
# Shear Modulus (GPa) = 25.67372 14.66809 20.17091
#
# Velocity S-wave (km/s) = 3.69543 2.79323 3.27554
# Velocity P-wave (km/s) = 6.25291 7.06517 6.67141
#
# Compressibility (1/GPa) = 0.02546183
#
# Stress axis : x y z
#
# Youngs Moduli (GPa) = 88.59198 21.52640 89.97082
#
# Poissons Ratio (x) = 0.17372 0.25938
# Poissons Ratio (y) = 0.71493 0.96671
# Poissons Ratio (z) = 0.25541 0.23129
#
# Static dielectric constant tensor:
#      x y z
#    x 3.531320 0.000000 0.000000 
#    y 0.000000 3.257830 0.000000 
#    z 0.000000 0.000000 3.679130 
# 
# 
# High freq. dielectric constant tensor:
#      x y z
#    x 1.741020 0.000000 0.000000 
#    y 0.000000 1.708180 0.000000 
#    z 0.000000 0.000000 1.749060 
# 
# From -- ./inp_files/16758.got.cif
#   From: 2010.03.12/outbox.cif.g09.slc.cpg/sg35_9_cif.got.tgz:16758.got - 2010.04.14 02:02:04.
