data_PCOD8173179
_publ_section_title
;
Structure prediction by ZEFSAII (Michael W. Deem and Ramdas Pophale) SiO2 
 PCOD8173179
Probable space group: C M M 2
;
_chemical_formula_sum "Si O2"
_cell_formula_units_Z 64
_cell_length_a 28.378640
_cell_length_b 8.835190
_cell_length_c 15.629182
_cell_angle_alpha 90.000000
_cell_angle_beta 90.000000
_cell_angle_gamma 90.000000
_cell_volume 3918.715374
_symmetry_space_group_name_H-M "C M M 2"
_symmetry_group_IT_number 35
_symmetry_cell_setting 'orthorhombic'
loop_
_space_group_symop_operation_xyz
x,y,z
-x,-y,z
-x,y,z
x,-y,z
1/2+x,1/2+y,z
1/2-x,1/2-y,z
1/2-x,1/2+y,z
1/2+x,1/2-y,z
loop_
_atom_site_type_symbol
_atom_site_label
_atom_site_fract_x
_atom_site_fract_y
_atom_site_fract_z
Si Si1 0.555985 0.674933 0.400280
Si Si2 0.298923 0.321804 0.616718
Si Si3 0.389983 0.178271 0.551948
Si Si4 0.110017 0.678271 0.877735
Si Si5 0.948778 0.178345 0.214842
Si Si6 0.555985 0.325067 0.029403
Si Si7 0.701077 0.678196 0.812965
Si Si8 0.052549 0.320090 0.714842
O O1 0.500000 0.704227 0.406008
O O2 0.567214 0.500000 0.420886
O O3 0.583343 0.781855 0.465126
O O4 0.575959 0.721333 0.305154
O O5 0.295490 0.500000 0.606221
O O6 0.250000 0.250000 0.585896
O O7 0.339393 0.258115 0.555144
O O8 0.309616 0.274358 0.714842
O O9 0.420987 0.240132 0.630882
O O10 0.382406 0.000000 0.557835
O O11 0.117594 0.500000 0.871848
O O12 0.083343 0.718145 0.964557
O O13 0.160607 0.758115 0.874539
O O14 0.079013 0.740132 0.798801
O O15 0.000000 0.256806 0.214842
O O16 0.956372 0.000000 0.214842
O O17 0.924041 0.221333 0.124529
O O18 0.500000 0.295773 0.023675
O O19 0.567214 0.500000 0.008797
O O20 0.704510 0.500000 0.823462
O O21 0.750000 0.750000 0.843787
O O22 0.050527 0.500000 0.714842
O O23 0.000000 0.251548 0.714842
#
# Coordination Sequence:
#
# PCOD8173179 Si02
#       8
#     8   8   8   8   8   8   8   8
#     4   9  17  30  48  70  96 127 164 203 241 283
#     4  10  20  34  52  71  93 120 157 201 244 284
#     4  11  20  31  47  68  97 130 163 196 237 284
#     4  11  20  31  47  68  97 130 163 196 237 284
#     4   7  12  26  47  67  90 123 160 199 243 285
#     4   9  17  30  48  70  96 127 164 203 241 283
#     4  10  20  34  52  71  93 120 157 201 244 284
#     4   9  18  30  42  59  90 131 166 191 222 269
#
# _framework density 16.331883000000001
#
# number of rings (size 3 to 8) (size 9 to 14) (size 15 to 20)
#    0.000    2.500    1.250    3.750    0.000    2.500 
#    0.000    0.625    0.000    5.250    0.000    0.875 
#    0.000    0.000    0.000    0.000    0.000    0.000 
#
# Total GULP energy -396647.853072 kJ/mol
# GULP energy per Si atom -12395.245408 kJ/mol
# Density = 1.629471 g / cm^3
# Si number density = 16.331883 Si / 1000 Ang^3
#
#
#
# Elastic Constant Matrix: (Units=GPa)
#
#
# Indices 1 2 3 4 5 6 
#
# 1 97.3246 32.4698 46.6281 0.0000 0.0000 0.0000
# 2 32.4698 52.7591 26.2268 0.0000 0.0000 0.0000
# 3 46.6281 26.2268 116.5266 0.0000 0.0000 0.0000
# 4 0.0000 0.0000 0.0000 20.7221 0.0000 0.0000
# 5 0.0000 0.0000 0.0000 0.0000 7.1360 0.0000
# 6 0.0000 0.0000 0.0000 0.0000 0.0000 24.9985
#
#
#
# Elastic Compliance Matrix: (Units=1/GPa)
#
#
# Indices 1 2 3 4 5 6 
#
# 1 0.014628 -0.006861 -0.004309 0.000000 0.000000 0.000000
# 2 -0.006861 0.024559 -0.002782 0.000000 0.000000 0.000000
# 3 -0.004309 -0.002782 0.010932 0.000000 0.000000 0.000000
# 4 0.000000 0.000000 0.000000 0.048258 0.000000 0.000000
# 5 0.000000 0.000000 0.000000 0.000000 0.140135 0.000000
# 6 0.000000 0.000000 0.000000 0.000000 0.000000 0.040002
#
#
# Mechanical properties :
#
#
# Convention : Reuss Voigt Hill
#
# Bulk Modulus (GPa) = 45.01368 53.02883 49.02125
# Shear Modulus (GPa) = 15.93242 21.32369 18.62806
#
# Velocity S-wave (km/s) = 3.12675 3.61730 3.38093
# Velocity P-wave (km/s) = 6.37629 7.07011 6.73215
#
# Compressibility (1/GPa) = 0.02221547
#
# Stress axis : x y z
#
# Youngs Moduli (GPa) = 68.36025 40.71754 91.47147
#
# Poissons Ratio (x) = 0.27935 0.39419
# Poissons Ratio (y) = 0.46899 0.25451
# Poissons Ratio (z) = 0.29459 0.11329
#
# Static dielectric constant tensor:
#      x y z
#    x 2.951420 0.000000 0.000000 
#    y 0.000000 2.860870 0.000000 
#    z 0.000000 0.000000 3.221820 
# 
# 
# High freq. dielectric constant tensor:
#      x y z
#    x 1.608450 0.000000 0.000000 
#    y 0.000000 1.616650 0.000000 
#    z 0.000000 0.000000 1.621340 
# 
# From -- ./inp_files/16213.got.cif
#   From: 2010.03.12/outbox.cif.g09.slc.cpg/sg35_9_cif.got.tgz:16213.got - 2010.04.14 02:02:04.
