data_PCOD8173186
_publ_section_title
;
Structure prediction by ZEFSAII (Michael W. Deem and Ramdas Pophale) SiO2 
 PCOD8173186
Probable space group: C M M 2
;
_chemical_formula_sum "Si O2"
_cell_formula_units_Z 48
_cell_length_a 15.645653
_cell_length_b 8.931543
_cell_length_c 17.389512
_cell_angle_alpha 90.000000
_cell_angle_beta 90.000000
_cell_angle_gamma 90.000000
_cell_volume 2430.007321
_symmetry_space_group_name_H-M "C M M 2"
_symmetry_group_IT_number 35
_symmetry_cell_setting 'orthorhombic'
loop_
_space_group_symop_operation_xyz
x,y,z
-x,-y,z
-x,y,z
x,-y,z
1/2+x,1/2+y,z
1/2-x,1/2-y,z
1/2-x,1/2+y,z
1/2+x,1/2-y,z
loop_
_atom_site_type_symbol
_atom_site_label
_atom_site_fract_x
_atom_site_fract_y
_atom_site_fract_z
Si Si1 0.500000 0.822891 0.228060
Si Si2 0.500000 0.178364 0.400745
Si Si3 0.902072 0.324641 0.657817
Si Si4 0.656891 0.821002 0.123436
Si Si5 0.098839 0.836327 0.805538
Si Si6 0.836956 0.322279 0.495405
Si Si7 0.658574 0.679171 0.967881
O O1 0.500000 0.757102 0.314197
O O2 0.587470 0.769954 0.186758
O O3 0.500000 0.000000 0.229730
O O4 0.584600 0.237454 0.443831
O O5 0.500000 0.000000 0.401551
O O6 0.895820 0.500000 0.665701
O O7 0.859955 0.259018 0.736136
O O8 0.850696 0.267983 0.583263
O O9 0.000000 0.274429 0.646627
O O10 0.750000 0.750000 0.142391
O O11 0.666635 0.000000 0.118149
O O12 0.618479 0.755512 0.043610
O O13 0.109051 0.768780 0.891023
O O14 0.000000 0.847479 0.787286
O O15 0.142379 0.000000 0.803928
O O16 0.830416 0.500000 0.490122
O O17 0.750000 0.250000 0.463423
O O18 0.659931 0.500000 0.978473
O O19 0.750000 0.750000 0.957351
#
# Coordination Sequence:
#
# PCOD8173186 Si02
#       7
#     4   4   8   8   8   8   8
#     4   9  20  36  59  86 109 142 182 219 269 329
#     4   9  18  38  61  80 111 148 178 217 269 329
#     4   9  17  32  52  74 102 140 184 224 263 314
#     4  10  20  36  56  82 112 142 181 225 270 322
#     4   9  19  33  49  73 103 138 178 220 267 312
#     4  10  20  35  58  84 110 144 184 222 268 323
#     4  10  20  34  52  73 103 141 179 220 268 318
#
# _framework density 19.753025999999998
#
# number of rings (size 3 to 8) (size 9 to 14) (size 15 to 20)
#    0.000    2.500    0.833    2.000    1.167    3.333 
#    0.000    5.000    0.000    3.000    0.000    0.000 
#    0.000    0.000    0.000    0.000    0.000    0.000 
#
# Total GULP energy -297425.438575 kJ/mol
# GULP energy per Si atom -12392.726607 kJ/mol
# Density = 1.970807 g / cm^3
# Si number density = 19.753026 Si / 1000 Ang^3
#
#
#
# Elastic Constant Matrix: (Units=GPa)
#
#
# Indices 1 2 3 4 5 6 
#
# 1 105.3870 32.2576 79.4113 0.0000 0.0000 0.0000
# 2 32.2576 50.1270 42.3355 0.0000 0.0000 0.0000
# 3 79.4113 42.3355 180.4384 0.0000 0.0000 0.0000
# 4 0.0000 0.0000 0.0000 19.0196 0.0000 0.0000
# 5 0.0000 0.0000 0.0000 0.0000 18.9389 0.0000
# 6 0.0000 0.0000 0.0000 0.0000 0.0000 24.3733
#
#
#
# Elastic Compliance Matrix: (Units=1/GPa)
#
#
# Indices 1 2 3 4 5 6 
#
# 1 0.015193 -0.005150 -0.005478 0.000000 0.000000 0.000000
# 2 -0.005150 0.026625 -0.003980 0.000000 0.000000 0.000000
# 3 -0.005478 -0.003980 0.008887 0.000000 0.000000 0.000000
# 4 0.000000 0.000000 0.000000 0.052577 0.000000 0.000000
# 5 0.000000 0.000000 0.000000 0.000000 0.052801 0.000000
# 6 0.000000 0.000000 0.000000 0.000000 0.000000 0.041028
#
#
# Mechanical properties :
#
#
# Convention : Reuss Voigt Hill
#
# Bulk Modulus (GPa) = 46.53827 71.55124 59.04476
# Shear Modulus (GPa) = 21.41395 24.59625 23.00510
#
# Velocity S-wave (km/s) = 3.29612 3.53255 3.41638
# Velocity P-wave (km/s) = 6.17228 7.27600 6.74675
#
# Compressibility (1/GPa) = 0.02148769
#
# Stress axis : x y z
#
# Youngs Moduli (GPa) = 65.81888 37.55827 112.52567
#
# Poissons Ratio (x) = 0.19344 0.61643
# Poissons Ratio (y) = 0.33900 0.44788
# Poissons Ratio (z) = 0.36056 0.14949
#
# Static dielectric constant tensor:
#      x y z
#    x 3.512390 0.000000 0.000000 
#    y 0.000000 3.484280 0.000000 
#    z 0.000000 0.000000 4.161110 
# 
# 
# High freq. dielectric constant tensor:
#      x y z
#    x 1.762530 0.000000 0.000000 
#    y 0.000000 1.746030 0.000000 
#    z 0.000000 0.000000 1.780030 
# 
# From -- ./inp_files/18798.got.cif
#   From: 2010.03.12/outbox.cif.g09.slc.cpg/sg35_10_cif.got.tgz:18798.got - 2010.04.14 02:02:04.
