data_PCOD8173853
_publ_section_title
;
Structure prediction by ZEFSAII (Michael W. Deem and Ramdas Pophale) SiO2 
 PCOD8173853
Probable space group: C M M 2
;
_chemical_formula_sum "Si O2"
_cell_formula_units_Z 48
_cell_length_a 37.274308
_cell_length_b 8.631366
_cell_length_c 7.594210
_cell_angle_alpha 90.000000
_cell_angle_beta 90.000000
_cell_angle_gamma 90.000000
_cell_volume 2443.271474
_symmetry_space_group_name_H-M "C M M 2"
_symmetry_group_IT_number 35
_symmetry_cell_setting 'orthorhombic'
loop_
_space_group_symop_operation_xyz
x,y,z
-x,-y,z
-x,y,z
x,-y,z
1/2+x,1/2+y,z
1/2-x,1/2-y,z
1/2-x,1/2+y,z
1/2+x,1/2-y,z
loop_
_atom_site_type_symbol
_atom_site_label
_atom_site_fract_x
_atom_site_fract_y
_atom_site_fract_z
Si Si1 0.211955 0.817873 0.699420
Si Si2 0.040996 0.320392 0.044004
Si Si3 0.587712 0.180279 0.377896
Si Si4 0.458279 0.678838 0.677830
Si Si5 0.288201 0.181685 0.072646
Si Si6 0.164640 0.180060 0.370462
O O1 0.250000 0.750000 0.638480
O O2 0.182728 0.771592 0.554438
O O3 0.215981 0.000000 0.722123
O O4 0.199363 0.747661 0.884738
O O5 0.046047 0.500000 0.996245
O O6 0.065571 0.269583 0.206179
O O7 0.000000 0.284616 0.097008
O O8 0.052951 0.219159 0.876993
O O9 0.564016 0.212816 0.548746
O O10 0.622933 0.284027 0.384868
O O11 0.598007 0.000000 0.373356
O O12 0.500000 0.716716 0.648982
O O13 0.449477 0.500000 0.640475
O O14 0.250000 0.250000 0.132874
O O15 0.318422 0.221410 0.213583
O O16 0.283811 0.000000 0.055658
O O17 0.170859 0.000000 0.330353
#
# Coordination Sequence:
#
# PCOD8173853 Si02
#       6
#     8   8   8   8   8   8
#     4  10  21  38  61  86 112 146 188 234 282 332
#     4   9  19  37  60  84 110 144 188 235 281 332
#     4  11  23  38  58  84 115 152 191 233 284 339
#     4  10  21  37  59  86 114 147 187 232 283 337
#     4  11  22  38  62  88 115 148 188 234 282 335
#     4  11  24  40  58  83 117 154 191 234 284 338
#
# _framework density 19.645790000000002
#
# number of rings (size 3 to 8) (size 9 to 14) (size 15 to 20)
#    0.000    1.667    0.000    5.500    0.000    8.333 
#    0.000    1.667    0.000    0.000    0.000    0.000 
#    0.000    0.000    0.000    0.000    0.000    0.000 
#
# Total GULP energy -297750.642212 kJ/mol
# GULP energy per Si atom -12406.276759 kJ/mol
# Density = 1.960108 g / cm^3
# Si number density = 19.645790 Si / 1000 Ang^3
#
#
#
# Elastic Constant Matrix: (Units=GPa)
#
#
# Indices 1 2 3 4 5 6 
#
# 1 97.1075 29.5176 69.6537 0.0000 0.0000 0.0000
# 2 29.5176 81.6752 43.2896 0.0000 0.0000 0.0000
# 3 69.6537 43.2896 123.7883 0.0000 0.0000 0.0000
# 4 0.0000 0.0000 0.0000 13.0961 0.0000 0.0000
# 5 0.0000 0.0000 0.0000 0.0000 8.5847 0.0000
# 6 0.0000 0.0000 0.0000 0.0000 0.0000 30.1718
#
#
#
# Elastic Compliance Matrix: (Units=1/GPa)
#
#
# Indices 1 2 3 4 5 6 
#
# 1 0.017387 -0.001348 -0.009312 0.000000 0.000000 0.000000
# 2 -0.001348 0.015134 -0.004534 0.000000 0.000000 0.000000
# 3 -0.009312 -0.004534 0.014903 0.000000 0.000000 0.000000
# 4 0.000000 0.000000 0.000000 0.076359 0.000000 0.000000
# 5 0.000000 0.000000 0.000000 0.000000 0.116486 0.000000
# 6 0.000000 0.000000 0.000000 0.000000 0.000000 0.033143
#
#
# Mechanical properties :
#
#
# Convention : Reuss Voigt Hill
#
# Bulk Modulus (GPa) = 58.69749 65.27700 61.98724
# Shear Modulus (GPa) = 16.15620 21.04454 18.60037
#
# Velocity S-wave (km/s) = 2.87082 3.27647 3.08033
# Velocity P-wave (km/s) = 6.39778 6.90020 6.65373
#
# Compressibility (1/GPa) = 0.01703650
#
# Stress axis : x y z
#
# Youngs Moduli (GPa) = 57.51436 66.07695 67.09843
#
# Poissons Ratio (x) = 0.08908 0.62481
# Poissons Ratio (y) = 0.07754 0.30421
# Poissons Ratio (z) = 0.53557 0.29958
#
# Static dielectric constant tensor:
#      x y z
#    x 3.389540 0.000000 0.000000 
#    y 0.000000 3.601190 0.000000 
#    z 0.000000 0.000000 3.662510 
# 
# 
# High freq. dielectric constant tensor:
#      x y z
#    x 1.760500 0.000000 0.000000 
#    y 0.000000 1.775850 0.000000 
#    z 0.000000 0.000000 1.777070 
# 
# From -- ./inp_files/10476.got.cif
#   From: 2010.03.12/outbox.cif.g09.slc.cpg/sg35_6_cif.got.tgz:10476.got - 2010.04.14 02:02:04.
