data_PCOD8173809
_publ_section_title
;
Structure prediction by ZEFSAII (Michael W. Deem and Ramdas Pophale) SiO2 
 PCOD8173809
Probable space group: C M M 2
;
_chemical_formula_sum "Si O2"
_cell_formula_units_Z 28
_cell_length_a 20.292606
_cell_length_b 9.550520
_cell_length_c 7.636003
_cell_angle_alpha 90.000000
_cell_angle_beta 90.000000
_cell_angle_gamma 90.000000
_cell_volume 1479.895099
_symmetry_space_group_name_H-M "C M M 2"
_symmetry_group_IT_number 35
_symmetry_cell_setting 'orthorhombic'
loop_
_space_group_symop_operation_xyz
x,y,z
-x,-y,z
-x,y,z
x,-y,z
1/2+x,1/2+y,z
1/2-x,1/2-y,z
1/2-x,1/2+y,z
1/2+x,1/2-y,z
loop_
_atom_site_type_symbol
_atom_site_label
_atom_site_fract_x
_atom_site_fract_y
_atom_site_fract_z
Si Si1 0.873239 0.342676 0.630860
Si Si2 0.250000 0.750000 0.460703
Si Si3 0.879506 0.157364 0.323462
Si Si4 0.422949 0.338366 0.941174
O O1 0.901254 0.500000 0.646497
O O2 0.794988 0.348271 0.586221
O O3 0.910437 0.258896 0.473107
O O4 0.883172 0.260335 0.810645
O O5 0.200676 0.840175 0.337180
O O6 0.905482 0.000000 0.355819
O O7 0.903201 0.211066 0.135373
O O8 0.500000 0.316224 0.911563
O O9 0.402529 0.500000 0.910821
#
# Coordination Sequence:
#
# PCOD8173809 Si02
#       4
#     8   4   8   8
#     4  10  21  36  58  86 117 150 183 230 287 335
#     4   8  20  36  58  86 114 146 186 230 286 332
#     4   9  19  37  59  82 112 149 189 233 277 331
#     4  10  22  39  59  83 111 150 195 232 275 333
#
# _framework density 18.920259999999999
#
# number of rings (size 3 to 8) (size 9 to 14) (size 15 to 20)
#    1.714    0.857    0.000    1.714    0.000    4.000 
#    0.000    5.714    0.000    0.000    0.000    0.000 
#    0.000    0.000    0.000    0.000    0.000    0.000 
#
# Total GULP energy -173453.992148 kJ/mol
# GULP energy per Si atom -12389.570868 kJ/mol
# Density = 1.887720 g / cm^3
# Si number density = 18.920260 Si / 1000 Ang^3
#
#
#
# Elastic Constant Matrix: (Units=GPa)
#
#
# Indices 1 2 3 4 5 6 
#
# 1 41.8975 6.9680 8.3517 0.0000 0.0000 0.0000
# 2 6.9680 116.1142 68.6059 0.0000 0.0000 0.0000
# 3 8.3517 68.6059 122.5303 0.0000 0.0000 0.0000
# 4 0.0000 0.0000 0.0000 23.8856 0.0000 0.0000
# 5 0.0000 0.0000 0.0000 0.0000 16.8151 0.0000
# 6 0.0000 0.0000 0.0000 0.0000 0.0000 13.3281
#
#
#
# Elastic Compliance Matrix: (Units=1/GPa)
#
#
# Indices 1 2 3 4 5 6 
#
# 1 0.024236 -0.000715 -0.001252 0.000000 0.000000 0.000000
# 2 -0.000715 0.012891 -0.007169 0.000000 0.000000 0.000000
# 3 -0.001252 -0.007169 0.012261 0.000000 0.000000 0.000000
# 4 0.000000 0.000000 0.000000 0.041866 0.000000 0.000000
# 5 0.000000 0.000000 0.000000 0.000000 0.059470 0.000000
# 6 0.000000 0.000000 0.000000 0.000000 0.000000 0.075029
#
#
# Mechanical properties :
#
#
# Convention : Reuss Voigt Hill
#
# Bulk Modulus (GPa) = 32.13725 49.82147 40.97936
# Shear Modulus (GPa) = 19.65433 23.91352 21.78393
#
# Velocity S-wave (km/s) = 3.22654 3.55901 3.39684
# Velocity P-wave (km/s) = 5.55907 6.57862 6.09022
#
# Compressibility (1/GPa) = 0.03111654
#
# Stress axis : x y z
#
# Youngs Moduli (GPa) = 41.26062 77.57390 81.56217
#
# Poissons Ratio (x) = 0.05545 0.10209
# Poissons Ratio (y) = 0.02949 0.58472
# Poissons Ratio (z) = 0.05165 0.55613
#
# Static dielectric constant tensor:
#      x y z
#    x 3.188590 0.000000 0.000000 
#    y 0.000000 3.264690 0.000000 
#    z 0.000000 0.000000 3.359660 
# 
# 
# High freq. dielectric constant tensor:
#      x y z
#    x 1.715410 0.000000 0.000000 
#    y 0.000000 1.727580 0.000000 
#    z 0.000000 0.000000 1.734140 
# 
# From -- ./inp_files/9576.got.cif
#   From: 2010.03.12/outbox.cif.g09.slc.cpg/sg35_5_cif.got.tgz:9576.got - 2010.04.14 02:02:04.
