data_PCOD8173608
_publ_section_title
;
Structure prediction by ZEFSAII (Michael W. Deem and Ramdas Pophale) SiO2 
 PCOD8173608
Probable space group: C M M 2
;
_chemical_formula_sum "Si O2"
_cell_formula_units_Z 40
_cell_length_a 18.275648
_cell_length_b 13.691821
_cell_length_c 7.726006
_cell_angle_alpha 90.000000
_cell_angle_beta 90.000000
_cell_angle_gamma 90.000000
_cell_volume 1933.254539
_symmetry_space_group_name_H-M "C M M 2"
_symmetry_group_IT_number 35
_symmetry_cell_setting 'orthorhombic'
loop_
_space_group_symop_operation_xyz
x,y,z
-x,-y,z
-x,y,z
x,-y,z
1/2+x,1/2+y,z
1/2-x,1/2-y,z
1/2-x,1/2+y,z
1/2+x,1/2-y,z
loop_
_atom_site_type_symbol
_atom_site_label
_atom_site_fract_x
_atom_site_fract_y
_atom_site_fract_z
Si Si1 0.180860 0.613692 0.878440
Si Si2 0.295671 0.612062 0.576647
Si Si3 0.730012 0.386627 0.200887
Si Si4 0.582244 0.724593 0.735517
Si Si5 0.921735 0.885032 0.078546
O O1 0.158210 0.500000 0.885941
O O2 0.245016 0.632180 0.740566
O O3 0.109981 0.674207 0.821077
O O4 0.210375 0.655106 0.064491
O O5 0.323062 0.500000 0.569716
O O6 0.249019 0.634544 0.400720
O O7 0.365150 0.685001 0.582891
O O8 0.726175 0.500000 0.154873
O O9 0.648711 0.340601 0.176038
O O10 0.500000 0.742144 0.664301
O O11 0.584048 0.639241 0.876554
O O12 0.000000 0.843182 0.150773
O O13 0.921957 0.000000 0.099510
#
# Coordination Sequence:
#
# PCOD8173608 Si02
#       5
#     8   8   8   8   8
#     4  10  21  40  59  79 112 150 196 244 278 326
#     4  10  20  36  60  88 113 143 186 237 293 348
#     4   9  18  34  59  84 108 146 189 233 287 337
#     4  11  22  36  55  84 118 153 190 230 286 347
#     4   9  17  31  52  80 115 146 173 217 279 343
#
# _framework density 20.690496
#
# number of rings (size 3 to 8) (size 9 to 14) (size 15 to 20)
#    0.000    2.200    2.000    1.200    0.000    2.400 
#    7.200    2.000    0.000    0.000    0.000    5.600 
#    0.000    0.000    0.000    0.000    0.000    0.000 
#
# Total GULP energy -247821.793075 kJ/mol
# GULP energy per Si atom -12391.089654 kJ/mol
# Density = 2.064340 g / cm^3
# Si number density = 20.690496 Si / 1000 Ang^3
#
#
#
# Elastic Constant Matrix: (Units=GPa)
#
#
# Indices 1 2 3 4 5 6 
#
# 1 78.3940 39.6614 26.2155 0.0000 0.0000 0.0000
# 2 39.6614 56.6115 20.7905 0.0000 0.0000 0.0000
# 3 26.2155 20.7905 114.4189 0.0000 0.0000 0.0000
# 4 0.0000 0.0000 0.0000 6.8430 0.0000 0.0000
# 5 0.0000 0.0000 0.0000 0.0000 15.4775 0.0000
# 6 0.0000 0.0000 0.0000 0.0000 0.0000 27.1597
#
#
#
# Elastic Compliance Matrix: (Units=1/GPa)
#
#
# Indices 1 2 3 4 5 6 
#
# 1 0.020269 -0.013388 -0.002211 0.000000 0.000000 0.000000
# 2 -0.013388 0.027770 -0.001979 0.000000 0.000000 0.000000
# 3 -0.002211 -0.001979 0.009606 0.000000 0.000000 0.000000
# 4 0.000000 0.000000 0.000000 0.146136 0.000000 0.000000
# 5 0.000000 0.000000 0.000000 0.000000 0.064610 0.000000
# 6 0.000000 0.000000 0.000000 0.000000 0.000000 0.036819
#
#
# Mechanical properties :
#
#
# Convention : Reuss Voigt Hill
#
# Bulk Modulus (GPa) = 44.46536 46.97324 45.71930
# Shear Modulus (GPa) = 14.37350 20.74652 17.56001
#
# Velocity S-wave (km/s) = 2.63856 3.16999 2.91640
# Velocity P-wave (km/s) = 5.55158 6.01253 5.78665
#
# Compressibility (1/GPa) = 0.02248942
#
# Stress axis : x y z
#
# Youngs Moduli (GPa) = 49.33666 36.00949 104.10187
#
# Poissons Ratio (x) = 0.48210 0.23020
# Poissons Ratio (y) = 0.66052 0.20597
# Poissons Ratio (z) = 0.10910 0.07125
#
# Static dielectric constant tensor:
#      x y z
#    x 3.920410 0.000000 0.000000 
#    y 0.000000 3.685610 0.000000 
#    z 0.000000 0.000000 3.659560 
# 
# 
# High freq. dielectric constant tensor:
#      x y z
#    x 1.792360 0.000000 0.000000 
#    y 0.000000 1.802170 0.000000 
#    z 0.000000 0.000000 1.799380 
# 
# From -- ./inp_files/6996.got.cif
#   From: 2010.03.12/outbox.cif.g09.slc.cpg/sg35_4_cif.got.tgz:6996.got - 2010.04.14 02:02:04.
