data_PCOD8173253
_publ_section_title
;
Structure prediction by ZEFSAII (Michael W. Deem and Ramdas Pophale) SiO2 
 PCOD8173253
Probable space group: C M M 2
;
_chemical_formula_sum "Si O2"
_cell_formula_units_Z 56
_cell_length_a 18.507999
_cell_length_b 9.045208
_cell_length_c 17.776674
_cell_angle_alpha 90.000000
_cell_angle_beta 90.000000
_cell_angle_gamma 90.000000
_cell_volume 2975.969896
_symmetry_space_group_name_H-M "C M M 2"
_symmetry_group_IT_number 35
_symmetry_cell_setting 'orthorhombic'
loop_
_space_group_symop_operation_xyz
x,y,z
-x,-y,z
-x,y,z
x,-y,z
1/2+x,1/2+y,z
1/2-x,1/2-y,z
1/2-x,1/2+y,z
1/2+x,1/2-y,z
loop_
_atom_site_type_symbol
_atom_site_label
_atom_site_fract_x
_atom_site_fract_y
_atom_site_fract_z
Si Si1 0.672747 0.174498 0.117940
Si Si2 0.585987 0.333243 0.412831
Si Si3 0.821637 0.829459 0.851413
Si Si4 0.414278 0.167598 0.559851
Si Si5 0.916660 0.171747 0.990031
Si Si6 0.083000 0.327499 0.263788
Si Si7 0.824315 0.175032 0.681138
O O1 0.750000 0.250000 0.118050
O O2 0.626748 0.227845 0.047455
O O3 0.630544 0.221262 0.193044
O O4 0.682961 0.000000 0.112171
O O5 0.500000 0.330536 0.413965
O O6 0.615803 0.500000 0.417591
O O7 0.616416 0.241263 0.483520
O O8 0.613674 0.259716 0.335766
O O9 0.750000 0.750000 0.881802
O O10 0.842052 0.778778 0.767089
O O11 0.801677 0.000000 0.851544
O O12 0.888434 0.794042 0.906008
O O13 0.500000 0.171358 0.560077
O O14 0.388548 0.261423 0.631016
O O15 0.385308 0.000000 0.564353
O O16 0.000000 0.217552 0.992862
O O17 0.905416 0.000000 0.010739
O O18 0.090033 0.500000 0.281510
O O19 0.000000 0.284924 0.246367
O O20 0.750000 0.250000 0.654657
O O21 0.819023 0.000000 0.670540
#
# Coordination Sequence:
#
# PCOD8173253 Si02
#       7
#     8   8   8   8   8   8   8
#     4  11  23  38  56  79 109 144 181 220 265 317
#     4   9  17  30  51  79 107 136 174 219 267 319
#     4   9  19  35  55  78 105 140 178 218 266 318
#     4  10  20  34  53  78 109 143 180 223 269 316
#     4  10  21  37  57  82 111 141 176 219 266 316
#     4   9  18  34  55  77 103 136 174 218 268 320
#     4  10  20  35  55  78 107 142 180 221 266 319
#
# _framework density 18.817395999999999
#
# number of rings (size 3 to 8) (size 9 to 14) (size 15 to 20)
#    0.000    2.286    0.000    2.571    0.000    7.429 
#    0.000    3.571    0.000    1.714    0.000    0.000 
#    0.000    0.000    0.000    0.000    0.000    0.000 
#
# Total GULP energy -347272.223031 kJ/mol
# GULP energy per Si atom -12402.579394 kJ/mol
# Density = 1.877457 g / cm^3
# Si number density = 18.817396 Si / 1000 Ang^3
#
#
#
# Elastic Constant Matrix: (Units=GPa)
#
#
# Indices 1 2 3 4 5 6 
#
# 1 85.8272 42.8620 56.9783 0.0000 0.0000 0.0000
# 2 42.8620 95.7772 61.7720 0.0000 0.0000 0.0000
# 3 56.9783 61.7720 130.9831 0.0000 0.0000 0.0000
# 4 0.0000 0.0000 0.0000 23.9153 0.0000 0.0000
# 5 0.0000 0.0000 0.0000 0.0000 15.5721 0.0000
# 6 0.0000 0.0000 0.0000 0.0000 0.0000 21.3288
#
#
#
# Elastic Compliance Matrix: (Units=1/GPa)
#
#
# Indices 1 2 3 4 5 6 
#
# 1 0.017481 -0.004194 -0.005626 0.000000 0.000000 0.000000
# 2 -0.004194 0.016011 -0.005726 0.000000 0.000000 0.000000
# 3 -0.005626 -0.005726 0.012783 0.000000 0.000000 0.000000
# 4 0.000000 0.000000 0.000000 0.041814 0.000000 0.000000
# 5 0.000000 0.000000 0.000000 0.000000 0.064217 0.000000
# 6 0.000000 0.000000 0.000000 0.000000 0.000000 0.046885
#
#
# Mechanical properties :
#
#
# Convention : Reuss Voigt Hill
#
# Bulk Modulus (GPa) = 65.87245 70.64579 68.25912
# Shear Modulus (GPa) = 21.24533 22.22826 21.73679
#
# Velocity S-wave (km/s) = 3.36374 3.44068 3.40243
# Velocity P-wave (km/s) = 7.08297 7.30812 7.19643
#
# Compressibility (1/GPa) = 0.01518085
#
# Stress axis : x y z
#
# Youngs Moduli (GPa) = 57.20453 62.45625 78.23142
#
# Poissons Ratio (x) = 0.26197 0.44015
# Poissons Ratio (y) = 0.23994 0.44798
# Poissons Ratio (z) = 0.32185 0.35765
#
# Static dielectric constant tensor:
#      x y z
#    x 3.297610 0.000000 0.000000 
#    y 0.000000 3.632020 0.000000 
#    z 0.000000 0.000000 3.644610 
# 
# 
# High freq. dielectric constant tensor:
#      x y z
#    x 1.710340 0.000000 0.000000 
#    y 0.000000 1.738400 0.000000 
#    z 0.000000 0.000000 1.743640 
# 
# From -- ./inp_files/15584.got.cif
#   From: 2010.03.12/outbox.cif.g09.slc.cpg/sg35_8_cif.got.tgz:15584.got - 2010.04.14 02:02:04.
