data_PCOD8173321
_publ_section_title
;
Structure prediction by ZEFSAII (Michael W. Deem and Ramdas Pophale) SiO2 
 PCOD8173321
Probable space group: C M M 2
;
_chemical_formula_sum "Si O2"
_cell_formula_units_Z 40
_cell_length_a 8.925200
_cell_length_b 15.595567
_cell_length_c 14.454378
_cell_angle_alpha 90.000000
_cell_angle_beta 90.000000
_cell_angle_gamma 90.000000
_cell_volume 2011.956253
_symmetry_space_group_name_H-M "C M M 2"
_symmetry_group_IT_number 35
_symmetry_cell_setting 'orthorhombic'
loop_
_space_group_symop_operation_xyz
x,y,z
-x,-y,z
-x,y,z
x,-y,z
1/2+x,1/2+y,z
1/2-x,1/2-y,z
1/2-x,1/2+y,z
1/2+x,1/2-y,z
loop_
_atom_site_type_symbol
_atom_site_label
_atom_site_fract_x
_atom_site_fract_y
_atom_site_fract_z
Si Si1 0.326489 0.399589 0.309830
Si Si2 0.677625 0.836704 0.129955
Si Si3 0.828438 0.399981 0.495539
Si Si4 0.177026 0.337158 0.693906
Si Si5 0.321956 0.000000 0.015762
Si Si6 0.178642 0.500000 0.806980
O O1 0.500000 0.377464 0.295904
O O2 0.293051 0.500000 0.298355
O O3 0.229729 0.348701 0.235260
O O4 0.275584 0.368778 0.411357
O O5 0.500000 0.829279 0.126672
O O6 0.750000 0.750000 0.089304
O O7 0.737776 0.915585 0.068186
O O8 0.807458 0.500000 0.516333
O O9 0.776287 0.350403 0.587215
O O10 0.000000 0.379627 0.469937
O O11 0.250000 0.250000 0.731484
O O12 0.239869 0.415479 0.755408
O O13 0.000000 0.331089 0.704270
O O14 0.500000 0.000000 0.016470
O O15 0.259405 0.000000 0.911581
O O16 0.000000 0.500000 0.804762
#
# Coordination Sequence:
#
# PCOD8173321 Si02
#       6
#     8   8   8   8   4   4
#     4  10  20  34  55  84 116 152 190 234 282 331
#     4  11  22  38  59  86 115 150 191 234 283 339
#     4   9  17  32  54  79 109 152 196 229 269 331
#     4  10  20  35  58  85 114 148 188 231 278 332
#     4   9  20  38  62  85 110 146 189 233 284 341
#     4   9  18  38  62  83 110 148 189 229 278 343
#
# _framework density 19.881149000000001
#
# number of rings (size 3 to 8) (size 9 to 14) (size 15 to 20)
#    0.000    2.200    2.000    1.200    0.000    3.200 
#    0.000    2.500    0.000    3.600    0.000    0.000 
#    0.000    0.000    0.000    0.000    0.000    0.000 
#
# Total GULP energy -248057.778031 kJ/mol
# GULP energy per Si atom -12402.888902 kJ/mol
# Density = 1.983590 g / cm^3
# Si number density = 19.881149 Si / 1000 Ang^3
#
#
#
# Elastic Constant Matrix: (Units=GPa)
#
#
# Indices 1 2 3 4 5 6 
#
# 1 55.0872 38.6179 33.5096 0.0000 0.0000 0.0000
# 2 38.6179 150.9567 76.2481 0.0000 0.0000 0.0000
# 3 33.5096 76.2481 125.3807 0.0000 0.0000 0.0000
# 4 0.0000 0.0000 0.0000 13.4854 0.0000 0.0000
# 5 0.0000 0.0000 0.0000 0.0000 14.5592 0.0000
# 6 0.0000 0.0000 0.0000 0.0000 0.0000 32.4098
#
#
#
# Elastic Compliance Matrix: (Units=1/GPa)
#
#
# Indices 1 2 3 4 5 6 
#
# 1 0.023283 -0.004060 -0.003753 0.000000 0.000000 0.000000
# 2 -0.004060 0.010269 -0.005160 0.000000 0.000000 0.000000
# 3 -0.003753 -0.005160 0.012117 0.000000 0.000000 0.000000
# 4 0.000000 0.000000 0.000000 0.074154 0.000000 0.000000
# 5 0.000000 0.000000 0.000000 0.000000 0.068685 0.000000
# 6 0.000000 0.000000 0.000000 0.000000 0.000000 0.030855
#
#
# Mechanical properties :
#
#
# Convention : Reuss Voigt Hill
#
# Bulk Modulus (GPa) = 50.70617 69.79731 60.25174
# Shear Modulus (GPa) = 19.85038 24.29416 22.07227
#
# Velocity S-wave (km/s) = 3.16326 3.49946 3.33560
# Velocity P-wave (km/s) = 6.23712 7.17717 6.72359
#
# Compressibility (1/GPa) = 0.01972147
#
# Stress axis : x y z
#
# Youngs Moduli (GPa) = 42.95048 97.37602 82.53002
#
# Poissons Ratio (x) = 0.39538 0.30976
# Poissons Ratio (y) = 0.17440 0.42586
# Poissons Ratio (z) = 0.16121 0.50246
#
# Static dielectric constant tensor:
#      x y z
#    x 3.298270 0.000000 0.000000 
#    y 0.000000 3.721470 0.000000 
#    z 0.000000 0.000000 3.669510 
# 
# 
# High freq. dielectric constant tensor:
#      x y z
#    x 1.748730 0.000000 0.000000 
#    y 0.000000 1.781350 0.000000 
#    z 0.000000 0.000000 1.773250 
# 
# From -- ./inp_files/14722.got.cif
#   From: 2010.03.12/outbox.cif.g09.slc.cpg/sg35_8_cif.got.tgz:14722.got - 2010.04.14 02:02:04.
