data_PCOD8173296
_publ_section_title
;
Structure prediction by ZEFSAII (Michael W. Deem and Ramdas Pophale) SiO2 
 PCOD8173296
Probable space group: C M M 2
;
_chemical_formula_sum "Si O2"
_cell_formula_units_Z 64
_cell_length_a 18.797968
_cell_length_b 24.656931
_cell_length_c 7.552758
_cell_angle_alpha 90.000000
_cell_angle_beta 90.000000
_cell_angle_gamma 90.000000
_cell_volume 3500.704843
_symmetry_space_group_name_H-M "C M M 2"
_symmetry_group_IT_number 35
_symmetry_cell_setting 'orthorhombic'
loop_
_space_group_symop_operation_xyz
x,y,z
-x,-y,z
-x,y,z
x,-y,z
1/2+x,1/2+y,z
1/2-x,1/2-y,z
1/2-x,1/2+y,z
1/2+x,1/2-y,z
loop_
_atom_site_type_symbol
_atom_site_label
_atom_site_fract_x
_atom_site_fract_y
_atom_site_fract_z
Si Si1 0.921351 0.643702 0.137690
Si Si2 0.198339 0.562263 0.143047
Si Si3 0.084572 0.842223 0.847365
Si Si4 0.584524 0.736627 0.151614
Si Si5 0.311336 0.562030 0.847366
Si Si6 0.421351 0.143702 0.557041
Si Si7 0.801661 0.437737 0.551685
Si Si8 0.084524 0.236627 0.543117
O O1 0.866538 0.598519 0.069349
O O2 0.892838 0.703500 0.082613
O O3 0.927309 0.641333 0.347366
O O4 0.000000 0.632581 0.056090
O O5 0.174557 0.500000 0.121053
O O6 0.217121 0.575720 0.347366
O O7 0.266776 0.574851 0.024129
O O8 0.118554 0.901437 0.847366
O O9 0.112221 0.809295 0.676129
O O10 0.000000 0.849188 0.847365
O O11 0.112221 0.809295 0.018602
O O12 0.500000 0.735878 0.160787
O O13 0.616307 0.724795 0.347365
O O14 0.337313 0.500000 0.847365
O O15 0.266776 0.574851 0.670603
O O16 0.500000 0.132581 0.638642
O O17 0.366538 0.098519 0.625382
O O18 0.392838 0.203500 0.612118
O O19 0.825443 0.500000 0.573680
O O20 0.000000 0.235878 0.533945
#
# Coordination Sequence:
#
# PCOD8173296 Si02
#       8
#     8   8   8   8   8   8   8   8
#     4   8  14  27  49  75 102 133 167 199 228 263
#     4   9  18  33  51  70  98 136 168 195 234 279
#     4  10  20  34  55  76  89 115 159 199 244 300
#     4   8  15  29  48  72 102 128 151 189 240 286
#     4  10  22  38  52  69  95 123 155 199 249 298
#     4   8  14  27  49  75 102 133 167 199 228 263
#     4   9  18  33  51  70  98 136 168 195 234 279
#     4   8  15  29  48  72 102 128 151 189 240 286
#
# _framework density 18.282033999999999
#
# number of rings (size 3 to 8) (size 9 to 14) (size 15 to 20)
#    0.000    3.250    0.000    1.500    0.000    2.750 
#    0.000    6.875    0.000    6.750    0.000    7.000 
#    0.000    0.000    0.000    0.000    0.000    0.000 
#
# Total GULP energy -396634.097132 kJ/mol
# GULP energy per Si atom -12394.815535 kJ/mol
# Density = 1.824042 g / cm^3
# Si number density = 18.282034 Si / 1000 Ang^3
#
#
#
# Elastic Constant Matrix: (Units=GPa)
#
#
# Indices 1 2 3 4 5 6 
#
# 1 60.2940 62.9558 32.8659 0.0000 0.0000 0.0000
# 2 62.9558 128.8325 50.5232 0.0000 0.0000 0.0000
# 3 32.8659 50.5232 89.3011 0.0000 0.0000 0.0000
# 4 0.0000 0.0000 0.0000 21.6383 0.0000 0.0000
# 5 0.0000 0.0000 0.0000 0.0000 14.2346 0.0000
# 6 0.0000 0.0000 0.0000 0.0000 0.0000 25.1809
#
#
#
# Elastic Compliance Matrix: (Units=1/GPa)
#
#
# Indices 1 2 3 4 5 6 
#
# 1 0.035005 -0.015490 -0.004119 0.000000 0.000000 0.000000
# 2 -0.015490 0.016830 -0.003821 0.000000 0.000000 0.000000
# 3 -0.004119 -0.003821 0.014876 0.000000 0.000000 0.000000
# 4 0.000000 0.000000 0.000000 0.046214 0.000000 0.000000
# 5 0.000000 0.000000 0.000000 0.000000 0.070251 0.000000
# 6 0.000000 0.000000 0.000000 0.000000 0.000000 0.039713
#
#
# Mechanical properties :
#
#
# Convention : Reuss Voigt Hill
#
# Bulk Modulus (GPa) = 50.37776 63.45749 56.91762
# Shear Modulus (GPa) = 18.09198 21.01628 19.55413
#
# Velocity S-wave (km/s) = 3.14921 3.39419 3.27399
# Velocity P-wave (km/s) = 6.39055 7.08141 6.74483
#
# Compressibility (1/GPa) = 0.01985003
#
# Stress axis : x y z
#
# Youngs Moduli (GPa) = 28.56756 59.41821 67.22352
#
# Poissons Ratio (x) = 0.92040 0.27691
# Poissons Ratio (y) = 0.44252 0.25685
# Poissons Ratio (z) = 0.11768 0.22702
#
# Static dielectric constant tensor:
#      x y z
#    x 3.039480 0.000000 0.000000 
#    y 0.000000 3.463300 0.000000 
#    z 0.000000 0.000000 3.632900 
# 
# 
# High freq. dielectric constant tensor:
#      x y z
#    x 1.666190 0.000000 0.000000 
#    y 0.000000 1.709020 0.000000 
#    z 0.000000 0.000000 1.711550 
# 
# From -- ./inp_files/8725.got.cif
#   From: 2010.03.12/outbox.cif.g09.slc.cpg/sg35_5_cif.got.tgz:8725.got - 2010.04.14 02:02:04.
