data_PCOD8173671
_publ_section_title
;
Structure prediction by ZEFSAII (Michael W. Deem and Ramdas Pophale) SiO2 
 PCOD8173671
Probable space group: C M M 2
;
_chemical_formula_sum "Si O2"
_cell_formula_units_Z 48
_cell_length_a 13.582579
_cell_length_b 24.746324
_cell_length_c 6.851529
_cell_angle_alpha 90.000000
_cell_angle_beta 90.000000
_cell_angle_gamma 90.000000
_cell_volume 2302.928396
_symmetry_space_group_name_H-M "C M M 2"
_symmetry_group_IT_number 35
_symmetry_cell_setting 'orthorhombic'
loop_
_space_group_symop_operation_xyz
x,y,z
-x,-y,z
-x,y,z
x,-y,z
1/2+x,1/2+y,z
1/2-x,1/2-y,z
1/2-x,1/2+y,z
1/2+x,1/2-y,z
loop_
_atom_site_type_symbol
_atom_site_label
_atom_site_fract_x
_atom_site_fract_y
_atom_site_fract_z
Si Si1 0.612027 0.500000 0.250000
Si Si2 0.385749 0.296610 0.953209
Si Si3 0.110683 0.716587 0.300731
Si Si4 0.691154 0.586288 0.977901
Si Si5 0.750000 0.250000 0.630049
Si Si6 0.610822 0.000000 0.437870
Si Si7 0.193071 0.000000 0.662849
Si Si8 0.391745 0.096754 0.141131
O O1 0.500000 0.500000 0.181671
O O2 0.620725 0.500000 0.481282
O O3 0.665198 0.553103 0.171147
O O4 0.500000 0.285296 0.903822
O O5 0.369793 0.359003 0.003609
O O6 0.318693 0.287195 0.763682
O O7 0.352053 0.258761 0.134329
O O8 0.178984 0.715454 0.491222
O O9 0.114237 0.656434 0.224240
O O10 0.000000 0.733074 0.362011
O O11 0.663758 0.553443 0.784088
O O12 0.809549 0.593687 0.973372
O O13 0.690963 0.000000 0.610230
O O14 0.628186 0.946727 0.309372
O O15 0.500000 0.000000 0.526289
O O16 0.500000 0.086618 0.047821
#
# Coordination Sequence:
#
# PCOD8173671 Si02
#       8
#     4   8   8   8   4   4   4   8
#     4  11  24  44  64  85 122 166 211 263 321 384
#     4  11  25  43  63  95 131 170 220 273 329 392
#     4  10  23  42  63  90 128 171 214 262 322 387
#     4  11  23  41  65  91 127 167 212 264 323 387
#     4  12  22  38  66  94 124 166 216 270 322 382
#     4  10  20  37  62  93 126 160 206 259 319 387
#     4  11  24  39  62  96 122 160 213 266 322 379
#     4  10  20  39  65  91 126 167 207 259 320 382
#
# _framework density 20.843025999999998
#
# number of rings (size 3 to 8) (size 9 to 14) (size 15 to 20)
#    0.000    1.333    1.667    4.000    2.333    4.000 
#    0.000    0.833    0.000    0.000    0.000    0.000 
#    0.000    0.000    0.000    0.000    0.000    0.000 
#
# Total GULP energy -297587.316961 kJ/mol
# GULP energy per Si atom -12399.471540 kJ/mol
# Density = 2.079559 g / cm^3
# Si number density = 20.843026 Si / 1000 Ang^3
#
#
#
# Elastic Constant Matrix: (Units=GPa)
#
#
# Indices 1 2 3 4 5 6 
#
# 1 116.8069 24.9531 39.8151 0.0000 0.0000 0.0000
# 2 24.9531 146.9543 47.4062 0.0000 0.0000 0.0000
# 3 39.8151 47.4062 106.0532 0.0000 0.0000 0.0000
# 4 0.0000 0.0000 0.0000 -1.5699 0.0000 0.0000
# 5 0.0000 0.0000 0.0000 0.0000 39.1826 0.0000
# 6 0.0000 0.0000 0.0000 0.0000 0.0000 34.1346
#
#
#
# Elastic Compliance Matrix: (Units=1/GPa)
#
#
# Indices 1 2 3 4 5 6 
#
# 1 0.009857 -0.000561 -0.003450 0.000000 0.000000 0.000000
# 2 -0.000561 0.007983 -0.003358 0.000000 0.000000 0.000000
# 3 -0.003450 -0.003358 0.012225 0.000000 0.000000 0.000000
# 4 0.000000 0.000000 0.000000 -0.636985 0.000000 0.000000
# 5 0.000000 0.000000 0.000000 0.000000 0.025522 0.000000
# 6 0.000000 0.000000 0.000000 0.000000 0.000000 0.029296
#
#
# Mechanical properties :
#
#
# Convention : Reuss Voigt Hill
#
# Bulk Modulus (GPa) = 65.23895 66.01811 65.62853
# Shear Modulus (GPa) = -9.39399 31.52547 11.06574
#
# Velocity S-wave (km/s) = -2.12528 3.89333 2.30664
# Velocity P-wave (km/s) = 5.03445 7.20787 6.21688
#
# Compressibility (1/GPa) = 0.01532827
#
# Stress axis : x y z
#
# Youngs Moduli (GPa) = 101.45215 125.26093 81.79667
#
# Poissons Ratio (x) = 0.07025 0.28218
# Poissons Ratio (y) = 0.05690 0.27468
# Poissons Ratio (z) = 0.34999 0.42063
#
# Static dielectric constant tensor:
#      x y z
#    x 4.178390 0.000000 0.000000 
#    y 0.000000 3.779010 0.000000 
#    z 0.000000 0.000000 3.515900 
# 
# 
# High freq. dielectric constant tensor:
#      x y z
#    x 1.840320 0.000000 0.000000 
#    y 0.000000 1.823840 0.000000 
#    z 0.000000 0.000000 1.796180 
# 
# From -- ./inp_files/1978.got.cif
#   From: 2010.03.12/outbox.cif.g09.slc.cpg/sg35_1_cif.got.tgz:1978.got - 2010.04.14 02:02:04.
