data_PCOD8173992
_publ_section_title
;
Structure prediction by ZEFSAII (Michael W. Deem and Ramdas Pophale) SiO2 
 PCOD8173992
Probable space group: C M M 2
;
_chemical_formula_sum "Si O2"
_cell_formula_units_Z 56
_cell_length_a 20.757637
_cell_length_b 9.438340
_cell_length_c 14.677187
_cell_angle_alpha 90.000000
_cell_angle_beta 90.000000
_cell_angle_gamma 90.000000
_cell_volume 2875.519774
_symmetry_space_group_name_H-M "C M M 2"
_symmetry_group_IT_number 35
_symmetry_cell_setting 'orthorhombic'
loop_
_space_group_symop_operation_xyz
x,y,z
-x,-y,z
-x,y,z
x,-y,z
1/2+x,1/2+y,z
1/2-x,1/2-y,z
1/2-x,1/2+y,z
1/2+x,1/2-y,z
loop_
_atom_site_type_symbol
_atom_site_label
_atom_site_fract_x
_atom_site_fract_y
_atom_site_fract_z
Si Si1 0.689897 0.336065 0.674030
Si Si2 0.361805 0.666321 0.863977
Si Si3 0.572697 0.335170 0.549152
Si Si4 0.811525 0.666954 0.238192
Si Si5 0.500000 0.335619 0.857943
Si Si6 0.072819 0.335086 0.367623
Si Si7 0.500000 0.844176 0.025530
Si Si8 0.858526 0.660162 0.045746
O O1 0.703010 0.500000 0.655206
O O2 0.750000 0.250000 0.632760
O O3 0.687594 0.304412 0.782511
O O4 0.623368 0.288580 0.626518
O O5 0.366042 0.500000 0.888240
O O6 0.431110 0.722347 0.822541
O O7 0.342348 0.747071 0.956425
O O8 0.500000 0.302027 0.584611
O O9 0.579665 0.500000 0.525609
O O10 0.588976 0.249238 0.458844
O O11 0.799706 0.500000 0.247706
O O12 0.750000 0.750000 0.278783
O O13 0.875966 0.712937 0.291614
O O14 0.818225 0.713058 0.132375
O O15 0.500000 0.500000 0.840218
O O16 0.500000 0.294082 0.963438
O O17 0.080053 0.500000 0.390405
O O18 0.000000 0.300853 0.333460
O O19 0.566781 0.834036 0.081018
O O20 0.500000 0.000000 0.974864
O O21 0.839511 0.500000 0.019608
#
# Coordination Sequence:
#
# PCOD8173992 Si02
#       8
#     8   8   8   8   4   8   4   8
#     4  10  22  37  54  79 110 146 182 219 266 320
#     4   9  18  32  51  75 104 140 180 221 265 312
#     4   9  19  37  61  85 108 137 176 221 270 322
#     4  10  22  37  54  79 110 146 182 219 266 320
#     4   8  14  26  46  70  95 124 166 216 261 304
#     4   9  19  37  61  85 108 137 176 221 270 322
#     4   8  14  26  46  70  95 124 166 216 261 304
#     4   9  18  32  51  75 104 140 180 221 265 312
#
# _framework density 19.474741000000002
#
# number of rings (size 3 to 8) (size 9 to 14) (size 15 to 20)
#    0.000    2.857    0.000    0.000    2.000    3.429 
#    0.000    5.714    0.000    0.000    0.000    0.000 
#    0.000    0.000    0.000    0.000    0.000    0.000 
#
# Total GULP energy -346869.018100 kJ/mol
# GULP energy per Si atom -12388.179218 kJ/mol
# Density = 1.943042 g / cm^3
# Si number density = 19.474741 Si / 1000 Ang^3
#
#
#
# Elastic Constant Matrix: (Units=GPa)
#
#
# Indices 1 2 3 4 5 6 
#
# 1 123.0780 47.7154 62.2107 0.0000 0.0000 0.0000
# 2 47.7154 42.6942 46.3018 0.0000 0.0000 0.0000
# 3 62.2107 46.3018 98.2650 0.0000 0.0000 0.0000
# 4 0.0000 0.0000 0.0000 28.5724 0.0000 0.0000
# 5 0.0000 0.0000 0.0000 0.0000 22.1885 0.0000
# 6 0.0000 0.0000 0.0000 0.0000 0.0000 30.4444
#
#
#
# Elastic Compliance Matrix: (Units=1/GPa)
#
#
# Indices 1 2 3 4 5 6 
#
# 1 0.014821 -0.013064 -0.003227 0.000000 0.000000 0.000000
# 2 -0.013064 0.059414 -0.019725 0.000000 0.000000 0.000000
# 3 -0.003227 -0.019725 0.021514 0.000000 0.000000 0.000000
# 4 0.000000 0.000000 0.000000 0.034999 0.000000 0.000000
# 5 0.000000 0.000000 0.000000 0.000000 0.045068 0.000000
# 6 0.000000 0.000000 0.000000 0.000000 0.000000 0.032847
#
#
# Mechanical properties :
#
#
# Convention : Reuss Voigt Hill
#
# Bulk Modulus (GPa) = 42.16415 64.05478 53.10946
# Shear Modulus (GPa) = 17.32494 23.42836 20.37665
#
# Velocity S-wave (km/s) = 2.98587 3.47221 3.23818
# Velocity P-wave (km/s) = 5.79525 7.00269 6.42738
#
# Compressibility (1/GPa) = 0.02371683
#
# Stress axis : x y z
#
# Youngs Moduli (GPa) = 67.47230 16.83094 46.48128
#
# Poissons Ratio (x) = 0.21988 0.15001
# Poissons Ratio (y) = 0.88145 0.91684
# Poissons Ratio (z) = 0.21776 0.33199
#
# Static dielectric constant tensor:
#      x y z
#    x 3.809330 0.000000 0.000000 
#    y 0.000000 3.430090 0.000000 
#    z 0.000000 0.000000 3.306480 
# 
# 
# High freq. dielectric constant tensor:
#      x y z
#    x 1.772570 0.000000 0.000000 
#    y 0.000000 1.743930 0.000000 
#    z 0.000000 0.000000 1.734510 
# 
# From -- ./inp_files/17498.got.cif
#   From: 2010.03.12/outbox.cif.g09.slc.cpg/sg35_9_cif.got.tgz:17498.got - 2010.04.14 02:02:04.
