data_PCOD8173640
_publ_section_title
;
Structure prediction by ZEFSAII (Michael W. Deem and Ramdas Pophale) SiO2 
 PCOD8173640
Probable space group: C M M 2
;
_chemical_formula_sum "Si O2"
_cell_formula_units_Z 64
_cell_length_a 23.385987
_cell_length_b 14.590447
_cell_length_c 9.004876
_cell_angle_alpha 90.000000
_cell_angle_beta 90.000000
_cell_angle_gamma 90.000000
_cell_volume 3072.571785
_symmetry_space_group_name_H-M "C M M 2"
_symmetry_group_IT_number 35
_symmetry_cell_setting 'orthorhombic'
loop_
_space_group_symop_operation_xyz
x,y,z
-x,-y,z
-x,y,z
x,-y,z
1/2+x,1/2+y,z
1/2-x,1/2-y,z
1/2-x,1/2+y,z
1/2+x,1/2-y,z
loop_
_atom_site_type_symbol
_atom_site_label
_atom_site_fract_x
_atom_site_fract_y
_atom_site_fract_z
Si Si1 0.235928 0.393414 0.184050
Si Si2 0.149531 0.892572 0.327000
Si Si3 0.436784 0.898393 0.621447
Si Si4 0.434229 0.736946 0.157681
Si Si5 0.220428 0.394601 0.843443
Si Si6 0.382468 0.894135 0.317780
Si Si7 0.335469 0.395488 0.672919
Si Si8 0.113626 0.734189 0.834596
O O1 0.235924 0.500000 0.220348
O O2 0.293147 0.350480 0.253240
O O3 0.178841 0.354106 0.263183
O O4 0.240129 0.372138 0.010188
O O5 0.094974 0.840006 0.261083
O O6 0.156795 0.874081 0.500612
O O7 0.141441 0.000000 0.291520
O O8 0.500000 0.893073 0.549078
O O9 0.389187 0.880145 0.494527
O O10 0.435414 0.823390 0.751899
O O11 0.426533 0.000000 0.688940
O O12 0.500000 0.708895 0.132856
O O13 0.431308 0.835586 0.236719
O O14 0.401391 0.747251 0.003336
O O15 0.199491 0.500000 0.831292
O O16 0.271084 0.374820 0.727528
O O17 0.169837 0.326225 0.805756
O O18 0.390707 0.000000 0.271737
O O19 0.351370 0.500000 0.710313
O O20 0.380117 0.333376 0.761026
#
# Coordination Sequence:
#
# PCOD8173640 Si02
#       8
#     8   8   8   8   8   8   8   8
#     4   9  18  36  63  92 124 162 201 251 316 380
#     4  10  23  44  67  92 123 161 211 273 331 383
#     4  10  22  39  60  88 127 172 214 261 314 376
#     4  12  26  42  64  92 125 170 221 270 320 380
#     4  10  20  37  59  90 131 169 205 251 315 390
#     4  10  21  39  62  92 127 167 210 256 315 377
#     4  10  23  41  63  91 125 164 205 264 332 390
#     4  12  23  39  60  90 126 170 215 263 315 391
#
# _framework density 20.829457999999999
#
# number of rings (size 3 to 8) (size 9 to 14) (size 15 to 20)
#    0.000    1.625    1.250    3.000    1.750    3.500 
#    2.250    0.625    0.000    2.625    0.000    0.000 
#    0.000    0.000    0.000    0.000    0.000    0.000 
#
# Total GULP energy -396804.143844 kJ/mol
# GULP energy per Si atom -12400.129495 kJ/mol
# Density = 2.078205 g / cm^3
# Si number density = 20.829458 Si / 1000 Ang^3
#
#
#
# Elastic Constant Matrix: (Units=GPa)
#
#
# Indices 1 2 3 4 5 6 
#
# 1 90.1317 50.0340 42.1076 0.0000 0.0000 0.0000
# 2 50.0340 93.3968 56.6189 0.0000 0.0000 0.0000
# 3 42.1076 56.6189 120.2883 0.0000 0.0000 0.0000
# 4 0.0000 0.0000 0.0000 32.8481 0.0000 0.0000
# 5 0.0000 0.0000 0.0000 0.0000 29.1538 0.0000
# 6 0.0000 0.0000 0.0000 0.0000 0.0000 30.3747
#
#
#
# Elastic Compliance Matrix: (Units=1/GPa)
#
#
# Indices 1 2 3 4 5 6 
#
# 1 0.016204 -0.007335 -0.002220 0.000000 0.000000 0.000000
# 2 -0.007335 0.018302 -0.006047 0.000000 0.000000 0.000000
# 3 -0.002220 -0.006047 0.011937 0.000000 0.000000 0.000000
# 4 0.000000 0.000000 0.000000 0.030443 0.000000 0.000000
# 5 0.000000 0.000000 0.000000 0.000000 0.034301 0.000000
# 6 0.000000 0.000000 0.000000 0.000000 0.000000 0.032922
#
#
# Mechanical properties :
#
#
# Convention : Reuss Voigt Hill
#
# Bulk Modulus (GPa) = 65.62026 66.81531 66.21779
# Shear Modulus (GPa) = 27.71740 28.81240 28.26490
#
# Velocity S-wave (km/s) = 3.65181 3.72325 3.68770
# Velocity P-wave (km/s) = 7.02516 7.11550 7.07048
#
# Compressibility (1/GPa) = 0.01523920
#
# Stress axis : x y z
#
# Youngs Moduli (GPa) = 61.71454 54.63781 83.77504
#
# Poissons Ratio (x) = 0.40076 0.18595
# Poissons Ratio (y) = 0.45267 0.50660
# Poissons Ratio (z) = 0.13699 0.33040
#
# Static dielectric constant tensor:
#      x y z
#    x 3.721620 0.000000 0.000000 
#    y 0.000000 3.879040 0.000000 
#    z 0.000000 0.000000 3.734020 
# 
# 
# High freq. dielectric constant tensor:
#      x y z
#    x 1.804410 0.000000 0.000000 
#    y 0.000000 1.820990 0.000000 
#    z 0.000000 0.000000 1.820690 
# 
# From -- ./inp_files/7829.got.cif
#   From: 2010.03.12/outbox.cif.g09.slc.cpg/sg35_4_cif.got.tgz:7829.got - 2010.04.14 02:02:04.
