data_PCOD8173456
_publ_section_title
;
Structure prediction by ZEFSAII (Michael W. Deem and Ramdas Pophale) SiO2 
 PCOD8173456
Probable space group: C M M 2
;
_chemical_formula_sum "Si O2"
_cell_formula_units_Z 64
_cell_length_a 8.851338
_cell_length_b 18.571458
_cell_length_c 20.186003
_cell_angle_alpha 90.000000
_cell_angle_beta 90.000000
_cell_angle_gamma 90.000000
_cell_volume 3318.220630
_symmetry_space_group_name_H-M "C M M 2"
_symmetry_group_IT_number 35
_symmetry_cell_setting 'orthorhombic'
loop_
_space_group_symop_operation_xyz
x,y,z
-x,-y,z
-x,y,z
x,-y,z
1/2+x,1/2+y,z
1/2-x,1/2-y,z
1/2-x,1/2+y,z
1/2+x,1/2-y,z
loop_
_atom_site_type_symbol
_atom_site_label
_atom_site_fract_x
_atom_site_fract_y
_atom_site_fract_z
Si Si1 0.177367 0.582265 0.472890
Si Si2 0.176273 0.676761 0.594390
Si Si3 0.826436 0.083241 0.850754
Si Si4 0.175281 0.916245 0.227181
Si Si5 0.322579 0.672060 0.356980
Si Si6 0.320809 0.826541 0.115173
Si Si7 0.677508 0.824011 0.743329
Si Si8 0.821453 0.174792 0.976917
O O1 0.232850 0.500000 0.467911
O O2 0.217961 0.610714 0.546357
O O3 0.265090 0.630897 0.421185
O O4 0.000000 0.588648 0.458624
O O5 0.250000 0.750000 0.567264
O O6 0.233664 0.658430 0.668598
O O7 0.000000 0.691308 0.595085
O O8 0.726651 0.111520 0.790473
O O9 0.000000 0.099773 0.834039
O O10 0.792317 0.000000 0.858717
O O11 0.780012 0.118299 0.920263
O O12 0.222871 0.874854 0.293489
O O13 0.277619 0.887125 0.167887
O O14 0.000000 0.903387 0.209908
O O15 0.210981 0.000000 0.237967
O O16 0.500000 0.682203 0.363223
O O17 0.250000 0.750000 0.350479
O O18 0.500000 0.818308 0.110748
O O19 0.250000 0.750000 0.136557
O O20 0.254669 0.851952 0.044795
O O21 0.500000 0.815079 0.746597
O O22 0.750000 0.750000 0.769265
O O23 0.750000 0.250000 0.954460
O O24 0.000000 0.183232 0.987979
#
# Coordination Sequence:
#
# PCOD8173456 Si02
#       8
#     8   8   8   8   8   8   8   8
#     4  10  21  37  57  82 114 149 183 225 277 329
#     4   9  19  35  55  80 109 143 184 227 273 327
#     4  10  22  38  55  79 112 147 183 226 277 331
#     4  10  22  40  60  83 114 149 182 222 275 330
#     4  11  23  39  60  85 112 145 187 231 274 324
#     4  11  22  37  59  86 114 145 185 229 271 321
#     4  10  20  35  57  82 109 144 185 229 275 326
#     4  10  20  36  58  81 108 145 186 228 275 326
#
# _framework density 19.287445999999999
#
# number of rings (size 3 to 8) (size 9 to 14) (size 15 to 20)
#    0.000    1.875    0.000    4.500    0.000    8.250 
#    0.000    2.500    0.000    0.000    0.000    0.000 
#    0.000    0.000    0.000    0.000    0.000    0.000 
#
# Total GULP energy -396928.022616 kJ/mol
# GULP energy per Si atom -12404.000707 kJ/mol
# Density = 1.924355 g / cm^3
# Si number density = 19.287446 Si / 1000 Ang^3
#
#
#
# Elastic Constant Matrix: (Units=GPa)
#
#
# Indices 1 2 3 4 5 6 
#
# 1 84.8082 53.2004 57.9096 0.0000 0.0000 0.0000
# 2 53.2004 136.5167 82.1066 0.0000 0.0000 0.0000
# 3 57.9096 82.1066 125.5918 0.0000 0.0000 0.0000
# 4 0.0000 0.0000 0.0000 15.8199 0.0000 0.0000
# 5 0.0000 0.0000 0.0000 0.0000 27.2820 0.0000
# 6 0.0000 0.0000 0.0000 0.0000 0.0000 28.7424
#
#
#
# Elastic Compliance Matrix: (Units=1/GPa)
#
#
# Indices 1 2 3 4 5 6 
#
# 1 0.018095 -0.003351 -0.006153 0.000000 0.000000 0.000000
# 2 -0.003351 0.012692 -0.006752 0.000000 0.000000 0.000000
# 3 -0.006153 -0.006752 0.015214 0.000000 0.000000 0.000000
# 4 0.000000 0.000000 0.000000 0.063212 0.000000 0.000000
# 5 0.000000 0.000000 0.000000 0.000000 0.036654 0.000000
# 6 0.000000 0.000000 0.000000 0.000000 0.000000 0.034792
#
#
# Mechanical properties :
#
#
# Convention : Reuss Voigt Hill
#
# Bulk Modulus (GPa) = 74.13803 81.48331 77.81067
# Shear Modulus (GPa) = 22.97093 24.61552 23.79322
#
# Velocity S-wave (km/s) = 3.45480 3.57633 3.51609
# Velocity P-wave (km/s) = 7.37808 7.70663 7.54414
#
# Compressibility (1/GPa) = 0.01348835
#
# Stress axis : x y z
#
# Youngs Moduli (GPa) = 55.26517 78.78828 65.73032
#
# Poissons Ratio (x) = 0.26403 0.40441
# Poissons Ratio (y) = 0.18520 0.44384
# Poissons Ratio (z) = 0.34002 0.53202
#
# Static dielectric constant tensor:
#      x y z
#    x 3.600950 0.000000 0.000000 
#    y 0.000000 3.598960 0.000000 
#    z 0.000000 0.000000 3.696830 
# 
# 
# High freq. dielectric constant tensor:
#      x y z
#    x 1.752340 0.000000 0.000000 
#    y 0.000000 1.751260 0.000000 
#    z 0.000000 0.000000 1.763410 
# 
# From -- ./inp_files/18319.got.cif
#   From: 2010.03.12/outbox.cif.g09.slc.cpg/sg35_10_cif.got.tgz:18319.got - 2010.04.14 02:02:04.
