data_PCOD8173452
_publ_section_title
;
Structure prediction by ZEFSAII (Michael W. Deem and Ramdas Pophale) SiO2 
 PCOD8173452
Probable space group: C M M 2
;
_chemical_formula_sum "Si O2"
_cell_formula_units_Z 64
_cell_length_a 26.516979
_cell_length_b 17.553596
_cell_length_c 6.479909
_cell_angle_alpha 90.000000
_cell_angle_beta 90.000000
_cell_angle_gamma 90.000000
_cell_volume 3016.192463
_symmetry_space_group_name_H-M "C M M 2"
_symmetry_group_IT_number 35
_symmetry_cell_setting 'orthorhombic'
loop_
_space_group_symop_operation_xyz
x,y,z
-x,-y,z
-x,y,z
x,-y,z
1/2+x,1/2+y,z
1/2-x,1/2-y,z
1/2-x,1/2+y,z
1/2+x,1/2-y,z
loop_
_atom_site_type_symbol
_atom_site_label
_atom_site_fract_x
_atom_site_fract_y
_atom_site_fract_z
Si Si1 0.304455 0.081544 0.950320
Si Si2 0.759452 0.165200 0.653850
Si Si3 0.880008 0.190239 0.155169
Si Si4 0.606812 0.084285 0.636025
Si Si5 0.853933 0.088271 0.780808
Si Si6 0.442217 0.647200 0.533073
Si Si7 0.944013 0.718173 0.836591
Si Si8 0.828341 0.674527 0.333499
O O1 0.253823 0.108722 0.840562
O O2 0.344303 0.072492 0.770866
O O3 0.294723 0.000000 0.059479
O O4 0.323726 0.142704 0.107503
O O5 0.750000 0.250000 0.739821
O O6 0.817673 0.138715 0.625619
O O7 0.724508 0.159201 0.450801
O O8 0.921131 0.148997 0.299666
O O9 0.839296 0.234955 0.301581
O O10 0.854275 0.126576 0.009307
O O11 0.906052 0.254574 0.013180
O O12 0.565838 0.131275 0.766643
O O13 0.623960 0.132958 0.437515
O O14 0.585540 0.000000 0.573914
O O15 0.909297 0.090806 0.676718
O O16 0.837246 0.000000 0.798473
O O17 0.500000 0.617632 0.528054
O O18 0.438659 0.731055 0.631498
O O19 0.000000 0.722895 0.929826
#
# Coordination Sequence:
#
# PCOD8173452 Si02
#       8
#     8   8   8   8   8   8   8   8
#     4  10  21  37  58  84 120 164 206 251 308 373
#     4  11  24  40  62  91 124 162 210 257 312 386
#     4  11  21  40  69  94 126 169 221 270 323 388
#     4  10  20  35  56  87 126 167 211 262 317 372
#     4  11  26  45  66  97 138 170 208 275 340 388
#     4  10  22  42  69  96 124 168 221 267 323 396
#     4  10  20  36  61  91 126 167 214 269 325 385
#     4  11  21  37  64  92 122 167 217 260 306 382
#
# _framework density 21.218805
#
# number of rings (size 3 to 8) (size 9 to 14) (size 15 to 20)
#    0.000    1.500    2.500    2.625    3.500    5.500 
#    0.000    0.000    0.000    0.000    0.000    0.000 
#    0.000    0.000    0.000    0.000    0.000    0.000 
#
# Total GULP energy -396633.604235 kJ/mol
# GULP energy per Si atom -12394.800132 kJ/mol
# Density = 2.117051 g / cm^3
# Si number density = 21.218805 Si / 1000 Ang^3
#
#
#
# Elastic Constant Matrix: (Units=GPa)
#
#
# Indices 1 2 3 4 5 6 
#
# 1 69.0040 39.2865 14.3794 0.0000 0.0000 0.0000
# 2 39.2865 125.9358 27.4669 0.0000 0.0000 0.0000
# 3 14.3794 27.4669 80.8278 0.0000 0.0000 0.0000
# 4 0.0000 0.0000 0.0000 22.8990 0.0000 0.0000
# 5 0.0000 0.0000 0.0000 0.0000 26.2171 0.0000
# 6 0.0000 0.0000 0.0000 0.0000 0.0000 19.9168
#
#
#
# Elastic Compliance Matrix: (Units=1/GPa)
#
#
# Indices 1 2 3 4 5 6 
#
# 1 0.017763 -0.005240 -0.001379 0.000000 0.000000 0.000000
# 2 -0.005240 0.010122 -0.002507 0.000000 0.000000 0.000000
# 3 -0.001379 -0.002507 0.013469 0.000000 0.000000 0.000000
# 4 0.000000 0.000000 0.000000 0.043670 0.000000 0.000000
# 5 0.000000 0.000000 0.000000 0.000000 0.038143 0.000000
# 6 0.000000 0.000000 0.000000 0.000000 0.000000 0.050209
#
#
# Mechanical properties :
#
#
# Convention : Reuss Voigt Hill
#
# Bulk Modulus (GPa) = 43.28951 48.67037 45.97994
# Shear Modulus (GPa) = 25.08393 26.78224 25.93308
#
# Velocity S-wave (km/s) = 3.44198 3.55659 3.49975
# Velocity P-wave (km/s) = 6.02014 6.31292 6.16827
#
# Compressibility (1/GPa) = 0.02310028
#
# Stress axis : x y z
#
# Youngs Moduli (GPa) = 56.29713 98.79257 74.24215
#
# Poissons Ratio (x) = 0.51772 0.10240
# Poissons Ratio (y) = 0.29502 0.18616
# Poissons Ratio (z) = 0.07765 0.24772
#
# Static dielectric constant tensor:
#      x y z
#    x 3.826620 0.000000 0.000000 
#    y 0.000000 4.095240 0.000000 
#    z 0.000000 0.000000 3.663370 
# 
# 
# High freq. dielectric constant tensor:
#      x y z
#    x 1.826280 0.000000 0.000000 
#    y 0.000000 1.829570 0.000000 
#    z 0.000000 0.000000 1.826450 
# 
# From -- ./inp_files/4079.got.cif
#   From: 2010.03.12/outbox.cif.g09.slc.cpg/sg35_3_cif.got.tgz:4079.got - 2010.04.14 02:02:04.
