data_PCOD8173949
_publ_section_title
;
Structure prediction by ZEFSAII (Michael W. Deem and Ramdas Pophale) SiO2 
 PCOD8173949
Probable space group: C M M 2
;
_chemical_formula_sum "Si O2"
_cell_formula_units_Z 48
_cell_length_a 15.762985
_cell_length_b 8.714369
_cell_length_c 16.788550
_cell_angle_alpha 90.000000
_cell_angle_beta 90.000000
_cell_angle_gamma 90.000000
_cell_volume 2306.150236
_symmetry_space_group_name_H-M "C M M 2"
_symmetry_group_IT_number 35
_symmetry_cell_setting 'orthorhombic'
loop_
_space_group_symop_operation_xyz
x,y,z
-x,-y,z
-x,y,z
x,-y,z
1/2+x,1/2+y,z
1/2-x,1/2-y,z
1/2-x,1/2+y,z
1/2+x,1/2-y,z
loop_
_atom_site_type_symbol
_atom_site_label
_atom_site_fract_x
_atom_site_fract_y
_atom_site_fract_z
Si Si1 0.157972 0.318582 0.501030
Si Si2 0.500000 0.817917 0.086119
Si Si3 0.838432 0.180586 0.174025
Si Si4 0.096219 0.174224 0.656234
Si Si5 0.836977 0.318623 0.809503
Si Si6 0.598614 0.177049 0.327983
Si Si7 0.500000 0.818011 0.904155
O O1 0.160441 0.500000 0.508161
O O2 0.250000 0.250000 0.512343
O O3 0.098871 0.251844 0.569895
O O4 0.119178 0.266443 0.416803
O O5 0.415700 0.754207 0.126382
O O6 0.500000 0.000000 0.095162
O O7 0.500000 0.762770 0.994986
O O8 0.750000 0.250000 0.141801
O O9 0.847712 0.219481 0.267497
O O10 0.838259 0.000000 0.160833
O O11 0.154127 0.266420 0.718078
O O12 0.000000 0.180580 0.686812
O O13 0.129582 0.000000 0.651054
O O14 0.832440 0.500000 0.813545
O O15 0.750000 0.250000 0.845182
O O16 0.915503 0.253474 0.861337
O O17 0.500000 0.200872 0.309910
O O18 0.624969 0.000000 0.316073
O O19 0.500000 0.000000 0.897908
#
# Coordination Sequence:
#
# PCOD8173949 Si02
#       7
#     8   4   8   8   8   8   4
#     4  11  23  38  57  85 121 164 212 261 314 370
#     4  11  23  45  71  98 133 166 207 265 322 387
#     4  12  25  42  66  98 131 173 218 262 320 382
#     4  11  23  39  60  88 121 162 211 262 315 369
#     4  11  22  41  66  95 128 166 210 256 312 376
#     4  10  21  39  63  90 123 165 211 263 320 376
#     4   9  22  43  69  96 127 166 205 253 318 381
#
# _framework density 20.813908999999999
#
# number of rings (size 3 to 8) (size 9 to 14) (size 15 to 20)
#    0.000    1.167    1.667    4.750    0.000    5.000 
#    0.000    5.000    0.000    0.000    0.000    0.000 
#    0.000    0.000    0.000    0.000    0.000    0.000 
#
# Total GULP energy -297737.088300 kJ/mol
# GULP energy per Si atom -12405.712012 kJ/mol
# Density = 2.076654 g / cm^3
# Si number density = 20.813909 Si / 1000 Ang^3
#
#
#
# Elastic Constant Matrix: (Units=GPa)
#
#
# Indices 1 2 3 4 5 6 
#
# 1 151.2999 51.9571 59.1037 0.0000 0.0000 0.0000
# 2 51.9571 110.1974 47.6623 0.0000 0.0000 0.0000
# 3 59.1037 47.6623 129.5038 0.0000 0.0000 0.0000
# 4 0.0000 0.0000 0.0000 21.7456 0.0000 0.0000
# 5 0.0000 0.0000 0.0000 0.0000 17.9515 0.0000
# 6 0.0000 0.0000 0.0000 0.0000 0.0000 32.3833
#
#
#
# Elastic Compliance Matrix: (Units=1/GPa)
#
#
# Indices 1 2 3 4 5 6 
#
# 1 0.008735 -0.002848 -0.002939 0.000000 0.000000 0.000000
# 2 -0.002848 0.011721 -0.003014 0.000000 0.000000 0.000000
# 3 -0.002939 -0.003014 0.010172 0.000000 0.000000 0.000000
# 4 0.000000 0.000000 0.000000 0.045986 0.000000 0.000000
# 5 0.000000 0.000000 0.000000 0.000000 0.055706 0.000000
# 6 0.000000 0.000000 0.000000 0.000000 0.000000 0.030880
#
#
# Mechanical properties :
#
#
# Convention : Reuss Voigt Hill
#
# Bulk Modulus (GPa) = 76.75958 78.71638 77.73798
# Shear Modulus (GPa) = 27.00605 29.90127 28.45366
#
# Velocity S-wave (km/s) = 3.60599 3.79436 3.70138
# Velocity P-wave (km/s) = 7.36862 7.55629 7.46304
#
# Compressibility (1/GPa) = 0.01302769
#
# Stress axis : x y z
#
# Youngs Moduli (GPa) = 114.47940 85.31774 98.30677
#
# Poissons Ratio (x) = 0.24295 0.28889
# Poissons Ratio (y) = 0.32599 0.29631
# Poissons Ratio (z) = 0.33641 0.25716
#
# Static dielectric constant tensor:
#      x y z
#    x 3.933640 0.000000 0.000000 
#    y 0.000000 3.699820 0.000000 
#    z 0.000000 0.000000 3.869600 
# 
# 
# High freq. dielectric constant tensor:
#      x y z
#    x 1.831100 0.000000 0.000000 
#    y 0.000000 1.811640 0.000000 
#    z 0.000000 0.000000 1.814120 
# 
# From -- ./inp_files/18787.got.cif
#   From: 2010.03.12/outbox.cif.g09.slc.cpg/sg35_10_cif.got.tgz:18787.got - 2010.04.14 02:02:04.
