data_PCOD8173486
_publ_section_title
;
Structure prediction by ZEFSAII (Michael W. Deem and Ramdas Pophale) SiO2 
 PCOD8173486
Probable space group: C M M 2
;
_chemical_formula_sum "Si O2"
_cell_formula_units_Z 48
_cell_length_a 18.190078
_cell_length_b 7.776465
_cell_length_c 17.179413
_cell_angle_alpha 90.000000
_cell_angle_beta 90.000000
_cell_angle_gamma 90.000000
_cell_volume 2430.105361
_symmetry_space_group_name_H-M "C M M 2"
_symmetry_group_IT_number 35
_symmetry_cell_setting 'orthorhombic'
loop_
_space_group_symop_operation_xyz
x,y,z
-x,-y,z
-x,y,z
x,-y,z
1/2+x,1/2+y,z
1/2-x,1/2-y,z
1/2-x,1/2+y,z
1/2+x,1/2-y,z
loop_
_atom_site_type_symbol
_atom_site_label
_atom_site_fract_x
_atom_site_fract_y
_atom_site_fract_z
Si Si1 0.586258 0.696702 0.845630
Si Si2 0.919243 0.696843 0.538264
Si Si3 0.415493 0.692886 0.238012
Si Si4 0.334245 0.797318 0.389677
Si Si5 0.412827 0.000000 0.129931
Si Si6 0.665744 0.300624 0.687613
Si Si7 0.587120 0.000000 0.956590
O O1 0.500000 0.716918 0.829490
O O2 0.605531 0.500000 0.869665
O O3 0.627949 0.754306 0.767930
O O4 0.613439 0.826346 0.912953
O O5 0.930681 0.500000 0.517235
O O6 0.874532 0.779064 0.466323
O O7 0.873924 0.705319 0.617541
O O8 0.000000 0.785099 0.546821
O O9 0.500000 0.735509 0.259108
O O10 0.408036 0.500000 0.203385
O O11 0.367773 0.703318 0.315419
O O12 0.385559 0.828656 0.174465
O O13 0.250000 0.750000 0.398050
O O14 0.345005 0.000000 0.379921
O O15 0.500000 0.000000 0.123566
O O16 0.378427 0.000000 0.043202
O O17 0.655998 0.500000 0.671840
O O18 0.750000 0.250000 0.691199
O O19 0.500000 0.000000 0.961418
#
# Coordination Sequence:
#
# PCOD8173486 Si02
#       7
#     8   8   8   8   4   8   4
#     4   9  19  35  55  83 114 146 191 239 286 343
#     4  10  22  38  58  83 114 151 191 236 285 333
#     4  10  20  35  58  86 115 151 193 237 288 342
#     4  11  22  37  56  82 115 153 193 241 283 340
#     4   9  18  34  56  87 119 145 183 237 291 345
#     4  11  23  37  55  81 112 152 191 239 283 335
#     4   9  18  32  58  87 113 149 183 231 295 341
#
# _framework density 19.752230999999998
#
# number of rings (size 3 to 8) (size 9 to 14) (size 15 to 20)
#    0.000    2.000    0.833    2.500    2.333    5.000 
#    0.000    3.333    0.000    1.000    0.000    0.000 
#    0.000    0.000    0.000    0.000    0.000    0.000 
#
# Total GULP energy -297605.349060 kJ/mol
# GULP energy per Si atom -12400.222878 kJ/mol
# Density = 1.970727 g / cm^3
# Si number density = 19.752231 Si / 1000 Ang^3
#
#
#
# Elastic Constant Matrix: (Units=GPa)
#
#
# Indices 1 2 3 4 5 6 
#
# 1 97.5996 26.6168 62.4040 0.0000 0.0000 0.0000
# 2 26.6168 99.0048 61.9697 0.0000 0.0000 0.0000
# 3 62.4040 61.9697 174.0180 0.0000 0.0000 0.0000
# 4 0.0000 0.0000 0.0000 17.2964 0.0000 0.0000
# 5 0.0000 0.0000 0.0000 0.0000 10.2843 0.0000
# 6 0.0000 0.0000 0.0000 0.0000 0.0000 19.8016
#
#
#
# Elastic Compliance Matrix: (Units=1/GPa)
#
#
# Indices 1 2 3 4 5 6 
#
# 1 0.013339 -0.000762 -0.004512 0.000000 0.000000 0.000000
# 2 -0.000762 0.013041 -0.004371 0.000000 0.000000 0.000000
# 3 -0.004512 -0.004371 0.008921 0.000000 0.000000 0.000000
# 4 0.000000 0.000000 0.000000 0.057815 0.000000 0.000000
# 5 0.000000 0.000000 0.000000 0.000000 0.097236 0.000000
# 6 0.000000 0.000000 0.000000 0.000000 0.000000 0.050501
#
#
# Mechanical properties :
#
#
# Convention : Reuss Voigt Hill
#
# Bulk Modulus (GPa) = 62.45541 74.73370 68.59455
# Shear Modulus (GPa) = 18.83383 24.11860 21.47621
#
# Velocity S-wave (km/s) = 3.09124 3.49815 3.30097
# Velocity P-wave (km/s) = 6.66551 7.36436 7.02363
#
# Compressibility (1/GPa) = 0.01601142
#
# Stress axis : x y z
#
# Youngs Moduli (GPa) = 74.97023 76.68001 112.09370
#
# Poissons Ratio (x) = 0.05842 0.50577
# Poissons Ratio (y) = 0.05711 0.48995
# Poissons Ratio (z) = 0.33827 0.33516
#
# Static dielectric constant tensor:
#      x y z
#    x 3.485430 0.000000 0.000000 
#    y 0.000000 3.732960 0.000000 
#    z 0.000000 0.000000 3.685120 
# 
# 
# High freq. dielectric constant tensor:
#      x y z
#    x 1.753400 0.000000 0.000000 
#    y 0.000000 1.778280 0.000000 
#    z 0.000000 0.000000 1.767420 
# 
# From -- ./inp_files/15183.got.cif
#   From: 2010.03.12/outbox.cif.g09.slc.cpg/sg35_8_cif.got.tgz:15183.got - 2010.04.14 02:02:04.
