data_PCOD8173832
_publ_section_title
;
Structure prediction by ZEFSAII (Michael W. Deem and Ramdas Pophale) SiO2 
 PCOD8173832
Probable space group: C M M 2
;
_chemical_formula_sum "Si O2"
_cell_formula_units_Z 64
_cell_length_a 28.753977
_cell_length_b 8.895397
_cell_length_c 12.571286
_cell_angle_alpha 90.000000
_cell_angle_beta 90.000000
_cell_angle_gamma 90.000000
_cell_volume 3215.458903
_symmetry_space_group_name_H-M "C M M 2"
_symmetry_group_IT_number 35
_symmetry_cell_setting 'orthorhombic'
loop_
_space_group_symop_operation_xyz
x,y,z
-x,-y,z
-x,y,z
x,-y,z
1/2+x,1/2+y,z
1/2-x,1/2-y,z
1/2-x,1/2+y,z
1/2+x,1/2-y,z
loop_
_atom_site_type_symbol
_atom_site_label
_atom_site_fract_x
_atom_site_fract_y
_atom_site_fract_z
Si Si1 0.052674 0.179524 0.225630
Si Si2 0.201513 0.825219 0.333233
Si Si3 0.300287 0.822731 0.956364
Si Si4 0.140837 0.322063 0.753567
Si Si5 0.945646 0.161929 0.456364
Si Si6 0.447326 0.320476 0.687098
Si Si7 0.798487 0.825219 0.579495
Si Si8 0.359163 0.177937 0.159161
O O1 0.065737 0.244326 0.344582
O O2 0.088373 0.258508 0.144388
O O3 0.000000 0.224447 0.193601
O O4 0.058351 0.000000 0.223500
O O5 0.250000 0.750000 0.301236
O O6 0.189476 0.797355 0.456364
O O7 0.161056 0.748736 0.266374
O O8 0.205093 0.000000 0.305313
O O9 0.250000 0.750000 0.956364
O O10 0.328591 0.768212 0.853262
O O11 0.293843 0.000000 0.956364
O O12 0.328591 0.768212 0.059466
O O13 0.139503 0.500000 0.744787
O O14 0.088373 0.258509 0.768340
O O15 0.161056 0.251264 0.646354
O O16 0.934263 0.244326 0.568147
O O17 0.000000 0.128774 0.456363
O O18 0.919433 0.000000 0.456364
O O19 0.500000 0.275553 0.719128
O O20 0.441649 0.500000 0.689229
O O21 0.750000 0.750000 0.611491
O O22 0.794907 0.000000 0.607415
O O23 0.360497 0.000000 0.167941
#
# Coordination Sequence:
#
# PCOD8173832 Si02
#       8
#     8   8   8   8   8   8   8   8
#     4   9  18  34  56  83 116 154 195 237 283 335
#     4  10  21  37  57  83 116 150 184 228 286 348
#     4  10  24  44  63  84 111 147 190 241 293 342
#     4  11  23  38  58  84 115 150 193 238 288 344
#     4   7  12  26  49  75 106 145 184 223 269 321
#     4   9  18  34  56  83 116 154 195 237 283 335
#     4  10  21  37  57  83 116 150 184 228 286 348
#     4  11  23  38  58  84 115 150 193 238 288 344
#
# _framework density 19.903846999999999
#
# number of rings (size 3 to 8) (size 9 to 14) (size 15 to 20)
#    0.000    2.375    0.000    3.750    1.750    6.000 
#    0.000    0.625    0.000    6.000    0.000    0.000 
#    0.000    0.000    0.000    0.000    0.000    0.000 
#
# Total GULP energy -396655.711435 kJ/mol
# GULP energy per Si atom -12395.490982 kJ/mol
# Density = 1.985854 g / cm^3
# Si number density = 19.903847 Si / 1000 Ang^3
#
#
#
# Elastic Constant Matrix: (Units=GPa)
#
#
# Indices 1 2 3 4 5 6 
#
# 1 160.5381 57.5501 73.2730 0.0000 0.0000 0.0000
# 2 57.5501 70.9460 38.8232 0.0000 0.0000 0.0000
# 3 73.2730 38.8232 80.9002 0.0000 0.0000 0.0000
# 4 0.0000 0.0000 0.0000 15.7838 0.0000 0.0000
# 5 0.0000 0.0000 0.0000 0.0000 40.4847 0.0000
# 6 0.0000 0.0000 0.0000 0.0000 0.0000 36.9237
#
#
#
# Elastic Compliance Matrix: (Units=1/GPa)
#
#
# Indices 1 2 3 4 5 6 
#
# 1 0.011821 -0.005059 -0.008279 0.000000 0.000000 0.000000
# 2 -0.005059 0.021280 -0.005630 0.000000 0.000000 0.000000
# 3 -0.008279 -0.005630 0.022561 0.000000 0.000000 0.000000
# 4 0.000000 0.000000 0.000000 0.063356 0.000000 0.000000
# 5 0.000000 0.000000 0.000000 0.000000 0.024701 0.000000
# 6 0.000000 0.000000 0.000000 0.000000 0.000000 0.027083
#
#
# Mechanical properties :
#
#
# Convention : Reuss Voigt Hill
#
# Bulk Modulus (GPa) = 56.41324 72.40853 64.41089
# Shear Modulus (GPa) = 23.29405 28.15429 25.72417
#
# Velocity S-wave (km/s) = 3.42472 3.76508 3.59893
# Velocity P-wave (km/s) = 6.63647 7.44038 7.04989
#
# Compressibility (1/GPa) = 0.01772634
#
# Stress axis : x y z
#
# Youngs Moduli (GPa) = 84.59312 46.99317 44.32346
#
# Poissons Ratio (x) = 0.23772 0.36696
# Poissons Ratio (y) = 0.42793 0.24955
# Poissons Ratio (z) = 0.70036 0.26458
#
# Static dielectric constant tensor:
#      x y z
#    x 4.210860 0.000000 0.000000 
#    y 0.000000 3.406260 0.000000 
#    z 0.000000 0.000000 3.722670 
# 
# 
# High freq. dielectric constant tensor:
#      x y z
#    x 1.789590 0.000000 0.000000 
#    y 0.000000 1.756410 0.000000 
#    z 0.000000 0.000000 1.762430 
# 
# From -- ./inp_files/14512.got.cif
#   From: 2010.03.12/outbox.cif.g09.slc.cpg/sg35_8_cif.got.tgz:14512.got - 2010.04.14 02:02:04.
