data_PCOD8173519
_publ_section_title
;
Structure prediction by ZEFSAII (Michael W. Deem and Ramdas Pophale) SiO2 
 PCOD8173519
Probable space group: C M M 2
;
_chemical_formula_sum "Si O2"
_cell_formula_units_Z 40
_cell_length_a 14.619608
_cell_length_b 8.686079
_cell_length_c 16.588423
_cell_angle_alpha 90.000000
_cell_angle_beta 90.000000
_cell_angle_gamma 90.000000
_cell_volume 2106.515233
_symmetry_space_group_name_H-M "C M M 2"
_symmetry_group_IT_number 35
_symmetry_cell_setting 'orthorhombic'
loop_
_space_group_symop_operation_xyz
x,y,z
-x,-y,z
-x,y,z
x,-y,z
1/2+x,1/2+y,z
1/2-x,1/2-y,z
1/2-x,1/2+y,z
1/2+x,1/2-y,z
loop_
_atom_site_type_symbol
_atom_site_label
_atom_site_fract_x
_atom_site_fract_y
_atom_site_fract_z
Si Si1 0.349256 0.317176 0.285330
Si Si2 0.851325 0.818340 0.878393
Si Si3 0.000000 0.678600 0.177700
Si Si4 0.500000 0.180945 0.574716
Si Si5 0.000000 0.322181 0.988083
Si Si6 0.500000 0.679169 0.749475
Si Si7 0.848539 0.316908 0.452966
O O1 0.345796 0.500000 0.289034
O O2 0.250000 0.250000 0.268649
O O3 0.411152 0.261848 0.212172
O O4 0.388102 0.252714 0.369914
O O5 0.750000 0.750000 0.873035
O O6 0.908764 0.773169 0.798480
O O7 0.843663 0.000000 0.888269
O O8 0.907116 0.754205 0.954684
O O9 0.000000 0.702426 0.082826
O O10 0.000000 0.500000 0.202080
O O11 0.500000 0.236845 0.665218
O O12 0.588882 0.239297 0.526757
O O13 0.500000 0.000000 0.576251
O O14 0.000000 0.500000 0.963235
O O15 0.500000 0.500000 0.732200
O O16 0.844901 0.500000 0.444070
O O17 0.750000 0.250000 0.472448
#
# Coordination Sequence:
#
# PCOD8173519 Si02
#       7
#     8   8   4   4   4   4   8
#     4  11  22  37  58  83 111 149 192 233 280 330
#     4  10  21  39  62  86 113 147 184 225 276 332
#     4  11  23  39  58  83 115 148 185 231 280 329
#     4  10  22  36  54  79 110 147 182 225 280 331
#     4  10  22  39  60  86 114 146 184 228 277 330
#     4   9  21  38  56  82 113 143 181 228 273 328
#     4  10  20  36  55  78 109 146 188 232 278 328
#
# _framework density 18.988707000000002
#
# number of rings (size 3 to 8) (size 9 to 14) (size 15 to 20)
#    0.000    1.800    0.000    6.000    0.000    8.000 
#    0.000    4.000    0.000    0.000    0.000    0.000 
#    0.000    0.000    0.000    0.000    0.000    0.000 
#
# Total GULP energy -248027.448459 kJ/mol
# GULP energy per Si atom -12401.372423 kJ/mol
# Density = 1.894549 g / cm^3
# Si number density = 18.988707 Si / 1000 Ang^3
#
#
#
# Elastic Constant Matrix: (Units=GPa)
#
#
# Indices 1 2 3 4 5 6 
#
# 1 146.4447 60.0671 71.3244 0.0000 0.0000 0.0000
# 2 60.0671 117.4768 51.4892 0.0000 0.0000 0.0000
# 3 71.3244 51.4892 109.1359 0.0000 0.0000 0.0000
# 4 0.0000 0.0000 0.0000 35.1908 0.0000 0.0000
# 5 0.0000 0.0000 0.0000 0.0000 25.6159 0.0000
# 6 0.0000 0.0000 0.0000 0.0000 0.0000 34.6241
#
#
#
# Elastic Compliance Matrix: (Units=1/GPa)
#
#
# Indices 1 2 3 4 5 6 
#
# 1 0.010829 -0.003070 -0.005629 0.000000 0.000000 0.000000
# 2 -0.003070 0.011602 -0.003467 0.000000 0.000000 0.000000
# 3 -0.005629 -0.003467 0.014477 0.000000 0.000000 0.000000
# 4 0.000000 0.000000 0.000000 0.028417 0.000000 0.000000
# 5 0.000000 0.000000 0.000000 0.000000 0.039038 0.000000
# 6 0.000000 0.000000 0.000000 0.000000 0.000000 0.028882
#
#
# Mechanical properties :
#
#
# Convention : Reuss Voigt Hill
#
# Bulk Modulus (GPa) = 79.51600 82.09097 80.80348
# Shear Modulus (GPa) = 30.90827 31.76461 31.33644
#
# Velocity S-wave (km/s) = 4.03888 4.09444 4.06676
# Velocity P-wave (km/s) = 7.98225 8.10419 8.04345
#
# Compressibility (1/GPa) = 0.01257609
#
# Stress axis : x y z
#
# Youngs Moduli (GPa) = 92.34256 86.19440 69.07321
#
# Poissons Ratio (x) = 0.26462 0.38881
# Poissons Ratio (y) = 0.28349 0.23949
# Poissons Ratio (z) = 0.51979 0.29885
#
# Static dielectric constant tensor:
#      x y z
#    x 3.613090 0.000000 0.000000 
#    y 0.000000 3.607400 0.000000 
#    z 0.000000 0.000000 3.760680 
# 
# 
# High freq. dielectric constant tensor:
#      x y z
#    x 1.748840 0.000000 0.000000 
#    y 0.000000 1.752690 0.000000 
#    z 0.000000 0.000000 1.737890 
# 
# From -- ./inp_files/16646.got.cif
#   From: 2010.03.12/outbox.cif.g09.slc.cpg/sg35_9_cif.got.tgz:16646.got - 2010.04.14 02:02:04.
