data_PCOD8173053
_publ_section_title
;
Structure prediction by ZEFSAII (Michael W. Deem and Ramdas Pophale) SiO2 
 PCOD8173053
Probable space group: C M M 2
;
_chemical_formula_sum "Si O2"
_cell_formula_units_Z 64
_cell_length_a 8.996412
_cell_length_b 18.800521
_cell_length_c 20.771296
_cell_angle_alpha 90.000000
_cell_angle_beta 90.000000
_cell_angle_gamma 90.000000
_cell_volume 3513.199526
_symmetry_space_group_name_H-M "C M M 2"
_symmetry_group_IT_number 35
_symmetry_cell_setting 'orthorhombic'
loop_
_space_group_symop_operation_xyz
x,y,z
-x,-y,z
-x,y,z
x,-y,z
1/2+x,1/2+y,z
1/2-x,1/2-y,z
1/2-x,1/2+y,z
1/2+x,1/2-y,z
loop_
_atom_site_type_symbol
_atom_site_label
_atom_site_fract_x
_atom_site_fract_y
_atom_site_fract_z
Si Si1 0.672866 0.674537 0.051360
Si Si2 0.164579 0.084482 0.676797
Si Si3 0.166173 0.415084 0.553711
Si Si4 0.823574 0.327282 0.927849
Si Si5 0.667076 0.415309 0.428324
Si Si6 0.172481 0.916783 0.820542
Si Si7 0.670538 0.084104 0.300766
Si Si8 0.672712 0.325990 0.193863
O O1 0.500000 0.682139 0.033312
O O2 0.750000 0.750000 0.056153
O O3 0.693170 0.640024 0.122068
O O4 0.757681 0.634313 0.992784
O O5 0.271301 0.115268 0.621276
O O6 0.218367 0.106736 0.748091
O O7 0.000000 0.114907 0.663956
O O8 0.159317 0.000000 0.673166
O O9 0.169649 0.500000 0.554064
O O10 0.261866 0.385337 0.494083
O O11 0.000000 0.386274 0.545483
O O12 0.750000 0.250000 0.919924
O O13 0.781132 0.374837 0.867285
O O14 0.000000 0.320396 0.932726
O O15 0.500000 0.385904 0.422633
O O16 0.668565 0.500000 0.429684
O O17 0.760952 0.387371 0.367584
O O18 0.000000 0.897955 0.833640
O O19 0.199921 0.000000 0.830843
O O20 0.500000 0.107986 0.298372
O O21 0.757780 0.117452 0.241664
O O22 0.688272 0.000000 0.295379
O O23 0.500000 0.315168 0.209616
O O24 0.750000 0.250000 0.201563
#
# Coordination Sequence:
#
# PCOD8173053 Si02
#       8
#     8   8   8   8   8   8   8   8
#     4   9  17  31  51  73  96 123 158 200 243 285
#     4   8  14  25  41  61  87 121 157 192 234 283
#     4   9  15  22  35  58  88 120 155 196 238 279
#     4  11  21  33  52  75  99 127 162 202 242 288
#     4   9  16  26  41  61  88 123 161 199 239 285
#     4   9  18  33  51  71  99 132 163 199 245 293
#     4  10  20  33  49  71 101 133 163 200 246 291
#     4  10  20  34  54  77  99 126 161 200 241 288
#
# _framework density 18.217013000000001
#
# number of rings (size 3 to 8) (size 9 to 14) (size 15 to 20)
#    0.000    2.625    0.000    4.500    0.000    6.000 
#    0.000    1.875    0.000    0.750    0.000    0.875 
#    0.000    4.000    0.000    0.000    0.000    0.000 
#
# Total GULP energy -396618.861621 kJ/mol
# GULP energy per Si atom -12394.339426 kJ/mol
# Density = 1.817555 g / cm^3
# Si number density = 18.217013 Si / 1000 Ang^3
#
#
#
# Elastic Constant Matrix: (Units=GPa)
#
#
# Indices 1 2 3 4 5 6 
#
# 1 160.4773 27.1535 92.0798 0.0000 0.0000 0.0000
# 2 27.1535 20.0482 29.1686 0.0000 0.0000 0.0000
# 3 92.0798 29.1686 170.7261 0.0000 0.0000 0.0000
# 4 0.0000 0.0000 0.0000 -11.5656 0.0000 0.0000
# 5 0.0000 0.0000 0.0000 0.0000 37.3243 0.0000
# 6 0.0000 0.0000 0.0000 0.0000 0.0000 19.9093
#
#
#
# Elastic Compliance Matrix: (Units=1/GPa)
#
#
# Indices 1 2 3 4 5 6 
#
# 1 0.009789 -0.007422 -0.004012 0.000000 0.000000 0.000000
# 2 -0.007422 0.072007 -0.008300 0.000000 0.000000 0.000000
# 3 -0.004012 -0.008300 0.009439 0.000000 0.000000 0.000000
# 4 0.000000 0.000000 0.000000 -0.086463 0.000000 0.000000
# 5 0.000000 0.000000 0.000000 0.000000 0.026792 0.000000
# 6 0.000000 0.000000 0.000000 0.000000 0.000000 0.050228
#
#
# Mechanical properties :
#
#
# Convention : Reuss Voigt Hill
#
# Bulk Modulus (GPa) = 19.31655 72.00616 45.66135
# Shear Modulus (GPa) = 36.09755 22.65692 29.37724
#
# Velocity S-wave (km/s) = 4.45627 3.53047 4.02011
# Velocity P-wave (km/s) = 6.09133 7.49878 6.83140
#
# Compressibility (1/GPa) = 0.05176908
#
# Stress axis : x y z
#
# Youngs Moduli (GPa) = 102.15514 13.88755 105.94385
#
# Poissons Ratio (x) = 0.10307 0.42501
# Poissons Ratio (y) = 0.75817 0.87929
# Poissons Ratio (z) = 0.40981 0.11526
#
# Static dielectric constant tensor:
#      x y z
#    x 3.547430 0.000000 0.000000 
#    y 0.000000 2.736300 0.000000 
#    z 0.000000 0.000000 3.937470 
# 
# 
# High freq. dielectric constant tensor:
#      x y z
#    x 1.720190 0.000000 0.000000 
#    y 0.000000 1.633530 0.000000 
#    z 0.000000 0.000000 1.730190 
# 
# From -- ./inp_files/18450.got.cif
#   From: 2010.03.12/outbox.cif.g09.slc.cpg/sg35_10_cif.got.tgz:18450.got - 2010.04.14 02:02:04.
