data_PCOD8173463
_publ_section_title
;
Structure prediction by ZEFSAII (Michael W. Deem and Ramdas Pophale) SiO2 
 PCOD8173463
Probable space group: C M M 2
;
_chemical_formula_sum "Si O2"
_cell_formula_units_Z 40
_cell_length_a 8.710534
_cell_length_b 18.498512
_cell_length_c 12.702982
_cell_angle_alpha 90.000000
_cell_angle_beta 90.000000
_cell_angle_gamma 90.000000
_cell_volume 2046.855850
_symmetry_space_group_name_H-M "C M M 2"
_symmetry_group_IT_number 35
_symmetry_cell_setting 'orthorhombic'
loop_
_space_group_symop_operation_xyz
x,y,z
-x,-y,z
-x,y,z
x,-y,z
1/2+x,1/2+y,z
1/2-x,1/2-y,z
1/2-x,1/2+y,z
1/2+x,1/2-y,z
loop_
_atom_site_type_symbol
_atom_site_label
_atom_site_fract_x
_atom_site_fract_y
_atom_site_fract_z
Si Si1 0.817315 0.580565 0.905550
Si Si2 0.681594 0.170760 0.104033
Si Si3 0.682089 0.827065 0.475862
Si Si4 0.179301 0.084383 0.295237
Si Si5 0.180437 0.674708 0.714793
O O1 0.748700 0.500000 0.916435
O O2 0.759927 0.613061 0.794315
O O3 0.000000 0.577874 0.909135
O O4 0.754730 0.629243 0.001235
O O5 0.500000 0.176993 0.101880
O O6 0.750000 0.250000 0.107178
O O7 0.730366 0.126800 0.206066
O O8 0.500000 0.825832 0.460266
O O9 0.750000 0.750000 0.439997
O O10 0.757446 0.890240 0.407804
O O11 0.730596 0.844349 0.596027
O O12 0.000000 0.101740 0.286700
O O13 0.214033 0.000000 0.282832
O O14 0.250000 0.750000 0.752786
O O15 0.000000 0.683021 0.722122
#
# Coordination Sequence:
#
# PCOD8173463 Si02
#       5
#     8   8   8   8   8
#     4   9  18  33  54  81 111 142 178 221 269 320
#     4  11  22  37  59  83 109 143 183 225 269 322
#     4  10  20  35  57  83 111 145 185 226 268 319
#     4  11  24  40  57  79 110 144 179 225 277 326
#     4   9  18  33  55  81 109 142 179 221 265 314
#
# _framework density 19.542169000000001
#
# number of rings (size 3 to 8) (size 9 to 14) (size 15 to 20)
#    0.000    2.000    0.000    3.600    0.000    4.000 
#    0.000    3.000    0.000    3.000    0.000    0.000 
#    0.000    0.000    0.000    0.000    0.000    0.000 
#
# Total GULP energy -248054.610053 kJ/mol
# GULP energy per Si atom -12402.730503 kJ/mol
# Density = 1.949769 g / cm^3
# Si number density = 19.542169 Si / 1000 Ang^3
#
#
#
# Elastic Constant Matrix: (Units=GPa)
#
#
# Indices 1 2 3 4 5 6 
#
# 1 49.5236 38.7580 25.6512 0.0000 0.0000 0.0000
# 2 38.7580 149.8270 78.2492 0.0000 0.0000 0.0000
# 3 25.6512 78.2492 127.8691 0.0000 0.0000 0.0000
# 4 0.0000 0.0000 0.0000 34.7277 0.0000 0.0000
# 5 0.0000 0.0000 0.0000 0.0000 12.2800 0.0000
# 6 0.0000 0.0000 0.0000 0.0000 0.0000 16.3969
#
#
#
# Elastic Compliance Matrix: (Units=1/GPa)
#
#
# Indices 1 2 3 4 5 6 
#
# 1 0.025535 -0.005776 -0.001588 0.000000 0.000000 0.000000
# 2 -0.005776 0.011116 -0.005644 0.000000 0.000000 0.000000
# 3 -0.001588 -0.005644 0.011593 0.000000 0.000000 0.000000
# 4 0.000000 0.000000 0.000000 0.028795 0.000000 0.000000
# 5 0.000000 0.000000 0.000000 0.000000 0.081433 0.000000
# 6 0.000000 0.000000 0.000000 0.000000 0.000000 0.060987
#
#
# Mechanical properties :
#
#
# Convention : Reuss Voigt Hill
#
# Bulk Modulus (GPa) = 44.98707 68.05961 56.52334
# Shear Modulus (GPa) = 19.77182 24.98502 22.37842
#
# Velocity S-wave (km/s) = 3.18426 3.57952 3.38766
# Velocity P-wave (km/s) = 6.04895 7.21017 6.65494
#
# Compressibility (1/GPa) = 0.02222861
#
# Stress axis : x y z
#
# Youngs Moduli (GPa) = 39.16121 89.95913 86.26154
#
# Poissons Ratio (x) = 0.51965 0.13695
# Poissons Ratio (y) = 0.22621 0.48684
# Poissons Ratio (z) = 0.06217 0.50770
#
# Static dielectric constant tensor:
#      x y z
#    x 3.432800 0.000000 0.000000 
#    y 0.000000 4.003230 0.000000 
#    z 0.000000 0.000000 3.849810 
# 
# 
# High freq. dielectric constant tensor:
#      x y z
#    x 1.747570 0.000000 0.000000 
#    y 0.000000 1.766890 0.000000 
#    z 0.000000 0.000000 1.777370 
# 
# From -- ./inp_files/11000.got.cif
#   From: 2010.03.12/outbox.cif.g09.slc.cpg/sg35_6_cif.got.tgz:11000.got - 2010.04.14 02:02:04.
