data_PCOD8173484
_publ_section_title
;
Structure prediction by ZEFSAII (Michael W. Deem and Ramdas Pophale) SiO2 
 PCOD8173484
Probable space group: C M M 2
;
_chemical_formula_sum "Si O2"
_cell_formula_units_Z 64
_cell_length_a 15.065224
_cell_length_b 18.740282
_cell_length_c 11.782758
_cell_angle_alpha 90.000000
_cell_angle_beta 90.000000
_cell_angle_gamma 90.000000
_cell_volume 3326.585370
_symmetry_space_group_name_H-M "C M M 2"
_symmetry_group_IT_number 35
_symmetry_cell_setting 'orthorhombic'
loop_
_space_group_symop_operation_xyz
x,y,z
-x,-y,z
-x,y,z
x,-y,z
1/2+x,1/2+y,z
1/2-x,1/2-y,z
1/2-x,1/2+y,z
1/2+x,1/2-y,z
loop_
_atom_site_type_symbol
_atom_site_label
_atom_site_fract_x
_atom_site_fract_y
_atom_site_fract_z
Si Si1 0.375679 0.217638 0.678750
Si Si2 0.903217 0.331186 0.920709
Si Si3 0.403217 0.168814 0.436791
Si Si4 0.771868 0.918140 0.437863
Si Si5 0.194333 0.862288 0.678750
Si Si6 0.228132 0.918140 0.919637
Si Si7 0.602733 0.688208 0.046551
Si Si8 0.102733 0.811791 0.310949
O O1 0.422166 0.187026 0.789943
O O2 0.422165 0.187026 0.567556
O O3 0.276021 0.190851 0.678751
O O4 0.385828 0.304537 0.678750
O O5 0.829613 0.392177 0.935017
O O6 0.000000 0.355805 0.970119
O O7 0.867784 0.260947 0.984900
O O8 0.500000 0.144195 0.387382
O O9 0.329613 0.107822 0.422483
O O10 0.367783 0.239052 0.372599
O O11 0.805699 0.911358 0.567373
O O12 0.837569 0.876086 0.355759
O O13 0.775007 0.000000 0.401151
O O14 0.194300 0.911357 0.790128
O O15 0.224994 0.000000 0.956350
O O16 0.162431 0.876087 0.001741
O O17 0.500000 0.670417 0.021331
O O18 0.620788 0.698455 0.178750
O O19 0.000000 0.829582 0.336171
#
# Coordination Sequence:
#
# PCOD8173484 Si02
#       8
#     8   8   8   8   8   8   8   8
#     4   9  15  30  57  82 108 142 184 230 267 307
#     4  10  20  35  58  86 113 145 187 229 270 324
#     4  10  20  35  58  86 113 145 187 229 270 324
#     4  11  22  36  56  83 118 153 180 219 278 336
#     4   9  17  32  53  81 113 144 181 224 268 320
#     4  11  22  36  56  83 118 153 180 219 278 336
#     4  10  22  40  61  82 105 140 189 240 282 324
#     4  10  22  40  61  82 105 140 189 240 282 324
#
# _framework density 19.238948000000001
#
# number of rings (size 3 to 8) (size 9 to 14) (size 15 to 20)
#    0.000    2.000    2.500    1.500    0.000    3.500 
#    0.000    1.875    0.000    6.000    0.000    5.250 
#    0.000    0.000    0.000    0.000    0.000    0.000 
#
# Total GULP energy -396676.916957 kJ/mol
# GULP energy per Si atom -12396.153655 kJ/mol
# Density = 1.919516 g / cm^3
# Si number density = 19.238948 Si / 1000 Ang^3
#
#
#
# Elastic Constant Matrix: (Units=GPa)
#
#
# Indices 1 2 3 4 5 6 
#
# 1 58.6594 18.7538 21.5912 0.0000 0.0000 0.0000
# 2 18.7538 87.9073 31.0330 0.0000 0.0000 0.0000
# 3 21.5912 31.0330 100.8987 0.0000 0.0000 0.0000
# 4 0.0000 0.0000 0.0000 12.4296 0.0000 0.0000
# 5 0.0000 0.0000 0.0000 0.0000 23.9990 0.0000
# 6 0.0000 0.0000 0.0000 0.0000 0.0000 18.6112
#
#
#
# Elastic Compliance Matrix: (Units=1/GPa)
#
#
# Indices 1 2 3 4 5 6 
#
# 1 0.019169 -0.002963 -0.003191 0.000000 0.000000 0.000000
# 2 -0.002963 0.013219 -0.003432 0.000000 0.000000 0.000000
# 3 -0.003191 -0.003432 0.011649 0.000000 0.000000 0.000000
# 4 0.000000 0.000000 0.000000 0.080453 0.000000 0.000000
# 5 0.000000 0.000000 0.000000 0.000000 0.041668 0.000000
# 6 0.000000 0.000000 0.000000 0.000000 0.000000 0.053731
#
#
# Mechanical properties :
#
#
# Convention : Reuss Voigt Hill
#
# Bulk Modulus (GPa) = 40.21440 43.35792 41.78616
# Shear Modulus (GPa) = 20.21424 22.74712 21.48068
#
# Velocity S-wave (km/s) = 3.24496 3.44226 3.34506
# Velocity P-wave (km/s) = 5.91504 6.19551 6.05689
#
# Compressibility (1/GPa) = 0.02486671
#
# Stress axis : x y z
#
# Youngs Moduli (GPa) = 52.16669 75.64743 85.84307
#
# Poissons Ratio (x) = 0.22415 0.27390
# Poissons Ratio (y) = 0.15458 0.29459
# Poissons Ratio (z) = 0.16645 0.25960
#
# Static dielectric constant tensor:
#      x y z
#    x 3.577230 0.000000 0.000000 
#    y 0.000000 3.217630 0.000000 
#    z 0.000000 0.000000 3.590540 
# 
# 
# High freq. dielectric constant tensor:
#      x y z
#    x 1.755790 0.000000 0.000000 
#    y 0.000000 1.724460 0.000000 
#    z 0.000000 0.000000 1.748400 
# 
# From -- ./inp_files/13240.got.cif
#   From: 2010.03.12/outbox.cif.g09.slc.cpg/sg35_7_cif.got.tgz:13240.got - 2010.04.14 02:02:04.
