data_PCOD8173840
_publ_section_title
;
Structure prediction by ZEFSAII (Michael W. Deem and Ramdas Pophale) SiO2 
 PCOD8173840
Probable space group: C M M 2
;
_chemical_formula_sum "Si O2"
_cell_formula_units_Z 56
_cell_length_a 8.681565
_cell_length_b 18.853702
_cell_length_c 17.816318
_cell_angle_alpha 90.000000
_cell_angle_beta 90.000000
_cell_angle_gamma 90.000000
_cell_volume 2916.168506
_symmetry_space_group_name_H-M "C M M 2"
_symmetry_group_IT_number 35
_symmetry_cell_setting 'orthorhombic'
loop_
_space_group_symop_operation_xyz
x,y,z
-x,-y,z
-x,y,z
x,-y,z
1/2+x,1/2+y,z
1/2-x,1/2-y,z
1/2-x,1/2+y,z
1/2+x,1/2-y,z
loop_
_atom_site_type_symbol
_atom_site_label
_atom_site_fract_x
_atom_site_fract_y
_atom_site_fract_z
Si Si1 0.819496 0.174649 0.618640
Si Si2 0.679251 0.418755 0.337773
Si Si3 0.319005 0.174318 0.775782
Si Si4 0.175867 0.916561 0.903111
Si Si5 0.675692 0.916629 0.492721
Si Si6 0.682292 0.328042 0.194072
Si Si7 0.818693 0.418540 0.060347
O O1 0.750000 0.250000 0.595007
O O2 0.748495 0.147241 0.696751
O O3 0.784216 0.118769 0.554013
O O4 0.000000 0.182886 0.629418
O O5 0.500000 0.410548 0.356406
O O6 0.720069 0.500000 0.317288
O O7 0.773888 0.392229 0.409848
O O8 0.730040 0.369870 0.268895
O O9 0.500000 0.181809 0.767436
O O10 0.250000 0.250000 0.798542
O O11 0.279066 0.118146 0.839291
O O12 0.000000 0.891003 0.895594
O O13 0.191551 0.000000 0.892875
O O14 0.239188 0.893025 0.983797
O O15 0.500000 0.893277 0.505966
O O16 0.698566 0.000000 0.500984
O O17 0.500000 0.325307 0.183321
O O18 0.750000 0.250000 0.199581
O O19 0.756434 0.368503 0.124870
O O20 0.774718 0.500000 0.078695
O O21 0.000000 0.408989 0.051582
#
# Coordination Sequence:
#
# PCOD8173840 Si02
#       7
#     8   8   8   8   8   8   8
#     4  11  22  38  59  82 112 149 189 231 279 334
#     4   9  19  37  59  81 108 146 189 231 279 334
#     4  11  22  38  59  83 114 149 188 231 278 333
#     4  10  21  38  60  86 115 147 186 230 277 330
#     4  10  21  37  58  85 115 147 186 231 278 329
#     4  11  23  38  57  83 115 149 187 231 278 329
#     4  10  21  38  60  85 113 146 185 229 279 334
#
# _framework density 19.203281
#
# number of rings (size 3 to 8) (size 9 to 14) (size 15 to 20)
#    0.000    1.714    0.000    5.571    0.000    6.000 
#    0.000    5.714    0.000    0.000    0.000    0.000 
#    0.000    0.000    0.000    0.000    0.000    0.000 
#
# Total GULP energy -347348.906023 kJ/mol
# GULP energy per Si atom -12405.318072 kJ/mol
# Density = 1.915957 g / cm^3
# Si number density = 19.203281 Si / 1000 Ang^3
#
#
#
# Elastic Constant Matrix: (Units=GPa)
#
#
# Indices 1 2 3 4 5 6 
#
# 1 125.8633 40.6631 53.0206 0.0000 0.0000 0.0000
# 2 40.6631 77.2609 68.1157 0.0000 0.0000 0.0000
# 3 53.0206 68.1157 133.5608 0.0000 0.0000 0.0000
# 4 0.0000 0.0000 0.0000 96.4111 0.0000 0.0000
# 5 0.0000 0.0000 0.0000 0.0000 38.0000 0.0000
# 6 0.0000 0.0000 0.0000 0.0000 0.0000 179.9763
#
#
#
# Elastic Compliance Matrix: (Units=1/GPa)
#
#
# Indices 1 2 3 4 5 6 
#
# 1 0.009955 -0.003189 -0.002325 0.000000 0.000000 0.000000
# 2 -0.003189 0.024539 -0.011249 0.000000 0.000000 0.000000
# 3 -0.002325 -0.011249 0.014147 0.000000 0.000000 0.000000
# 4 0.000000 0.000000 0.000000 0.010372 0.000000 0.000000
# 5 0.000000 0.000000 0.000000 0.000000 0.026316 0.000000
# 6 0.000000 0.000000 0.000000 0.000000 0.000000 0.005556
#
#
# Mechanical properties :
#
#
# Convention : Reuss Voigt Hill
#
# Bulk Modulus (GPa) = 66.16223 73.36486 69.76355
# Shear Modulus (GPa) = 38.62479 74.53653 56.58066
#
# Velocity S-wave (km/s) = 4.48969 6.23689 5.43397
# Velocity P-wave (km/s) = 7.83612 9.49485 8.70509
#
# Compressibility (1/GPa) = 0.01511436
#
# Stress axis : x y z
#
# Youngs Moduli (GPa) = 100.45112 40.75152 70.68537
#
# Poissons Ratio (x) = 0.12997 0.16437
# Poissons Ratio (y) = 0.32037 0.79512
# Poissons Ratio (z) = 0.23359 0.45840
#
# Static dielectric constant tensor:
#      x y z
#    x 3.660500 0.000000 0.000000 
#    y 0.000000 3.382200 0.000000 
#    z 0.000000 0.000000 3.594890 
# 
# 
# High freq. dielectric constant tensor:
#      x y z
#    x 1.763580 0.000000 0.000000 
#    y 0.000000 1.741600 0.000000 
#    z 0.000000 0.000000 1.759010 
# 
# From -- ./inp_files/15590.got.cif
#   From: 2010.03.12/outbox.cif.g09.slc.cpg/sg35_8_cif.got.tgz:15590.got - 2010.04.14 02:02:04.
