data_PCOD8173648
_publ_section_title
;
Structure prediction by ZEFSAII (Michael W. Deem and Ramdas Pophale) SiO2 
 PCOD8173648
Probable space group: C M M 2
;
_chemical_formula_sum "Si O2"
_cell_formula_units_Z 64
_cell_length_a 9.001382
_cell_length_b 30.903738
_cell_length_c 11.892380
_cell_angle_alpha 90.000000
_cell_angle_beta 90.000000
_cell_angle_gamma 90.000000
_cell_volume 3308.178873
_symmetry_space_group_name_H-M "C M M 2"
_symmetry_group_IT_number 35
_symmetry_cell_setting 'orthorhombic'
loop_
_space_group_symop_operation_xyz
x,y,z
-x,-y,z
-x,y,z
x,-y,z
1/2+x,1/2+y,z
1/2-x,1/2-y,z
1/2-x,1/2+y,z
1/2+x,1/2-y,z
loop_
_atom_site_type_symbol
_atom_site_label
_atom_site_fract_x
_atom_site_fract_y
_atom_site_fract_z
Si Si1 0.328501 0.707154 0.558120
Si Si2 0.323336 0.128092 0.942551
Si Si3 0.329390 0.671092 0.320945
Si Si4 0.330080 0.548777 0.542695
Si Si5 0.826169 0.794592 0.077043
Si Si6 0.823663 0.452250 0.087514
Si Si7 0.674999 0.625227 0.704086
Si Si8 0.324575 0.919250 0.325305
O O1 0.500000 0.714603 0.578937
O O2 0.250000 0.750000 0.604871
O O3 0.290899 0.701304 0.426684
O O4 0.275245 0.665228 0.626513
O O5 0.500000 0.133242 0.950445
O O6 0.247661 0.167404 0.006755
O O7 0.266875 0.083374 0.998956
O O8 0.271977 0.127723 0.815057
O O9 0.500000 0.655206 0.326792
O O10 0.297125 0.698081 0.208915
O O11 0.223651 0.630201 0.327303
O O12 0.500000 0.559010 0.511132
O O13 0.309327 0.500000 0.588146
O O14 0.278235 0.581345 0.640150
O O15 0.235722 0.554320 0.430553
O O16 0.750000 0.750000 0.040197
O O17 0.000000 0.792555 0.048450
O O18 0.764765 0.500000 0.052451
O O19 0.762503 0.441050 0.211524
O O20 0.000000 0.451858 0.090242
O O21 0.500000 0.626133 0.732462
O O22 0.500000 0.921196 0.329504
#
# Coordination Sequence:
#
# PCOD8173648 Si02
#       8
#     8   8   8   8   8   8   8   8
#     4  10  21  38  60  85 116 150 185 234 287 344
#     4  11  23  40  61  85 116 155 202 248 295 348
#     4  10  20  37  60  87 120 155 189 233 292 353
#     4  10  21  39  62  86 118 158 196 239 294 353
#     4  11  23  39  63  90 121 155 194 242 293 353
#     4   9  19  36  57  84 119 155 189 235 295 349
#     4  10  22  41  60  81 115 155 197 245 295 342
#     4  11  20  33  59  90 122 154 190 239 292 352
#
# _framework density 19.345991999999999
#
# number of rings (size 3 to 8) (size 9 to 14) (size 15 to 20)
#    0.000    1.750    2.500    1.875    0.000    3.750 
#    0.000    1.250    0.000    3.375    0.000    0.000 
#    0.000    0.000    0.000    0.000    0.000    0.000 
#
# Total GULP energy -396883.454773 kJ/mol
# GULP energy per Si atom -12402.607962 kJ/mol
# Density = 1.930196 g / cm^3
# Si number density = 19.345992 Si / 1000 Ang^3
#
#
#
# Elastic Constant Matrix: (Units=GPa)
#
#
# Indices 1 2 3 4 5 6 
#
# 1 65.6277 51.8209 50.5446 0.0000 0.0000 0.0000
# 2 51.8209 166.6481 66.4196 0.0000 0.0000 0.0000
# 3 50.5446 66.4196 129.6177 0.0000 0.0000 0.0000
# 4 0.0000 0.0000 0.0000 11.3150 0.0000 0.0000
# 5 0.0000 0.0000 0.0000 0.0000 31.9636 0.0000
# 6 0.0000 0.0000 0.0000 0.0000 0.0000 21.8594
#
#
#
# Elastic Compliance Matrix: (Units=1/GPa)
#
#
# Indices 1 2 3 4 5 6 
#
# 1 0.024479 -0.004785 -0.007094 0.000000 0.000000 0.000000
# 2 -0.004785 0.008476 -0.002478 0.000000 0.000000 0.000000
# 3 -0.007094 -0.002478 0.011751 0.000000 0.000000 0.000000
# 4 0.000000 0.000000 0.000000 0.088378 0.000000 0.000000
# 5 0.000000 0.000000 0.000000 0.000000 0.031286 0.000000
# 6 0.000000 0.000000 0.000000 0.000000 0.000000 0.045747
#
#
# Mechanical properties :
#
#
# Convention : Reuss Voigt Hill
#
# Bulk Modulus (GPa) = 62.52453 77.71818 70.12136
# Shear Modulus (GPa) = 20.47842 25.90149 23.18996
#
# Velocity S-wave (km/s) = 3.25704 3.66301 3.46597
# Velocity P-wave (km/s) = 6.82156 7.62562 7.23477
#
# Compressibility (1/GPa) = 0.01599372
#
# Stress axis : x y z
#
# Youngs Moduli (GPa) = 40.85136 117.98075 85.10066
#
# Poissons Ratio (x) = 0.56450 0.60369
# Poissons Ratio (y) = 0.19546 0.21084
# Poissons Ratio (z) = 0.28979 0.29230
#
# Static dielectric constant tensor:
#      x y z
#    x 3.418790 0.000000 0.000000 
#    y 0.000000 3.652750 0.000000 
#    z 0.000000 0.000000 3.574510 
# 
# 
# High freq. dielectric constant tensor:
#      x y z
#    x 1.740530 0.000000 0.000000 
#    y 0.000000 1.767750 0.000000 
#    z 0.000000 0.000000 1.752650 
# 
# From -- ./inp_files/11910.got.cif
#   From: 2010.03.12/outbox.cif.g09.slc.cpg/sg35_6_cif.got.tgz:11910.got - 2010.04.14 02:02:04.
