data_PCOD8173465
_publ_section_title
;
Structure prediction by ZEFSAII (Michael W. Deem and Ramdas Pophale) SiO2 
 PCOD8173465
Probable space group: C M M 2
;
_chemical_formula_sum "Si O2"
_cell_formula_units_Z 48
_cell_length_a 10.330755
_cell_length_b 17.483973
_cell_length_c 13.990543
_cell_angle_alpha 90.000000
_cell_angle_beta 90.000000
_cell_angle_gamma 90.000000
_cell_volume 2527.008833
_symmetry_space_group_name_H-M "C M M 2"
_symmetry_group_IT_number 35
_symmetry_cell_setting 'orthorhombic'
loop_
_space_group_symop_operation_xyz
x,y,z
-x,-y,z
-x,y,z
x,-y,z
1/2+x,1/2+y,z
1/2-x,1/2-y,z
1/2-x,1/2+y,z
1/2+x,1/2-y,z
loop_
_atom_site_type_symbol
_atom_site_label
_atom_site_fract_x
_atom_site_fract_y
_atom_site_fract_z
Si Si1 0.348495 0.411516 0.252270
Si Si2 0.000000 0.089939 0.535949
Si Si3 0.144508 0.909672 0.038023
Si Si4 0.000000 0.590726 0.530693
Si Si5 0.000000 0.339665 0.738876
Si Si6 0.000000 0.159265 0.740258
Si Si7 0.752424 0.840133 0.435403
Si Si8 0.249827 0.339317 0.858150
O O1 0.500000 0.398307 0.272858
O O2 0.313024 0.500000 0.268526
O O3 0.313062 0.385188 0.144772
O O4 0.262890 0.360308 0.323335
O O5 0.126459 0.125729 0.490320
O O6 0.000000 0.107940 0.647095
O O7 0.000000 0.000000 0.517137
O O8 0.000000 0.877334 0.016224
O O9 0.140915 0.000000 0.032112
O O10 0.247924 0.877956 0.962386
O O11 0.124149 0.623914 0.478318
O O12 0.000000 0.500000 0.523219
O O13 0.000000 0.614521 0.640966
O O14 0.123866 0.365139 0.800188
O O15 0.000000 0.249354 0.715592
O O16 0.874504 0.134518 0.799164
O O17 0.750000 0.750000 0.450549
O O18 0.250000 0.250000 0.876156
#
# Coordination Sequence:
#
# PCOD8173465 Si02
#       8
#     8   4   8   4   4   4   8   8
#     4   9  18  36  62  88 115 150 197 250 299 346
#     4  12  24  40  65  92 115 154 213 260 292 350
#     4   9  18  34  59  88 115 148 192 247 296 338
#     4  12  26  42  59  86 125 162 195 242 308 360
#     4  10  22  38  55  80 119 164 193 232 298 356
#     4  10  20  36  57  84 113 150 201 254 288 332
#     4  12  24  40  63  90 121 159 199 248 300 360
#     4  10  20  35  57  83 117 155 193 236 290 349
#
# _framework density 18.994789000000001
#
# number of rings (size 3 to 8) (size 9 to 14) (size 15 to 20)
#    0.000    1.667    1.667    5.000    0.000    3.333 
#    0.000    0.833    0.000    2.000    0.000    0.000 
#    0.000    0.000    0.000    0.000    0.000    0.000 
#
# Total GULP energy -297661.113844 kJ/mol
# GULP energy per Si atom -12402.546410 kJ/mol
# Density = 1.895156 g / cm^3
# Si number density = 18.994789 Si / 1000 Ang^3
#
#
#
# Elastic Constant Matrix: (Units=GPa)
#
#
# Indices 1 2 3 4 5 6 
#
# 1 147.6101 53.8556 80.8298 0.0000 0.0000 0.0000
# 2 53.8556 103.1403 63.1590 0.0000 0.0000 0.0000
# 3 80.8298 63.1590 165.3596 0.0000 0.0000 0.0000
# 4 0.0000 0.0000 0.0000 56.7193 0.0000 0.0000
# 5 0.0000 0.0000 0.0000 0.0000 -141.6135 0.0000
# 6 0.0000 0.0000 0.0000 0.0000 0.0000 19.9714
#
#
#
# Elastic Compliance Matrix: (Units=1/GPa)
#
#
# Indices 1 2 3 4 5 6 
#
# 1 0.009860 -0.002868 -0.003724 0.000000 0.000000 0.000000
# 2 -0.002868 0.013490 -0.003750 0.000000 0.000000 0.000000
# 3 -0.003724 -0.003750 0.009300 0.000000 0.000000 0.000000
# 4 0.000000 0.000000 0.000000 0.017631 0.000000 0.000000
# 5 0.000000 0.000000 0.000000 0.000000 -0.007061 0.000000
# 6 0.000000 0.000000 0.000000 0.000000 0.000000 0.050072
#
#
# Mechanical properties :
#
#
# Convention : Reuss Voigt Hill
#
# Bulk Modulus (GPa) = 83.57878 90.19985 86.88932
# Shear Modulus (GPa) = 42.38523 1.56650 21.97586
#
# Velocity S-wave (km/s) = 4.72891 0.90912 3.40507
# Velocity P-wave (km/s) = 8.59728 6.97794 7.82959
#
# Compressibility (1/GPa) = 0.01196476
#
# Stress axis : x y z
#
# Youngs Moduli (GPa) = 101.41476 74.13053 107.52114
#
# Poissons Ratio (x) = 0.21261 0.40046
# Poissons Ratio (y) = 0.29086 0.40325
# Poissons Ratio (z) = 0.37772 0.27802
#
# Static dielectric constant tensor:
#      x y z
#    x 9.069220 0.000000 0.000000 
#    y 0.000000 3.038810 0.000000 
#    z 0.000000 0.000000 3.760150 
# 
# 
# High freq. dielectric constant tensor:
#      x y z
#    x 1.733600 0.000000 0.000000 
#    y 0.000000 1.730630 0.000000 
#    z 0.000000 0.000000 1.757080 
# 
# From -- ./inp_files/15290.got.cif
#   From: 2010.03.12/outbox.cif.g09.slc.cpg/sg35_8_cif.got.tgz:15290.got - 2010.04.14 02:02:04.
