data_PCOD8173534
_publ_section_title
;
Structure prediction by ZEFSAII (Michael W. Deem and Ramdas Pophale) SiO2 
 PCOD8173534
Probable space group: C M M 2
;
_chemical_formula_sum "Si O2"
_cell_formula_units_Z 48
_cell_length_a 8.782405
_cell_length_b 18.523560
_cell_length_c 15.282730
_cell_angle_alpha 90.000000
_cell_angle_beta 90.000000
_cell_angle_gamma 90.000000
_cell_volume 2486.216003
_symmetry_space_group_name_H-M "C M M 2"
_symmetry_group_IT_number 35
_symmetry_cell_setting 'orthorhombic'
loop_
_space_group_symop_operation_xyz
x,y,z
-x,-y,z
-x,y,z
x,-y,z
1/2+x,1/2+y,z
1/2-x,1/2-y,z
1/2-x,1/2+y,z
1/2+x,1/2-y,z
loop_
_atom_site_type_symbol
_atom_site_label
_atom_site_fract_x
_atom_site_fract_y
_atom_site_fract_z
Si Si1 0.327191 0.585314 0.448100
Si Si2 0.320962 0.171576 0.101266
Si Si3 0.321816 0.325736 0.779485
Si Si4 0.820443 0.673441 0.597405
Si Si5 0.821499 0.416885 0.268948
Si Si6 0.823657 0.916642 0.947918
O O1 0.500000 0.612411 0.460117
O O2 0.315085 0.500000 0.454087
O O3 0.221023 0.616228 0.523577
O O4 0.266858 0.611719 0.354071
O O5 0.500000 0.180301 0.103141
O O6 0.250000 0.250000 0.095631
O O7 0.262795 0.130653 0.187908
O O8 0.277201 0.125139 0.017442
O O9 0.500000 0.313893 0.763702
O O10 0.250000 0.250000 0.810133
O O11 0.246729 0.353435 0.689766
O O12 0.288421 0.385719 0.852065
O O13 0.750000 0.750000 0.570730
O O14 0.000000 0.680847 0.605620
O O15 0.781151 0.500000 0.248311
O O16 0.000000 0.407245 0.285796
O O17 0.000000 0.905990 0.972278
O O18 0.775997 0.000000 0.948178
#
# Coordination Sequence:
#
# PCOD8173534 Si02
#       6
#     8   8   8   8   8   8
#     4  10  21  37  58  84 114 149 187 228 277 332
#     4  11  23  38  58  84 114 149 187 230 278 329
#     4  10  20  36  57  81 111 147 187 231 279 330
#     4  11  22  37  58  83 113 149 188 231 279 330
#     4   9  19  37  58  80 109 146 188 233 280 329
#     4  10  22  39  59  84 114 148 185 228 278 331
#
# _framework density 19.306446999999999
#
# number of rings (size 3 to 8) (size 9 to 14) (size 15 to 20)
#    0.000    1.833    0.000    5.000    0.000    7.333 
#    0.000    5.000    0.000    0.000    0.000    0.000 
#    0.000    0.000    0.000    0.000    0.000    0.000 
#
# Total GULP energy -297712.074757 kJ/mol
# GULP energy per Si atom -12404.669782 kJ/mol
# Density = 1.926250 g / cm^3
# Si number density = 19.306447 Si / 1000 Ang^3
#
#
#
# Elastic Constant Matrix: (Units=GPa)
#
#
# Indices 1 2 3 4 5 6 
#
# 1 104.1884 42.1711 61.1533 0.0000 0.0000 0.0000
# 2 42.1711 100.2641 69.7614 0.0000 0.0000 0.0000
# 3 61.1533 69.7614 136.2527 0.0000 0.0000 0.0000
# 4 0.0000 0.0000 0.0000 37.3311 0.0000 0.0000
# 5 0.0000 0.0000 0.0000 0.0000 22.7698 0.0000
# 6 0.0000 0.0000 0.0000 0.0000 0.0000 15.9657
#
#
#
# Elastic Compliance Matrix: (Units=1/GPa)
#
#
# Indices 1 2 3 4 5 6 
#
# 1 0.013349 -0.002246 -0.004841 0.000000 0.000000 0.000000
# 2 -0.002246 0.015871 -0.007118 0.000000 0.000000 0.000000
# 3 -0.004841 -0.007118 0.013156 0.000000 0.000000 0.000000
# 4 0.000000 0.000000 0.000000 0.026787 0.000000 0.000000
# 5 0.000000 0.000000 0.000000 0.000000 0.043918 0.000000
# 6 0.000000 0.000000 0.000000 0.000000 0.000000 0.062634
#
#
# Mechanical properties :
#
#
# Convention : Reuss Voigt Hill
#
# Bulk Modulus (GPa) = 71.60339 76.31964 73.96152
# Shear Modulus (GPa) = 23.94863 26.38795 25.16829
#
# Velocity S-wave (km/s) = 3.52582 3.70103 3.61449
# Velocity P-wave (km/s) = 7.33100 7.60789 7.47073
#
# Compressibility (1/GPa) = 0.01396582
#
# Stress axis : x y z
#
# Youngs Moduli (GPa) = 74.91395 63.00926 76.00864
#
# Poissons Ratio (x) = 0.14152 0.36797
# Poissons Ratio (y) = 0.16826 0.54101
# Poissons Ratio (z) = 0.36267 0.44848
#
# Static dielectric constant tensor:
#      x y z
#    x 3.630860 0.000000 0.000000 
#    y 0.000000 3.596450 0.000000 
#    z 0.000000 0.000000 3.638430 
# 
# 
# High freq. dielectric constant tensor:
#      x y z
#    x 1.759970 0.000000 0.000000 
#    y 0.000000 1.748770 0.000000 
#    z 0.000000 0.000000 1.764440 
# 
# From -- ./inp_files/15140.got.cif
#   From: 2010.03.12/outbox.cif.g09.slc.cpg/sg35_8_cif.got.tgz:15140.got - 2010.04.14 02:02:04.
