data_PCOD8173730
_publ_section_title
;
Structure prediction by ZEFSAII (Michael W. Deem and Ramdas Pophale) SiO2 
 PCOD8173730
Probable space group: C M M 2
;
_chemical_formula_sum "Si O2"
_cell_formula_units_Z 56
_cell_length_a 9.406156
_cell_length_b 18.241221
_cell_length_c 18.159510
_cell_angle_alpha 90.000000
_cell_angle_beta 90.000000
_cell_angle_gamma 90.000000
_cell_volume 3115.804556
_symmetry_space_group_name_H-M "C M M 2"
_symmetry_group_IT_number 35
_symmetry_cell_setting 'orthorhombic'
loop_
_space_group_symop_operation_xyz
x,y,z
-x,-y,z
-x,y,z
x,-y,z
1/2+x,1/2+y,z
1/2-x,1/2-y,z
1/2-x,1/2+y,z
1/2+x,1/2-y,z
loop_
_atom_site_type_symbol
_atom_site_label
_atom_site_fract_x
_atom_site_fract_y
_atom_site_fract_z
Si Si1 0.661039 0.412736 0.839400
Si Si2 0.339874 0.587257 0.564719
Si Si3 0.166379 0.584215 0.265262
Si Si4 0.663747 0.914848 0.979492
Si Si5 0.660755 0.087538 0.700830
Si Si6 0.333246 0.824988 0.123810
Si Si7 0.340300 0.412949 0.402321
O O1 0.500000 0.382166 0.837321
O O2 0.660628 0.500000 0.837319
O O3 0.738399 0.385127 0.913336
O O4 0.748208 0.382149 0.769540
O O5 0.500000 0.614698 0.581847
O O6 0.338380 0.500000 0.566863
O O7 0.232176 0.618451 0.626001
O O8 0.291264 0.614873 0.483423
O O9 0.211447 0.500000 0.252260
O O10 0.217650 0.629621 0.194786
O O11 0.239840 0.618352 0.338059
O O12 0.000000 0.591141 0.277856
O O13 0.500000 0.901642 0.957452
O O14 0.691931 0.000000 0.995475
O O15 0.707329 0.871550 0.052270
O O16 0.500000 0.117618 0.706027
O O17 0.660594 0.000000 0.701177
O O18 0.500000 0.808728 0.127141
O O19 0.250000 0.750000 0.121063
O O20 0.500000 0.385903 0.386463
O O21 0.332869 0.500000 0.401922
#
# Coordination Sequence:
#
# PCOD8173730 Si02
#       7
#     8   8   8   8   8   8   8
#     4   9  16  25  38  58  84 113 146 184 225 267
#     4   8  13  21  32  48  76 113 147 179 218 262
#     4   9  17  30  48  68  90 118 153 190 227 269
#     4   9  17  31  50  68  88 117 153 190 227 269
#     4   9  15  21  31  50  78 113 150 183 217 260
#     4  10  21  35  50  69  93 120 149 185 230 276
#     4   8  14  24  38  58  84 114 148 185 225 267
#
# _framework density 17.972887
#
# number of rings (size 3 to 8) (size 9 to 14) (size 15 to 20)
#    0.000    3.143    0.000    2.143    0.000    6.857 
#    0.000    2.857    0.000    4.286    0.000    0.000 
#    0.000    1.143    0.000    5.714    0.000   11.286 
#
# Total GULP energy -347089.626792 kJ/mol
# GULP energy per Si atom -12396.058100 kJ/mol
# Density = 1.793198 g / cm^3
# Si number density = 17.972887 Si / 1000 Ang^3
#
#
#
# Elastic Constant Matrix: (Units=GPa)
#
#
# Indices 1 2 3 4 5 6 
#
# 1 111.8758 28.0104 99.0447 0.0000 0.0000 0.0000
# 2 28.0104 33.4763 38.7262 0.0000 0.0000 0.0000
# 3 99.0447 38.7262 196.6304 0.0000 0.0000 0.0000
# 4 0.0000 0.0000 0.0000 0.0885 0.0000 0.0000
# 5 0.0000 0.0000 0.0000 0.0000 38.8740 0.0000
# 6 0.0000 0.0000 0.0000 0.0000 0.0000 15.3556
#
#
#
# Elastic Compliance Matrix: (Units=1/GPa)
#
#
# Indices 1 2 3 4 5 6 
#
# 1 0.016895 -0.005558 -0.007416 0.000000 0.000000 0.000000
# 2 -0.005558 0.040514 -0.005180 0.000000 0.000000 0.000000
# 3 -0.007416 -0.005180 0.009841 0.000000 0.000000 0.000000
# 4 0.000000 0.000000 0.000000 11.296747 0.000000 0.000000
# 5 0.000000 0.000000 0.000000 0.000000 0.025724 0.000000
# 6 0.000000 0.000000 0.000000 0.000000 0.000000 0.065123
#
#
# Mechanical properties :
#
#
# Convention : Reuss Voigt Hill
#
# Bulk Modulus (GPa) = 32.31638 74.83835 53.57736
# Shear Modulus (GPa) = 0.43473 22.61037 11.52255
#
# Velocity S-wave (km/s) = 0.49235 3.55072 2.53476
# Velocity P-wave (km/s) = 4.28286 7.65115 6.20012
#
# Compressibility (1/GPa) = 0.03094406
#
# Stress axis : x y z
#
# Youngs Moduli (GPa) = 59.18856 24.68266 101.61435
#
# Poissons Ratio (x) = 0.13719 0.75353
# Poissons Ratio (y) = 0.32897 0.52632
# Poissons Ratio (z) = 0.43892 0.12785
#
# Static dielectric constant tensor:
#      x y z
#    x 3.432830 0.000000 0.000000 
#    y 0.000000 2.668950 0.000000 
#    z 0.000000 0.000000 3.717830 
# 
# 
# High freq. dielectric constant tensor:
#      x y z
#    x 1.696830 0.000000 0.000000 
#    y 0.000000 1.621920 0.000000 
#    z 0.000000 0.000000 1.716190 
# 
# From -- ./inp_files/18200.got.cif
#   From: 2010.03.12/outbox.cif.g09.slc.cpg/sg35_10_cif.got.tgz:18200.got - 2010.04.14 02:02:04.
