data_PCOD8173921
_publ_section_title
;
Structure prediction by ZEFSAII (Michael W. Deem and Ramdas Pophale) SiO2 
 PCOD8173921
Probable space group: C M M 2
;
_chemical_formula_sum "Si O2"
_cell_formula_units_Z 64
_cell_length_a 30.637321
_cell_length_b 8.704147
_cell_length_c 11.841943
_cell_angle_alpha 90.000000
_cell_angle_beta 90.000000
_cell_angle_gamma 90.000000
_cell_volume 3157.911612
_symmetry_space_group_name_H-M "C M M 2"
_symmetry_group_IT_number 35
_symmetry_cell_setting 'orthorhombic'
loop_
_space_group_symop_operation_xyz
x,y,z
-x,-y,z
-x,y,z
x,-y,z
1/2+x,1/2+y,z
1/2-x,1/2-y,z
1/2-x,1/2+y,z
1/2+x,1/2-y,z
loop_
_atom_site_type_symbol
_atom_site_label
_atom_site_fract_x
_atom_site_fract_y
_atom_site_fract_z
Si Si1 0.677166 0.178471 0.048560
Si Si2 0.295735 0.181286 0.298258
Si Si3 0.049523 0.175664 0.822931
Si Si4 0.295044 0.319568 0.822697
Si Si5 0.374872 0.819810 0.685755
Si Si6 0.924686 0.322512 0.047719
Si Si7 0.373992 0.319131 0.439530
Si Si8 0.049190 0.175615 0.275871
O O1 0.696176 0.228981 0.168917
O O2 0.626236 0.215852 0.047675
O O3 0.686162 0.000000 0.022489
O O4 0.700927 0.280759 0.955087
O O5 0.250000 0.250000 0.339415
O O6 0.332790 0.250983 0.376000
O O7 0.295930 0.000000 0.313643
O O8 0.080175 0.285197 0.749820
O O9 0.000000 0.196055 0.780276
O O10 0.064982 0.000000 0.808329
O O11 0.051705 0.219956 0.954273
O O12 0.294712 0.500000 0.804282
O O13 0.250000 0.250000 0.774945
O O14 0.334886 0.248290 0.755049
O O15 0.377029 0.749081 0.562971
O O16 0.368211 0.000000 0.677260
O O17 0.933529 0.500000 0.020777
O O18 0.944766 0.283857 0.168528
O O19 0.368448 0.500000 0.448366
O O20 0.418111 0.271817 0.374368
O O21 0.000000 0.194119 0.322352
O O22 0.058884 0.000000 0.240087
#
# Coordination Sequence:
#
# PCOD8173921 Si02
#       8
#     8   8   8   8   8   8   8   8
#     4  10  21  38  62  94 131 167 206 255 312 373
#     4  11  23  41  64  93 128 164 207 255 310 370
#     4  11  24  42  65  94 128 167 211 258 312 375
#     4  12  25  42  67  96 129 166 209 256 313 374
#     4  12  26  45  67  92 125 163 211 264 316 371
#     4  11  21  36  62  95 131 167 205 254 312 371
#     4  11  24  43  66  91 122 164 213 259 312 369
#     4  10  22  40  63  92 127 166 208 255 308 370
#
# _framework density 20.266558
#
# number of rings (size 3 to 8) (size 9 to 14) (size 15 to 20)
#    0.000    1.000    2.500    4.500    0.000    6.750 
#    0.000    3.750    0.000    0.000    0.000    0.000 
#    0.000    0.000    0.000    0.000    0.000    0.000 
#
# Total GULP energy -397021.773921 kJ/mol
# GULP energy per Si atom -12406.930435 kJ/mol
# Density = 2.022043 g / cm^3
# Si number density = 20.266558 Si / 1000 Ang^3
#
#
#
# Elastic Constant Matrix: (Units=GPa)
#
#
# Indices 1 2 3 4 5 6 
#
# 1 147.9871 67.1250 60.1590 0.0000 0.0000 0.0000
# 2 67.1250 132.6882 58.3295 0.0000 0.0000 0.0000
# 3 60.1590 58.3295 135.0789 0.0000 0.0000 0.0000
# 4 0.0000 0.0000 0.0000 37.1311 0.0000 0.0000
# 5 0.0000 0.0000 0.0000 0.0000 -58.7764 0.0000
# 6 0.0000 0.0000 0.0000 0.0000 0.0000 31.2872
#
#
#
# Elastic Compliance Matrix: (Units=1/GPa)
#
#
# Indices 1 2 3 4 5 6 
#
# 1 0.009484 -0.003630 -0.002656 0.000000 0.000000 0.000000
# 2 -0.003630 0.010692 -0.003000 0.000000 0.000000 0.000000
# 3 -0.002656 -0.003000 0.009882 0.000000 0.000000 0.000000
# 4 0.000000 0.000000 0.000000 0.026932 0.000000 0.000000
# 5 0.000000 0.000000 0.000000 0.000000 -0.017014 0.000000
# 6 0.000000 0.000000 0.000000 0.000000 0.000000 0.031962
#
#
# Mechanical properties :
#
#
# Convention : Reuss Voigt Hill
#
# Bulk Modulus (GPa) = 87.07612 87.44235 87.25924
# Shear Modulus (GPa) = 53.00114 17.27110 35.13612
#
# Velocity S-wave (km/s) = 5.11945 2.92241 4.16829
# Velocity P-wave (km/s) = 8.83197 7.39101 8.14343
#
# Compressibility (1/GPa) = 0.01148421
#
# Stress axis : x y z
#
# Youngs Moduli (GPa) = 105.44493 93.53049 101.19848
#
# Poissons Ratio (x) = 0.33951 0.26880
# Poissons Ratio (y) = 0.38276 0.30362
# Poissons Ratio (z) = 0.28008 0.28061
#
# Static dielectric constant tensor:
#      x y z
#    x 3.878830 0.000000 0.000000 
#    y 0.000000 3.806550 0.000000 
#    z 0.000000 0.000000 3.661360 
# 
# 
# High freq. dielectric constant tensor:
#      x y z
#    x 1.810100 0.000000 0.000000 
#    y 0.000000 1.800690 0.000000 
#    z 0.000000 0.000000 1.788170 
# 
# From -- ./inp_files/14517.got.cif
#   From: 2010.03.12/outbox.cif.g09.slc.cpg/sg35_8_cif.got.tgz:14517.got - 2010.04.14 02:02:04.
