data_PCOD8173874
_publ_section_title
;
Structure prediction by ZEFSAII (Michael W. Deem and Ramdas Pophale) SiO2 
 PCOD8173874
Probable space group: C M M 2
;
_chemical_formula_sum "Si O2"
_cell_formula_units_Z 56
_cell_length_a 20.164058
_cell_length_b 13.354180
_cell_length_c 9.132908
_cell_angle_alpha 90.000000
_cell_angle_beta 90.000000
_cell_angle_gamma 90.000000
_cell_volume 2459.258870
_symmetry_space_group_name_H-M "C M M 2"
_symmetry_group_IT_number 35
_symmetry_cell_setting 'orthorhombic'
loop_
_space_group_symop_operation_xyz
x,y,z
-x,-y,z
-x,y,z
x,-y,z
1/2+x,1/2+y,z
1/2-x,1/2-y,z
1/2-x,1/2+y,z
1/2+x,1/2-y,z
loop_
_atom_site_type_symbol
_atom_site_label
_atom_site_fract_x
_atom_site_fract_y
_atom_site_fract_z
Si Si1 0.375515 0.612710 0.287000
Si Si2 0.651504 0.247530 0.526385
Si Si3 0.573752 0.381369 0.979369
Si Si4 0.193356 0.880845 0.778834
Si Si5 0.815100 0.382805 0.978063
Si Si6 0.924109 0.383441 0.754454
Si Si7 0.281233 0.112617 0.291284
O O1 0.401146 0.500000 0.318679
O O2 0.395197 0.683697 0.422787
O O3 0.296826 0.613039 0.266487
O O4 0.409183 0.657887 0.141350
O O5 0.695891 0.322508 0.625388
O O6 0.603202 0.176617 0.616774
O O7 0.700430 0.180533 0.428718
O O8 0.500000 0.346035 0.932704
O O9 0.579666 0.500000 0.983347
O O10 0.626909 0.342345 0.861290
O O11 0.256327 0.843969 0.872564
O O12 0.194189 0.000000 0.748759
O O13 0.803387 0.500000 0.996546
O O14 0.885131 0.355468 0.903675
O O15 0.812816 0.338786 0.142798
O O16 0.914178 0.500000 0.717721
O O17 0.000000 0.355516 0.783176
O O18 0.307414 0.000000 0.319867
#
# Coordination Sequence:
#
# PCOD8173874 Si02
#       7
#     8   8   8   8   8   8   8
#     4  10  21  38  58  89 133 171 208 258 315 379
#     4  12  25  37  60  95 128 169 208 262 322 387
#     4   9  18  37  64  90 124 172 215 253 305 373
#     4  10  21  39  63  97 132 167 213 264 322 383
#     4   9  19  40  68  91 121 166 217 272 321 372
#     4  10  24  46  67  90 125 169 218 273 328 380
#     4  10  21  40  63  92 127 163 210 268 321 373
#
# _framework density 22.771086
#
# number of rings (size 3 to 8) (size 9 to 14) (size 15 to 20)
#    0.000    2.000    1.429    1.286    4.000    2.286 
#    2.571    0.714    0.000    6.857    0.000    0.000 
#    0.000    0.000    0.000    0.000    0.000    0.000 
#
# Total GULP energy -347222.081248 kJ/mol
# GULP energy per Si atom -12400.788616 kJ/mol
# Density = 2.271926 g / cm^3
# Si number density = 22.771086 Si / 1000 Ang^3
#
#
#
# Elastic Constant Matrix: (Units=GPa)
#
#
# Indices 1 2 3 4 5 6 
#
# 1 133.1400 19.2410 56.0798 0.0000 0.0000 0.0000
# 2 19.2410 88.4869 55.5901 0.0000 0.0000 0.0000
# 3 56.0798 55.5901 165.2969 0.0000 0.0000 0.0000
# 4 0.0000 0.0000 0.0000 29.0552 0.0000 0.0000
# 5 0.0000 0.0000 0.0000 0.0000 33.5154 0.0000
# 6 0.0000 0.0000 0.0000 0.0000 0.0000 0.3657
#
#
#
# Elastic Compliance Matrix: (Units=1/GPa)
#
#
# Indices 1 2 3 4 5 6 
#
# 1 0.008763 -0.000048 -0.002957 0.000000 0.000000 0.000000
# 2 -0.000048 0.014329 -0.004803 0.000000 0.000000 0.000000
# 3 -0.002957 -0.004803 0.008668 0.000000 0.000000 0.000000
# 4 0.000000 0.000000 0.000000 0.034417 0.000000 0.000000
# 5 0.000000 0.000000 0.000000 0.000000 0.029837 0.000000
# 6 0.000000 0.000000 0.000000 0.000000 0.000000 2.734763
#
#
# Mechanical properties :
#
#
# Convention : Reuss Voigt Hill
#
# Bulk Modulus (GPa) = 61.93802 72.08284 67.01043
# Shear Modulus (GPa) = 1.75329 29.65480 15.70405
#
# Velocity S-wave (km/s) = 0.87843 3.61266 2.62897
# Velocity P-wave (km/s) = 5.31866 7.00898 6.22150
#
# Compressibility (1/GPa) = 0.01614517
#
# Stress axis : x y z
#
# Youngs Moduli (GPa) = 114.11188 69.79044 115.36623
#
# Poissons Ratio (x) = 0.00334 0.34114
# Poissons Ratio (y) = 0.00546 0.55405
# Poissons Ratio (z) = 0.33743 0.33517
#
# Static dielectric constant tensor:
#      x y z
#    x 3.899050 0.000000 0.000000 
#    y 0.000000 4.403110 0.000000 
#    z 0.000000 0.000000 4.287290 
# 
# 
# High freq. dielectric constant tensor:
#      x y z
#    x 1.872260 0.000000 0.000000 
#    y 0.000000 1.918890 0.000000 
#    z 0.000000 0.000000 1.904440 
# 
# From -- ./inp_files/7593.got.cif
#   From: 2010.03.12/outbox.cif.g09.slc.cpg/sg35_4_cif.got.tgz:7593.got - 2010.04.14 02:02:04.
