data_PCOD8173583
_publ_section_title
;
Structure prediction by ZEFSAII (Michael W. Deem and Ramdas Pophale) SiO2 
 PCOD8173583
Probable space group: C M M 2
;
_chemical_formula_sum "Si O2"
_cell_formula_units_Z 48
_cell_length_a 8.532481
_cell_length_b 15.797585
_cell_length_c 17.280508
_cell_angle_alpha 90.000000
_cell_angle_beta 90.000000
_cell_angle_gamma 90.000000
_cell_volume 2329.284497
_symmetry_space_group_name_H-M "C M M 2"
_symmetry_group_IT_number 35
_symmetry_cell_setting 'orthorhombic'
loop_
_space_group_symop_operation_xyz
x,y,z
-x,-y,z
-x,y,z
x,-y,z
1/2+x,1/2+y,z
1/2-x,1/2-y,z
1/2-x,1/2+y,z
1/2+x,1/2-y,z
loop_
_atom_site_type_symbol
_atom_site_label
_atom_site_fract_x
_atom_site_fract_y
_atom_site_fract_z
Si Si1 0.315217 0.342659 0.473930
Si Si2 0.182363 0.660686 0.637780
Si Si3 0.185900 0.345491 0.102024
Si Si4 0.171783 0.904330 0.784540
Si Si5 0.815128 0.000000 0.376070
Si Si6 0.686135 0.658777 0.945422
Si Si7 0.685907 0.500000 0.197737
O O1 0.500000 0.336442 0.468941
O O2 0.250000 0.250000 0.452305
O O3 0.267849 0.370945 0.560550
O O4 0.247686 0.414590 0.416546
O O5 0.250000 0.750000 0.664791
O O6 0.215772 0.600260 0.710346
O O7 0.000000 0.665882 0.619576
O O8 0.250000 0.250000 0.119340
O O9 0.242236 0.412680 0.165832
O O10 0.000000 0.339664 0.101369
O O11 0.246773 0.388761 0.021069
O O12 0.254434 0.867068 0.861613
O O13 0.000000 0.861877 0.768090
O O14 0.142782 0.000000 0.805840
O O15 0.766086 0.000000 0.287537
O O16 0.000000 0.000000 0.387943
O O17 0.500000 0.650930 0.943509
O O18 0.750000 0.750000 0.963835
O O19 0.500000 0.500000 0.185139
#
# Coordination Sequence:
#
# PCOD8173583 Si02
#       7
#     8   8   8   8   4   8   4
#     4  10  20  39  63  90 120 158 200 246 299 360
#     4  11  22  37  57  83 113 153 198 244 294 347
#     4  11  23  41  64  94 126 165 208 253 307 366
#     4  10  22  37  54  81 116 156 197 241 295 349
#     4   9  22  41  65  92 121 158 197 239 304 369
#     4  10  20  36  59  84 113 155 200 247 298 353
#     4  11  23  43  67  94 127 162 201 251 308 373
#
# _framework density 20.607187
#
# number of rings (size 3 to 8) (size 9 to 14) (size 15 to 20)
#    0.000    1.667    0.000    6.750    2.333    3.667 
#    0.000    6.250    0.000    0.000    0.000    0.000 
#    0.000    0.000    0.000    0.000    0.000    0.000 
#
# Total GULP energy -297436.806169 kJ/mol
# GULP energy per Si atom -12393.200257 kJ/mol
# Density = 2.056028 g / cm^3
# Si number density = 20.607187 Si / 1000 Ang^3
#
#
#
# Elastic Constant Matrix: (Units=GPa)
#
#
# Indices 1 2 3 4 5 6 
#
# 1 100.7508 34.1129 38.3251 0.0000 0.0000 0.0000
# 2 34.1129 104.3735 74.8807 0.0000 0.0000 0.0000
# 3 38.3251 74.8807 164.2297 0.0000 0.0000 0.0000
# 4 0.0000 0.0000 0.0000 41.5177 0.0000 0.0000
# 5 0.0000 0.0000 0.0000 0.0000 17.0063 0.0000
# 6 0.0000 0.0000 0.0000 0.0000 0.0000 27.2866
#
#
#
# Elastic Compliance Matrix: (Units=1/GPa)
#
#
# Indices 1 2 3 4 5 6 
#
# 1 0.011381 -0.002696 -0.001427 0.000000 0.000000 0.000000
# 2 -0.002696 0.014877 -0.006154 0.000000 0.000000 0.000000
# 3 -0.001427 -0.006154 0.009228 0.000000 0.000000 0.000000
# 4 0.000000 0.000000 0.000000 0.024086 0.000000 0.000000
# 5 0.000000 0.000000 0.000000 0.000000 0.058802 0.000000
# 6 0.000000 0.000000 0.000000 0.000000 0.000000 0.036648
#
#
# Mechanical properties :
#
#
# Convention : Reuss Voigt Hill
#
# Bulk Modulus (GPa) = 66.96839 73.77683 70.37261
# Shear Modulus (GPa) = 27.69260 31.96447 29.82853
#
# Velocity S-wave (km/s) = 3.66981 3.94271 3.80871
# Velocity P-wave (km/s) = 7.10808 7.52369 7.31883
#
# Compressibility (1/GPa) = 0.01493242
#
# Stress axis : x y z
#
# Youngs Moduli (GPa) = 87.86534 67.21615 108.36676
#
# Poissons Ratio (x) = 0.18123 0.15459
# Poissons Ratio (y) = 0.23691 0.66690
# Poissons Ratio (z) = 0.12534 0.41366
#
# Static dielectric constant tensor:
#      x y z
#    x 3.662790 0.000000 0.000000 
#    y 0.000000 3.816170 0.000000 
#    z 0.000000 0.000000 3.892110 
# 
# 
# High freq. dielectric constant tensor:
#      x y z
#    x 1.802190 0.000000 0.000000 
#    y 0.000000 1.803570 0.000000 
#    z 0.000000 0.000000 1.814970 
# 
# From -- ./inp_files/15253.got.cif
#   From: 2010.03.12/outbox.cif.g09.slc.cpg/sg35_8_cif.got.tgz:15253.got - 2010.04.14 02:02:04.
