data_PCOD8173442
_publ_section_title
;
Structure prediction by ZEFSAII (Michael W. Deem and Ramdas Pophale) SiO2 
 PCOD8173442
Probable space group: C M M 2
;
_chemical_formula_sum "Si O2"
_cell_formula_units_Z 48
_cell_length_a 9.005280
_cell_length_b 15.572101
_cell_length_c 17.354677
_cell_angle_alpha 90.000000
_cell_angle_beta 90.000000
_cell_angle_gamma 90.000000
_cell_volume 2433.665961
_symmetry_space_group_name_H-M "C M M 2"
_symmetry_group_IT_number 35
_symmetry_cell_setting 'orthorhombic'
loop_
_space_group_symop_operation_xyz
x,y,z
-x,-y,z
-x,y,z
x,-y,z
1/2+x,1/2+y,z
1/2-x,1/2-y,z
1/2-x,1/2+y,z
1/2+x,1/2-y,z
loop_
_atom_site_type_symbol
_atom_site_label
_atom_site_fract_x
_atom_site_fract_y
_atom_site_fract_z
Si Si1 0.824286 0.335762 0.714170
Si Si2 0.177250 0.403008 0.553639
Si Si3 0.175230 0.000000 0.975617
Si Si4 0.672895 0.898103 0.223037
Si Si5 0.173598 0.400779 0.389406
Si Si6 0.175437 0.163890 0.073623
Si Si7 0.675469 0.000000 0.811130
O O1 0.750000 0.250000 0.748107
O O2 0.766213 0.348022 0.626242
O O3 0.770977 0.416019 0.765069
O O4 0.000000 0.326096 0.717600
O O5 0.237597 0.500000 0.563329
O O6 0.233282 0.361358 0.471182
O O7 0.000000 0.406241 0.553703
O O8 0.251294 0.000000 0.893765
O O9 0.228332 0.916017 0.021942
O O10 0.000000 0.000000 0.964576
O O11 0.500000 0.874514 0.210833
O O12 0.735224 0.865717 0.307396
O O13 0.771505 0.849411 0.160916
O O14 0.695146 0.000000 0.215846
O O15 0.212894 0.500000 0.395428
O O16 0.000000 0.386687 0.383775
O O17 0.250000 0.250000 0.039544
O O18 0.000000 0.174471 0.072490
O O19 0.500000 0.000000 0.820835
#
# Coordination Sequence:
#
# PCOD8173442 Si02
#       7
#     8   8   4   8   8   8   4
#     4  10  20  35  56  84 113 145 184 226 270 323
#     4   8  12  24  48  74 105 145 187 227 265 312
#     4  10  24  44  64  85 112 142 176 223 282 338
#     4   9  16  29  52  82 114 148 189 232 276 326
#     4   7  11  20  41  75 107 140 185 230 267 310
#     4  11  23  40  60  85 114 147 186 228 277 334
#     4  10  22  40  62  85 110 142 182 221 268 334
#
# _framework density 19.723331999999999
#
# number of rings (size 3 to 8) (size 9 to 14) (size 15 to 20)
#    0.000    2.833    1.667    2.500    0.000    2.667 
#    0.000    4.167    0.000    3.000    0.000    2.333 
#    0.000    0.000    0.000    0.000    0.000    0.000 
#
# Total GULP energy -297324.234331 kJ/mol
# GULP energy per Si atom -12388.509764 kJ/mol
# Density = 1.967844 g / cm^3
# Si number density = 19.723332 Si / 1000 Ang^3
#
#
#
# Elastic Constant Matrix: (Units=GPa)
#
#
# Indices 1 2 3 4 5 6 
#
# 1 33.4380 34.6860 35.5206 0.0000 0.0000 0.0000
# 2 34.6860 127.5884 69.6223 0.0000 0.0000 0.0000
# 3 35.5206 69.6223 166.7011 0.0000 0.0000 0.0000
# 4 0.0000 0.0000 0.0000 6.7890 0.0000 0.0000
# 5 0.0000 0.0000 0.0000 0.0000 21.4456 0.0000
# 6 0.0000 0.0000 0.0000 0.0000 0.0000 24.6866
#
#
#
# Elastic Compliance Matrix: (Units=1/GPa)
#
#
# Indices 1 2 3 4 5 6 
#
# 1 0.045726 -0.009214 -0.005895 0.000000 0.000000 0.000000
# 2 -0.009214 0.012008 -0.003052 0.000000 0.000000 0.000000
# 3 -0.005895 -0.003052 0.008529 0.000000 0.000000 0.000000
# 4 0.000000 0.000000 0.000000 0.147298 0.000000 0.000000
# 5 0.000000 0.000000 0.000000 0.000000 0.046630 0.000000
# 6 0.000000 0.000000 0.000000 0.000000 0.000000 0.040508
#
#
# Mechanical properties :
#
#
# Convention : Reuss Voigt Hill
#
# Bulk Modulus (GPa) = 33.39826 67.48724 50.44275
# Shear Modulus (GPa) = 14.40916 23.11081 18.75998
#
# Velocity S-wave (km/s) = 2.70583 3.42680 3.08743
# Velocity P-wave (km/s) = 5.17031 7.06742 6.19196
#
# Compressibility (1/GPa) = 0.02994168
#
# Stress axis : x y z
#
# Youngs Moduli (GPa) = 21.86919 83.27818 117.24142
#
# Poissons Ratio (x) = 0.76735 0.69114
# Poissons Ratio (y) = 0.20151 0.35779
# Poissons Ratio (z) = 0.12892 0.25414
#
# Static dielectric constant tensor:
#      x y z
#    x 3.078940 0.000000 0.000000 
#    y 0.000000 3.534100 0.000000 
#    z 0.000000 0.000000 4.004020 
# 
# 
# High freq. dielectric constant tensor:
#      x y z
#    x 1.721440 0.000000 0.000000 
#    y 0.000000 1.754930 0.000000 
#    z 0.000000 0.000000 1.786130 
# 
# From -- ./inp_files/17841.got.cif
#   From: 2010.03.12/outbox.cif.g09.slc.cpg/sg35_9_cif.got.tgz:17841.got - 2010.04.14 02:02:04.
