data_PCOD8173888
_publ_section_title
;
Structure prediction by ZEFSAII (Michael W. Deem and Ramdas Pophale) SiO2 
 PCOD8173888
Probable space group: C M M 2
;
_chemical_formula_sum "Si O2"
_cell_formula_units_Z 48
_cell_length_a 8.609417
_cell_length_b 18.680688
_cell_length_c 15.277296
_cell_angle_alpha 90.000000
_cell_angle_beta 90.000000
_cell_angle_gamma 90.000000
_cell_volume 2457.044962
_symmetry_space_group_name_H-M "C M M 2"
_symmetry_group_IT_number 35
_symmetry_cell_setting 'orthorhombic'
loop_
_space_group_symop_operation_xyz
x,y,z
-x,-y,z
-x,y,z
x,-y,z
1/2+x,1/2+y,z
1/2-x,1/2-y,z
1/2-x,1/2+y,z
1/2+x,1/2-y,z
loop_
_atom_site_type_symbol
_atom_site_label
_atom_site_fract_x
_atom_site_fract_y
_atom_site_fract_z
Si Si1 0.179103 0.584058 0.864010
Si Si2 0.179406 0.083145 0.371733
Si Si3 0.681631 0.328414 0.712140
Si Si4 0.681762 0.827839 0.218510
Si Si5 0.318882 0.081952 0.555471
Si Si6 0.815812 0.579241 0.060450
O O1 0.203592 0.500000 0.848071
O O2 0.291021 0.628144 0.801126
O O3 0.000000 0.604655 0.845544
O O4 0.228285 0.605032 0.962889
O O5 0.282470 0.127061 0.304530
O O6 0.225378 0.105946 0.469588
O O7 0.000000 0.101352 0.356329
O O8 0.216321 0.000000 0.356974
O O9 0.500000 0.324839 0.691596
O O10 0.750000 0.250000 0.723638
O O11 0.769200 0.367448 0.633802
O O12 0.500000 0.820773 0.207334
O O13 0.750000 0.750000 0.228523
O O14 0.753956 0.866619 0.132579
O O15 0.500000 0.091557 0.536236
O O16 0.279400 0.000000 0.580764
O O17 0.746308 0.500000 0.078037
O O18 0.000000 0.574752 0.068450
#
# Coordination Sequence:
#
# PCOD8173888 Si02
#       6
#     8   8   8   8   8   8
#     4   9  18  36  61  86 113 146 185 229 278 332
#     4  10  21  38  60  86 114 144 183 231 279 328
#     4  12  25  39  56  81 115 151 188 230 278 331
#     4  11  22  36  55  81 115 152 190 230 277 332
#     4  10  21  39  63  88 113 144 183 226 275 332
#     4   8  16  33  58  84 109 143 187 232 277 328
#
# _framework density 19.535663
#
# number of rings (size 3 to 8) (size 9 to 14) (size 15 to 20)
#    0.000    2.000    0.000    5.000    0.000    6.333 
#    0.000    6.667    0.000    2.000    0.000    0.000 
#    0.000    0.000    0.000    0.000    0.000    0.000 
#
# Total GULP energy -297663.663592 kJ/mol
# GULP energy per Si atom -12402.652650 kJ/mol
# Density = 1.949120 g / cm^3
# Si number density = 19.535663 Si / 1000 Ang^3
#
#
#
# Elastic Constant Matrix: (Units=GPa)
#
#
# Indices 1 2 3 4 5 6 
#
# 1 49.3402 22.2696 12.8632 0.0000 0.0000 0.0000
# 2 22.2696 85.0001 61.4866 0.0000 0.0000 0.0000
# 3 12.8632 61.4866 119.4834 0.0000 0.0000 0.0000
# 4 0.0000 0.0000 0.0000 -11.2146 0.0000 0.0000
# 5 0.0000 0.0000 0.0000 0.0000 26.9058 0.0000
# 6 0.0000 0.0000 0.0000 0.0000 0.0000 21.4112
#
#
#
# Elastic Compliance Matrix: (Units=1/GPa)
#
#
# Indices 1 2 3 4 5 6 
#
# 1 0.023060 -0.006763 0.000998 0.000000 0.000000 0.000000
# 2 -0.006763 0.020725 -0.009937 0.000000 0.000000 0.000000
# 3 0.000998 -0.009937 0.013376 0.000000 0.000000 0.000000
# 4 0.000000 0.000000 0.000000 -0.089170 0.000000 0.000000
# 5 0.000000 0.000000 0.000000 0.000000 0.037167 0.000000
# 6 0.000000 0.000000 0.000000 0.000000 0.000000 0.046704
#
#
# Mechanical properties :
#
#
# Convention : Reuss Voigt Hill
#
# Bulk Modulus (GPa) = 38.82691 49.67362 44.25027
# Shear Modulus (GPa) = 54.43557 17.90077 36.16817
#
# Velocity S-wave (km/s) = 5.28443 3.03035 4.30745
# Velocity P-wave (km/s) = 7.55987 6.14218 6.88760
#
# Compressibility (1/GPa) = 0.02575533
#
# Stress axis : x y z
#
# Youngs Moduli (GPa) = 43.36528 48.25149 74.76356
#
# Poissons Ratio (x) = 0.32635 -0.07461
# Poissons Ratio (y) = 0.29330 0.74292
# Poissons Ratio (z) = -0.04328 0.47947
#
# Static dielectric constant tensor:
#      x y z
#    x 3.424760 0.000000 0.000000 
#    y 0.000000 3.610420 0.000000 
#    z 0.000000 0.000000 3.738830 
# 
# 
# High freq. dielectric constant tensor:
#      x y z
#    x 1.750110 0.000000 0.000000 
#    y 0.000000 1.758750 0.000000 
#    z 0.000000 0.000000 1.775670 
# 
# From -- ./inp_files/15096.got.cif
#   From: 2010.03.12/outbox.cif.g09.slc.cpg/sg35_8_cif.got.tgz:15096.got - 2010.04.14 02:02:04.
