data_PCOD8173327
_publ_section_title
;
Structure prediction by ZEFSAII (Michael W. Deem and Ramdas Pophale) SiO2 
 PCOD8173327
Probable space group: C M M 2
;
_chemical_formula_sum "Si O2"
_cell_formula_units_Z 40
_cell_length_a 15.763653
_cell_length_b 8.804537
_cell_length_c 14.350058
_cell_angle_alpha 90.000000
_cell_angle_beta 90.000000
_cell_angle_gamma 90.000000
_cell_volume 1991.668458
_symmetry_space_group_name_H-M "C M M 2"
_symmetry_group_IT_number 35
_symmetry_cell_setting 'orthorhombic'
loop_
_space_group_symop_operation_xyz
x,y,z
-x,-y,z
-x,y,z
x,-y,z
1/2+x,1/2+y,z
1/2-x,1/2-y,z
1/2-x,1/2+y,z
1/2+x,1/2-y,z
loop_
_atom_site_type_symbol
_atom_site_label
_atom_site_fract_x
_atom_site_fract_y
_atom_site_fract_z
Si Si1 0.340227 0.819562 0.366680
Si Si2 0.836747 0.323084 0.159177
Si Si3 0.337626 0.678813 0.794797
Si Si4 0.000000 0.680247 0.695868
Si Si5 0.404297 0.172914 0.967260
Si Si6 0.500000 0.179536 0.481657
O O1 0.250000 0.750000 0.397592
O O2 0.364817 0.764793 0.261461
O O3 0.414844 0.755571 0.432786
O O4 0.332801 0.000000 0.374250
O O5 0.822048 0.500000 0.167634
O O6 0.750000 0.250000 0.126131
O O7 0.902750 0.282178 0.076942
O O8 0.336804 0.500000 0.778782
O O9 0.250000 0.750000 0.756593
O O10 0.415386 0.752504 0.740186
O O11 0.346543 0.716945 0.904789
O O12 0.000000 0.729522 0.588326
O O13 0.000000 0.500000 0.709619
O O14 0.500000 0.188959 0.931267
O O15 0.371825 0.000000 0.953870
O O16 0.500000 0.000000 0.469583
#
# Coordination Sequence:
#
# PCOD8173327 Si02
#       6
#     8   8   8   4   8   4
#     4   9  18  35  57  84 117 152 193 235 280 338
#     4   9  18  31  51  79 113 153 194 233 277 333
#     4  12  25  42  64  89 118 157 198 243 299 355
#     4  11  23  43  64  89 120 150 195 251 302 357
#     4  10  20  34  55  85 120 157 197 240 286 342
#     4   9  20  37  62  87 112 148 189 237 292 349
#
# _framework density 20.083665
#
# number of rings (size 3 to 8) (size 9 to 14) (size 15 to 20)
#    0.000    2.000    1.000    2.700    1.400    3.200 
#    0.000    4.500    0.000    0.000    0.000    0.000 
#    0.000    0.000    0.000    0.000    0.000    0.000 
#
# Total GULP energy -247944.431666 kJ/mol
# GULP energy per Si atom -12397.221583 kJ/mol
# Density = 2.003795 g / cm^3
# Si number density = 20.083665 Si / 1000 Ang^3
#
#
#
# Elastic Constant Matrix: (Units=GPa)
#
#
# Indices 1 2 3 4 5 6 
#
# 1 153.4189 48.6801 74.0437 0.0000 0.0000 0.0000
# 2 48.6801 71.8218 42.4053 0.0000 0.0000 0.0000
# 3 74.0437 42.4053 125.3876 0.0000 0.0000 0.0000
# 4 0.0000 0.0000 0.0000 18.4425 0.0000 0.0000
# 5 0.0000 0.0000 0.0000 0.0000 27.2033 0.0000
# 6 0.0000 0.0000 0.0000 0.0000 0.0000 32.0339
#
#
#
# Elastic Compliance Matrix: (Units=1/GPa)
#
#
# Indices 1 2 3 4 5 6 
#
# 1 0.010003 -0.004114 -0.004516 0.000000 0.000000 0.000000
# 2 -0.004114 0.019089 -0.004027 0.000000 0.000000 0.000000
# 3 -0.004516 -0.004027 0.012004 0.000000 0.000000 0.000000
# 4 0.000000 0.000000 0.000000 0.054223 0.000000 0.000000
# 5 0.000000 0.000000 0.000000 0.000000 0.036760 0.000000
# 6 0.000000 0.000000 0.000000 0.000000 0.000000 0.031217
#
#
# Mechanical properties :
#
#
# Convention : Reuss Voigt Hill
#
# Bulk Modulus (GPa) = 63.35684 75.65405 69.50544
# Shear Modulus (GPa) = 25.79079 27.90255 26.84667
#
# Velocity S-wave (km/s) = 3.58742 3.73140 3.66011
# Velocity P-wave (km/s) = 6.98386 7.50438 7.24879
#
# Compressibility (1/GPa) = 0.01578362
#
# Stress axis : x y z
#
# Youngs Moduli (GPa) = 99.97313 52.38647 83.30860
#
# Poissons Ratio (x) = 0.21550 0.37619
# Poissons Ratio (y) = 0.41125 0.33545
# Poissons Ratio (z) = 0.45144 0.21094
#
# Static dielectric constant tensor:
#      x y z
#    x 3.619290 0.000000 0.000000 
#    y 0.000000 3.454320 0.000000 
#    z 0.000000 0.000000 3.873660 
# 
# 
# High freq. dielectric constant tensor:
#      x y z
#    x 1.788420 0.000000 0.000000 
#    y 0.000000 1.761810 0.000000 
#    z 0.000000 0.000000 1.788870 
# 
# From -- ./inp_files/14771.got.cif
#   From: 2010.03.12/outbox.cif.g09.slc.cpg/sg35_8_cif.got.tgz:14771.got - 2010.04.14 02:02:04.
