data_PCOD8173470
_publ_section_title
;
Structure prediction by ZEFSAII (Michael W. Deem and Ramdas Pophale) SiO2 
 PCOD8173470
Probable space group: C M M 2
;
_chemical_formula_sum "Si O2"
_cell_formula_units_Z 64
_cell_length_a 28.806253
_cell_length_b 8.943528
_cell_length_c 12.626825
_cell_angle_alpha 90.000000
_cell_angle_beta 90.000000
_cell_angle_gamma 90.000000
_cell_volume 3253.042994
_symmetry_space_group_name_H-M "C M M 2"
_symmetry_group_IT_number 35
_symmetry_cell_setting 'orthorhombic'
loop_
_space_group_symop_operation_xyz
x,y,z
-x,-y,z
-x,y,z
x,-y,z
1/2+x,1/2+y,z
1/2-x,1/2-y,z
1/2-x,1/2+y,z
1/2+x,1/2-y,z
loop_
_atom_site_type_symbol
_atom_site_label
_atom_site_fract_x
_atom_site_fract_y
_atom_site_fract_z
Si Si1 0.446535 0.175230 0.177270
Si Si2 0.054505 0.164585 0.387492
Si Si3 0.797723 0.674204 0.519334
Si Si4 0.639498 0.676965 0.104505
Si Si5 0.949364 0.176432 0.619297
Si Si6 0.645896 0.675893 0.696581
Si Si7 0.298345 0.175419 0.275530
Si Si8 0.300206 0.676785 0.903663
O O1 0.500000 0.220233 0.154300
O O2 0.429995 0.222506 0.295153
O O3 0.413253 0.261237 0.093799
O O4 0.438994 0.000000 0.165184
O O5 0.066689 0.234996 0.502753
O O6 0.000000 0.143406 0.382159
O O7 0.077793 0.000000 0.369996
O O8 0.792536 0.500000 0.540667
O O9 0.750000 0.750000 0.553992
O O10 0.837564 0.741222 0.591754
O O11 0.809915 0.709553 0.397724
O O12 0.638539 0.500000 0.115519
O O13 0.661055 0.750776 0.208568
O O14 0.669152 0.727990 0.003155
O O15 0.909363 0.214960 0.705204
O O16 0.000000 0.243556 0.653476
O O17 0.954721 0.000000 0.607092
O O18 0.653658 0.500000 0.682378
O O19 0.672740 0.735090 0.799690
O O20 0.250000 0.250000 0.241561
O O21 0.294953 0.000000 0.251923
O O22 0.293770 0.500000 0.900976
O O23 0.250000 0.750000 0.910288
#
# Coordination Sequence:
#
# PCOD8173470 Si02
#       8
#     8   8   8   8   8   8   8   8
#     4  10  21  36  54  80 115 152 189 232 283 337
#     4   8  14  27  48  75 107 145 187 226 266 319
#     4  10  21  36  54  80 113 145 180 224 280 343
#     4  11  23  38  58  82 110 147 194 240 287 339
#     4   8  15  29  51  80 112 147 187 227 268 320
#     4  10  20  35  57  84 114 147 188 232 280 334
#     4  10  21  37  56  82 115 147 183 230 287 349
#     4  10  23  41  60  84 111 143 187 239 288 337
#
# _framework density 19.673886
#
# number of rings (size 3 to 8) (size 9 to 14) (size 15 to 20)
#    0.000    2.375    0.000    3.000    1.750    5.750 
#    0.000    0.625    0.000    2.625    0.000    0.000 
#    0.000    0.000    0.000    0.000    0.000    0.000 
#
# Total GULP energy -396700.237893 kJ/mol
# GULP energy per Si atom -12396.882434 kJ/mol
# Density = 1.962911 g / cm^3
# Si number density = 19.673886 Si / 1000 Ang^3
#
#
#
# Elastic Constant Matrix: (Units=GPa)
#
#
# Indices 1 2 3 4 5 6 
#
# 1 147.4500 46.2335 74.4002 0.0000 0.0000 0.0000
# 2 46.2335 66.4375 36.7520 0.0000 0.0000 0.0000
# 3 74.4002 36.7520 88.3733 0.0000 0.0000 0.0000
# 4 0.0000 0.0000 0.0000 19.7533 0.0000 0.0000
# 5 0.0000 0.0000 0.0000 0.0000 37.3932 0.0000
# 6 0.0000 0.0000 0.0000 0.0000 0.0000 27.9663
#
#
#
# Elastic Compliance Matrix: (Units=1/GPa)
#
#
# Indices 1 2 3 4 5 6 
#
# 1 0.012462 -0.003726 -0.008942 0.000000 0.000000 0.000000
# 2 -0.003726 0.020663 -0.005456 0.000000 0.000000 0.000000
# 3 -0.008942 -0.005456 0.021113 0.000000 0.000000 0.000000
# 4 0.000000 0.000000 0.000000 0.050625 0.000000 0.000000
# 5 0.000000 0.000000 0.000000 0.000000 0.026743 0.000000
# 6 0.000000 0.000000 0.000000 0.000000 0.000000 0.035757
#
#
# Mechanical properties :
#
#
# Convention : Reuss Voigt Hill
#
# Bulk Modulus (GPa) = 55.58867 68.55912 62.07390
# Shear Modulus (GPa) = 23.85395 26.68089 25.26742
#
# Velocity S-wave (km/s) = 3.48583 3.68660 3.58762
# Velocity P-wave (km/s) = 6.67216 7.28319 6.98436
#
# Compressibility (1/GPa) = 0.01798928
#
# Stress axis : x y z
#
# Youngs Moduli (GPa) = 80.24179 48.39603 47.36343
#
# Poissons Ratio (x) = 0.18031 0.42354
# Poissons Ratio (y) = 0.29896 0.25844
# Poissons Ratio (z) = 0.71756 0.26407
#
# Static dielectric constant tensor:
#      x y z
#    x 3.694650 0.000000 0.000000 
#    y 0.000000 3.430900 0.000000 
#    z 0.000000 0.000000 3.595720 
# 
# 
# High freq. dielectric constant tensor:
#      x y z
#    x 1.778100 0.000000 0.000000 
#    y 0.000000 1.751100 0.000000 
#    z 0.000000 0.000000 1.748020 
# 
# From -- ./inp_files/11905.got.cif
#   From: 2010.03.12/outbox.cif.g09.slc.cpg/sg35_6_cif.got.tgz:11905.got - 2010.04.14 02:02:04.
