data_PCOD8173198
_publ_section_title
;
Structure prediction by ZEFSAII (Michael W. Deem and Ramdas Pophale) SiO2 
 PCOD8173198
Probable space group: C M M 2
;
_chemical_formula_sum "Si O2"
_cell_formula_units_Z 48
_cell_length_a 9.019198
_cell_length_b 18.142256
_cell_length_c 15.621877
_cell_angle_alpha 90.000000
_cell_angle_beta 90.000000
_cell_angle_gamma 90.000000
_cell_volume 2556.185848
_symmetry_space_group_name_H-M "C M M 2"
_symmetry_group_IT_number 35
_symmetry_cell_setting 'orthorhombic'
loop_
_space_group_symop_operation_xyz
x,y,z
-x,-y,z
-x,y,z
x,-y,z
1/2+x,1/2+y,z
1/2-x,1/2-y,z
1/2-x,1/2+y,z
1/2+x,1/2-y,z
loop_
_atom_site_type_symbol
_atom_site_label
_atom_site_fract_x
_atom_site_fract_y
_atom_site_fract_z
Si Si1 0.333019 0.412234 0.780760
Si Si2 0.676351 0.328423 0.462138
Si Si3 0.165110 0.087773 0.112221
Si Si4 0.668900 0.912506 0.611749
Si Si5 0.176405 0.082072 0.299477
Si Si6 0.833714 0.412029 0.947708
O O1 0.500000 0.381548 0.772315
O O2 0.333917 0.500000 0.782264
O O3 0.235144 0.383519 0.701465
O O4 0.262236 0.381562 0.868447
O O5 0.500000 0.321351 0.465394
O O6 0.750000 0.250000 0.475361
O O7 0.729249 0.382184 0.536559
O O8 0.732876 0.362082 0.372060
O O9 0.229351 0.110879 0.205757
O O10 0.000000 0.119834 0.098562
O O11 0.158735 0.000000 0.108605
O O12 0.268290 0.119321 0.036782
O O13 0.500000 0.884051 0.603342
O O14 0.675430 0.000000 0.607386
O O15 0.000000 0.077570 0.299102
O O16 0.240380 0.000000 0.318085
O O17 0.831153 0.500000 0.948318
O O18 0.000000 0.382124 0.937796
#
# Coordination Sequence:
#
# PCOD8173198 Si02
#       6
#     8   8   8   8   8   8
#     4   9  16  26  42  65  93 127 164 198 236 286
#     4  11  22  36  53  73  99 131 168 208 252 301
#     4   8  13  23  40  62  88 119 156 195 235 283
#     4  10  20  34  52  75 102 130 163 206 253 299
#     4   8  15  29  50  73  95 124 164 206 245 289
#     4   9  15  22  34  58  94 129 156 188 235 286
#
# _framework density 18.777978000000001
#
# number of rings (size 3 to 8) (size 9 to 14) (size 15 to 20)
#    0.000    2.833    0.000    3.500    0.000    5.667 
#    0.000    1.667    0.000    4.000    0.000    1.167 
#    0.000    2.667    0.000    0.000    0.000    0.000 
#
# Total GULP energy -297515.415395 kJ/mol
# GULP energy per Si atom -12396.475641 kJ/mol
# Density = 1.873524 g / cm^3
# Si number density = 18.777978 Si / 1000 Ang^3
#
#
#
# Elastic Constant Matrix: (Units=GPa)
#
#
# Indices 1 2 3 4 5 6 
#
# 1 108.9465 18.9000 60.6092 0.0000 0.0000 0.0000
# 2 18.9000 17.3672 20.6303 0.0000 0.0000 0.0000
# 3 60.6092 20.6303 166.0668 0.0000 0.0000 0.0000
# 4 0.0000 0.0000 0.0000 0.4790 0.0000 0.0000
# 5 0.0000 0.0000 0.0000 0.0000 23.0534 0.0000
# 6 0.0000 0.0000 0.0000 0.0000 0.0000 14.3499
#
#
#
# Elastic Compliance Matrix: (Units=1/GPa)
#
#
# Indices 1 2 3 4 5 6 
#
# 1 0.012805 -0.009835 -0.003452 0.000000 0.000000 0.000000
# 2 -0.009835 0.075102 -0.005740 0.000000 0.000000 0.000000
# 3 -0.003452 -0.005740 0.007995 0.000000 0.000000 0.000000
# 4 0.000000 0.000000 0.000000 2.087866 0.000000 0.000000
# 5 0.000000 0.000000 0.000000 0.000000 0.043378 0.000000
# 6 0.000000 0.000000 0.000000 0.000000 0.000000 0.069687
#
#
# Mechanical properties :
#
#
# Convention : Reuss Voigt Hill
#
# Bulk Modulus (GPa) = 17.28693 54.73994 36.01344
# Shear Modulus (GPa) = 2.12389 20.39251 11.25820
#
# Velocity S-wave (km/s) = 1.06466 3.29900 2.45121
# Velocity P-wave (km/s) = 3.27678 6.61253 5.21838
#
# Compressibility (1/GPa) = 0.05784716
#
# Stress axis : x y z
#
# Youngs Moduli (GPa) = 78.09279 13.31529 125.08527
#
# Poissons Ratio (x) = 0.13096 0.43176
# Poissons Ratio (y) = 0.76806 0.71802
# Poissons Ratio (z) = 0.26955 0.07643
#
# Static dielectric constant tensor:
#      x y z
#    x 3.481900 0.000000 0.000000 
#    y 0.000000 2.848090 0.000000 
#    z 0.000000 0.000000 3.865940 
# 
# 
# High freq. dielectric constant tensor:
#      x y z
#    x 1.723760 0.000000 0.000000 
#    y 0.000000 1.660590 0.000000 
#    z 0.000000 0.000000 1.751790 
# 
# From -- ./inp_files/15164.got.cif
#   From: 2010.03.12/outbox.cif.g09.slc.cpg/sg35_8_cif.got.tgz:15164.got - 2010.04.14 02:02:04.
