data_PCOD8173752
_publ_section_title
;
Structure prediction by ZEFSAII (Michael W. Deem and Ramdas Pophale) SiO2 
 PCOD8173752
Probable space group: C M M 2
;
_chemical_formula_sum "Si O2"
_cell_formula_units_Z 48
_cell_length_a 8.641569
_cell_length_b 16.032328
_cell_length_c 16.999145
_cell_angle_alpha 90.000000
_cell_angle_beta 90.000000
_cell_angle_gamma 90.000000
_cell_volume 2355.137511
_symmetry_space_group_name_H-M "C M M 2"
_symmetry_group_IT_number 35
_symmetry_cell_setting 'orthorhombic'
loop_
_space_group_symop_operation_xyz
x,y,z
-x,-y,z
-x,y,z
x,-y,z
1/2+x,1/2+y,z
1/2-x,1/2-y,z
1/2-x,1/2+y,z
1/2+x,1/2-y,z
loop_
_atom_site_type_symbol
_atom_site_label
_atom_site_fract_x
_atom_site_fract_y
_atom_site_fract_z
Si Si1 0.817939 0.837189 0.736420
Si Si2 0.316833 0.342906 0.267877
Si Si3 0.676630 0.000000 0.995398
Si Si4 0.822882 0.500000 0.181267
Si Si5 0.820582 0.662353 0.431136
Si Si6 0.833197 0.093374 0.576373
Si Si7 0.183873 0.840955 0.911535
O O1 0.750000 0.750000 0.711111
O O2 0.764490 0.896046 0.664656
O O3 0.757791 0.864098 0.822896
O O4 0.000000 0.832108 0.742398
O O5 0.500000 0.336840 0.261230
O O6 0.250000 0.250000 0.249002
O O7 0.257534 0.414436 0.209400
O O8 0.268112 0.373537 0.355027
O O9 0.757170 0.084739 0.966275
O O10 0.500000 0.000000 0.966573
O O11 0.689426 0.000000 0.088337
O O12 0.000000 0.500000 0.210508
O O13 0.750000 0.750000 0.453013
O O14 0.794325 0.610807 0.510206
O O15 0.000000 0.666912 0.409520
O O16 0.000000 0.142739 0.566211
O O17 0.878995 0.000000 0.565504
O O18 0.250000 0.750000 0.936939
O O19 0.000000 0.836126 0.918224
#
# Coordination Sequence:
#
# PCOD8173752 Si02
#       7
#     8   8   4   4   8   8   8
#     4   9  19  35  57  82 112 154 198 247 299 353
#     4  11  23  42  68  96 126 163 206 252 307 367
#     4  11  25  43  65  94 127 162 203 251 308 369
#     4  11  25  45  67  94 127 162 201 251 308 371
#     4  11  22  38  59  83 116 155 201 248 297 353
#     4  10  21  35  53  80 117 156 199 246 297 352
#     4  10  21  39  65  93 126 164 208 255 309 368
#
# _framework density 20.380977000000001
#
# number of rings (size 3 to 8) (size 9 to 14) (size 15 to 20)
#    0.000    1.667    0.000    5.500    2.333    5.000 
#    0.000    0.000    0.000    0.000    0.000    0.000 
#    0.000    0.000    0.000    0.000    0.000    0.000 
#
# Total GULP energy -297384.949584 kJ/mol
# GULP energy per Si atom -12391.039566 kJ/mol
# Density = 2.033459 g / cm^3
# Si number density = 20.380977 Si / 1000 Ang^3
#
#
#
# Elastic Constant Matrix: (Units=GPa)
#
#
# Indices 1 2 3 4 5 6 
#
# 1 123.0656 55.7900 47.5342 0.0000 0.0000 0.0000
# 2 55.7900 112.2929 56.8125 0.0000 0.0000 0.0000
# 3 47.5342 56.8125 98.4233 0.0000 0.0000 0.0000
# 4 0.0000 0.0000 0.0000 37.0795 0.0000 0.0000
# 5 0.0000 0.0000 0.0000 0.0000 29.1834 0.0000
# 6 0.0000 0.0000 0.0000 0.0000 0.0000 30.5251
#
#
#
# Elastic Compliance Matrix: (Units=1/GPa)
#
#
# Indices 1 2 3 4 5 6 
#
# 1 0.011111 -0.003963 -0.003079 0.000000 0.000000 0.000000
# 2 -0.003963 0.013992 -0.006163 0.000000 0.000000 0.000000
# 3 -0.003079 -0.006163 0.015204 0.000000 0.000000 0.000000
# 4 0.000000 0.000000 0.000000 0.026969 0.000000 0.000000
# 5 0.000000 0.000000 0.000000 0.000000 0.034266 0.000000
# 6 0.000000 0.000000 0.000000 0.000000 0.000000 0.032760
#
#
# Mechanical properties :
#
#
# Convention : Reuss Voigt Hill
#
# Bulk Modulus (GPa) = 71.94700 72.67278 72.30989
# Shear Modulus (GPa) = 30.23985 30.93395 30.58690
#
# Velocity S-wave (km/s) = 3.85610 3.90010 3.87816
# Velocity P-wave (km/s) = 7.42992 7.48436 7.45719
#
# Compressibility (1/GPa) = 0.01389912
#
# Stress axis : x y z
#
# Youngs Moduli (GPa) = 89.99734 71.46954 65.77008
#
# Poissons Ratio (x) = 0.28321 0.20250
# Poissons Ratio (y) = 0.35663 0.40532
# Poissons Ratio (z) = 0.27710 0.44045
#
# Static dielectric constant tensor:
#      x y z
#    x 3.756840 0.000000 0.000000 
#    y 0.000000 3.773030 0.000000 
#    z 0.000000 0.000000 3.896910 
# 
# 
# High freq. dielectric constant tensor:
#      x y z
#    x 1.803160 0.000000 0.000000 
#    y 0.000000 1.793020 0.000000 
#    z 0.000000 0.000000 1.802630 
# 
# From -- ./inp_files/17881.got.cif
#   From: 2010.03.12/outbox.cif.g09.slc.cpg/sg35_9_cif.got.tgz:17881.got - 2010.04.14 02:02:04.
