data_PCOD8173011
_publ_section_title
;
Structure prediction by ZEFSAII (Michael W. Deem and Ramdas Pophale) SiO2 
 PCOD8173011
Probable space group: C M M 2
;
_chemical_formula_sum "Si O2"
_cell_formula_units_Z 56
_cell_length_a 8.916437
_cell_length_b 19.466928
_cell_length_c 18.153037
_cell_angle_alpha 90.000000
_cell_angle_beta 90.000000
_cell_angle_gamma 90.000000
_cell_volume 3150.924962
_symmetry_space_group_name_H-M "C M M 2"
_symmetry_group_IT_number 35
_symmetry_cell_setting 'orthorhombic'
loop_
_space_group_symop_operation_xyz
x,y,z
-x,-y,z
-x,y,z
x,-y,z
1/2+x,1/2+y,z
1/2-x,1/2-y,z
1/2-x,1/2+y,z
1/2+x,1/2-y,z
loop_
_atom_site_type_symbol
_atom_site_label
_atom_site_fract_x
_atom_site_fract_y
_atom_site_fract_z
Si Si1 0.675776 0.824011 0.484380
Si Si2 0.322770 0.675247 0.340867
Si Si3 0.171638 0.421203 0.056886
Si Si4 0.673984 0.322957 0.944853
Si Si5 0.327839 0.079455 0.226529
Si Si6 0.825115 0.675718 0.644187
Si Si7 0.824811 0.175916 0.782951
O O1 0.500000 0.817183 0.467269
O O2 0.750000 0.750000 0.488833
O O3 0.757131 0.861273 0.415496
O O4 0.701232 0.861174 0.564232
O O5 0.500000 0.683249 0.346956
O O6 0.250000 0.750000 0.328810
O O7 0.283186 0.626585 0.272955
O O8 0.214794 0.500000 0.043595
O O9 0.198748 0.401377 0.141551
O O10 0.000000 0.407684 0.034888
O O11 0.277177 0.375972 0.006395
O O12 0.500000 0.308589 0.953227
O O13 0.750000 0.250000 0.957226
O O14 0.708657 0.356010 0.863721
O O15 0.500000 0.094094 0.248560
O O16 0.288495 0.000000 0.240765
O O17 0.750000 0.750000 0.640243
O O18 0.750379 0.634467 0.713635
O O19 0.000000 0.684142 0.659755
O O20 0.750000 0.250000 0.783699
O O21 0.000000 0.181687 0.767680
#
# Coordination Sequence:
#
# PCOD8173011 Si02
#       7
#     8   8   8   8   8   8   8
#     4   9  16  26  40  61  91 124 158 195 237 282
#     4  11  21  32  49  73 101 131 163 199 240 285
#     4   9  19  36  56  75  95 123 159 198 241 290
#     4  10  20  32  48  72 101 132 163 199 242 285
#     4   9  19  37  57  74  95 124 158 197 242 291
#     4   9  15  22  36  58  85 120 157 192 232 277
#     4   9  16  25  38  59  89 123 157 192 233 278
#
# _framework density 17.772559000000001
#
# number of rings (size 3 to 8) (size 9 to 14) (size 15 to 20)
#    0.000    2.571    0.000    5.571    0.000    5.143 
#    0.000    1.429    0.000    0.000    0.000    1.000 
#    0.000    5.714    0.000    0.000    0.000    0.000 
#
# Total GULP energy -346886.713479 kJ/mol
# GULP energy per Si atom -12388.811196 kJ/mol
# Density = 1.773211 g / cm^3
# Si number density = 17.772559 Si / 1000 Ang^3
#
#
#
# Elastic Constant Matrix: (Units=GPa)
#
#
# Indices 1 2 3 4 5 6 
#
# 1 121.7699 32.8122 69.5435 0.0000 0.0000 0.0000
# 2 32.8122 39.8035 47.5301 0.0000 0.0000 0.0000
# 3 69.5435 47.5301 141.1934 0.0000 0.0000 0.0000
# 4 0.0000 0.0000 0.0000 -4.0476 0.0000 0.0000
# 5 0.0000 0.0000 0.0000 0.0000 35.1685 0.0000
# 6 0.0000 0.0000 0.0000 0.0000 0.0000 20.9691
#
#
#
# Elastic Compliance Matrix: (Units=1/GPa)
#
#
# Indices 1 2 3 4 5 6 
#
# 1 0.011933 -0.004713 -0.004291 0.000000 0.000000 0.000000
# 2 -0.004713 0.043872 -0.012447 0.000000 0.000000 0.000000
# 3 -0.004291 -0.012447 0.013386 0.000000 0.000000 0.000000
# 4 0.000000 0.000000 0.000000 -0.247062 0.000000 0.000000
# 5 0.000000 0.000000 0.000000 0.000000 0.028435 0.000000
# 6 0.000000 0.000000 0.000000 0.000000 0.000000 0.047689
#
#
# Mechanical properties :
#
#
# Convention : Reuss Voigt Hill
#
# Bulk Modulus (GPa) = 38.03932 66.94869 52.49401
# Shear Modulus (GPa) = -99.83741 20.61007 -39.61367
#
# Velocity S-wave (km/s) = -7.50313 3.40907 -4.72627
# Velocity P-wave (km/s) = 7.32207 7.29706 0.42758
#
# Compressibility (1/GPa) = 0.02628859
#
# Stress axis : x y z
#
# Youngs Moduli (GPa) = 83.80349 22.79336 74.70468
#
# Poissons Ratio (x) = 0.10743 0.32054
# Poissons Ratio (y) = 0.39498 0.92988
# Poissons Ratio (z) = 0.35958 0.28372
#
# Static dielectric constant tensor:
#      x y z
#    x 3.370110 0.000000 0.000000 
#    y 0.000000 2.705910 0.000000 
#    z 0.000000 0.000000 4.450410 
# 
# 
# High freq. dielectric constant tensor:
#      x y z
#    x 1.700880 0.000000 0.000000 
#    y 0.000000 1.615570 0.000000 
#    z 0.000000 0.000000 1.718440 
# 
# From -- ./inp_files/18210.got.cif
#   From: 2010.03.12/outbox.cif.g09.slc.cpg/sg35_10_cif.got.tgz:18210.got - 2010.04.14 02:02:04.
