data_PCOD8173823
_publ_section_title
;
Structure prediction by ZEFSAII (Michael W. Deem and Ramdas Pophale) SiO2 
 PCOD8173823
Probable space group: C M M 2
;
_chemical_formula_sum "Si O2"
_cell_formula_units_Z 48
_cell_length_a 9.213163
_cell_length_b 28.056955
_cell_length_c 10.060727
_cell_angle_alpha 90.000000
_cell_angle_beta 90.000000
_cell_angle_gamma 90.000000
_cell_volume 2600.630520
_symmetry_space_group_name_H-M "C M M 2"
_symmetry_group_IT_number 35
_symmetry_cell_setting 'orthorhombic'
loop_
_space_group_symop_operation_xyz
x,y,z
-x,-y,z
-x,y,z
x,-y,z
1/2+x,1/2+y,z
1/2-x,1/2-y,z
1/2-x,1/2+y,z
1/2+x,1/2-y,z
loop_
_atom_site_type_symbol
_atom_site_label
_atom_site_fract_x
_atom_site_fract_y
_atom_site_fract_z
Si Si1 0.667825 0.052833 0.506550
Si Si2 0.331287 0.447577 0.236971
Si Si3 0.169427 0.200817 0.847946
Si Si4 0.832147 0.850365 0.117890
Si Si5 0.164701 0.649054 0.620232
Si Si6 0.167127 0.702287 0.348233
O O1 0.500000 0.056059 0.466747
O O2 0.754183 0.064868 0.373980
O O3 0.702806 0.092451 0.619103
O O4 0.707667 0.000000 0.561617
O O5 0.500000 0.447540 0.269682
O O6 0.282768 0.500000 0.182983
O O7 0.293189 0.406629 0.129797
O O8 0.250000 0.250000 0.876458
O O9 0.225014 0.176702 0.713630
O O10 0.000000 0.211620 0.831194
O O11 0.202304 0.164774 0.967854
O O12 0.734219 0.819629 0.215590
O O13 0.000000 0.840813 0.153969
O O14 0.184324 0.666051 0.469418
O O15 0.000000 0.658164 0.669757
O O16 0.250000 0.750000 0.388634
O O17 0.000000 0.714328 0.318868
#
# Coordination Sequence:
#
# PCOD8173823 Si02
#       6
#     8   8   8   8   8   8
#     4   9  17  32  55  83 114 144 177 220 269 321
#     4   9  17  31  54  83 113 144 178 219 269 322
#     4  11  24  40  57  78 107 148 189 228 276 329
#     4  10  21  37  56  81 111 144 183 225 273 324
#     4  10  21  37  56  82 111 144 183 224 273 325
#     4  11  22  35  54  81 108 138 180 228 278 327
#
# _framework density 18.457063000000002
#
# number of rings (size 3 to 8) (size 9 to 14) (size 15 to 20)
#    0.000    2.000    1.667    2.000    0.000    6.000 
#    0.000    0.833    0.000    1.000    0.000    0.000 
#    0.000    0.000    0.000    0.000    0.000    0.000 
#
# Total GULP energy -297588.485730 kJ/mol
# GULP energy per Si atom -12399.520239 kJ/mol
# Density = 1.841505 g / cm^3
# Si number density = 18.457063 Si / 1000 Ang^3
#
#
#
# Elastic Constant Matrix: (Units=GPa)
#
#
# Indices 1 2 3 4 5 6 
#
# 1 76.4777 45.4533 34.8325 0.0000 0.0000 0.0000
# 2 45.4533 126.7922 29.6905 0.0000 0.0000 0.0000
# 3 34.8325 29.6905 61.2372 0.0000 0.0000 0.0000
# 4 0.0000 0.0000 0.0000 29.3807 0.0000 0.0000
# 5 0.0000 0.0000 0.0000 0.0000 25.6725 0.0000
# 6 0.0000 0.0000 0.0000 0.0000 0.0000 22.9973
#
#
#
# Elastic Compliance Matrix: (Units=1/GPa)
#
#
# Indices 1 2 3 4 5 6 
#
# 1 0.020241 -0.005144 -0.009019 0.000000 0.000000 0.000000
# 2 -0.005144 0.010204 -0.002022 0.000000 0.000000 0.000000
# 3 -0.009019 -0.002022 0.022440 0.000000 0.000000 0.000000
# 4 0.000000 0.000000 0.000000 0.034036 0.000000 0.000000
# 5 0.000000 0.000000 0.000000 0.000000 0.038952 0.000000
# 6 0.000000 0.000000 0.000000 0.000000 0.000000 0.043483
#
#
# Mechanical properties :
#
#
# Convention : Reuss Voigt Hill
#
# Bulk Modulus (GPa) = 48.74249 53.82885 51.28567
# Shear Modulus (GPa) = 23.97331 25.91216 24.94274
#
# Velocity S-wave (km/s) = 3.60789 3.75095 3.68012
# Velocity P-wave (km/s) = 6.61980 6.92728 6.77528
#
# Compressibility (1/GPa) = 0.02051598
#
# Stress axis : x y z
#
# Youngs Moduli (GPa) = 49.40496 97.99710 44.56273
#
# Poissons Ratio (x) = 0.50411 0.40192
# Poissons Ratio (y) = 0.25414 0.09008
# Poissons Ratio (z) = 0.44559 0.19810
#
# Static dielectric constant tensor:
#      x y z
#    x 3.483250 0.000000 0.000000 
#    y 0.000000 3.955630 0.000000 
#    z 0.000000 0.000000 3.101700 
# 
# 
# High freq. dielectric constant tensor:
#      x y z
#    x 1.720270 0.000000 0.000000 
#    y 0.000000 1.738320 0.000000 
#    z 0.000000 0.000000 1.687420 
# 
# From -- ./inp_files/5309.got.cif
#   From: 2010.03.12/outbox.cif.g09.slc.cpg/sg35_3_cif.got.tgz:5309.got - 2010.04.14 02:02:04.
