data_PCOD8173460
_publ_section_title
;
Structure prediction by ZEFSAII (Michael W. Deem and Ramdas Pophale) SiO2 
 PCOD8173460
Probable space group: C M M 2
;
_chemical_formula_sum "Si O2"
_cell_formula_units_Z 64
_cell_length_a 8.906952
_cell_length_b 27.879342
_cell_length_c 13.123930
_cell_angle_alpha 90.000000
_cell_angle_beta 90.000000
_cell_angle_gamma 90.000000
_cell_volume 3258.933786
_symmetry_space_group_name_H-M "C M M 2"
_symmetry_group_IT_number 35
_symmetry_cell_setting 'orthorhombic'
loop_
_space_group_symop_operation_xyz
x,y,z
-x,-y,z
-x,y,z
x,-y,z
1/2+x,1/2+y,z
1/2-x,1/2-y,z
1/2-x,1/2+y,z
1/2+x,1/2-y,z
loop_
_atom_site_type_symbol
_atom_site_label
_atom_site_fract_x
_atom_site_fract_y
_atom_site_fract_z
Si Si1 0.821412 0.197661 0.828030
Si Si2 0.673580 0.943978 0.719211
Si Si3 0.321909 0.888083 0.919590
Si Si4 0.676847 0.198360 0.628874
Si Si5 0.822482 0.398688 0.322689
Si Si6 0.330926 0.443075 0.516655
Si Si7 0.678647 0.054061 0.116163
Si Si8 0.325994 0.199806 0.403598
O O1 0.750000 0.250000 0.844982
O O2 0.764524 0.162896 0.918276
O O3 0.758205 0.171943 0.723587
O O4 0.000000 0.201750 0.826042
O O5 0.500000 0.932977 0.699629
O O6 0.728930 0.919277 0.822583
O O7 0.757812 0.922321 0.620461
O O8 0.705744 0.000000 0.732750
O O9 0.500000 0.879434 0.922459
O O10 0.264709 0.916066 0.019316
O O11 0.500000 0.200379 0.651182
O O12 0.750000 0.250000 0.630761
O O13 0.713077 0.178079 0.516259
O O14 0.756851 0.426937 0.417398
O O15 0.758501 0.420750 0.218303
O O16 0.777929 0.342108 0.325667
O O17 0.000000 0.404405 0.329427
O O18 0.500000 0.423724 0.510235
O O19 0.324052 0.500000 0.520995
O O20 0.500000 0.052889 0.117904
O O21 0.742496 0.000000 0.110238
O O22 0.500000 0.211646 0.398390
O O23 0.250000 0.250000 0.375768
#
# Coordination Sequence:
#
# PCOD8173460 Si02
#       8
#     8   8   8   8   8   8   8   8
#     4  11  22  36  54  79 111 148 189 230 278 332
#     4   9  18  33  54  79 108 143 182 225 277 338
#     4  10  20  35  57  83 111 143 185 235 285 332
#     4   9  16  29  48  72 104 142 182 224 270 320
#     4  10  20  35  57  84 111 145 190 232 275 330
#     4  10  21  35  51  77 113 147 180 223 279 339
#     4   9  18  35  61  88 111 141 187 238 281 328
#     4   9  19  33  51  77 110 146 184 226 271 323
#
# _framework density 19.638325999999999
#
# number of rings (size 3 to 8) (size 9 to 14) (size 15 to 20)
#    0.000    2.375    0.000    3.375    1.750    4.250 
#    0.000    1.250    0.000    3.375    0.000    0.000 
#    0.000    0.000    0.000    0.000    0.000    0.000 
#
# Total GULP energy -396668.206827 kJ/mol
# GULP energy per Si atom -12395.881463 kJ/mol
# Density = 1.959363 g / cm^3
# Si number density = 19.638326 Si / 1000 Ang^3
#
#
#
# Elastic Constant Matrix: (Units=GPa)
#
#
# Indices 1 2 3 4 5 6 
#
# 1 66.1001 38.5759 43.6710 0.0000 0.0000 0.0000
# 2 38.5759 97.3484 79.0898 0.0000 0.0000 0.0000
# 3 43.6710 79.0898 159.0813 0.0000 0.0000 0.0000
# 4 0.0000 0.0000 0.0000 36.5832 0.0000 0.0000
# 5 0.0000 0.0000 0.0000 0.0000 9.8616 0.0000
# 6 0.0000 0.0000 0.0000 0.0000 0.0000 24.9689
#
#
#
# Elastic Compliance Matrix: (Units=1/GPa)
#
#
# Indices 1 2 3 4 5 6 
#
# 1 0.020321 -0.005906 -0.002642 0.000000 0.000000 0.000000
# 2 -0.005906 0.018950 -0.007800 0.000000 0.000000 0.000000
# 3 -0.002642 -0.007800 0.010889 0.000000 0.000000 0.000000
# 4 0.000000 0.000000 0.000000 0.027335 0.000000 0.000000
# 5 0.000000 0.000000 0.000000 0.000000 0.101403 0.000000
# 6 0.000000 0.000000 0.000000 0.000000 0.000000 0.040050
#
#
# Mechanical properties :
#
#
# Convention : Reuss Voigt Hill
#
# Bulk Modulus (GPa) = 57.26104 71.68922 64.47513
# Shear Modulus (GPa) = 19.42013 25.02894 22.22454
#
# Velocity S-wave (km/s) = 3.14807 3.57388 3.36771
# Velocity P-wave (km/s) = 6.51421 7.32217 6.92997
#
# Compressibility (1/GPa) = 0.01746388
#
# Stress axis : x y z
#
# Youngs Moduli (GPa) = 49.21042 52.77183 91.83350
#
# Poissons Ratio (x) = 0.31166 0.24266
# Poissons Ratio (y) = 0.29062 0.71628
# Poissons Ratio (z) = 0.13003 0.41161
#
# Static dielectric constant tensor:
#      x y z
#    x 3.404010 0.000000 0.000000 
#    y 0.000000 3.625330 0.000000 
#    z 0.000000 0.000000 4.131610 
# 
# 
# High freq. dielectric constant tensor:
#      x y z
#    x 1.743590 0.000000 0.000000 
#    y 0.000000 1.773420 0.000000 
#    z 0.000000 0.000000 1.756990 
# 
# From -- ./inp_files/11900.got.cif
#   From: 2010.03.12/outbox.cif.g09.slc.cpg/sg35_6_cif.got.tgz:11900.got - 2010.04.14 02:02:04.
