data_PCOD8173400
_publ_section_title
;
Structure prediction by ZEFSAII (Michael W. Deem and Ramdas Pophale) SiO2 
 PCOD8173400
Probable space group: C M M 2
;
_chemical_formula_sum "Si O2"
_cell_formula_units_Z 48
_cell_length_a 7.730374
_cell_length_b 18.334593
_cell_length_c 17.004907
_cell_angle_alpha 90.000000
_cell_angle_beta 90.000000
_cell_angle_gamma 90.000000
_cell_volume 2410.160923
_symmetry_space_group_name_H-M "C M M 2"
_symmetry_group_IT_number 35
_symmetry_cell_setting 'orthorhombic'
loop_
_space_group_symop_operation_xyz
x,y,z
-x,-y,z
-x,y,z
x,-y,z
1/2+x,1/2+y,z
1/2-x,1/2-y,z
1/2-x,1/2+y,z
1/2+x,1/2-y,z
loop_
_atom_site_type_symbol
_atom_site_label
_atom_site_fract_x
_atom_site_fract_y
_atom_site_fract_z
Si Si1 0.000000 0.412600 0.655431
Si Si2 0.702397 0.830620 0.263232
Si Si3 0.205685 0.165162 0.559481
Si Si4 0.500000 0.086702 0.835115
Si Si5 0.690752 0.585071 0.939676
Si Si6 0.697972 0.420227 0.408712
Si Si7 0.797089 0.669275 0.086874
O O1 0.177790 0.379759 0.620887
O O2 0.000000 0.387057 0.745831
O O3 0.000000 0.500000 0.644888
O O4 0.500000 0.841269 0.264554
O O5 0.750000 0.750000 0.292872
O O6 0.783781 0.889181 0.321335
O O7 0.775591 0.843804 0.175239
O O8 0.250000 0.250000 0.564721
O O9 0.268867 0.135995 0.473998
O O10 0.000000 0.152678 0.575681
O O11 0.331375 0.118959 0.879895
O O12 0.500000 0.000000 0.837567
O O13 0.500000 0.602892 0.906177
O O14 0.723105 0.500000 0.946705
O O15 0.705070 0.614644 0.027886
O O16 0.500000 0.432244 0.427815
O O17 0.790416 0.500000 0.414413
O O18 0.750000 0.750000 0.058771
O O19 0.000000 0.655828 0.084075
#
# Coordination Sequence:
#
# PCOD8173400 Si02
#       7
#     4   8   8   4   8   8   8
#     4  11  24  42  70  99 126 166 207 259 324 374
#     4  10  21  35  54  80 112 158 201 247 299 356
#     4  11  23  42  67  94 128 168 210 258 312 383
#     4   9  20  40  62  89 123 154 195 247 299 366
#     4  10  20  36  61  88 117 156 199 242 297 361
#     4  10  22  38  57  85 120 155 201 256 304 356
#     4  10  20  35  55  80 117 154 201 252 300 357
#
# _framework density 19.915683000000001
#
# number of rings (size 3 to 8) (size 9 to 14) (size 15 to 20)
#    0.000    1.833    1.667    2.000    1.167    6.000 
#    0.000    5.833    0.000    0.000    0.000    0.000 
#    0.000    0.000    0.000    0.000    0.000    0.000 
#
# Total GULP energy -297537.851605 kJ/mol
# GULP energy per Si atom -12397.410484 kJ/mol
# Density = 1.987035 g / cm^3
# Si number density = 19.915683 Si / 1000 Ang^3
#
#
#
# Elastic Constant Matrix: (Units=GPa)
#
#
# Indices 1 2 3 4 5 6 
#
# 1 103.5738 45.5413 57.1938 0.0000 0.0000 0.0000
# 2 45.5413 97.1926 56.2656 0.0000 0.0000 0.0000
# 3 57.1938 56.2656 137.3977 0.0000 0.0000 0.0000
# 4 0.0000 0.0000 0.0000 25.6329 0.0000 0.0000
# 5 0.0000 0.0000 0.0000 0.0000 21.5577 0.0000
# 6 0.0000 0.0000 0.0000 0.0000 0.0000 23.9917
#
#
#
# Elastic Compliance Matrix: (Units=1/GPa)
#
#
# Indices 1 2 3 4 5 6 
#
# 1 0.013667 -0.004077 -0.004020 0.000000 0.000000 0.000000
# 2 -0.004077 0.014702 -0.004324 0.000000 0.000000 0.000000
# 3 -0.004020 -0.004324 0.010722 0.000000 0.000000 0.000000
# 4 0.000000 0.000000 0.000000 0.039012 0.000000 0.000000
# 5 0.000000 0.000000 0.000000 0.000000 0.046387 0.000000
# 6 0.000000 0.000000 0.000000 0.000000 0.000000 0.041681
#
#
# Mechanical properties :
#
#
# Convention : Reuss Voigt Hill
#
# Bulk Modulus (GPa) = 70.17091 72.90728 71.53909
# Shear Modulus (GPa) = 25.54115 26.18069 25.86092
#
# Velocity S-wave (km/s) = 3.58504 3.62964 3.60741
# Velocity P-wave (km/s) = 7.24204 7.36568 7.30412
#
# Compressibility (1/GPa) = 0.01425092
#
# Stress axis : x y z
#
# Youngs Moduli (GPa) = 73.16751 68.01717 93.26716
#
# Poissons Ratio (x) = 0.27731 0.37490
# Poissons Ratio (y) = 0.29831 0.40324
# Poissons Ratio (z) = 0.29410 0.29407
#
# Static dielectric constant tensor:
#      x y z
#    x 3.858470 0.000000 0.000000 
#    y 0.000000 3.624450 0.000000 
#    z 0.000000 0.000000 3.809700 
# 
# 
# High freq. dielectric constant tensor:
#      x y z
#    x 1.786910 0.000000 0.000000 
#    y 0.000000 1.768360 0.000000 
#    z 0.000000 0.000000 1.773760 
# 
# From -- ./inp_files/15278.got.cif
#   From: 2010.03.12/outbox.cif.g09.slc.cpg/sg35_8_cif.got.tgz:15278.got - 2010.04.14 02:02:04.
