data_PCOD8173635
_publ_section_title
;
Structure prediction by ZEFSAII (Michael W. Deem and Ramdas Pophale) SiO2 
 PCOD8173635
Probable space group: C M M 2
;
_chemical_formula_sum "Si O2"
_cell_formula_units_Z 40
_cell_length_a 9.006530
_cell_length_b 15.537243
_cell_length_c 14.459375
_cell_angle_alpha 90.000000
_cell_angle_beta 90.000000
_cell_angle_gamma 90.000000
_cell_volume 2023.396429
_symmetry_space_group_name_H-M "C M M 2"
_symmetry_group_IT_number 35
_symmetry_cell_setting 'orthorhombic'
loop_
_space_group_symop_operation_xyz
x,y,z
-x,-y,z
-x,y,z
x,-y,z
1/2+x,1/2+y,z
1/2-x,1/2-y,z
1/2-x,1/2+y,z
1/2+x,1/2-y,z
loop_
_atom_site_type_symbol
_atom_site_label
_atom_site_fract_x
_atom_site_fract_y
_atom_site_fract_z
Si Si1 0.172574 0.402175 0.093620
Si Si2 0.676050 0.838205 0.292631
Si Si3 0.825274 0.000000 0.603983
Si Si4 0.176543 0.000000 0.390082
Si Si5 0.676085 0.663281 0.715483
Si Si6 0.325811 0.598378 0.912275
O O1 0.227495 0.500000 0.110716
O O2 0.212474 0.347477 0.184063
O O3 0.000000 0.400187 0.072534
O O4 0.253139 0.361041 0.004405
O O5 0.500000 0.838316 0.311474
O O6 0.750000 0.750000 0.328215
O O7 0.751128 0.915728 0.346942
O O8 0.761009 0.085175 0.653357
O O9 0.780884 0.000000 0.497466
O O10 0.000000 0.000000 0.619245
O O11 0.000000 0.000000 0.373515
O O12 0.500000 0.670620 0.706908
O O13 0.750000 0.750000 0.677365
O O14 0.726503 0.649596 0.821670
O O15 0.500000 0.604168 0.924560
O O16 0.273294 0.500000 0.900353
#
# Coordination Sequence:
#
# PCOD8173635 Si02
#       6
#     8   8   4   4   8   8
#     4   9  18  34  55  80 115 155 191 235 287 336
#     4  11  23  41  62  88 122 158 197 244 295 352
#     4   9  20  41  64  83 112 150 189 235 290 351
#     4  11  23  41  66  91 114 152 197 245 306 359
#     4  10  20  37  59  84 116 151 189 233 282 339
#     4   9  17  31  54  81 110 151 195 231 274 335
#
# _framework density 19.768740999999999
#
# number of rings (size 3 to 8) (size 9 to 14) (size 15 to 20)
#    0.000    2.200    2.000    0.900    0.000    4.000 
#    0.000    8.500    0.000    0.000    0.000    0.000 
#    0.000    0.000    0.000    0.000    0.000    0.000 
#
# Total GULP energy -248014.772223 kJ/mol
# GULP energy per Si atom -12400.738611 kJ/mol
# Density = 1.972375 g / cm^3
# Si number density = 19.768741 Si / 1000 Ang^3
#
#
#
# Elastic Constant Matrix: (Units=GPa)
#
#
# Indices 1 2 3 4 5 6 
#
# 1 62.0008 51.7168 58.0727 0.0000 0.0000 0.0000
# 2 51.7168 154.1040 74.5134 0.0000 0.0000 0.0000
# 3 58.0727 74.5134 131.1434 0.0000 0.0000 0.0000
# 4 0.0000 0.0000 0.0000 -2.9647 0.0000 0.0000
# 5 0.0000 0.0000 0.0000 0.0000 23.3871 0.0000
# 6 0.0000 0.0000 0.0000 0.0000 0.0000 32.4320
#
#
#
# Elastic Compliance Matrix: (Units=1/GPa)
#
#
# Indices 1 2 3 4 5 6 
#
# 1 0.030167 -0.005053 -0.010487 0.000000 0.000000 0.000000
# 2 -0.005053 0.009794 -0.003327 0.000000 0.000000 0.000000
# 3 -0.010487 -0.003327 0.014160 0.000000 0.000000 0.000000
# 4 0.000000 0.000000 0.000000 -0.337297 0.000000 0.000000
# 5 0.000000 0.000000 0.000000 0.000000 0.042759 0.000000
# 6 0.000000 0.000000 0.000000 0.000000 0.000000 0.030834
#
#
# Mechanical properties :
#
#
# Convention : Reuss Voigt Hill
#
# Bulk Modulus (GPa) = 61.03076 79.53933 70.28505
# Shear Modulus (GPa) = -30.05014 21.43388 -4.30813
#
# Velocity S-wave (km/s) = -3.90305 3.29634 -1.47783
# Velocity P-wave (km/s) = 3.26000 7.40338 5.72004
#
# Compressibility (1/GPa) = 0.01638518
#
# Stress axis : x y z
#
# Youngs Moduli (GPa) = 33.14934 102.10795 70.62352
#
# Poissons Ratio (x) = 0.51594 0.74065
# Poissons Ratio (y) = 0.16750 0.23497
# Poissons Ratio (z) = 0.34765 0.33972
#
# Static dielectric constant tensor:
#      x y z
#    x 3.386370 0.000000 0.000000 
#    y 0.000000 3.650980 0.000000 
#    z 0.000000 0.000000 3.728460 
# 
# 
# High freq. dielectric constant tensor:
#      x y z
#    x 1.754010 0.000000 0.000000 
#    y 0.000000 1.772640 0.000000 
#    z 0.000000 0.000000 1.772700 
# 
# From -- ./inp_files/14749.got.cif
#   From: 2010.03.12/outbox.cif.g09.slc.cpg/sg35_8_cif.got.tgz:14749.got - 2010.04.14 02:02:04.
