data_PCOD8173174
_publ_section_title
;
Structure prediction by ZEFSAII (Michael W. Deem and Ramdas Pophale) SiO2 
 PCOD8173174
Probable space group: C M M 2
;
_chemical_formula_sum "Si O2"
_cell_formula_units_Z 64
_cell_length_a 8.766524
_cell_length_b 28.373685
_cell_length_c 15.531329
_cell_angle_alpha 90.000000
_cell_angle_beta 90.000000
_cell_angle_gamma 90.000000
_cell_volume 3863.240884
_symmetry_space_group_name_H-M "C M M 2"
_symmetry_group_IT_number 35
_symmetry_cell_setting 'orthorhombic'
loop_
_space_group_symop_operation_xyz
x,y,z
-x,-y,z
-x,y,z
x,-y,z
1/2+x,1/2+y,z
1/2-x,1/2-y,z
1/2-x,1/2+y,z
1/2+x,1/2-y,z
loop_
_atom_site_type_symbol
_atom_site_label
_atom_site_fract_x
_atom_site_fract_y
_atom_site_fract_z
Si Si1 0.177331 0.797446 0.195300
Si Si2 0.319690 0.609843 0.947908
Si Si3 0.819817 0.554403 0.423440
Si Si4 0.831197 0.444004 0.613760
Si Si5 0.680545 0.798693 0.010608
Si Si6 0.820466 0.052776 0.784127
Si Si7 0.323607 0.055332 0.103445
Si Si8 0.676270 0.602531 0.264805
O O1 0.250000 0.750000 0.236334
O O2 0.259862 0.809777 0.106122
O O3 0.202792 0.841197 0.259084
O O4 0.000000 0.788419 0.175905
O O5 0.500000 0.617755 0.946244
O O6 0.257683 0.583940 0.862504
O O7 0.235882 0.659911 0.948225
O O8 0.279483 0.579056 0.030999
O O9 0.775246 0.500000 0.407343
O O10 0.770532 0.571295 0.519520
O O11 0.725845 0.587251 0.359508
O O12 0.000000 0.561251 0.410243
O O13 0.835643 0.500000 0.613698
O O14 0.727250 0.425006 0.691970
O O15 0.000000 0.423506 0.628683
O O16 0.500000 0.795530 0.011286
O O17 0.750000 0.750000 0.975451
O O18 0.000000 0.050883 0.788283
O O19 0.752437 0.000000 0.794235
O O20 0.500000 0.067484 0.085992
O O21 0.278284 0.074802 0.196459
O O22 0.292926 0.000000 0.101951
O O23 0.500000 0.590001 0.248251
#
# Coordination Sequence:
#
# PCOD8173174 Si02
#       8
#     8   8   8   8   8   8   8   8
#     4  10  20  34  51  71  94 123 160 204 248 292
#     4  11  21  34  50  71  99 131 166 202 244 292
#     4   9  18  32  49  70  98 131 166 202 240 285
#     4   8  15  29  48  69  94 125 161 203 245 284
#     4  11  21  34  53  73  95 125 162 205 250 292
#     4   9  18  31  48  71  99 131 164 200 242 287
#     4  11  23  35  47  66  95 133 172 203 236 284
#     4  11  22  33  48  71  98 128 163 201 245 292
#
# _framework density 16.566400999999999
#
# number of rings (size 3 to 8) (size 9 to 14) (size 15 to 20)
#    0.000    2.000    1.250    4.875    0.000    6.250 
#    0.000    2.500    0.000    0.000    0.000    0.875 
#    0.000    4.000    0.000    0.000    0.000    0.000 
#
# Total GULP energy -396791.769438 kJ/mol
# GULP energy per Si atom -12399.742795 kJ/mol
# Density = 1.652869 g / cm^3
# Si number density = 16.566401 Si / 1000 Ang^3
#
#
#
# Elastic Constant Matrix: (Units=GPa)
#
#
# Indices 1 2 3 4 5 6 
#
# 1 75.8007 43.3050 29.5823 0.0000 0.0000 0.0000
# 2 43.3050 98.6122 52.7345 0.0000 0.0000 0.0000
# 3 29.5823 52.7345 109.9226 0.0000 0.0000 0.0000
# 4 0.0000 0.0000 0.0000 10.3132 0.0000 0.0000
# 5 0.0000 0.0000 0.0000 0.0000 27.7772 0.0000
# 6 0.0000 0.0000 0.0000 0.0000 0.0000 25.6514
#
#
#
# Elastic Compliance Matrix: (Units=1/GPa)
#
#
# Indices 1 2 3 4 5 6 
#
# 1 0.017769 -0.007056 -0.001397 0.000000 0.000000 0.000000
# 2 -0.007056 0.016442 -0.005989 0.000000 0.000000 0.000000
# 3 -0.001397 -0.005989 0.012346 0.000000 0.000000 0.000000
# 4 0.000000 0.000000 0.000000 0.096963 0.000000 0.000000
# 5 0.000000 0.000000 0.000000 0.000000 0.036001 0.000000
# 6 0.000000 0.000000 0.000000 0.000000 0.000000 0.038984
#
#
# Mechanical properties :
#
#
# Convention : Reuss Voigt Hill
#
# Bulk Modulus (GPa) = 56.58220 59.50878 58.04549
# Shear Modulus (GPa) = 19.74099 23.32928 21.53513
#
# Velocity S-wave (km/s) = 3.45574 3.75671 3.60936
# Velocity P-wave (km/s) = 7.08179 7.40382 7.24459
#
# Compressibility (1/GPa) = 0.01767340
#
# Stress axis : x y z
#
# Youngs Moduli (GPa) = 56.27858 60.81952 80.99516
#
# Poissons Ratio (x) = 0.42915 0.11314
# Poissons Ratio (y) = 0.39711 0.48508
# Poissons Ratio (z) = 0.07861 0.36425
#
# Static dielectric constant tensor:
#      x y z
#    x 3.172780 0.000000 0.000000 
#    y 0.000000 3.224860 0.000000 
#    z 0.000000 0.000000 3.175040 
# 
# 
# High freq. dielectric constant tensor:
#      x y z
#    x 1.647340 0.000000 0.000000 
#    y 0.000000 1.621010 0.000000 
#    z 0.000000 0.000000 1.624940 
# 
# From -- ./inp_files/16255.got.cif
#   From: 2010.03.12/outbox.cif.g09.slc.cpg/sg35_9_cif.got.tgz:16255.got - 2010.04.14 02:02:04.
