data_PCOD8173788
_publ_section_title
;
Structure prediction by ZEFSAII (Michael W. Deem and Ramdas Pophale) SiO2 
 PCOD8173788
Probable space group: C M M 2
;
_chemical_formula_sum "Si O2"
_cell_formula_units_Z 56
_cell_length_a 19.047006
_cell_length_b 9.058480
_cell_length_c 17.452026
_cell_angle_alpha 90.000000
_cell_angle_beta 90.000000
_cell_angle_gamma 90.000000
_cell_volume 3011.118865
_symmetry_space_group_name_H-M "C M M 2"
_symmetry_group_IT_number 35
_symmetry_cell_setting 'orthorhombic'
loop_
_space_group_symop_operation_xyz
x,y,z
-x,-y,z
-x,y,z
x,-y,z
1/2+x,1/2+y,z
1/2-x,1/2-y,z
1/2-x,1/2+y,z
1/2+x,1/2-y,z
loop_
_atom_site_type_symbol
_atom_site_label
_atom_site_fract_x
_atom_site_fract_y
_atom_site_fract_z
Si Si1 0.918023 0.335097 0.668460
Si Si2 0.674836 0.325802 0.966600
Si Si3 0.179785 0.171651 0.557607
Si Si4 0.580569 0.827975 0.844045
Si Si5 0.419326 0.671414 0.110832
Si Si6 0.178374 0.173824 0.382246
Si Si7 0.417263 0.168591 0.264593
O O1 0.890003 0.500000 0.650997
O O2 0.883538 0.219046 0.611578
O O3 0.901433 0.293177 0.755967
O O4 0.000000 0.327891 0.653180
O O5 0.685439 0.500000 0.960015
O O6 0.750000 0.250000 0.972799
O O7 0.633459 0.270645 0.892427
O O8 0.629256 0.281361 0.040387
O O9 0.250000 0.250000 0.586555
O O10 0.162227 0.215270 0.470232
O O11 0.192376 0.000000 0.565943
O O12 0.500000 0.784195 0.862290
O O13 0.592448 0.000000 0.862415
O O14 0.500000 0.708095 0.089474
O O15 0.410584 0.500000 0.131439
O O16 0.393371 0.765605 0.183216
O O17 0.250000 0.250000 0.354509
O O18 0.114965 0.236937 0.332933
O O19 0.185066 0.000000 0.369548
O O20 0.500000 0.181819 0.273897
O O21 0.391476 0.000000 0.269385
#
# Coordination Sequence:
#
# PCOD8173788 Si02
#       7
#     8   8   8   8   8   8   8
#     4   9  19  36  57  81 109 141 177 219 268 319
#     4  11  23  37  55  81 111 143 180 221 266 315
#     4  10  21  36  55  79 107 142 182 222 267 319
#     4   9  19  37  59  81 107 141 179 219 267 321
#     4   9  19  37  58  78 104 140 180 222 269 318
#     4  10  21  37  56  78 107 143 181 222 269 319
#     4  10  21  36  56  83 111 141 179 219 262 316
#
# _framework density 18.597739000000001
#
# number of rings (size 3 to 8) (size 9 to 14) (size 15 to 20)
#    0.000    2.286    0.000    3.000    0.000    7.143 
#    0.000    7.143    0.000    0.000    0.000    0.000 
#    0.000    0.000    0.000    0.000    0.000    0.000 
#
# Total GULP energy -347295.890661 kJ/mol
# GULP energy per Si atom -12403.424666 kJ/mol
# Density = 1.855541 g / cm^3
# Si number density = 18.597739 Si / 1000 Ang^3
#
#
#
# Elastic Constant Matrix: (Units=GPa)
#
#
# Indices 1 2 3 4 5 6 
#
# 1 85.9377 48.8721 65.0922 0.0000 0.0000 0.0000
# 2 48.8721 88.1052 57.3737 0.0000 0.0000 0.0000
# 3 65.0922 57.3737 106.9359 0.0000 0.0000 0.0000
# 4 0.0000 0.0000 0.0000 33.7374 0.0000 0.0000
# 5 0.0000 0.0000 0.0000 0.0000 11.7102 0.0000
# 6 0.0000 0.0000 0.0000 0.0000 0.0000 32.6500
#
#
#
# Elastic Compliance Matrix: (Units=1/GPa)
#
#
# Indices 1 2 3 4 5 6 
#
# 1 0.023298 -0.005669 -0.011140 0.000000 0.000000 0.000000
# 2 -0.005669 0.018825 -0.006649 0.000000 0.000000 0.000000
# 3 -0.011140 -0.006649 0.019700 0.000000 0.000000 0.000000
# 4 0.000000 0.000000 0.000000 0.029641 0.000000 0.000000
# 5 0.000000 0.000000 0.000000 0.000000 0.085396 0.000000
# 6 0.000000 0.000000 0.000000 0.000000 0.000000 0.030628
#
#
# Mechanical properties :
#
#
# Convention : Reuss Voigt Hill
#
# Bulk Modulus (GPa) = 67.08682 69.29500 68.19091
# Shear Modulus (GPa) = 19.27734 22.92891 21.10313
#
# Velocity S-wave (km/s) = 3.22303 3.51506 3.37221
# Velocity P-wave (km/s) = 7.07117 7.33587 7.20474
#
# Compressibility (1/GPa) = 0.01490606
#
# Stress axis : x y z
#
# Youngs Moduli (GPa) = 42.92173 53.12196 50.76215
#
# Poissons Ratio (x) = 0.30116 0.56549
# Poissons Ratio (y) = 0.24333 0.33752
# Poissons Ratio (z) = 0.47815 0.35321
#
# Static dielectric constant tensor:
#      x y z
#    x 3.351980 0.000000 0.000000 
#    y 0.000000 3.490910 0.000000 
#    z 0.000000 0.000000 3.437050 
# 
# 
# High freq. dielectric constant tensor:
#      x y z
#    x 1.719800 0.000000 0.000000 
#    y 0.000000 1.728900 0.000000 
#    z 0.000000 0.000000 1.726920 
# 
# From -- ./inp_files/15599.got.cif
#   From: 2010.03.12/outbox.cif.g09.slc.cpg/sg35_8_cif.got.tgz:15599.got - 2010.04.14 02:02:04.
