data_PCOD8173712
_publ_section_title
;
Structure prediction by ZEFSAII (Michael W. Deem and Ramdas Pophale) SiO2 
 PCOD8173712
Probable space group: C M M 2
;
_chemical_formula_sum "Si O2"
_cell_formula_units_Z 48
_cell_length_a 16.079381
_cell_length_b 8.668847
_cell_length_c 16.971161
_cell_angle_alpha 90.000000
_cell_angle_beta 90.000000
_cell_angle_gamma 90.000000
_cell_volume 2365.604934
_symmetry_space_group_name_H-M "C M M 2"
_symmetry_group_IT_number 35
_symmetry_cell_setting 'orthorhombic'
loop_
_space_group_symop_operation_xyz
x,y,z
-x,-y,z
-x,y,z
x,-y,z
1/2+x,1/2+y,z
1/2-x,1/2-y,z
1/2-x,1/2+y,z
1/2+x,1/2-y,z
loop_
_atom_site_type_symbol
_atom_site_label
_atom_site_fract_x
_atom_site_fract_y
_atom_site_fract_z
Si Si1 0.500000 0.817776 0.942651
Si Si2 0.663023 0.318530 0.388851
Si Si3 0.658516 0.817079 0.845077
Si Si4 0.000000 0.682781 0.123117
Si Si5 0.162458 0.819831 0.680568
Si Si6 0.092735 0.334434 0.533986
Si Si7 0.339474 0.682571 0.208928
O O1 0.585702 0.755176 0.903217
O O2 0.500000 0.000000 0.933943
O O3 0.500000 0.764359 0.032710
O O4 0.663312 0.500000 0.397737
O O5 0.750000 0.250000 0.416588
O O6 0.598075 0.245213 0.448632
O O7 0.642987 0.269872 0.299305
O O8 0.750000 0.750000 0.867094
O O9 0.628507 0.765082 0.758470
O O10 0.666430 0.000000 0.848423
O O11 0.915664 0.748939 0.160079
O O12 0.000000 0.500000 0.133199
O O13 0.250000 0.750000 0.658388
O O14 0.109953 0.787201 0.603013
O O15 0.166621 0.000000 0.699018
O O16 0.143023 0.500000 0.539091
O O17 0.000000 0.383896 0.545393
O O18 0.336493 0.500000 0.197464
O O19 0.250000 0.750000 0.181033
#
# Coordination Sequence:
#
# PCOD8173712 Si02
#       7
#     4   8   8   4   8   8   8
#     4   9  22  41  63  90 123 160 197 241 304 367
#     4  10  21  38  60  83 114 152 196 245 295 348
#     4  10  20  39  63  89 120 158 200 247 300 358
#     4  11  23  41  65  94 127 164 203 249 308 373
#     4  11  22  38  59  84 114 152 196 242 292 347
#     4  11  24  38  54  81 116 155 197 240 292 347
#     4  10  22  41  64  93 125 164 207 255 309 366
#
# _framework density 20.290793000000001
#
# number of rings (size 3 to 8) (size 9 to 14) (size 15 to 20)
#    0.000    1.667    0.000    5.250    2.333    4.000 
#    0.000    6.250    0.000    0.000    0.000    0.000 
#    0.000    0.000    0.000    0.000    0.000    0.000 
#
# Total GULP energy -297462.490197 kJ/mol
# GULP energy per Si atom -12394.270425 kJ/mol
# Density = 2.024461 g / cm^3
# Si number density = 20.290793 Si / 1000 Ang^3
#
#
#
# Elastic Constant Matrix: (Units=GPa)
#
#
# Indices 1 2 3 4 5 6 
#
# 1 131.3730 46.3104 81.9745 0.0000 0.0000 0.0000
# 2 46.3104 99.0145 40.3803 0.0000 0.0000 0.0000
# 3 81.9745 40.3803 133.5270 0.0000 0.0000 0.0000
# 4 0.0000 0.0000 0.0000 40.6442 0.0000 0.0000
# 5 0.0000 0.0000 0.0000 0.0000 33.0100 0.0000
# 6 0.0000 0.0000 0.0000 0.0000 0.0000 28.6457
#
#
#
# Elastic Compliance Matrix: (Units=1/GPa)
#
#
# Indices 1 2 3 4 5 6 
#
# 1 0.013208 -0.003275 -0.007118 0.000000 0.000000 0.000000
# 2 -0.003275 0.012332 -0.001719 0.000000 0.000000 0.000000
# 3 -0.007118 -0.001719 0.012379 0.000000 0.000000 0.000000
# 4 0.000000 0.000000 0.000000 0.024604 0.000000 0.000000
# 5 0.000000 0.000000 0.000000 0.000000 0.030294 0.000000
# 6 0.000000 0.000000 0.000000 0.000000 0.000000 0.034909
#
#
# Mechanical properties :
#
#
# Convention : Reuss Voigt Hill
#
# Bulk Modulus (GPa) = 73.01807 77.91609 75.46708
# Shear Modulus (GPa) = 31.94582 33.47659 32.71121
#
# Velocity S-wave (km/s) = 3.97218 4.06623 4.01948
# Velocity P-wave (km/s) = 7.55655 7.78002 7.66910
#
# Compressibility (1/GPa) = 0.01369524
#
# Stress axis : x y z
#
# Youngs Moduli (GPa) = 75.71219 81.08875 80.78161
#
# Poissons Ratio (x) = 0.26553 0.57503
# Poissons Ratio (y) = 0.24792 0.13887
# Poissons Ratio (z) = 0.53894 0.13940
#
# Static dielectric constant tensor:
#      x y z
#    x 3.786660 0.000000 0.000000 
#    y 0.000000 3.636490 0.000000 
#    z 0.000000 0.000000 3.799400 
# 
# 
# High freq. dielectric constant tensor:
#      x y z
#    x 1.793160 0.000000 0.000000 
#    y 0.000000 1.803910 0.000000 
#    z 0.000000 0.000000 1.793310 
# 
# From -- ./inp_files/17099.got.cif
#   From: 2010.03.12/outbox.cif.g09.slc.cpg/sg35_9_cif.got.tgz:17099.got - 2010.04.14 02:02:04.
