data_PCOD8173852
_publ_section_title
;
Structure prediction by ZEFSAII (Michael W. Deem and Ramdas Pophale) SiO2 
 PCOD8173852
Probable space group: C M M 2
;
_chemical_formula_sum "Si O2"
_cell_formula_units_Z 56
_cell_length_a 9.014805
_cell_length_b 18.512298
_cell_length_c 17.973984
_cell_angle_alpha 90.000000
_cell_angle_beta 90.000000
_cell_angle_gamma 90.000000
_cell_volume 2999.583944
_symmetry_space_group_name_H-M "C M M 2"
_symmetry_group_IT_number 35
_symmetry_cell_setting 'orthorhombic'
loop_
_space_group_symop_operation_xyz
x,y,z
-x,-y,z
-x,y,z
x,-y,z
1/2+x,1/2+y,z
1/2-x,1/2-y,z
1/2-x,1/2+y,z
1/2+x,1/2-y,z
loop_
_atom_site_type_symbol
_atom_site_label
_atom_site_fract_x
_atom_site_fract_y
_atom_site_fract_z
Si Si1 0.674410 0.416441 0.639800
Si Si2 0.174799 0.581591 0.949213
Si Si3 0.836054 0.085810 0.804803
Si Si4 0.325156 0.173098 0.512640
Si Si5 0.176372 0.327573 0.090015
Si Si6 0.670575 0.916757 0.368853
Si Si7 0.328299 0.584493 0.218304
O O1 0.500000 0.404522 0.626238
O O2 0.716548 0.500000 0.627984
O O3 0.718994 0.389826 0.723079
O O4 0.769782 0.368994 0.584503
O O5 0.235451 0.500000 0.961457
O O6 0.231345 0.614543 0.870922
O O7 0.000000 0.581161 0.946429
O O8 0.232544 0.630993 0.016370
O O9 0.000000 0.116847 0.820069
O O10 0.840356 0.000000 0.804476
O O11 0.500000 0.182594 0.518666
O O12 0.250000 0.250000 0.508106
O O13 0.278488 0.129463 0.439284
O O14 0.250000 0.250000 0.090799
O O15 0.228667 0.372189 0.160888
O O16 0.000000 0.319991 0.092240
O O17 0.500000 0.901830 0.347006
O O18 0.774533 0.893857 0.300480
O O19 0.694876 0.000000 0.390167
O O20 0.500000 0.606039 0.209690
O O21 0.302242 0.500000 0.203846
#
# Coordination Sequence:
#
# PCOD8173852 Si02
#       7
#     8   8   8   8   8   8   8
#     4   9  18  34  56  81 109 141 178 221 269 319
#     4   9  18  33  54  79 105 136 176 220 266 316
#     4   8  15  29  51  79 107 135 170 215 266 316
#     4  11  23  37  54  78 109 145 183 221 265 317
#     4  11  23  38  55  77 109 146 182 221 267 317
#     4   9  19  37  59  81 106 138 177 221 268 316
#     4  10  21  37  59  86 111 138 176 218 262 316
#
# _framework density 18.669257000000002
#
# number of rings (size 3 to 8) (size 9 to 14) (size 15 to 20)
#    0.000    2.429    0.000    3.000    0.000    5.714 
#    0.000    6.429    0.000    1.714    0.000    0.000 
#    0.000    0.000    0.000    0.000    0.000    0.000 
#
# Total GULP energy -347204.468743 kJ/mol
# GULP energy per Si atom -12400.159598 kJ/mol
# Density = 1.862676 g / cm^3
# Si number density = 18.669257 Si / 1000 Ang^3
#
#
#
# Elastic Constant Matrix: (Units=GPa)
#
#
# Indices 1 2 3 4 5 6 
#
# 1 65.7994 43.3772 58.5503 0.0000 0.0000 0.0000
# 2 43.3772 81.9022 73.9307 0.0000 0.0000 0.0000
# 3 58.5503 73.9307 159.4923 0.0000 0.0000 0.0000
# 4 0.0000 0.0000 0.0000 -5.2661 0.0000 0.0000
# 5 0.0000 0.0000 0.0000 0.0000 34.4136 0.0000
# 6 0.0000 0.0000 0.0000 0.0000 0.0000 -99.6283
#
#
#
# Elastic Compliance Matrix: (Units=1/GPa)
#
#
# Indices 1 2 3 4 5 6 
#
# 1 0.025793 -0.008792 -0.005393 0.000000 0.000000 0.000000
# 2 -0.008792 0.023991 -0.007893 0.000000 0.000000 0.000000
# 3 -0.005393 -0.007893 0.011908 0.000000 0.000000 0.000000
# 4 0.000000 0.000000 0.000000 -0.189893 0.000000 0.000000
# 5 0.000000 0.000000 0.000000 0.000000 0.029058 0.000000
# 6 0.000000 0.000000 0.000000 0.000000 0.000000 -0.010037
#
#
# Mechanical properties :
#
#
# Convention : Reuss Voigt Hill
#
# Bulk Modulus (GPa) = 57.02722 73.21225 65.11974
# Shear Modulus (GPa) = -84.49154 -5.34045 -44.91599
#
# Velocity S-wave (km/s) = -6.73463 -1.69315 -4.91030
# Velocity P-wave (km/s) = 5.46455 5.95636 1.67583
#
# Compressibility (1/GPa) = 0.01753548
#
# Stress axis : x y z
#
# Youngs Moduli (GPa) = 38.77052 41.68215 83.97366
#
# Poissons Ratio (x) = 0.36648 0.45288
# Poissons Ratio (y) = 0.34088 0.66281
# Poissons Ratio (z) = 0.20909 0.32900
#
# Static dielectric constant tensor:
#      x y z
#    x 3.426190 0.000000 0.000000 
#    y 0.000000 3.350330 0.000000 
#    z 0.000000 0.000000 3.668840 
# 
# 
# High freq. dielectric constant tensor:
#      x y z
#    x 1.724630 0.000000 0.000000 
#    y 0.000000 1.705800 0.000000 
#    z 0.000000 0.000000 1.740840 
# 
# From -- ./inp_files/18187.got.cif
#   From: 2010.03.12/outbox.cif.g09.slc.cpg/sg35_10_cif.got.tgz:18187.got - 2010.04.14 02:02:04.
