data_PCOD8173449
_publ_section_title
;
Structure prediction by ZEFSAII (Michael W. Deem and Ramdas Pophale) SiO2 
 PCOD8173449
Probable space group: C M M 2
;
_chemical_formula_sum "Si O2"
_cell_formula_units_Z 40
_cell_length_a 8.660393
_cell_length_b 15.668405
_cell_length_c 14.345370
_cell_angle_alpha 90.000000
_cell_angle_beta 90.000000
_cell_angle_gamma 90.000000
_cell_volume 1946.588455
_symmetry_space_group_name_H-M "C M M 2"
_symmetry_group_IT_number 35
_symmetry_cell_setting 'orthorhombic'
loop_
_space_group_symop_operation_xyz
x,y,z
-x,-y,z
-x,y,z
x,-y,z
1/2+x,1/2+y,z
1/2-x,1/2-y,z
1/2-x,1/2+y,z
1/2+x,1/2-y,z
loop_
_atom_site_type_symbol
_atom_site_label
_atom_site_fract_x
_atom_site_fract_y
_atom_site_fract_z
Si Si1 0.679357 0.663227 0.008060
Si Si2 0.818082 0.659045 0.634645
Si Si3 0.815726 0.000000 0.123750
Si Si4 0.182308 0.500000 0.326543
Si Si5 0.183327 0.844581 0.440478
Si Si6 0.175050 0.596488 0.832216
O O1 0.500000 0.670776 0.019312
O O2 0.750000 0.750000 0.049387
O O3 0.740532 0.582903 0.066708
O O4 0.719920 0.654231 0.898601
O O5 0.750000 0.750000 0.660487
O O6 0.734273 0.622869 0.542866
O O7 0.777909 0.600768 0.723517
O O8 0.000000 0.664134 0.613871
O O9 0.721843 0.000000 0.218498
O O10 0.000000 0.000000 0.140709
O O11 0.254058 0.586402 0.368076
O O12 0.000000 0.500000 0.343584
O O13 0.250000 0.750000 0.419596
O O14 0.000000 0.840120 0.433441
O O15 0.195047 0.500000 0.865518
O O16 0.000000 0.628920 0.843966
#
# Coordination Sequence:
#
# PCOD8173449 Si02
#       6
#     8   8   4   4   8   8
#     4  11  23  41  65  92 124 164 205 255 309 367
#     4  10  20  35  56  85 123 166 209 256 305 362
#     4  10  24  46  65  90 125 158 203 260 314 374
#     4  12  26  44  69  96 125 164 205 258 322 380
#     4  11  23  42  66  95 129 168 211 260 312 372
#     4  10  21  36  57  88 126 167 209 256 304 361
#
# _framework density 20.548770999999999
#
# number of rings (size 3 to 8) (size 9 to 14) (size 15 to 20)
#    0.000    1.400    1.000    5.700    1.400    5.600 
#    0.000    2.000    0.000    0.000    0.000    0.000 
#    0.000    0.000    0.000    0.000    0.000    0.000 
#
# Total GULP energy -248020.136279 kJ/mol
# GULP energy per Si atom -12401.006814 kJ/mol
# Density = 2.050200 g / cm^3
# Si number density = 20.548771 Si / 1000 Ang^3
#
#
#
# Elastic Constant Matrix: (Units=GPa)
#
#
# Indices 1 2 3 4 5 6 
#
# 1 118.8853 55.8230 55.0933 0.0000 0.0000 0.0000
# 2 55.8230 135.3251 71.1677 0.0000 0.0000 0.0000
# 3 55.0933 71.1677 124.9683 0.0000 0.0000 0.0000
# 4 0.0000 0.0000 0.0000 21.0364 0.0000 0.0000
# 5 0.0000 0.0000 0.0000 0.0000 37.1175 0.0000
# 6 0.0000 0.0000 0.0000 0.0000 0.0000 33.5639
#
#
#
# Elastic Compliance Matrix: (Units=1/GPa)
#
#
# Indices 1 2 3 4 5 6 
#
# 1 0.011326 -0.002921 -0.003330 0.000000 0.000000 0.000000
# 2 -0.002921 0.011302 -0.005149 0.000000 0.000000 0.000000
# 3 -0.003330 -0.005149 0.012402 0.000000 0.000000 0.000000
# 4 0.000000 0.000000 0.000000 0.047537 0.000000 0.000000
# 5 0.000000 0.000000 0.000000 0.000000 0.026941 0.000000
# 6 0.000000 0.000000 0.000000 0.000000 0.000000 0.029794
#
#
# Mechanical properties :
#
#
# Convention : Reuss Voigt Hill
#
# Bulk Modulus (GPa) = 81.75598 82.59406 82.17502
# Shear Modulus (GPa) = 30.08809 31.48320 30.78564
#
# Velocity S-wave (km/s) = 3.83067 3.91848 3.87482
# Velocity P-wave (km/s) = 7.70961 7.79449 7.75217
#
# Compressibility (1/GPa) = 0.01223152
#
# Stress axis : x y z
#
# Youngs Moduli (GPa) = 88.29171 88.47756 80.63147
#
# Poissons Ratio (x) = 0.25844 0.26848
# Poissons Ratio (y) = 0.25790 0.41515
# Poissons Ratio (z) = 0.29399 0.45555
#
# Static dielectric constant tensor:
#      x y z
#    x 3.727250 0.000000 0.000000 
#    y 0.000000 4.104000 0.000000 
#    z 0.000000 0.000000 3.755330 
# 
# 
# High freq. dielectric constant tensor:
#      x y z
#    x 1.807660 0.000000 0.000000 
#    y 0.000000 1.812070 0.000000 
#    z 0.000000 0.000000 1.803510 
# 
# From -- ./inp_files/14765.got.cif
#   From: 2010.03.12/outbox.cif.g09.slc.cpg/sg35_8_cif.got.tgz:14765.got - 2010.04.14 02:02:04.
