data_PCOD8173577
_publ_section_title
;
Structure prediction by ZEFSAII (Michael W. Deem and Ramdas Pophale) SiO2 
 PCOD8173577
Probable space group: C M M 2
;
_chemical_formula_sum "Si O2"
_cell_formula_units_Z 48
_cell_length_a 16.093441
_cell_length_b 8.751054
_cell_length_c 16.944265
_cell_angle_alpha 90.000000
_cell_angle_beta 90.000000
_cell_angle_gamma 90.000000
_cell_volume 2386.338296
_symmetry_space_group_name_H-M "C M M 2"
_symmetry_group_IT_number 35
_symmetry_cell_setting 'orthorhombic'
loop_
_space_group_symop_operation_xyz
x,y,z
-x,-y,z
-x,y,z
x,-y,z
1/2+x,1/2+y,z
1/2-x,1/2-y,z
1/2-x,1/2+y,z
1/2+x,1/2-y,z
loop_
_atom_site_type_symbol
_atom_site_label
_atom_site_fract_x
_atom_site_fract_y
_atom_site_fract_z
Si Si1 0.662235 0.819564 0.443920
Si Si2 0.340576 0.680684 0.078408
Si Si3 0.336398 0.180246 0.623826
Si Si4 0.837582 0.679357 0.914490
Si Si5 0.000000 0.179433 0.182268
Si Si6 0.500000 0.180793 0.352657
Si Si7 0.092701 0.164393 0.767797
O O1 0.750000 0.750000 0.414063
O O2 0.644048 0.770745 0.534092
O O3 0.584281 0.755075 0.393649
O O4 0.670495 0.000000 0.435241
O O5 0.329242 0.500000 0.074090
O O6 0.250000 0.750000 0.102816
O O7 0.414854 0.726774 0.137716
O O8 0.371849 0.742307 0.993996
O O9 0.250000 0.250000 0.652163
O O10 0.401730 0.253018 0.683268
O O11 0.335870 0.000000 0.632708
O O12 0.833335 0.500000 0.929467
O O13 0.750000 0.750000 0.894191
O O14 0.890235 0.716873 0.837714
O O15 0.000000 0.271745 0.262642
O O16 0.000000 0.000000 0.199335
O O17 0.500000 0.000000 0.361245
O O18 0.000000 0.115137 0.778716
O O19 0.142791 0.000000 0.771976
#
# Coordination Sequence:
#
# PCOD8173577 Si02
#       7
#     8   8   8   8   4   4   8
#     4   9  20  38  61  88 119 156 196 243 295 350
#     4  10  21  40  63  89 120 157 197 242 296 351
#     4  10  20  36  59  82 112 150 194 241 290 344
#     4  11  22  38  60  85 113 150 195 239 288 344
#     4  10  24  42  62  89 122 157 192 237 298 357
#     4  10  22  40  62  89 120 155 194 239 294 353
#     4  11  24  38  53  79 116 154 194 240 290 339
#
# _framework density 20.114501000000001
#
# number of rings (size 3 to 8) (size 9 to 14) (size 15 to 20)
#    0.000    1.833    0.000    4.500    2.333    4.667 
#    0.000    3.333    0.000    0.000    0.000    0.000 
#    0.000    0.000    0.000    0.000    0.000    0.000 
#
# Total GULP energy -297457.091665 kJ/mol
# GULP energy per Si atom -12394.045486 kJ/mol
# Density = 2.006872 g / cm^3
# Si number density = 20.114501 Si / 1000 Ang^3
#
#
#
# Elastic Constant Matrix: (Units=GPa)
#
#
# Indices 1 2 3 4 5 6 
#
# 1 123.2452 42.8711 74.1950 0.0000 0.0000 0.0000
# 2 42.8711 88.0372 41.9306 0.0000 0.0000 0.0000
# 3 74.1950 41.9306 124.2970 0.0000 0.0000 0.0000
# 4 0.0000 0.0000 0.0000 35.7092 0.0000 0.0000
# 5 0.0000 0.0000 0.0000 0.0000 38.3899 0.0000
# 6 0.0000 0.0000 0.0000 0.0000 0.0000 24.9019
#
#
#
# Elastic Compliance Matrix: (Units=1/GPa)
#
#
# Indices 1 2 3 4 5 6 
#
# 1 0.013396 -0.003235 -0.006905 0.000000 0.000000 0.000000
# 2 -0.003235 0.014314 -0.002898 0.000000 0.000000 0.000000
# 3 -0.006905 -0.002898 0.013145 0.000000 0.000000 0.000000
# 4 0.000000 0.000000 0.000000 0.028004 0.000000 0.000000
# 5 0.000000 0.000000 0.000000 0.000000 0.026048 0.000000
# 6 0.000000 0.000000 0.000000 0.000000 0.000000 0.040158
#
#
# Mechanical properties :
#
#
# Convention : Reuss Voigt Hill
#
# Bulk Modulus (GPa) = 67.66163 72.61921 70.14042
# Shear Modulus (GPa) = 30.10831 31.57238 30.84034
#
# Velocity S-wave (km/s) = 3.87311 3.96616 3.91991
# Velocity P-wave (km/s) = 7.32888 7.56010 7.44539
#
# Compressibility (1/GPa) = 0.01477942
#
# Stress axis : x y z
#
# Youngs Moduli (GPa) = 74.64884 69.86046 76.07643
#
# Poissons Ratio (x) = 0.22597 0.52532
# Poissons Ratio (y) = 0.24146 0.22047
# Poissons Ratio (z) = 0.51546 0.20246
#
# Static dielectric constant tensor:
#      x y z
#    x 3.777940 0.000000 0.000000 
#    y 0.000000 3.588180 0.000000 
#    z 0.000000 0.000000 3.696640 
# 
# 
# High freq. dielectric constant tensor:
#      x y z
#    x 1.785590 0.000000 0.000000 
#    y 0.000000 1.793330 0.000000 
#    z 0.000000 0.000000 1.784590 
# 
# From -- ./inp_files/15236.got.cif
#   From: 2010.03.12/outbox.cif.g09.slc.cpg/sg35_8_cif.got.tgz:15236.got - 2010.04.14 02:02:04.
