data_PCOD8173088
_publ_section_title
;
Structure prediction by ZEFSAII (Michael W. Deem and Ramdas Pophale) SiO2 
 PCOD8173088
Probable space group: C M M 2
;
_chemical_formula_sum "Si O2"
_cell_formula_units_Z 40
_cell_length_a 8.920306
_cell_length_b 26.217979
_cell_length_c 9.353342
_cell_angle_alpha 90.000000
_cell_angle_beta 90.000000
_cell_angle_gamma 90.000000
_cell_volume 2187.488498
_symmetry_space_group_name_H-M "C M M 2"
_symmetry_group_IT_number 35
_symmetry_cell_setting 'orthorhombic'
loop_
_space_group_symop_operation_xyz
x,y,z
-x,-y,z
-x,y,z
x,-y,z
1/2+x,1/2+y,z
1/2-x,1/2-y,z
1/2-x,1/2+y,z
1/2+x,1/2-y,z
loop_
_atom_site_type_symbol
_atom_site_label
_atom_site_fract_x
_atom_site_fract_y
_atom_site_fract_z
Si Si1 0.174212 0.797897 0.132480
Si Si2 0.322434 0.000000 0.633716
Si Si3 0.821918 0.500000 0.312204
Si Si4 0.327002 0.202659 0.825761
Si Si5 0.674512 0.588891 0.137303
Si Si6 0.825131 0.409269 0.831422
O O1 0.250000 0.750000 0.219427
O O2 0.200000 0.853846 0.201509
O O3 0.000000 0.786327 0.114496
O O4 0.253014 0.799713 0.980200
O O5 0.265100 0.949963 0.716970
O O6 0.500000 0.000000 0.626918
O O7 0.257824 0.000000 0.473616
O O8 0.764529 0.550755 0.236754
O O9 0.000000 0.500000 0.307698
O O10 0.500000 0.215784 0.840245
O O11 0.250000 0.250000 0.738620
O O12 0.301427 0.146580 0.757942
O O13 0.500000 0.574447 0.138062
O O14 0.731623 0.584033 0.975582
O O15 0.000000 0.417770 0.869410
#
# Coordination Sequence:
#
# PCOD8173088 Si02
#       6
#     8   4   4   8   8   8
#     4   9  16  26  43  68  98 127 154 190 235 281
#     4   9  19  35  52  70  92 121 162 207 244 282
#     4  11  22  35  52  70  92 129 170 205 244 290
#     4   9  15  23  40  67  97 125 152 187 232 280
#     4  10  20  33  50  75 104 129 158 200 245 288
#     4   9  17  31  52  75  97 124 161 201 239 284
#
# _framework density 18.285810000000001
#
# number of rings (size 3 to 8) (size 9 to 14) (size 15 to 20)
#    0.000    2.600    0.000    3.900    0.000    4.000 
#    0.000    2.000    0.000    1.200    0.000    5.600 
#    0.000    0.000    0.000    0.000    0.000    0.000 
#
# Total GULP energy -247780.538520 kJ/mol
# GULP energy per Si atom -12389.026926 kJ/mol
# Density = 1.824419 g / cm^3
# Si number density = 18.285810 Si / 1000 Ang^3
#
#
#
# Elastic Constant Matrix: (Units=GPa)
#
#
# Indices 1 2 3 4 5 6 
#
# 1 102.0950 67.3868 29.7314 0.0000 0.0000 0.0000
# 2 67.3868 191.1047 58.7631 0.0000 0.0000 0.0000
# 3 29.7314 58.7631 69.0523 0.0000 0.0000 0.0000
# 4 0.0000 0.0000 0.0000 -0.3026 0.0000 0.0000
# 5 0.0000 0.0000 0.0000 0.0000 6.9707 0.0000
# 6 0.0000 0.0000 0.0000 0.0000 0.0000 33.1676
#
#
#
# Elastic Compliance Matrix: (Units=1/GPa)
#
#
# Indices 1 2 3 4 5 6 
#
# 1 0.013031 -0.003887 -0.002303 0.000000 0.000000 0.000000
# 2 -0.003887 0.008247 -0.005344 0.000000 0.000000 0.000000
# 3 -0.002303 -0.005344 0.020021 0.000000 0.000000 0.000000
# 4 0.000000 0.000000 0.000000 -3.304616 0.000000 0.000000
# 5 0.000000 0.000000 0.000000 0.000000 0.143457 0.000000
# 6 0.000000 0.000000 0.000000 0.000000 0.000000 0.030150
#
#
# Mechanical properties :
#
#
# Convention : Reuss Voigt Hill
#
# Bulk Modulus (GPa) = 54.85264 74.89051 64.87158
# Shear Modulus (GPa) = -1.63368 21.72520 10.04576
#
# Velocity S-wave (km/s) = -0.94623 3.45061 2.34642
# Velocity P-wave (km/s) = 5.37296 7.54454 6.54938
#
# Compressibility (1/GPa) = 0.01823066
#
# Stress axis : x y z
#
# Youngs Moduli (GPa) = 76.74080 121.26211 49.94669
#
# Poissons Ratio (x) = 0.47132 0.11503
# Poissons Ratio (y) = 0.29827 0.26693
# Poissons Ratio (z) = 0.17674 0.64806
#
# Static dielectric constant tensor:
#      x y z
#    x 3.413060 0.000000 0.000000 
#    y 0.000000 4.801130 0.000000 
#    z 0.000000 0.000000 2.890280 
# 
# 
# High freq. dielectric constant tensor:
#      x y z
#    x 1.713030 0.000000 0.000000 
#    y 0.000000 1.745920 0.000000 
#    z 0.000000 0.000000 1.637750 
# 
# From -- ./inp_files/5042.got.cif
#   From: 2010.03.12/outbox.cif.g09.slc.cpg/sg35_3_cif.got.tgz:5042.got - 2010.04.14 02:02:04.
