data_PCOD8173315
_publ_section_title
;
Structure prediction by ZEFSAII (Michael W. Deem and Ramdas Pophale) SiO2 
 PCOD8173315
Probable space group: C M M 2
;
_chemical_formula_sum "Si O2"
_cell_formula_units_Z 64
_cell_length_a 9.038304
_cell_length_b 29.342297
_cell_length_c 12.250504
_cell_angle_alpha 90.000000
_cell_angle_beta 90.000000
_cell_angle_gamma 90.000000
_cell_volume 3248.890017
_symmetry_space_group_name_H-M "C M M 2"
_symmetry_group_IT_number 35
_symmetry_cell_setting 'orthorhombic'
loop_
_space_group_symop_operation_xyz
x,y,z
-x,-y,z
-x,y,z
x,-y,z
1/2+x,1/2+y,z
1/2-x,1/2-y,z
1/2-x,1/2+y,z
1/2+x,1/2-y,z
loop_
_atom_site_type_symbol
_atom_site_label
_atom_site_fract_x
_atom_site_fract_y
_atom_site_fract_z
Si Si1 0.323834 0.799819 0.660390
Si Si2 0.169588 0.949491 0.952495
Si Si3 0.169674 0.146832 0.471915
Si Si4 0.171024 0.049497 0.392192
Si Si5 0.832775 0.840788 0.226950
Si Si6 0.329089 0.639683 0.840139
Si Si7 0.326451 0.070951 0.174969
Si Si8 0.663811 0.708258 0.020852
O O1 0.500000 0.793613 0.662551
O O2 0.250000 0.750000 0.673445
O O3 0.276099 0.824026 0.548348
O O4 0.274208 0.834640 0.754454
O O5 0.265761 0.948255 0.061664
O O6 0.000000 0.938604 0.984757
O O7 0.185547 0.000000 0.900925
O O8 0.218867 0.913091 0.858933
O O9 0.222061 0.093289 0.464754
O O10 0.186410 0.170806 0.353936
O O11 0.000000 0.149626 0.513935
O O12 0.256792 0.045283 0.278443
O O13 0.000000 0.058242 0.363502
O O14 0.192437 0.000000 0.452465
O O15 0.711048 0.876204 0.186980
O O16 0.805895 0.796887 0.150586
O O17 0.000000 0.859565 0.206002
O O18 0.500000 0.643698 0.801541
O O19 0.300649 0.661552 0.958798
O O20 0.500000 0.062786 0.176643
O O21 0.500000 0.723593 0.996638
O O22 0.750000 0.750000 0.968875
#
# Coordination Sequence:
#
# PCOD8173315 Si02
#       8
#     8   8   8   8   8   8   8   8
#     4  12  26  44  66  88 113 148 195 245 297 353
#     4  10  20  36  59  84 114 156 200 239 284 342
#     4   9  19  37  62  88 116 149 194 247 292 341
#     4   9  18  34  57  84 117 160 203 239 281 339
#     4   9  18  36  57  80 115 157 194 235 286 343
#     4  10  21  40  63  86 115 149 194 246 292 343
#     4  11  20  29  48  81 121 161 198 240 284 334
#     4  10  20  34  55  83 115 148 183 232 289 349
#
# _framework density 19.699037000000001
#
# number of rings (size 3 to 8) (size 9 to 14) (size 15 to 20)
#    0.000    2.000    1.250    3.750    0.000    7.000 
#    0.000    1.875    0.000    3.750    0.000    0.000 
#    0.000    0.000    0.000    0.000    0.000    0.000 
#
# Total GULP energy -396535.381785 kJ/mol
# GULP energy per Si atom -12391.730681 kJ/mol
# Density = 1.965420 g / cm^3
# Si number density = 19.699037 Si / 1000 Ang^3
#
#
#
# Elastic Constant Matrix: (Units=GPa)
#
#
# Indices 1 2 3 4 5 6 
#
# 1 97.7889 53.4637 42.8133 0.0000 0.0000 0.0000
# 2 53.4637 133.8453 49.8421 0.0000 0.0000 0.0000
# 3 42.8133 49.8421 85.9951 0.0000 0.0000 0.0000
# 4 0.0000 0.0000 0.0000 42.4574 0.0000 0.0000
# 5 0.0000 0.0000 0.0000 0.0000 28.2711 0.0000
# 6 0.0000 0.0000 0.0000 0.0000 0.0000 21.0141
#
#
#
# Elastic Compliance Matrix: (Units=1/GPa)
#
#
# Indices 1 2 3 4 5 6 
#
# 1 0.014566 -0.003976 -0.004947 0.000000 0.000000 0.000000
# 2 -0.003976 0.010613 -0.004172 0.000000 0.000000 0.000000
# 3 -0.004947 -0.004172 0.016510 0.000000 0.000000 0.000000
# 4 0.000000 0.000000 0.000000 0.023553 0.000000 0.000000
# 5 0.000000 0.000000 0.000000 0.000000 0.035372 0.000000
# 6 0.000000 0.000000 0.000000 0.000000 0.000000 0.047587
#
#
# Mechanical properties :
#
#
# Convention : Reuss Voigt Hill
#
# Bulk Modulus (GPa) = 64.52282 67.76306 66.14294
# Shear Modulus (GPa) = 27.84642 29.78254 28.81448
#
# Velocity S-wave (km/s) = 3.76386 3.89251 3.82872
# Velocity P-wave (km/s) = 7.19126 7.39432 7.29350
#
# Compressibility (1/GPa) = 0.01549839
#
# Stress axis : x y z
#
# Youngs Moduli (GPa) = 68.65381 94.22428 60.57110
#
# Poissons Ratio (x) = 0.37463 0.29966
# Poissons Ratio (y) = 0.27296 0.25269
# Poissons Ratio (z) = 0.33965 0.39308
#
# Static dielectric constant tensor:
#      x y z
#    x 3.456900 0.000000 0.000000 
#    y 0.000000 3.649930 0.000000 
#    z 0.000000 0.000000 3.447150 
# 
# 
# High freq. dielectric constant tensor:
#      x y z
#    x 1.753320 0.000000 0.000000 
#    y 0.000000 1.776830 0.000000 
#    z 0.000000 0.000000 1.747720 
# 
# From -- ./inp_files/11873.got.cif
#   From: 2010.03.12/outbox.cif.g09.slc.cpg/sg35_6_cif.got.tgz:11873.got - 2010.04.14 02:02:04.
