data_PCOD8173678
_publ_section_title
;
Structure prediction by ZEFSAII (Michael W. Deem and Ramdas Pophale) SiO2 
 PCOD8173678
Probable space group: C M M 2
;
_chemical_formula_sum "Si O2"
_cell_formula_units_Z 64
_cell_length_a 17.425220
_cell_length_b 14.378266
_cell_length_c 11.272789
_cell_angle_alpha 90.000000
_cell_angle_beta 90.000000
_cell_angle_gamma 90.000000
_cell_volume 2824.334700
_symmetry_space_group_name_H-M "C M M 2"
_symmetry_group_IT_number 35
_symmetry_cell_setting 'orthorhombic'
loop_
_space_group_symop_operation_xyz
x,y,z
-x,-y,z
-x,y,z
x,-y,z
1/2+x,1/2+y,z
1/2-x,1/2-y,z
1/2-x,1/2+y,z
1/2+x,1/2-y,z
loop_
_atom_site_type_symbol
_atom_site_label
_atom_site_fract_x
_atom_site_fract_y
_atom_site_fract_z
Si Si1 0.134370 0.101835 0.080700
Si Si2 0.865630 0.601835 0.540417
Si Si3 0.782618 0.393607 0.932846
Si Si4 0.913679 0.799123 0.559226
Si Si5 0.333643 0.604410 0.344489
Si Si6 0.166357 0.395590 0.276627
Si Si7 0.586321 0.799123 0.061891
Si Si8 0.217382 0.106393 0.688270
O O1 0.121526 0.097706 0.221259
O O2 0.083229 0.188030 0.037723
O O3 0.109136 0.000000 0.027896
O O4 0.222994 0.120803 0.041710
O O5 0.890864 0.500000 0.593221
O O6 0.916771 0.688030 0.583393
O O7 0.878474 0.597706 0.399857
O O8 0.777006 0.620803 0.579407
O O9 0.803431 0.500000 0.912237
O O10 0.750000 0.350901 0.810558
O O11 0.862319 0.342955 0.959192
O O12 0.877065 0.824756 0.431502
O O13 0.862319 0.842955 0.661925
O O14 0.000000 0.838503 0.566387
O O15 0.328294 0.500000 0.402448
O O16 0.250000 0.643351 0.310558
O O17 0.171706 0.500000 0.218669
O O18 0.122935 0.324756 0.189614
O O19 0.500000 0.838503 0.054729
O O20 0.196569 0.000000 0.708880
#
# Coordination Sequence:
#
# PCOD8173678 Si02
#       8
#     8   8   8   8   8   8   8   8
#     4  10  22  40  63  90 128 179 224 258 308 386
#     4  10  22  40  63  90 128 179 224 258 308 386
#     4  10  22  43  69  95 123 166 221 269 317 383
#     4  12  25  39  64 101 134 165 210 272 332 379
#     4  10  20  37  63  95 131 171 215 260 316 388
#     4  10  20  37  63  95 131 171 215 260 316 388
#     4  12  25  39  64 101 134 165 210 272 332 379
#     4  10  22  43  69  95 123 166 221 269 317 383
#
# _framework density 22.660204
#
# number of rings (size 3 to 8) (size 9 to 14) (size 15 to 20)
#    0.000    1.500    2.500    2.250    0.000    7.500 
#    0.000    5.000    0.000    4.500    0.000    0.000 
#    0.000    0.000    0.000    0.000    0.000    0.000 
#
# Total GULP energy -396662.047163 kJ/mol
# GULP energy per Si atom -12395.688974 kJ/mol
# Density = 2.260863 g / cm^3
# Si number density = 22.660204 Si / 1000 Ang^3
#
#
#
# Elastic Constant Matrix: (Units=GPa)
#
#
# Indices 1 2 3 4 5 6 
#
# 1 140.4853 52.7480 58.3554 0.0000 0.0000 0.0000
# 2 52.7480 124.6002 40.1772 0.0000 0.0000 0.0000
# 3 58.3554 40.1772 112.9785 0.0000 0.0000 0.0000
# 4 0.0000 0.0000 0.0000 2.0522 0.0000 0.0000
# 5 0.0000 0.0000 0.0000 0.0000 24.1216 0.0000
# 6 0.0000 0.0000 0.0000 0.0000 0.0000 13.5566
#
#
#
# Elastic Compliance Matrix: (Units=1/GPa)
#
#
# Indices 1 2 3 4 5 6 
#
# 1 0.009895 -0.002870 -0.004090 0.000000 0.000000 0.000000
# 2 -0.002870 0.009898 -0.002037 0.000000 0.000000 0.000000
# 3 -0.004090 -0.002037 0.011688 0.000000 0.000000 0.000000
# 4 0.000000 0.000000 0.000000 0.487286 0.000000 0.000000
# 5 0.000000 0.000000 0.000000 0.000000 0.041457 0.000000
# 6 0.000000 0.000000 0.000000 0.000000 0.000000 0.073765
#
#
# Mechanical properties :
#
#
# Convention : Reuss Voigt Hill
#
# Bulk Modulus (GPa) = 74.15262 75.62502 74.88882
# Shear Modulus (GPa) = 7.61640 23.06498 15.34069
#
# Velocity S-wave (km/s) = 1.83533 3.19386 2.60472
# Velocity P-wave (km/s) = 6.10623 6.85908 6.49357
#
# Compressibility (1/GPa) = 0.01348570
#
# Stress axis : x y z
#
# Youngs Moduli (GPa) = 101.06340 101.03482 85.55456
#
# Poissons Ratio (x) = 0.28996 0.34994
# Poissons Ratio (y) = 0.29005 0.17431
# Poissons Ratio (z) = 0.41337 0.20585
#
# Static dielectric constant tensor:
#      x y z
#    x 3.623350 0.000000 0.000000 
#    y 0.000000 4.337470 0.000000 
#    z 0.000000 0.000000 4.018820 
# 
# 
# High freq. dielectric constant tensor:
#      x y z
#    x 1.854660 0.000000 0.000000 
#    y 0.000000 1.909820 0.000000 
#    z 0.000000 0.000000 1.881120 
# 
# From -- ./inp_files/13613.got.cif
#   From: 2010.03.12/outbox.cif.g09.slc.cpg/sg35_7_cif.got.tgz:13613.got - 2010.04.14 02:02:04.
