data_PCOD8173790
_publ_section_title
;
Structure prediction by ZEFSAII (Michael W. Deem and Ramdas Pophale) SiO2 
 PCOD8173790
Probable space group: C M M 2
;
_chemical_formula_sum "Si O2"
_cell_formula_units_Z 48
_cell_length_a 8.670786
_cell_length_b 15.762680
_cell_length_c 17.131667
_cell_angle_alpha 90.000000
_cell_angle_beta 90.000000
_cell_angle_gamma 90.000000
_cell_volume 2341.467590
_symmetry_space_group_name_H-M "C M M 2"
_symmetry_group_IT_number 35
_symmetry_cell_setting 'orthorhombic'
loop_
_space_group_symop_operation_xyz
x,y,z
-x,-y,z
-x,y,z
x,-y,z
1/2+x,1/2+y,z
1/2-x,1/2-y,z
1/2-x,1/2+y,z
1/2+x,1/2-y,z
loop_
_atom_site_type_symbol
_atom_site_label
_atom_site_fract_x
_atom_site_fract_y
_atom_site_fract_z
Si Si1 0.683310 0.500000 0.998410
Si Si2 0.683218 0.161334 0.086778
Si Si3 0.684475 0.342044 0.733143
Si Si4 0.183407 0.405594 0.249243
Si Si5 0.178700 0.163174 0.557961
Si Si6 0.816236 0.500000 0.826798
Si Si7 0.667354 0.903295 0.415189
O O1 0.500000 0.500000 0.002804
O O2 0.738049 0.500000 0.910040
O O3 0.748237 0.415682 0.037868
O O4 0.500000 0.160068 0.077351
O O5 0.750000 0.250000 0.054372
O O6 0.737873 0.152312 0.177026
O O7 0.500000 0.343316 0.743051
O O8 0.750000 0.250000 0.758681
O O9 0.738857 0.361893 0.643983
O O10 0.761042 0.415131 0.783712
O O11 0.252386 0.500000 0.235442
O O12 0.237571 0.365396 0.333598
O O13 0.000000 0.410093 0.250392
O O14 0.250000 0.250000 0.527621
O O15 0.221525 0.097597 0.490162
O O16 0.000000 0.174048 0.564843
O O17 0.000000 0.500000 0.833225
O O18 0.500000 0.861935 0.436097
O O19 0.640289 0.000000 0.392670
#
# Coordination Sequence:
#
# PCOD8173790 Si02
#       7
#     4   8   8   8   8   4   8
#     4  12  26  46  68  95 128 159 200 253 306 367
#     4  11  22  40  66  95 127 165 207 253 308 369
#     4  10  22  42  65  93 128 165 206 257 308 364
#     4   8  15  32  57  82 116 161 204 253 307 356
#     4  10  21  36  55  79 115 157 200 249 302 351
#     4  12  26  44  70  99 124 161 202 243 308 377
#     4   9  18  32  53  82 116 157 203 248 298 352
#
# _framework density 20.499962
#
# number of rings (size 3 to 8) (size 9 to 14) (size 15 to 20)
#    0.000    2.000    0.833    4.000    1.167    3.667 
#    0.000    6.667    0.000    0.000    0.000    0.000 
#    0.000    0.000    0.000    0.000    0.000    0.000 
#
# Total GULP energy -297410.710914 kJ/mol
# GULP energy per Si atom -12392.112955 kJ/mol
# Density = 2.045330 g / cm^3
# Si number density = 20.499962 Si / 1000 Ang^3
#
#
#
# Elastic Constant Matrix: (Units=GPa)
#
#
# Indices 1 2 3 4 5 6 
#
# 1 74.2518 34.1899 26.0946 0.0000 0.0000 0.0000
# 2 34.1899 122.5712 57.9640 0.0000 0.0000 0.0000
# 3 26.0946 57.9640 124.8664 0.0000 0.0000 0.0000
# 4 0.0000 0.0000 0.0000 2.6778 0.0000 0.0000
# 5 0.0000 0.0000 0.0000 0.0000 26.2336 0.0000
# 6 0.0000 0.0000 0.0000 0.0000 0.0000 33.1694
#
#
#
# Elastic Compliance Matrix: (Units=1/GPa)
#
#
# Indices 1 2 3 4 5 6 
#
# 1 0.015698 -0.003623 -0.001599 0.000000 0.000000 0.000000
# 2 -0.003623 0.011289 -0.004484 0.000000 0.000000 0.000000
# 3 -0.001599 -0.004484 0.010424 0.000000 0.000000 0.000000
# 4 0.000000 0.000000 0.000000 0.373445 0.000000 0.000000
# 5 0.000000 0.000000 0.000000 0.000000 0.038119 0.000000
# 6 0.000000 0.000000 0.000000 0.000000 0.000000 0.030148
#
#
# Mechanical properties :
#
#
# Convention : Reuss Voigt Hill
#
# Bulk Modulus (GPa) = 55.55264 62.02071 58.78667
# Shear Modulus (GPa) = 9.91015 25.97888 17.94452
#
# Velocity S-wave (km/s) = 2.20107 3.56373 2.96183
# Velocity P-wave (km/s) = 5.79805 6.87410 6.35888
#
# Compressibility (1/GPa) = 0.01800095
#
# Stress axis : x y z
#
# Youngs Moduli (GPa) = 63.70388 88.57973 95.93272
#
# Poissons Ratio (x) = 0.32089 0.15338
# Poissons Ratio (y) = 0.23077 0.43012
# Poissons Ratio (z) = 0.10185 0.39715
#
# Static dielectric constant tensor:
#      x y z
#    x 3.639470 0.000000 0.000000 
#    y 0.000000 3.595440 0.000000 
#    z 0.000000 0.000000 4.080690 
# 
# 
# High freq. dielectric constant tensor:
#      x y z
#    x 1.789800 0.000000 0.000000 
#    y 0.000000 1.794380 0.000000 
#    z 0.000000 0.000000 1.815450 
# 
# From -- ./inp_files/17919.got.cif
#   From: 2010.03.12/outbox.cif.g09.slc.cpg/sg35_9_cif.got.tgz:17919.got - 2010.04.14 02:02:04.
