data_PCOD8173493
_publ_section_title
;
Structure prediction by ZEFSAII (Michael W. Deem and Ramdas Pophale) SiO2 
 PCOD8173493
Probable space group: C M M 2
;
_chemical_formula_sum "Si O2"
_cell_formula_units_Z 48
_cell_length_a 8.439024
_cell_length_b 28.084118
_cell_length_c 10.060404
_cell_angle_alpha 90.000000
_cell_angle_beta 90.000000
_cell_angle_gamma 90.000000
_cell_volume 2384.341360
_symmetry_space_group_name_H-M "C M M 2"
_symmetry_group_IT_number 35
_symmetry_cell_setting 'orthorhombic'
loop_
_space_group_symop_operation_xyz
x,y,z
-x,-y,z
-x,y,z
x,-y,z
1/2+x,1/2+y,z
1/2-x,1/2-y,z
1/2-x,1/2+y,z
1/2+x,1/2-y,z
loop_
_atom_site_type_symbol
_atom_site_label
_atom_site_fract_x
_atom_site_fract_y
_atom_site_fract_z
Si Si1 0.818058 0.554940 0.668630
Si Si2 0.315128 0.299459 0.541868
Si Si3 0.814225 0.301267 0.831133
Si Si4 0.317670 0.604223 0.918808
Si Si5 0.180447 0.896970 0.418455
Si Si6 0.682397 0.945087 0.169045
O O1 0.773017 0.500000 0.678840
O O2 0.791060 0.577791 0.812035
O O3 0.705278 0.578783 0.560662
O O4 0.000000 0.562518 0.626837
O O5 0.500000 0.294693 0.577489
O O6 0.250000 0.250000 0.481231
O O7 0.222927 0.311982 0.677049
O O8 0.284063 0.340599 0.433728
O O9 0.750000 0.250000 0.875017
O O10 0.729329 0.340264 0.923755
O O11 0.000000 0.303781 0.855353
O O12 0.500000 0.598533 0.878489
O O13 0.290874 0.581237 0.062299
O O14 0.296264 0.919790 0.310837
O O15 0.000000 0.905401 0.373529
O O16 0.500000 0.941011 0.126289
O O17 0.734980 0.000000 0.181070
#
# Coordination Sequence:
#
# PCOD8173493 Si02
#       6
#     8   8   8   8   8   8
#     4  11  23  38  59  88 120 156 202 254 307 363
#     4  10  20  35  58  90 124 159 200 248 301 361
#     4  11  21  36  61  91 125 161 200 249 305 363
#     4  12  24  40  62  90 122 159 205 253 307 367
#     4  11  23  39  61  90 123 159 204 252 305 366
#     4  11  25  44  64  87 120 163 208 254 311 374
#
# _framework density 20.131346000000001
#
# number of rings (size 3 to 8) (size 9 to 14) (size 15 to 20)
#    0.000    1.000    1.667    7.000    0.000    8.667 
#    0.000    0.833    0.000    2.000    0.000    0.000 
#    0.000    0.000    0.000    0.000    0.000    0.000 
#
# Total GULP energy -297771.262407 kJ/mol
# GULP energy per Si atom -12407.135934 kJ/mol
# Density = 2.008553 g / cm^3
# Si number density = 20.131346 Si / 1000 Ang^3
#
#
#
# Elastic Constant Matrix: (Units=GPa)
#
#
# Indices 1 2 3 4 5 6 
#
# 1 79.6601 43.7264 11.6380 0.0000 0.0000 0.0000
# 2 43.7264 153.9431 48.3629 0.0000 0.0000 0.0000
# 3 11.6380 48.3629 80.2725 0.0000 0.0000 0.0000
# 4 0.0000 0.0000 0.0000 34.0172 0.0000 0.0000
# 5 0.0000 0.0000 0.0000 0.0000 31.3590 0.0000
# 6 0.0000 0.0000 0.0000 0.0000 0.0000 28.7797
#
#
#
# Elastic Compliance Matrix: (Units=1/GPa)
#
#
# Indices 1 2 3 4 5 6 
#
# 1 0.014887 -0.004379 0.000480 0.000000 0.000000 0.000000
# 2 -0.004379 0.009301 -0.004969 0.000000 0.000000 0.000000
# 3 0.000480 -0.004969 0.015381 0.000000 0.000000 0.000000
# 4 0.000000 0.000000 0.000000 0.029397 0.000000 0.000000
# 5 0.000000 0.000000 0.000000 0.000000 0.031889 0.000000
# 6 0.000000 0.000000 0.000000 0.000000 0.000000 0.034747
#
#
# Mechanical properties :
#
#
# Convention : Reuss Voigt Hill
#
# Bulk Modulus (GPa) = 45.80096 57.92558 51.86327
# Shear Modulus (GPa) = 31.13025 32.84106 31.98566
#
# Velocity S-wave (km/s) = 3.93664 4.04337 3.99036
# Velocity P-wave (km/s) = 6.59267 7.11581 6.85923
#
# Compressibility (1/GPa) = 0.02183360
#
# Stress axis : x y z
#
# Youngs Moduli (GPa) = 67.17223 107.51757 65.01330
#
# Poissons Ratio (x) = 0.47087 -0.03122
# Poissons Ratio (y) = 0.29418 0.32303
# Poissons Ratio (z) = -0.03226 0.53422
#
# Static dielectric constant tensor:
#      x y z
#    x 3.707740 0.000000 0.000000 
#    y 0.000000 4.009860 0.000000 
#    z 0.000000 0.000000 3.335190 
# 
# 
# High freq. dielectric constant tensor:
#      x y z
#    x 1.799610 0.000000 0.000000 
#    y 0.000000 1.806010 0.000000 
#    z 0.000000 0.000000 1.759000 
# 
# From -- ./inp_files/5324.got.cif
#   From: 2010.03.12/outbox.cif.g09.slc.cpg/sg35_3_cif.got.tgz:5324.got - 2010.04.14 02:02:04.
