data_PCOD8173592
_publ_section_title
;
Structure prediction by ZEFSAII (Michael W. Deem and Ramdas Pophale) SiO2 
 PCOD8173592
Probable space group: C M M 2
;
_chemical_formula_sum "Si O2"
_cell_formula_units_Z 48
_cell_length_a 19.661752
_cell_length_b 13.548480
_cell_length_c 8.984543
_cell_angle_alpha 90.000000
_cell_angle_beta 90.000000
_cell_angle_gamma 90.000000
_cell_volume 2393.364142
_symmetry_space_group_name_H-M "C M M 2"
_symmetry_group_IT_number 35
_symmetry_cell_setting 'orthorhombic'
loop_
_space_group_symop_operation_xyz
x,y,z
-x,-y,z
-x,y,z
x,-y,z
1/2+x,1/2+y,z
1/2-x,1/2-y,z
1/2-x,1/2+y,z
1/2+x,1/2-y,z
loop_
_atom_site_type_symbol
_atom_site_label
_atom_site_fract_x
_atom_site_fract_y
_atom_site_fract_z
Si Si1 0.185224 0.114359 0.898500
Si Si2 0.710663 0.112535 0.354458
Si Si3 0.078253 0.107372 0.422357
Si Si4 0.663595 0.297432 0.211264
Si Si5 0.315879 0.887248 0.701194
Si Si6 0.919130 0.219007 0.714583
O O1 0.247894 0.144268 0.791187
O O2 0.112582 0.135224 0.821403
O O3 0.188634 0.000000 0.944095
O O4 0.188231 0.181960 0.045240
O O5 0.663526 0.180277 0.246322
O O6 0.787618 0.146792 0.329350
O O7 0.695910 0.127803 0.527189
O O8 0.698240 0.000000 0.304750
O O9 0.091789 0.154735 0.258332
O O10 0.099608 0.185784 0.547957
O O11 0.000000 0.087034 0.436141
O O12 0.114721 0.000000 0.443251
O O13 0.380417 0.821545 0.750573
O O14 0.334635 0.000000 0.738240
O O15 0.000000 0.230527 0.743136
#
# Coordination Sequence:
#
# PCOD8173592 Si02
#       6
#     8   8   8   8   8   8
#     4  11  24  39  61  93 127 162 201 253 316 371
#     4  10  21  37  60  89 118 155 197 247 302 356
#     4  10  20  36  59  85 118 158 200 248 302 364
#     4  11  22  37  59  91 123 154 196 249 309 368
#     4  10  22  41  64  90 122 161 207 254 303 364
#     4  11  23  39  60  89 122 162 211 253 305 365
#
# _framework density 20.055451999999999
#
# number of rings (size 3 to 8) (size 9 to 14) (size 15 to 20)
#    0.000    1.500    1.667    3.500    7.000    3.333 
#    0.000    0.000    0.000    0.500    0.000    0.000 
#    0.000    0.000    0.000    0.000    0.000    0.000 
#
# Total GULP energy -297469.634619 kJ/mol
# GULP energy per Si atom -12394.568109 kJ/mol
# Density = 2.000980 g / cm^3
# Si number density = 20.055452 Si / 1000 Ang^3
#
#
#
# Elastic Constant Matrix: (Units=GPa)
#
#
# Indices 1 2 3 4 5 6 
#
# 1 81.9406 43.6286 35.1629 0.0000 0.0000 0.0000
# 2 43.6286 140.9850 57.5698 0.0000 0.0000 0.0000
# 3 35.1629 57.5698 86.8317 0.0000 0.0000 0.0000
# 4 0.0000 0.0000 0.0000 29.4602 0.0000 0.0000
# 5 0.0000 0.0000 0.0000 0.0000 17.6052 0.0000
# 6 0.0000 0.0000 0.0000 0.0000 0.0000 29.6011
#
#
#
# Elastic Compliance Matrix: (Units=1/GPa)
#
#
# Indices 1 2 3 4 5 6 
#
# 1 0.015702 -0.003103 -0.004302 0.000000 0.000000 0.000000
# 2 -0.003103 0.010339 -0.005599 0.000000 0.000000 0.000000
# 3 -0.004302 -0.005599 0.016970 0.000000 0.000000 0.000000
# 4 0.000000 0.000000 0.000000 0.033944 0.000000 0.000000
# 5 0.000000 0.000000 0.000000 0.000000 0.056801 0.000000
# 6 0.000000 0.000000 0.000000 0.000000 0.000000 0.033782
#
#
# Mechanical properties :
#
#
# Convention : Reuss Voigt Hill
#
# Bulk Modulus (GPa) = 58.80247 64.72000 61.76123
# Shear Modulus (GPa) = 25.09877 26.89305 25.99591
#
# Velocity S-wave (km/s) = 3.54145 3.66585 3.60419
# Velocity P-wave (km/s) = 6.79014 7.08932 6.94135
#
# Compressibility (1/GPa) = 0.01700609
#
# Stress axis : x y z
#
# Youngs Moduli (GPa) = 63.68713 96.71981 58.92648
#
# Poissons Ratio (x) = 0.30007 0.25347
# Poissons Ratio (y) = 0.19759 0.32990
# Poissons Ratio (z) = 0.27395 0.54149
#
# Static dielectric constant tensor:
#      x y z
#    x 3.469570 0.000000 0.000000 
#    y 0.000000 4.228750 0.000000 
#    z 0.000000 0.000000 3.563090 
# 
# 
# High freq. dielectric constant tensor:
#      x y z
#    x 1.760940 0.000000 0.000000 
#    y 0.000000 1.800320 0.000000 
#    z 0.000000 0.000000 1.778490 
# 
# From -- ./inp_files/9196.got.cif
#   From: 2010.03.12/outbox.cif.g09.slc.cpg/sg35_5_cif.got.tgz:9196.got - 2010.04.14 02:02:04.
