data_PCOD8173882
_publ_section_title
;
Structure prediction by ZEFSAII (Michael W. Deem and Ramdas Pophale) SiO2 
 PCOD8173882
Probable space group: C M M 2
;
_chemical_formula_sum "Si O2"
_cell_formula_units_Z 64
_cell_length_a 31.133158
_cell_length_b 8.631635
_cell_length_c 11.962776
_cell_angle_alpha 90.000000
_cell_angle_beta 90.000000
_cell_angle_gamma 90.000000
_cell_volume 3214.757467
_symmetry_space_group_name_H-M "C M M 2"
_symmetry_group_IT_number 35
_symmetry_cell_setting 'orthorhombic'
loop_
_space_group_symop_operation_xyz
x,y,z
-x,-y,z
-x,y,z
x,-y,z
1/2+x,1/2+y,z
1/2-x,1/2-y,z
1/2-x,1/2+y,z
1/2+x,1/2-y,z
loop_
_atom_site_type_symbol
_atom_site_label
_atom_site_fract_x
_atom_site_fract_y
_atom_site_fract_z
Si Si1 0.206121 0.182598 0.898660
Si Si2 0.581324 0.815763 0.130624
Si Si3 0.952709 0.315796 0.364555
Si Si4 0.628692 0.818104 0.500820
Si Si5 0.871308 0.681896 0.760428
Si Si6 0.452709 0.815796 0.896694
Si Si7 0.706121 0.317402 0.362588
Si Si8 0.678845 0.183876 0.130624
O O1 0.250000 0.250000 0.845315
O O2 0.166798 0.228761 0.820262
O O3 0.209022 0.000000 0.906100
O O4 0.202106 0.252163 0.021871
O O5 0.557833 0.750822 0.240877
O O6 0.630020 0.755987 0.130624
O O7 0.580540 0.000000 0.130624
O O8 0.557834 0.750822 0.020372
O O9 0.952682 0.500000 0.361473
O O10 0.916834 0.258160 0.451958
O O11 0.000000 0.254759 0.400717
O O12 0.629470 0.777243 0.630624
O O13 0.666798 0.728759 0.440987
O O14 0.634569 0.000000 0.477764
O O15 0.865431 0.500000 0.783484
O O16 0.916834 0.741840 0.809291
O O17 0.500000 0.754759 0.860532
O O18 0.452682 0.000000 0.899775
O O19 0.709022 0.500000 0.355145
O O20 0.750000 0.250000 0.415933
O O21 0.702106 0.247832 0.239378
O O22 0.681508 0.000000 0.130621
#
# Coordination Sequence:
#
# PCOD8173882 Si02
#       8
#     8   8   8   8   8   8   8   8
#     4  12  25  41  62  88 118 153 195 240 296 356
#     4   9  15  26  51  83 118 152 186 232 288 342
#     4   9  16  28  51  86 122 154 192 241 294 344
#     4  10  21  38  59  85 118 157 202 250 296 343
#     4  10  21  38  59  85 118 157 202 250 296 343
#     4   9  16  28  51  86 122 154 192 241 294 344
#     4  12  25  41  62  88 118 153 195 240 296 356
#     4  11  20  37  63  90 123 156 190 235 293 349
#
# _framework density 19.908187999999999
#
# number of rings (size 3 to 8) (size 9 to 14) (size 15 to 20)
#    0.000    1.750    2.500    3.375    0.000    3.000 
#    0.000    2.500    0.000    0.750    0.000    3.500 
#    0.000    0.000    0.000    0.000    0.000    0.000 
#
# Total GULP energy -396817.457067 kJ/mol
# GULP energy per Si atom -12400.545533 kJ/mol
# Density = 1.986288 g / cm^3
# Si number density = 19.908188 Si / 1000 Ang^3
#
#
#
# Elastic Constant Matrix: (Units=GPa)
#
#
# Indices 1 2 3 4 5 6 
#
# 1 189.1483 48.9310 65.8716 0.0000 0.0000 0.0000
# 2 48.9310 73.3226 41.8575 0.0000 0.0000 0.0000
# 3 65.8716 41.8575 124.1980 0.0000 0.0000 0.0000
# 4 0.0000 0.0000 0.0000 20.2966 0.0000 0.0000
# 5 0.0000 0.0000 0.0000 0.0000 2.2537 0.0000
# 6 0.0000 0.0000 0.0000 0.0000 0.0000 22.0829
#
#
#
# Elastic Compliance Matrix: (Units=1/GPa)
#
#
# Indices 1 2 3 4 5 6 
#
# 1 0.007035 -0.003176 -0.002661 0.000000 0.000000 0.000000
# 2 -0.003176 0.018321 -0.004490 0.000000 0.000000 0.000000
# 3 -0.002661 -0.004490 0.010976 0.000000 0.000000 0.000000
# 4 0.000000 0.000000 0.000000 0.049269 0.000000 0.000000
# 5 0.000000 0.000000 0.000000 0.000000 0.443721 0.000000
# 6 0.000000 0.000000 0.000000 0.000000 0.000000 0.045284
#
#
# Mechanical properties :
#
#
# Convention : Reuss Voigt Hill
#
# Bulk Modulus (GPa) = 63.78166 77.77657 70.77911
# Shear Modulus (GPa) = 8.32658 24.26055 16.29357
#
# Velocity S-wave (km/s) = 2.04733 3.49466 2.86393
# Velocity P-wave (km/s) = 6.13972 7.44554 6.82394
#
# Compressibility (1/GPa) = 0.01567849
#
# Stress axis : x y z
#
# Youngs Moduli (GPa) = 142.14493 54.58223 91.10559
#
# Poissons Ratio (x) = 0.17334 0.24243
# Poissons Ratio (y) = 0.45141 0.40909
# Poissons Ratio (z) = 0.37824 0.24509
#
# Static dielectric constant tensor:
#      x y z
#    x 4.026780 0.000000 0.000000 
#    y 0.000000 3.201940 0.000000 
#    z 0.000000 0.000000 3.666970 
# 
# 
# High freq. dielectric constant tensor:
#      x y z
#    x 1.799850 0.000000 0.000000 
#    y 0.000000 1.732990 0.000000 
#    z 0.000000 0.000000 1.775220 
# 
# From -- ./inp_files/14564.got.cif
#   From: 2010.03.12/outbox.cif.g09.slc.cpg/sg35_8_cif.got.tgz:14564.got - 2010.04.14 02:02:04.
