data_PCOD8173841
_publ_section_title
;
Structure prediction by ZEFSAII (Michael W. Deem and Ramdas Pophale) SiO2 
 PCOD8173841
Probable space group: C M M 2
;
_chemical_formula_sum "Si O2"
_cell_formula_units_Z 64
_cell_length_a 8.687099
_cell_length_b 18.195791
_cell_length_c 20.410410
_cell_angle_alpha 90.000000
_cell_angle_beta 90.000000
_cell_angle_gamma 90.000000
_cell_volume 3226.245706
_symmetry_space_group_name_H-M "C M M 2"
_symmetry_group_IT_number 35
_symmetry_cell_setting 'orthorhombic'
loop_
_space_group_symop_operation_xyz
x,y,z
-x,-y,z
-x,y,z
x,-y,z
1/2+x,1/2+y,z
1/2-x,1/2-y,z
1/2-x,1/2+y,z
1/2+x,1/2-y,z
loop_
_atom_site_type_symbol
_atom_site_label
_atom_site_fract_x
_atom_site_fract_y
_atom_site_fract_z
Si Si1 0.322512 0.585151 0.508450
Si Si2 0.319652 0.829680 0.625964
Si Si3 0.826353 0.086924 0.887126
Si Si4 0.319743 0.915290 0.255666
Si Si5 0.319207 0.670334 0.376520
Si Si6 0.182061 0.828858 0.139512
Si Si7 0.681283 0.915428 0.752732
Si Si8 0.680825 0.172573 0.000944
O O1 0.500000 0.597941 0.526916
O O2 0.281021 0.500000 0.502289
O O3 0.218541 0.619918 0.564356
O O4 0.281602 0.621953 0.439695
O O5 0.500000 0.821064 0.630962
O O6 0.250000 0.750000 0.616238
O O7 0.256033 0.867967 0.691819
O O8 0.764644 0.115709 0.817349
O O9 0.716706 0.114231 0.944817
O O10 0.000000 0.115867 0.897493
O O11 0.818766 0.000000 0.888012
O O12 0.500000 0.903058 0.245313
O O13 0.263175 0.866458 0.315406
O O14 0.232478 0.890881 0.190286
O O15 0.279230 0.000000 0.269677
O O16 0.500000 0.675745 0.362227
O O17 0.250000 0.750000 0.389083
O O18 0.250000 0.750000 0.160503
O O19 0.000000 0.822245 0.137512
O O20 0.242805 0.853646 0.068594
O O21 0.500000 0.906745 0.762777
O O22 0.725718 0.000000 0.739223
O O23 0.500000 0.179925 0.011860
O O24 0.750000 0.250000 0.978233
#
# Coordination Sequence:
#
# PCOD8173841 Si02
#       8
#     8   8   8   8   8   8   8   8
#     4  10  22  40  62  88 118 152 191 237 288 342
#     4  11  23  38  58  85 117 153 193 238 287 341
#     4  10  21  37  58  85 116 151 192 236 285 343
#     4  11  24  41  61  87 118 152 193 239 287 340
#     4  11  23  40  62  88 119 154 193 236 285 340
#     4  11  22  39  62  86 116 152 192 237 286 342
#     4   9  19  37  58  80 109 148 193 239 289 343
#     4  11  22  38  60  85 116 152 192 238 288 342
#
# _framework density 19.837299999999999
#
# number of rings (size 3 to 8) (size 9 to 14) (size 15 to 20)
#    0.000    1.500    0.000    6.000    0.000    7.000 
#    0.000    2.500    0.000    0.000    0.000    0.000 
#    0.000    0.000    0.000    0.000    0.000    0.000 
#
# Total GULP energy -396987.290506 kJ/mol
# GULP energy per Si atom -12405.852828 kJ/mol
# Density = 1.979215 g / cm^3
# Si number density = 19.837300 Si / 1000 Ang^3
#
#
#
# Elastic Constant Matrix: (Units=GPa)
#
#
# Indices 1 2 3 4 5 6 
#
# 1 109.1428 37.7845 44.4729 0.0000 0.0000 0.0000
# 2 37.7845 100.2765 54.2373 0.0000 0.0000 0.0000
# 3 44.4729 54.2373 122.7574 0.0000 0.0000 0.0000
# 4 0.0000 0.0000 0.0000 35.8102 0.0000 0.0000
# 5 0.0000 0.0000 0.0000 0.0000 39.7910 0.0000
# 6 0.0000 0.0000 0.0000 0.0000 0.0000 27.1491
#
#
#
# Elastic Compliance Matrix: (Units=1/GPa)
#
#
# Indices 1 2 3 4 5 6 
#
# 1 0.011271 -0.002679 -0.002900 0.000000 0.000000 0.000000
# 2 -0.002679 0.013740 -0.005100 0.000000 0.000000 0.000000
# 3 -0.002900 -0.005100 0.011450 0.000000 0.000000 0.000000
# 4 0.000000 0.000000 0.000000 0.027925 0.000000 0.000000
# 5 0.000000 0.000000 0.000000 0.000000 0.025131 0.000000
# 6 0.000000 0.000000 0.000000 0.000000 0.000000 0.036834
#
#
# Mechanical properties :
#
#
# Convention : Reuss Voigt Hill
#
# Bulk Modulus (GPa) = 66.20743 67.24070 66.72406
# Shear Modulus (GPa) = 32.73438 33.59551 33.16495
#
# Velocity S-wave (km/s) = 4.06660 4.11974 4.09326
# Velocity P-wave (km/s) = 7.44965 7.52326 7.48655
#
# Compressibility (1/GPa) = 0.01510405
#
# Stress axis : x y z
#
# Youngs Moduli (GPa) = 88.72131 72.77783 87.33421
#
# Poissons Ratio (x) = 0.19494 0.25326
# Poissons Ratio (y) = 0.23764 0.44545
# Poissons Ratio (z) = 0.25729 0.37120
#
# Static dielectric constant tensor:
#      x y z
#    x 3.670000 0.000000 0.000000 
#    y 0.000000 3.945670 0.000000 
#    z 0.000000 0.000000 3.734480 
# 
# 
# High freq. dielectric constant tensor:
#      x y z
#    x 1.783940 0.000000 0.000000 
#    y 0.000000 1.775200 0.000000 
#    z 0.000000 0.000000 1.788490 
# 
# From -- ./inp_files/18320.got.cif
#   From: 2010.03.12/outbox.cif.g09.slc.cpg/sg35_10_cif.got.tgz:18320.got - 2010.04.14 02:02:04.
