data_PCOD8173322
_publ_section_title
;
Structure prediction by ZEFSAII (Michael W. Deem and Ramdas Pophale) SiO2 
 PCOD8173322
Probable space group: C M M 2
;
_chemical_formula_sum "Si O2"
_cell_formula_units_Z 64
_cell_length_a 28.892185
_cell_length_b 9.057038
_cell_length_c 12.397502
_cell_angle_alpha 90.000000
_cell_angle_beta 90.000000
_cell_angle_gamma 90.000000
_cell_volume 3244.148786
_symmetry_space_group_name_H-M "C M M 2"
_symmetry_group_IT_number 35
_symmetry_cell_setting 'orthorhombic'
loop_
_space_group_symop_operation_xyz
x,y,z
-x,-y,z
-x,y,z
x,-y,z
1/2+x,1/2+y,z
1/2-x,1/2-y,z
1/2-x,1/2+y,z
1/2+x,1/2-y,z
loop_
_atom_site_type_symbol
_atom_site_label
_atom_site_fract_x
_atom_site_fract_y
_atom_site_fract_z
Si Si1 0.551583 0.165402 0.782570
Si Si2 0.204884 0.824591 0.149851
Si Si3 0.683002 0.665460 0.917503
Si Si4 0.078317 0.835847 0.974806
Si Si5 0.946622 0.325102 0.409165
Si Si6 0.396383 0.673118 0.214287
Si Si7 0.894371 0.826824 0.603979
Si Si8 0.704739 0.325551 0.684262
O O1 0.500000 0.163675 0.733695
O O2 0.582399 0.278530 0.715437
O O3 0.572583 0.000000 0.778095
O O4 0.548098 0.220186 0.906727
O O5 0.250000 0.750000 0.205334
O O6 0.158169 0.783179 0.214905
O O7 0.210079 0.000000 0.148299
O O8 0.201710 0.758660 0.027347
O O9 0.702280 0.500000 0.916206
O O10 0.698792 0.742633 0.805787
O O11 0.628068 0.664213 0.919477
O O12 0.081318 0.787312 0.099066
O O13 0.056594 0.000000 0.967617
O O14 0.943313 0.500000 0.413635
O O15 0.924155 0.268900 0.299298
O O16 0.917248 0.260770 0.506926
O O17 0.000000 0.272631 0.416348
O O18 0.401795 0.500000 0.240373
O O19 0.839800 0.788339 0.610638
O O20 0.902526 0.000000 0.587012
O O21 0.711474 0.500000 0.689176
O O22 0.750000 0.250000 0.631479
#
# Coordination Sequence:
#
# PCOD8173322 Si02
#       8
#     8   8   8   8   8   8   8   8
#     4  11  23  36  53  83 121 155 189 235 294 354
#     4   9  17  30  52  82 118 156 193 235 280 331
#     4   8  14  29  50  76 114 153 190 232 274 323
#     4   9  17  34  57  81 115 156 195 238 283 335
#     4  11  25  44  65  88 114 145 187 245 305 355
#     4   9  20  38  61  87 116 152 197 243 286 341
#     4  11  23  41  64  86 113 150 196 244 286 343
#     4  10  20  34  55  84 117 152 190 233 282 336
#
# _framework density 19.727823999999998
#
# number of rings (size 3 to 8) (size 9 to 14) (size 15 to 20)
#    0.000    2.250    1.250    3.375    0.000    6.000 
#    0.000    5.000    0.000    0.000    0.000    0.000 
#    0.000    0.000    0.000    0.000    0.000    0.000 
#
# Total GULP energy -396640.464514 kJ/mol
# GULP energy per Si atom -12395.014516 kJ/mol
# Density = 1.968292 g / cm^3
# Si number density = 19.727824 Si / 1000 Ang^3
#
#
#
# Elastic Constant Matrix: (Units=GPa)
#
#
# Indices 1 2 3 4 5 6 
#
# 1 133.7061 54.0470 58.7847 0.0000 0.0000 0.0000
# 2 54.0470 63.4141 44.2491 0.0000 0.0000 0.0000
# 3 58.7847 44.2491 102.2177 0.0000 0.0000 0.0000
# 4 0.0000 0.0000 0.0000 21.4756 0.0000 0.0000
# 5 0.0000 0.0000 0.0000 0.0000 19.9279 0.0000
# 6 0.0000 0.0000 0.0000 0.0000 0.0000 32.4168
#
#
#
# Elastic Compliance Matrix: (Units=1/GPa)
#
#
# Indices 1 2 3 4 5 6 
#
# 1 0.012282 -0.007937 -0.003628 0.000000 0.000000 0.000000
# 2 -0.007937 0.027723 -0.007437 0.000000 0.000000 0.000000
# 3 -0.003628 -0.007437 0.015089 0.000000 0.000000 0.000000
# 4 0.000000 0.000000 0.000000 0.046564 0.000000 0.000000
# 5 0.000000 0.000000 0.000000 0.000000 0.050181 0.000000
# 6 0.000000 0.000000 0.000000 0.000000 0.000000 0.030848
#
#
# Mechanical properties :
#
#
# Convention : Reuss Voigt Hill
#
# Bulk Modulus (GPa) = 58.50828 68.16660 63.33744
# Shear Modulus (GPa) = 22.08616 24.24788 23.16702
#
# Velocity S-wave (km/s) = 3.34959 3.50969 3.43057
# Velocity P-wave (km/s) = 6.68444 7.14510 6.91860
#
# Compressibility (1/GPa) = 0.01709160
#
# Stress axis : x y z
#
# Youngs Moduli (GPa) = 81.41870 36.07147 66.27536
#
# Poissons Ratio (x) = 0.28628 0.24043
# Poissons Ratio (y) = 0.64619 0.49287
# Poissons Ratio (z) = 0.29536 0.26825
#
# Static dielectric constant tensor:
#      x y z
#    x 3.712330 0.000000 0.000000 
#    y 0.000000 3.394470 0.000000 
#    z 0.000000 0.000000 3.533110 
# 
# 
# High freq. dielectric constant tensor:
#      x y z
#    x 1.776040 0.000000 0.000000 
#    y 0.000000 1.751270 0.000000 
#    z 0.000000 0.000000 1.754840 
# 
# From -- ./inp_files/14595.got.cif
#   From: 2010.03.12/outbox.cif.g09.slc.cpg/sg35_8_cif.got.tgz:14595.got - 2010.04.14 02:02:04.
