data_PCOD8173863
_publ_section_title
;
Structure prediction by ZEFSAII (Michael W. Deem and Ramdas Pophale) SiO2 
 PCOD8173863
Probable space group: C M M 2
;
_chemical_formula_sum "Si O2"
_cell_formula_units_Z 64
_cell_length_a 24.446694
_cell_length_b 13.987936
_cell_length_c 9.458511
_cell_angle_alpha 90.000000
_cell_angle_beta 90.000000
_cell_angle_gamma 90.000000
_cell_volume 3234.420987
_symmetry_space_group_name_H-M "C M M 2"
_symmetry_group_IT_number 35
_symmetry_cell_setting 'orthorhombic'
loop_
_space_group_symop_operation_xyz
x,y,z
-x,-y,z
-x,y,z
x,-y,z
1/2+x,1/2+y,z
1/2-x,1/2-y,z
1/2-x,1/2+y,z
1/2+x,1/2-y,z
loop_
_atom_site_type_symbol
_atom_site_label
_atom_site_fract_x
_atom_site_fract_y
_atom_site_fract_z
Si Si1 0.934912 0.218899 0.113810
Si Si2 0.858553 0.885582 0.914214
Si Si3 0.140073 0.611684 0.164144
Si Si4 0.654601 0.103416 0.491408
Si Si5 0.633313 0.697007 0.605817
Si Si6 0.760488 0.105148 0.103423
Si Si7 0.436029 0.606395 0.389691
Si Si8 0.230580 0.145693 0.410206
O O1 0.907198 0.323471 0.095022
O O2 0.915257 0.173238 0.261999
O O3 0.000000 0.230372 0.100917
O O4 0.913801 0.147952 0.991887
O O5 0.857655 0.833728 0.764735
O O6 0.859702 0.000000 0.898900
O O7 0.804932 0.846260 0.999343
O O8 0.131720 0.500000 0.123451
O O9 0.135283 0.624931 0.332388
O O10 0.199524 0.651790 0.110055
O O11 0.634555 0.187360 0.595660
O O12 0.720379 0.093271 0.492375
O O13 0.631260 0.000000 0.542997
O O14 0.577317 0.656291 0.540162
O O15 0.679073 0.645833 0.511515
O O16 0.785045 0.096621 0.261967
O O17 0.751908 0.000000 0.042131
O O18 0.500000 0.596606 0.378817
O O19 0.409921 0.500000 0.378852
O O20 0.250000 0.250000 0.367414
#
# Coordination Sequence:
#
# PCOD8173863 Si02
#       8
#     8   8   8   8   8   8   8   8
#     4  11  23  40  61  87 118 154 204 258 303 355
#     4  11  25  39  55  86 126 166 201 243 301 362
#     4   9  18  37  65  93 119 153 196 247 301 356
#     4   9  18  35  59  89 121 151 191 239 293 352
#     4  11  21  38  58  85 121 159 196 241 294 358
#     4   9  19  35  57  85 119 158 197 238 291 357
#     4  10  21  37  60  86 111 147 200 255 300 348
#     4   9  18  31  55  85 111 152 195 236 286 338
#
# _framework density 19.787158999999999
#
# number of rings (size 3 to 8) (size 9 to 14) (size 15 to 20)
#    0.000    2.125    1.250    2.625    3.500    4.500 
#    6.750    0.625    0.000    0.375    0.000    0.000 
#    0.000    0.000    0.000    0.000    0.000    0.000 
#
# Total GULP energy -396593.420736 kJ/mol
# GULP energy per Si atom -12393.544398 kJ/mol
# Density = 1.974212 g / cm^3
# Si number density = 19.787159 Si / 1000 Ang^3
#
#
#
# Elastic Constant Matrix: (Units=GPa)
#
#
# Indices 1 2 3 4 5 6 
#
# 1 79.4175 42.7847 43.6287 0.0000 0.0000 0.0000
# 2 42.7847 124.2507 53.6483 0.0000 0.0000 0.0000
# 3 43.6287 53.6483 106.6705 0.0000 0.0000 0.0000
# 4 0.0000 0.0000 0.0000 28.9465 0.0000 0.0000
# 5 0.0000 0.0000 0.0000 0.0000 12.5266 0.0000
# 6 0.0000 0.0000 0.0000 0.0000 0.0000 26.6331
#
#
#
# Elastic Compliance Matrix: (Units=1/GPa)
#
#
# Indices 1 2 3 4 5 6 
#
# 1 0.017511 -0.003752 -0.005275 0.000000 0.000000 0.000000
# 2 -0.003752 0.011085 -0.004040 0.000000 0.000000 0.000000
# 3 -0.005275 -0.004040 0.013564 0.000000 0.000000 0.000000
# 4 0.000000 0.000000 0.000000 0.034546 0.000000 0.000000
# 5 0.000000 0.000000 0.000000 0.000000 0.079830 0.000000
# 6 0.000000 0.000000 0.000000 0.000000 0.000000 0.037547
#
#
# Mechanical properties :
#
#
# Convention : Reuss Voigt Hill
#
# Bulk Modulus (GPa) = 62.40224 65.60692 64.00458
# Shear Modulus (GPa) = 22.16701 24.97303 23.57002
#
# Velocity S-wave (km/s) = 3.35068 3.55643 3.45509
# Velocity P-wave (km/s) = 6.82456 7.07761 6.95224
#
# Compressibility (1/GPa) = 0.01602506
#
# Stress axis : x y z
#
# Youngs Moduli (GPa) = 57.10720 90.21406 73.72383
#
# Poissons Ratio (x) = 0.33850 0.38889
# Poissons Ratio (y) = 0.21427 0.29786
# Poissons Ratio (z) = 0.30124 0.36449
#
# Static dielectric constant tensor:
#      x y z
#    x 3.515870 0.000000 0.000000 
#    y 0.000000 3.696660 0.000000 
#    z 0.000000 0.000000 3.355100 
# 
# 
# High freq. dielectric constant tensor:
#      x y z
#    x 1.757090 0.000000 0.000000 
#    y 0.000000 1.786700 0.000000 
#    z 0.000000 0.000000 1.740930 
# 
# From -- ./inp_files/9880.got.cif
#   From: 2010.03.12/outbox.cif.g09.slc.cpg/sg35_5_cif.got.tgz:9880.got - 2010.04.14 02:02:04.
