data_PCOD8173121
_publ_section_title
;
Structure prediction by ZEFSAII (Michael W. Deem and Ramdas Pophale) SiO2 
 PCOD8173121
Probable space group: C M M 2
;
_chemical_formula_sum "Si O2"
_cell_formula_units_Z 48
_cell_length_a 8.818434
_cell_length_b 15.918520
_cell_length_c 16.834308
_cell_angle_alpha 90.000000
_cell_angle_beta 90.000000
_cell_angle_gamma 90.000000
_cell_volume 2363.139857
_symmetry_space_group_name_H-M "C M M 2"
_symmetry_group_IT_number 35
_symmetry_cell_setting 'orthorhombic'
loop_
_space_group_symop_operation_xyz
x,y,z
-x,-y,z
-x,y,z
x,-y,z
1/2+x,1/2+y,z
1/2-x,1/2-y,z
1/2-x,1/2+y,z
1/2+x,1/2-y,z
loop_
_atom_site_type_symbol
_atom_site_label
_atom_site_fract_x
_atom_site_fract_y
_atom_site_fract_z
Si Si1 0.177436 0.662798 0.273770
Si Si2 0.673538 0.904856 0.107371
Si Si3 0.321843 0.335772 0.960537
Si Si4 0.321268 0.500000 0.871049
Si Si5 0.679310 0.907073 0.437899
Si Si6 0.820289 0.000000 0.687519
Si Si7 0.820165 0.337937 0.604244
O O1 0.250000 0.750000 0.250769
O O2 0.215433 0.601544 0.200472
O O3 0.249659 0.627949 0.355757
O O4 0.000000 0.674684 0.285767
O O5 0.500000 0.876891 0.093790
O O6 0.700971 0.000000 0.080697
O O7 0.779043 0.846088 0.053332
O O8 0.500000 0.328591 0.950750
O O9 0.250000 0.250000 0.926433
O O10 0.255010 0.415329 0.911567
O O11 0.500000 0.500000 0.883769
O O12 0.275633 0.500000 0.779516
O O13 0.500000 0.913370 0.429678
O O14 0.724189 0.847784 0.511432
O O15 0.746328 0.000000 0.453520
O O16 0.749581 0.084044 0.651170
O O17 0.000000 0.000000 0.673670
O O18 0.750000 0.250000 0.634923
O O19 0.000000 0.337361 0.617452
#
# Coordination Sequence:
#
# PCOD8173121 Si02
#       7
#     8   8   8   4   8   4   8
#     4  10  20  33  51  77 112 153 197 244 290 341
#     4  10  20  35  56  84 115 152 200 246 292 347
#     4  11  22  40  63  89 119 156 196 240 295 354
#     4   9  22  43  65  88 119 154 192 241 301 359
#     4   9  17  33  57  81 111 154 200 245 293 346
#     4  11  23  43  67  92 123 156 196 251 307 365
#     4  11  22  39  63  93 125 162 205 248 301 362
#
# _framework density 20.311959000000002
#
# number of rings (size 3 to 8) (size 9 to 14) (size 15 to 20)
#    0.000    1.833    1.667    2.750    0.000    4.667 
#    0.000    5.833    0.000    1.000    0.000    0.000 
#    0.000    0.000    0.000    0.000    0.000    0.000 
#
# Total GULP energy -297597.840791 kJ/mol
# GULP energy per Si atom -12399.910033 kJ/mol
# Density = 2.026573 g / cm^3
# Si number density = 20.311959 Si / 1000 Ang^3
#
#
#
# Elastic Constant Matrix: (Units=GPa)
#
#
# Indices 1 2 3 4 5 6 
#
# 1 62.1576 48.9114 40.7796 0.0000 0.0000 0.0000
# 2 48.9114 165.4480 60.7346 0.0000 0.0000 0.0000
# 3 40.7796 60.7346 121.7570 0.0000 0.0000 0.0000
# 4 0.0000 0.0000 0.0000 19.0936 0.0000 0.0000
# 5 0.0000 0.0000 0.0000 0.0000 24.3270 0.0000
# 6 0.0000 0.0000 0.0000 0.0000 0.0000 32.4470
#
#
#
# Elastic Compliance Matrix: (Units=1/GPa)
#
#
# Indices 1 2 3 4 5 6 
#
# 1 0.023552 -0.004979 -0.005405 0.000000 0.000000 0.000000
# 2 -0.004979 0.008451 -0.002548 0.000000 0.000000 0.000000
# 3 -0.005405 -0.002548 0.011294 0.000000 0.000000 0.000000
# 4 0.000000 0.000000 0.000000 0.052374 0.000000 0.000000
# 5 0.000000 0.000000 0.000000 0.000000 0.041107 0.000000
# 6 0.000000 0.000000 0.000000 0.000000 0.000000 0.030820
#
#
# Mechanical properties :
#
#
# Convention : Reuss Voigt Hill
#
# Bulk Modulus (GPa) = 57.35783 72.24596 64.80190
# Shear Modulus (GPa) = 25.09139 28.43597 26.76368
#
# Velocity S-wave (km/s) = 3.51850 3.74567 3.63386
# Velocity P-wave (km/s) = 6.69374 7.37239 7.04125
#
# Compressibility (1/GPa) = 0.01743441
#
# Stress axis : x y z
#
# Youngs Moduli (GPa) = 42.46010 118.32268 88.53970
#
# Poissons Ratio (x) = 0.58908 0.47852
# Poissons Ratio (y) = 0.21139 0.22563
# Poissons Ratio (z) = 0.22948 0.30152
#
# Static dielectric constant tensor:
#      x y z
#    x 3.372430 0.000000 0.000000 
#    y 0.000000 4.041930 0.000000 
#    z 0.000000 0.000000 3.769000 
# 
# 
# High freq. dielectric constant tensor:
#      x y z
#    x 1.764960 0.000000 0.000000 
#    y 0.000000 1.808150 0.000000 
#    z 0.000000 0.000000 1.796050 
# 
# From -- ./inp_files/17835.got.cif
#   From: 2010.03.12/outbox.cif.g09.slc.cpg/sg35_9_cif.got.tgz:17835.got - 2010.04.14 02:02:04.
