data_PCOD8173940
_publ_section_title
;
Structure prediction by ZEFSAII (Michael W. Deem and Ramdas Pophale) SiO2 
 PCOD8173940
Probable space group: C M M 2
;
_chemical_formula_sum "Si O2"
_cell_formula_units_Z 64
_cell_length_a 29.556651
_cell_length_b 8.727051
_cell_length_c 12.308396
_cell_angle_alpha 90.000000
_cell_angle_beta 90.000000
_cell_angle_gamma 90.000000
_cell_volume 3174.857213
_symmetry_space_group_name_H-M "C M M 2"
_symmetry_group_IT_number 35
_symmetry_cell_setting 'orthorhombic'
loop_
_space_group_symop_operation_xyz
x,y,z
-x,-y,z
-x,y,z
x,-y,z
1/2+x,1/2+y,z
1/2-x,1/2-y,z
1/2-x,1/2+y,z
1/2+x,1/2-y,z
loop_
_atom_site_type_symbol
_atom_site_label
_atom_site_fract_x
_atom_site_fract_y
_atom_site_fract_z
Si Si1 0.853699 0.318049 0.933420
Si Si2 0.707228 0.825228 0.514062
Si Si3 0.857535 0.323388 0.320070
Si Si4 0.420901 0.823961 0.639033
Si Si5 0.451060 0.818708 0.404314
Si Si6 0.951683 0.323737 0.874327
Si Si7 0.832441 0.177431 0.712464
Si Si8 0.200074 0.180148 0.133403
O O1 0.853316 0.500000 0.946724
O O2 0.905821 0.252595 0.927026
O O3 0.827813 0.274015 0.823214
O O4 0.827619 0.242114 0.031739
O O5 0.750000 0.750000 0.450688
O O6 0.662631 0.809172 0.440870
O O7 0.704800 0.733375 0.627225
O O8 0.717527 0.000000 0.540387
O O9 0.855893 0.500000 0.279754
O O10 0.909202 0.259255 0.330145
O O11 0.828823 0.219447 0.239668
O O12 0.447062 0.772397 0.530798
O O13 0.452734 0.807828 0.743854
O O14 0.379798 0.708377 0.653953
O O15 0.402828 0.000000 0.629328
O O16 0.500000 0.755962 0.362078
O O17 0.450019 0.000000 0.396036
O O18 0.951380 0.500000 0.908199
O O19 0.000000 0.250664 0.915589
O O20 0.826343 0.000000 0.740393
O O21 0.250000 0.250000 0.139753
O O22 0.205662 0.000000 0.123330
#
# Coordination Sequence:
#
# PCOD8173940 Si02
#       8
#     8   8   8   8   8   8   8   8
#     4  10  21  39  63  89 119 153 196 247 296 348
#     4  11  22  37  57  85 117 153 194 240 295 357
#     4  10  21  39  62  89 121 154 196 248 296 347
#     4   9  15  28  50  80 117 160 203 246 286 332
#     4   9  16  29  55  89 121 157 203 249 289 336
#     4   8  14  26  51  87 121 154 195 240 283 331
#     4  11  21  34  54  83 121 161 196 237 292 353
#     4  12  26  45  68  90 113 147 195 248 304 363
#
# _framework density 20.158386
#
# number of rings (size 3 to 8) (size 9 to 14) (size 15 to 20)
#    0.000    2.000    1.250    4.500    0.000    4.000 
#    0.000    3.125    0.000   17.625    0.000    0.000 
#    0.000    0.000    0.000    0.000    0.000    0.000 
#
# Total GULP energy -396565.910396 kJ/mol
# GULP energy per Si atom -12392.684700 kJ/mol
# Density = 2.011251 g / cm^3
# Si number density = 20.158386 Si / 1000 Ang^3
#
#
#
# Elastic Constant Matrix: (Units=GPa)
#
#
# Indices 1 2 3 4 5 6 
#
# 1 152.5985 44.5920 57.4191 0.0000 0.0000 0.0000
# 2 44.5920 89.5040 34.8144 0.0000 0.0000 0.0000
# 3 57.4191 34.8144 92.9090 0.0000 0.0000 0.0000
# 4 0.0000 0.0000 0.0000 26.7569 0.0000 0.0000
# 5 0.0000 0.0000 0.0000 0.0000 23.2691 0.0000
# 6 0.0000 0.0000 0.0000 0.0000 0.0000 21.0016
#
#
#
# Elastic Compliance Matrix: (Units=1/GPa)
#
#
# Indices 1 2 3 4 5 6 
#
# 1 0.009079 -0.002740 -0.004584 0.000000 0.000000 0.000000
# 2 -0.002740 0.013906 -0.003517 0.000000 0.000000 0.000000
# 3 -0.004584 -0.003517 0.014914 0.000000 0.000000 0.000000
# 4 0.000000 0.000000 0.000000 0.037373 0.000000 0.000000
# 5 0.000000 0.000000 0.000000 0.000000 0.042975 0.000000
# 6 0.000000 0.000000 0.000000 0.000000 0.000000 0.047615
#
#
# Mechanical properties :
#
#
# Convention : Reuss Voigt Hill
#
# Bulk Modulus (GPa) = 61.66763 67.62919 64.64841
# Shear Modulus (GPa) = 25.91327 27.41795 26.66561
#
# Velocity S-wave (km/s) = 3.58925 3.69199 3.64098
# Velocity P-wave (km/s) = 6.91628 7.19695 7.05801
#
# Compressibility (1/GPa) = 0.01621596
#
# Stress axis : x y z
#
# Youngs Moduli (GPa) = 110.14792 71.91158 67.05012
#
# Poissons Ratio (x) = 0.19704 0.30736
# Poissons Ratio (y) = 0.30181 0.23584
# Poissons Ratio (z) = 0.50492 0.25294
#
# Static dielectric constant tensor:
#      x y z
#    x 4.202780 0.000000 0.000000 
#    y 0.000000 3.385400 0.000000 
#    z 0.000000 0.000000 3.550880 
# 
# 
# High freq. dielectric constant tensor:
#      x y z
#    x 1.804240 0.000000 0.000000 
#    y 0.000000 1.753520 0.000000 
#    z 0.000000 0.000000 1.768850 
# 
# From -- ./inp_files/14579.got.cif
#   From: 2010.03.12/outbox.cif.g09.slc.cpg/sg35_8_cif.got.tgz:14579.got - 2010.04.14 02:02:04.
