data_PCOD8173342
_publ_section_title
;
Structure prediction by ZEFSAII (Michael W. Deem and Ramdas Pophale) SiO2 
 PCOD8173342
Probable space group: C M M 2
;
_chemical_formula_sum "Si O2"
_cell_formula_units_Z 64
_cell_length_a 29.295957
_cell_length_b 8.710795
_cell_length_c 12.423078
_cell_angle_alpha 90.000000
_cell_angle_beta 90.000000
_cell_angle_gamma 90.000000
_cell_volume 3170.258639
_symmetry_space_group_name_H-M "C M M 2"
_symmetry_group_IT_number 35
_symmetry_cell_setting 'orthorhombic'
loop_
_space_group_symop_operation_xyz
x,y,z
-x,-y,z
-x,y,z
x,-y,z
1/2+x,1/2+y,z
1/2-x,1/2-y,z
1/2-x,1/2+y,z
1/2+x,1/2-y,z
loop_
_atom_site_type_symbol
_atom_site_label
_atom_site_fract_x
_atom_site_fract_y
_atom_site_fract_z
Si Si1 0.113333 0.817695 0.114980
Si Si2 0.795181 0.681516 0.576376
Si Si3 0.551860 0.319036 0.311346
Si Si4 0.091453 0.674427 0.743424
Si Si5 0.105555 0.676372 0.503309
Si Si6 0.182284 0.179500 0.800421
Si Si7 0.296739 0.182095 0.030669
Si Si8 0.950271 0.173852 0.923226
O O1 0.083714 0.754452 0.215419
O O2 0.119651 0.000000 0.121772
O O3 0.162656 0.738552 0.109137
O O4 0.086639 0.767139 0.008179
O O5 0.792712 0.500000 0.581043
O O6 0.750000 0.750000 0.516992
O O7 0.841469 0.731595 0.513875
O O8 0.793630 0.745616 0.697439
O O9 0.500000 0.250191 0.307522
O O10 0.548210 0.500000 0.300813
O O11 0.577144 0.278980 0.421865
O O12 0.108465 0.500000 0.760657
O O13 0.080754 0.699579 0.618142
O O14 0.128622 0.793190 0.788451
O O15 0.048343 0.716300 0.817588
O O16 0.103592 0.500000 0.465710
O O17 0.199460 0.257780 0.909044
O O18 0.193419 0.000000 0.805951
O O19 0.250000 0.250000 0.080191
O O20 0.295539 0.000000 0.030858
O O21 0.000000 0.184628 0.978286
O O22 0.939885 0.000000 0.887864
#
# Coordination Sequence:
#
# PCOD8173342 Si02
#       8
#     8   8   8   8   8   8   8   8
#     4  10  21  40  62  86 119 154 194 246 301 350
#     4  10  20  35  55  84 120 158 200 244 292 349
#     4  10  22  41  66  92 116 149 197 249 298 355
#     4  10  20  35  54  81 119 159 197 244 297 349
#     4   9  21  39  58  83 118 156 197 246 297 348
#     4  11  20  33  54  82 118 160 200 241 289 346
#     4  12  24  38  58  86 120 158 200 242 290 350
#     4  10  20  34  56  85 117 155 194 235 295 365
#
# _framework density 20.187626999999999
#
# number of rings (size 3 to 8) (size 9 to 14) (size 15 to 20)
#    0.000    1.750    1.250    4.500    0.000    6.000 
#    0.000    3.125    0.000    3.750    0.000    0.000 
#    0.000    0.000    0.000    0.000    0.000    0.000 
#
# Total GULP energy -396700.523701 kJ/mol
# GULP energy per Si atom -12396.891366 kJ/mol
# Density = 2.014168 g / cm^3
# Si number density = 20.187627 Si / 1000 Ang^3
#
#
#
# Elastic Constant Matrix: (Units=GPa)
#
#
# Indices 1 2 3 4 5 6 
#
# 1 150.3038 44.9730 64.5207 0.0000 0.0000 0.0000
# 2 44.9730 83.4266 37.1876 0.0000 0.0000 0.0000
# 3 64.5207 37.1876 98.4278 0.0000 0.0000 0.0000
# 4 0.0000 0.0000 0.0000 26.5764 0.0000 0.0000
# 5 0.0000 0.0000 0.0000 0.0000 20.5052 0.0000
# 6 0.0000 0.0000 0.0000 0.0000 0.0000 30.6169
#
#
#
# Elastic Compliance Matrix: (Units=1/GPa)
#
#
# Indices 1 2 3 4 5 6 
#
# 1 0.009814 -0.002914 -0.005332 0.000000 0.000000 0.000000
# 2 -0.002914 0.015279 -0.003863 0.000000 0.000000 0.000000
# 3 -0.005332 -0.003863 0.015115 0.000000 0.000000 0.000000
# 4 0.000000 0.000000 0.000000 0.037627 0.000000 0.000000
# 5 0.000000 0.000000 0.000000 0.000000 0.048768 0.000000
# 6 0.000000 0.000000 0.000000 0.000000 0.000000 0.032662
#
#
# Mechanical properties :
#
#
# Convention : Reuss Voigt Hill
#
# Bulk Modulus (GPa) = 62.53849 69.50231 66.02040
# Shear Modulus (GPa) = 26.48131 27.90483 27.19307
#
# Velocity S-wave (km/s) = 3.62575 3.72193 3.67415
# Velocity P-wave (km/s) = 6.96950 7.27827 7.12556
#
# Compressibility (1/GPa) = 0.01599015
#
# Stress axis : x y z
#
# Youngs Moduli (GPa) = 101.89529 65.44911 66.16100
#
# Poissons Ratio (x) = 0.19069 0.35280
# Poissons Ratio (y) = 0.29687 0.25557
# Poissons Ratio (z) = 0.54335 0.25282
#
# Static dielectric constant tensor:
#      x y z
#    x 4.023240 0.000000 0.000000 
#    y 0.000000 3.522420 0.000000 
#    z 0.000000 0.000000 3.514750 
# 
# 
# High freq. dielectric constant tensor:
#      x y z
#    x 1.802680 0.000000 0.000000 
#    y 0.000000 1.782420 0.000000 
#    z 0.000000 0.000000 1.765680 
# 
# From -- ./inp_files/14571.got.cif
#   From: 2010.03.12/outbox.cif.g09.slc.cpg/sg35_8_cif.got.tgz:14571.got - 2010.04.14 02:02:04.
