data_PCOD8173984
_publ_section_title
;
Structure prediction by ZEFSAII (Michael W. Deem and Ramdas Pophale) SiO2 
 PCOD8173984
Probable space group: C M M 2
;
_chemical_formula_sum "Si O2"
_cell_formula_units_Z 40
_cell_length_a 10.130693
_cell_length_b 16.034537
_cell_length_c 12.745260
_cell_angle_alpha 90.000000
_cell_angle_beta 90.000000
_cell_angle_gamma 90.000000
_cell_volume 2070.352420
_symmetry_space_group_name_H-M "C M M 2"
_symmetry_group_IT_number 35
_symmetry_cell_setting 'orthorhombic'
loop_
_space_group_symop_operation_xyz
x,y,z
-x,-y,z
-x,y,z
x,-y,z
1/2+x,1/2+y,z
1/2-x,1/2-y,z
1/2-x,1/2+y,z
1/2+x,1/2-y,z
loop_
_atom_site_type_symbol
_atom_site_label
_atom_site_fract_x
_atom_site_fract_y
_atom_site_fract_z
Si Si1 0.348215 0.905373 0.227400
Si Si2 0.742289 0.092648 0.799888
Si Si3 0.250000 0.250000 0.354599
Si Si4 0.850245 0.675571 0.011398
Si Si5 0.000000 0.638789 0.679026
Si Si6 0.000000 0.245291 0.498100
Si Si7 0.000000 0.180400 0.716051
O O1 0.500000 0.895063 0.262742
O O2 0.264583 0.833870 0.285820
O O3 0.333292 0.892578 0.102908
O O4 0.299193 0.000000 0.254032
O O5 0.632567 0.088912 0.707696
O O6 0.868745 0.142780 0.763557
O O7 0.790336 0.000000 0.824638
O O8 0.679161 0.131256 0.902705
O O9 0.126466 0.233498 0.427576
O O10 0.750000 0.750000 0.033197
O O11 0.000000 0.710870 0.011169
O O12 0.000000 0.663333 0.555177
O O13 0.000000 0.722965 0.749676
O O14 0.000000 0.173637 0.588768
#
# Coordination Sequence:
#
# PCOD8173984 Si02
#       7
#     8   8   4   8   4   4   4
#     4  10  22  42  68  99 131 164 211 261 313 385
#     4  12  23  38  61  95 131 162 203 260 313 371
#     4  12  20  44  68  96 124 168 218 262 332 368
#     4  11  23  39  65  97 127 169 209 249 312 381
#     4  10  21  41  63  85 113 170 215 246 301 383
#     4  10  24  40  68  86 122 168 212 270 314 372
#     4  10  23  43  61  87 119 172 207 254 315 371
#
# _framework density 19.320384000000001
#
# number of rings (size 3 to 8) (size 9 to 14) (size 15 to 20)
#    0.600    0.600    3.000    4.200    1.400    0.800 
#    0.000    6.500    0.000    0.000    0.000    0.000 
#    0.000    0.000    0.000    0.000    0.000    0.000 
#
# Total GULP energy -247943.858204 kJ/mol
# GULP energy per Si atom -12397.192910 kJ/mol
# Density = 1.927641 g / cm^3
# Si number density = 19.320384 Si / 1000 Ang^3
#
#
#
# Elastic Constant Matrix: (Units=GPa)
#
#
# Indices 1 2 3 4 5 6 
#
# 1 99.6349 35.3530 53.2410 0.0000 0.0000 0.0000
# 2 35.3530 127.6719 38.4300 0.0000 0.0000 0.0000
# 3 53.2410 38.4300 112.0675 0.0000 0.0000 0.0000
# 4 0.0000 0.0000 0.0000 16.8370 0.0000 0.0000
# 5 0.0000 0.0000 0.0000 0.0000 38.1690 0.0000
# 6 0.0000 0.0000 0.0000 0.0000 0.0000 25.2204
#
#
#
# Elastic Compliance Matrix: (Units=1/GPa)
#
#
# Indices 1 2 3 4 5 6 
#
# 1 0.013930 -0.002080 -0.005905 0.000000 0.000000 0.000000
# 2 -0.002080 0.009045 -0.002113 0.000000 0.000000 0.000000
# 3 -0.005905 -0.002113 0.012453 0.000000 0.000000 0.000000
# 4 0.000000 0.000000 0.000000 0.059393 0.000000 0.000000
# 5 0.000000 0.000000 0.000000 0.000000 0.026199 0.000000
# 6 0.000000 0.000000 0.000000 0.000000 0.000000 0.039650
#
#
# Mechanical properties :
#
#
# Convention : Reuss Voigt Hill
#
# Bulk Modulus (GPa) = 65.65246 65.93582 65.79414
# Shear Modulus (GPa) = 26.88990 30.20196 28.54593
#
# Velocity S-wave (km/s) = 3.73472 3.95804 3.84800
# Velocity P-wave (km/s) = 7.25618 7.42225 7.33969
#
# Compressibility (1/GPa) = 0.01523172
#
# Stress axis : x y z
#
# Youngs Moduli (GPa) = 71.78859 110.56213 80.30169
#
# Poissons Ratio (x) = 0.22996 0.47414
# Poissons Ratio (y) = 0.14932 0.16971
# Poissons Ratio (z) = 0.42388 0.23367
#
# Static dielectric constant tensor:
#      x y z
#    x 3.872910 0.000000 0.000000 
#    y 0.000000 3.516610 0.000000 
#    z 0.000000 0.000000 3.576090 
# 
# 
# High freq. dielectric constant tensor:
#      x y z
#    x 1.756170 0.000000 0.000000 
#    y 0.000000 1.746350 0.000000 
#    z 0.000000 0.000000 1.756480 
# 
# From -- ./inp_files/14871.got.cif
#   From: 2010.03.12/outbox.cif.g09.slc.cpg/sg35_8_cif.got.tgz:14871.got - 2010.04.14 02:02:04.
