data_PCOD8173926
_publ_section_title
;
Structure prediction by ZEFSAII (Michael W. Deem and Ramdas Pophale) SiO2 
 PCOD8173926
Probable space group: C M M 2
;
_chemical_formula_sum "Si O2"
_cell_formula_units_Z 64
_cell_length_a 14.911748
_cell_length_b 18.436104
_cell_length_c 11.895789
_cell_angle_alpha 90.000000
_cell_angle_beta 90.000000
_cell_angle_gamma 90.000000
_cell_volume 3270.325325
_symmetry_space_group_name_H-M "C M M 2"
_symmetry_group_IT_number 35
_symmetry_cell_setting 'orthorhombic'
loop_
_space_group_symop_operation_xyz
x,y,z
-x,-y,z
-x,y,z
x,-y,z
1/2+x,1/2+y,z
1/2-x,1/2-y,z
1/2-x,1/2+y,z
1/2+x,1/2-y,z
loop_
_atom_site_type_symbol
_atom_site_label
_atom_site_fract_x
_atom_site_fract_y
_atom_site_fract_z
Si Si1 0.143775 0.264528 0.743930
Si Si2 0.808035 0.917392 0.505221
Si Si3 0.601176 0.606096 0.746910
Si Si4 0.212128 0.919688 0.965179
Si Si5 0.654703 0.716913 0.103559
Si Si6 0.670409 0.194238 0.512613
Si Si7 0.900975 0.802010 0.351628
Si Si8 0.599282 0.151220 0.956297
O O1 0.250000 0.250000 0.761941
O O2 0.090732 0.191045 0.764845
O O3 0.110888 0.295635 0.623654
O O4 0.109466 0.324243 0.829013
O O5 0.860290 0.910957 0.622851
O O6 0.705359 0.888794 0.513045
O O7 0.845427 0.866845 0.406230
O O8 0.808097 0.000000 0.463734
O O9 0.500000 0.572661 0.759072
O O10 0.671955 0.575996 0.838482
O O11 0.319140 0.904710 0.975633
O O12 0.197220 0.000000 0.018141
O O13 0.159505 0.857425 0.032537
O O14 0.750000 0.750000 0.135682
O O15 0.604994 0.697787 0.218129
O O16 0.601866 0.777700 0.034998
O O17 0.750000 0.250000 0.537503
O O18 0.623774 0.221023 0.397611
O O19 0.000000 0.819714 0.389966
O O20 0.500000 0.115305 0.973581
#
# Coordination Sequence:
#
# PCOD8173926 Si02
#       8
#     8   8   8   8   8   8   8   8
#     4  11  16  33  58  85 113 144 191 239 281 328
#     4  11  22  36  55  82 115 151 188 225 275 339
#     4  12  22  35  56  85 119 152 189 234 283 339
#     4  11  24  40  57  83 119 154 188 228 284 351
#     4  10  21  39  59  81 109 144 189 236 282 333
#     4   9  18  35  56  78 110 146 186 227 275 323
#     4  11  22  36  58  85 110 141 185 237 284 334
#     4  11  21  36  62  87 111 145 190 243 287 332
#
# _framework density 19.569918999999999
#
# number of rings (size 3 to 8) (size 9 to 14) (size 15 to 20)
#    0.000    1.250    6.250    3.000    0.000    3.500 
#    0.000    0.000    0.000    0.375    0.000    0.000 
#    0.000    0.000    0.000    0.000    0.000    0.000 
#
# Total GULP energy -396453.232214 kJ/mol
# GULP energy per Si atom -12389.163507 kJ/mol
# Density = 1.952538 g / cm^3
# Si number density = 19.569919 Si / 1000 Ang^3
#
#
#
# Elastic Constant Matrix: (Units=GPa)
#
#
# Indices 1 2 3 4 5 6 
#
# 1 83.2894 21.7748 17.7694 0.0000 0.0000 0.0000
# 2 21.7748 101.8808 24.9373 0.0000 0.0000 0.0000
# 3 17.7694 24.9373 106.8713 0.0000 0.0000 0.0000
# 4 0.0000 0.0000 0.0000 9.1010 0.0000 0.0000
# 5 0.0000 0.0000 0.0000 0.0000 9.4906 0.0000
# 6 0.0000 0.0000 0.0000 0.0000 0.0000 1.6624
#
#
#
# Elastic Compliance Matrix: (Units=1/GPa)
#
#
# Indices 1 2 3 4 5 6 
#
# 1 0.012970 -0.002380 -0.001601 0.000000 0.000000 0.000000
# 2 -0.002380 0.010847 -0.002135 0.000000 0.000000 0.000000
# 3 -0.001601 -0.002135 0.010122 0.000000 0.000000 0.000000
# 4 0.000000 0.000000 0.000000 0.109877 0.000000 0.000000
# 5 0.000000 0.000000 0.000000 0.000000 0.105367 0.000000
# 6 0.000000 0.000000 0.000000 0.000000 0.000000 0.601527
#
#
# Mechanical properties :
#
#
# Convention : Reuss Voigt Hill
#
# Bulk Modulus (GPa) = 46.07162 46.77825 46.42494
# Shear Modulus (GPa) = 5.74595 19.22149 12.48372
#
# Velocity S-wave (km/s) = 1.71537 3.13740 2.52842
# Velocity P-wave (km/s) = 5.24562 6.08929 5.68313
#
# Compressibility (1/GPa) = 0.02170533
#
# Stress axis : x y z
#
# Youngs Moduli (GPa) = 77.09983 92.19364 98.79952
#
# Poissons Ratio (x) = 0.21944 0.15819
# Poissons Ratio (y) = 0.18351 0.21096
# Poissons Ratio (z) = 0.12345 0.19685
#
# Static dielectric constant tensor:
#      x y z
#    x 3.982670 0.000000 0.000000 
#    y 0.000000 3.580230 0.000000 
#    z 0.000000 0.000000 3.599780 
# 
# 
# High freq. dielectric constant tensor:
#      x y z
#    x 1.755660 0.000000 0.000000 
#    y 0.000000 1.741910 0.000000 
#    z 0.000000 0.000000 1.761770 
# 
# From -- ./inp_files/13170.got.cif
#   From: 2010.03.12/outbox.cif.g09.slc.cpg/sg35_7_cif.got.tgz:13170.got - 2010.04.14 02:02:04.
