data_PCOD8173102
_publ_section_title
;
Structure prediction by ZEFSAII (Michael W. Deem and Ramdas Pophale) SiO2 
 PCOD8173102
Probable space group: C M M 2
;
_chemical_formula_sum "Si O2"
_cell_formula_units_Z 40
_cell_length_a 14.804953
_cell_length_b 8.856281
_cell_length_c 16.569207
_cell_angle_alpha 90.000000
_cell_angle_beta 90.000000
_cell_angle_gamma 90.000000
_cell_volume 2172.501797
_symmetry_space_group_name_H-M "C M M 2"
_symmetry_group_IT_number 35
_symmetry_cell_setting 'orthorhombic'
loop_
_space_group_symop_operation_xyz
x,y,z
-x,-y,z
-x,y,z
x,-y,z
1/2+x,1/2+y,z
1/2-x,1/2-y,z
1/2-x,1/2+y,z
1/2+x,1/2-y,z
loop_
_atom_site_type_symbol
_atom_site_label
_atom_site_fract_x
_atom_site_fract_y
_atom_site_fract_z
Si Si1 0.000000 0.180163 0.108140
Si Si2 0.500000 0.827191 0.347240
Si Si3 0.149910 0.678288 0.217084
Si Si4 0.656527 0.678261 0.811572
Si Si5 0.000000 0.178507 0.517788
Si Si6 0.000000 0.179193 0.923927
Si Si7 0.843446 0.821770 0.629974
O O1 0.092434 0.246784 0.145110
O O2 0.000000 0.000000 0.118560
O O3 0.000000 0.234211 0.015678
O O4 0.408574 0.790562 0.297649
O O5 0.500000 0.724323 0.425302
O O6 0.500000 0.000000 0.374381
O O7 0.159427 0.500000 0.200808
O O8 0.250000 0.750000 0.224390
O O9 0.664896 0.500000 0.817006
O O10 0.750000 0.750000 0.837246
O O11 0.586145 0.743225 0.876214
O O12 0.628062 0.726590 0.720739
O O13 0.086096 0.243329 0.565320
O O14 0.000000 0.000000 0.522805
O O15 0.000000 0.000000 0.919869
O O16 0.750000 0.750000 0.604114
O O17 0.834975 0.000000 0.624455
#
# Coordination Sequence:
#
# PCOD8173102 Si02
#       7
#     4   4   8   8   4   4   8
#     4  10  20  35  55  82 111 138 173 214 260 314
#     4   9  21  38  54  77 106 132 165 210 257 309
#     4  10  21  39  60  80 104 137 174 212 260 315
#     4   9  17  32  51  71  99 135 174 212 250 295
#     4  10  20  33  51  75 102 134 170 207 252 304
#     4   9  18  32  52  76 103 136 170 207 253 303
#     4   9  18  32  50  72  99 134 174 212 250 296
#
# _framework density 18.411951999999999
#
# number of rings (size 3 to 8) (size 9 to 14) (size 15 to 20)
#    0.000    2.600    0.000    2.100    0.000    7.200 
#    0.000    8.500    0.000    4.800    0.000    0.000 
#    0.000    0.000    0.000    0.000    0.000    0.000 
#
# Total GULP energy -247929.465725 kJ/mol
# GULP energy per Si atom -12396.473286 kJ/mol
# Density = 1.837005 g / cm^3
# Si number density = 18.411952 Si / 1000 Ang^3
#
#
#
# Elastic Constant Matrix: (Units=GPa)
#
#
# Indices 1 2 3 4 5 6 
#
# 1 171.1869 48.8364 93.6691 0.0000 0.0000 0.0000
# 2 48.8364 47.1187 38.8705 0.0000 0.0000 0.0000
# 3 93.6691 38.8705 141.2195 0.0000 0.0000 0.0000
# 4 0.0000 0.0000 0.0000 24.4093 0.0000 0.0000
# 5 0.0000 0.0000 0.0000 0.0000 56.5444 0.0000
# 6 0.0000 0.0000 0.0000 0.0000 0.0000 33.1222
#
#
#
# Elastic Compliance Matrix: (Units=1/GPa)
#
#
# Indices 1 2 3 4 5 6 
#
# 1 0.010586 -0.006701 -0.005177 0.000000 0.000000 0.000000
# 2 -0.006701 0.031700 -0.004281 0.000000 0.000000 0.000000
# 3 -0.005177 -0.004281 0.011693 0.000000 0.000000 0.000000
# 4 0.000000 0.000000 0.000000 0.040968 0.000000 0.000000
# 5 0.000000 0.000000 0.000000 0.000000 0.017685 0.000000
# 6 0.000000 0.000000 0.000000 0.000000 0.000000 0.030191
#
#
# Mechanical properties :
#
#
# Convention : Reuss Voigt Hill
#
# Bulk Modulus (GPa) = 46.16492 80.25300 63.20896
# Shear Modulus (GPa) = 27.41809 34.69180 31.05494
#
# Velocity S-wave (km/s) = 3.86313 4.34545 4.11137
# Velocity P-wave (km/s) = 6.71015 8.29815 7.54604
#
# Compressibility (1/GPa) = 0.02166147
#
# Stress axis : x y z
#
# Youngs Moduli (GPa) = 94.46385 31.54612 85.51898
#
# Poissons Ratio (x) = 0.21139 0.44274
# Poissons Ratio (y) = 0.63301 0.36607
# Poissons Ratio (z) = 0.48905 0.13503
#
# Static dielectric constant tensor:
#      x y z
#    x 3.531330 0.000000 0.000000 
#    y 0.000000 3.225360 0.000000 
#    z 0.000000 0.000000 3.487120 
# 
# 
# High freq. dielectric constant tensor:
#      x y z
#    x 1.724410 0.000000 0.000000 
#    y 0.000000 1.701540 0.000000 
#    z 0.000000 0.000000 1.715220 
# 
# From -- ./inp_files/14856.got.cif
#   From: 2010.03.12/outbox.cif.g09.slc.cpg/sg35_8_cif.got.tgz:14856.got - 2010.04.14 02:02:04.
