data_PCOD8173320
_publ_section_title
;
Structure prediction by ZEFSAII (Michael W. Deem and Ramdas Pophale) SiO2 
 PCOD8173320
Probable space group: C M M 2
;
_chemical_formula_sum "Si O2"
_cell_formula_units_Z 48
_cell_length_a 17.726222
_cell_length_b 8.966473
_cell_length_c 15.351689
_cell_angle_alpha 90.000000
_cell_angle_beta 90.000000
_cell_angle_gamma 90.000000
_cell_volume 2440.023409
_symmetry_space_group_name_H-M "C M M 2"
_symmetry_group_IT_number 35
_symmetry_cell_setting 'orthorhombic'
loop_
_space_group_symop_operation_xyz
x,y,z
-x,-y,z
-x,y,z
x,-y,z
1/2+x,1/2+y,z
1/2-x,1/2-y,z
1/2-x,1/2+y,z
1/2+x,1/2-y,z
loop_
_atom_site_type_symbol
_atom_site_label
_atom_site_fract_x
_atom_site_fract_y
_atom_site_fract_z
Si Si1 0.830233 0.675538 0.041510
Si Si2 0.912856 0.675433 0.557353
Si Si3 0.089535 0.833330 0.195637
Si Si4 0.412501 0.172134 0.865953
Si Si5 0.910502 0.664825 0.362665
Si Si6 0.670198 0.323540 0.712580
O O1 0.821078 0.500000 0.046420
O O2 0.750000 0.750000 0.052238
O O3 0.883931 0.726351 0.119150
O O4 0.866572 0.725264 0.950365
O O5 0.900666 0.500000 0.573905
O O6 0.888042 0.719935 0.459305
O O7 0.859276 0.770545 0.619188
O O8 0.000000 0.717562 0.574802
O O9 0.121271 0.775362 0.288699
O O10 0.000000 0.831729 0.196519
O O11 0.120902 0.000000 0.181101
O O12 0.500000 0.196925 0.886198
O O13 0.389457 0.274548 0.785374
O O14 0.395562 0.000000 0.842832
O O15 0.876889 0.500000 0.345599
O O16 0.000000 0.655674 0.357960
O O17 0.679294 0.500000 0.712827
O O18 0.750000 0.250000 0.734752
#
# Coordination Sequence:
#
# PCOD8173320 Si02
#       6
#     8   8   8   8   8   8
#     4  11  23  39  59  83 113 149 187 228 277 332
#     4   9  18  35  59  85 114 148 186 230 279 331
#     4  10  20  34  55  84 116 149 187 233 280 327
#     4  10  22  41  64  88 113 143 181 226 276 331
#     4   8  15  30  54  82 111 146 187 230 277 328
#     4  12  25  39  57  82 114 151 188 229 278 331
#
# _framework density 19.671942000000001
#
# number of rings (size 3 to 8) (size 9 to 14) (size 15 to 20)
#    0.000    2.000    0.000    5.000    0.000    7.667 
#    0.000    2.500    0.000    4.000    0.000    0.000 
#    0.000    0.000    0.000    0.000    0.000    0.000 
#
# Total GULP energy -297652.000987 kJ/mol
# GULP energy per Si atom -12402.166708 kJ/mol
# Density = 1.962717 g / cm^3
# Si number density = 19.671942 Si / 1000 Ang^3
#
#
#
# Elastic Constant Matrix: (Units=GPa)
#
#
# Indices 1 2 3 4 5 6 
#
# 1 36.3796 24.6484 15.1606 0.0000 0.0000 0.0000
# 2 24.6484 94.8471 51.6740 0.0000 0.0000 0.0000
# 3 15.1606 51.6740 128.2942 0.0000 0.0000 0.0000
# 4 0.0000 0.0000 0.0000 19.4195 0.0000 0.0000
# 5 0.0000 0.0000 0.0000 0.0000 9.7826 0.0000
# 6 0.0000 0.0000 0.0000 0.0000 0.0000 29.0966
#
#
#
# Elastic Compliance Matrix: (Units=1/GPa)
#
#
# Indices 1 2 3 4 5 6 
#
# 1 0.033396 -0.008364 -0.000578 0.000000 0.000000 0.000000
# 2 -0.008364 0.015602 -0.005296 0.000000 0.000000 0.000000
# 3 -0.000578 -0.005296 0.009996 0.000000 0.000000 0.000000
# 4 0.000000 0.000000 0.000000 0.051495 0.000000 0.000000
# 5 0.000000 0.000000 0.000000 0.000000 0.102223 0.000000
# 6 0.000000 0.000000 0.000000 0.000000 0.000000 0.034368
#
#
# Mechanical properties :
#
#
# Convention : Reuss Voigt Hill
#
# Bulk Modulus (GPa) = 32.76670 49.16521 40.96596
# Shear Modulus (GPa) = 17.49924 22.86225 20.18075
#
# Velocity S-wave (km/s) = 2.98577 3.41277 3.20639
# Velocity P-wave (km/s) = 5.34595 6.36994 5.88028
#
# Compressibility (1/GPa) = 0.03051878
#
# Stress axis : x y z
#
# Youngs Moduli (GPa) = 29.94414 64.09381 100.04138
#
# Poissons Ratio (x) = 0.53608 0.05778
# Poissons Ratio (y) = 0.25045 0.52980
# Poissons Ratio (z) = 0.01729 0.33943
#
# Static dielectric constant tensor:
#      x y z
#    x 3.360440 0.000000 0.000000 
#    y 0.000000 3.723610 0.000000 
#    z 0.000000 0.000000 3.803500 
# 
# 
# High freq. dielectric constant tensor:
#      x y z
#    x 1.748530 0.000000 0.000000 
#    y 0.000000 1.765610 0.000000 
#    z 0.000000 0.000000 1.783510 
# 
# From -- ./inp_files/15112.got.cif
#   From: 2010.03.12/outbox.cif.g09.slc.cpg/sg35_8_cif.got.tgz:15112.got - 2010.04.14 02:02:04.
