data_PCOD8173804
_publ_section_title
;
Structure prediction by ZEFSAII (Michael W. Deem and Ramdas Pophale) SiO2 
 PCOD8173804
Probable space group: C M M 2
;
_chemical_formula_sum "Si O2"
_cell_formula_units_Z 48
_cell_length_a 8.886472
_cell_length_b 18.498951
_cell_length_c 15.139882
_cell_angle_alpha 90.000000
_cell_angle_beta 90.000000
_cell_angle_gamma 90.000000
_cell_volume 2488.851411
_symmetry_space_group_name_H-M "C M M 2"
_symmetry_group_IT_number 35
_symmetry_cell_setting 'orthorhombic'
loop_
_space_group_symop_operation_xyz
x,y,z
-x,-y,z
-x,y,z
x,-y,z
1/2+x,1/2+y,z
1/2-x,1/2-y,z
1/2-x,1/2+y,z
1/2+x,1/2-y,z
loop_
_atom_site_type_symbol
_atom_site_label
_atom_site_fract_x
_atom_site_fract_y
_atom_site_fract_z
Si Si1 0.177420 0.174491 0.163450
Si Si2 0.824547 0.175974 0.960033
Si Si3 0.321615 0.328460 0.467994
Si Si4 0.330443 0.914548 0.816911
Si Si5 0.676016 0.915430 0.309537
Si Si6 0.676046 0.582821 0.639498
O O1 0.250000 0.250000 0.194722
O O2 0.253505 0.109546 0.216847
O O3 0.000000 0.177481 0.181653
O O4 0.215560 0.159275 0.061440
O O5 0.750000 0.250000 0.927887
O O6 0.762815 0.111377 0.901003
O O7 0.000000 0.183584 0.945454
O O8 0.500000 0.322186 0.458942
O O9 0.250000 0.250000 0.468350
O O10 0.259636 0.373781 0.386867
O O11 0.272816 0.369122 0.557089
O O12 0.500000 0.885374 0.823509
O O13 0.259877 0.885919 0.725491
O O14 0.323074 0.000000 0.818148
O O15 0.500000 0.897101 0.311468
O O16 0.706651 0.000000 0.320814
O O17 0.500000 0.589077 0.657689
O O18 0.722539 0.500000 0.619822
#
# Coordination Sequence:
#
# PCOD8173804 Si02
#       6
#     8   8   8   8   8   8
#     4  10  21  38  60  84 112 147 187 231 279 331
#     4  10  21  37  58  83 112 148 188 232 280 330
#     4  11  23  39  60  85 114 148 186 229 277 330
#     4  10  21  36  56  83 115 151 188 229 278 331
#     4  11  24  40  59  84 114 148 185 228 278 331
#     4   9  19  37  59  81 108 146 190 234 280 329
#
# _framework density 19.286003999999998
#
# number of rings (size 3 to 8) (size 9 to 14) (size 15 to 20)
#    0.000    1.833    0.000    3.500    0.000    7.667 
#    0.000    6.667    0.000    0.000    0.000    0.000 
#    0.000    0.000    0.000    0.000    0.000    0.000 
#
# Total GULP energy -297722.881078 kJ/mol
# GULP energy per Si atom -12405.120045 kJ/mol
# Density = 1.924211 g / cm^3
# Si number density = 19.286004 Si / 1000 Ang^3
#
#
#
# Elastic Constant Matrix: (Units=GPa)
#
#
# Indices 1 2 3 4 5 6 
#
# 1 99.1877 49.6749 62.2013 0.0000 0.0000 0.0000
# 2 49.6749 91.8522 62.8133 0.0000 0.0000 0.0000
# 3 62.2013 62.8133 127.4776 0.0000 0.0000 0.0000
# 4 0.0000 0.0000 0.0000 35.9482 0.0000 0.0000
# 5 0.0000 0.0000 0.0000 0.0000 31.6882 0.0000
# 6 0.0000 0.0000 0.0000 0.0000 0.0000 23.0136
#
#
#
# Elastic Compliance Matrix: (Units=1/GPa)
#
#
# Indices 1 2 3 4 5 6 
#
# 1 0.015900 -0.004967 -0.005311 0.000000 0.000000 0.000000
# 2 -0.004967 0.017972 -0.006432 0.000000 0.000000 0.000000
# 3 -0.005311 -0.006432 0.013605 0.000000 0.000000 0.000000
# 4 0.000000 0.000000 0.000000 0.027818 0.000000 0.000000
# 5 0.000000 0.000000 0.000000 0.000000 0.031557 0.000000
# 6 0.000000 0.000000 0.000000 0.000000 0.000000 0.043453
#
#
# Mechanical properties :
#
#
# Convention : Reuss Voigt Hill
#
# Bulk Modulus (GPa) = 71.13645 74.21072 72.67359
# Shear Modulus (GPa) = 26.53796 27.71852 27.12824
#
# Velocity S-wave (km/s) = 3.71350 3.79520 3.75457
# Velocity P-wave (km/s) = 7.43988 7.60048 7.52061
#
# Compressibility (1/GPa) = 0.01405749
#
# Stress axis : x y z
#
# Youngs Moduli (GPa) = 62.89354 55.64308 73.50265
#
# Poissons Ratio (x) = 0.27639 0.39035
# Poissons Ratio (y) = 0.31240 0.47275
# Poissons Ratio (z) = 0.33401 0.35788
#
# Static dielectric constant tensor:
#      x y z
#    x 3.695460 0.000000 0.000000 
#    y 0.000000 3.585700 0.000000 
#    z 0.000000 0.000000 3.657650 
# 
# 
# High freq. dielectric constant tensor:
#      x y z
#    x 1.764660 0.000000 0.000000 
#    y 0.000000 1.747940 0.000000 
#    z 0.000000 0.000000 1.762720 
# 
# From -- ./inp_files/15101.got.cif
#   From: 2010.03.12/outbox.cif.g09.slc.cpg/sg35_8_cif.got.tgz:15101.got - 2010.04.14 02:02:04.
