data_PCOD8173070
_publ_section_title
;
Structure prediction by ZEFSAII (Michael W. Deem and Ramdas Pophale) SiO2 
 PCOD8173070
Probable space group: C M M 2
;
_chemical_formula_sum "Si O2"
_cell_formula_units_Z 64
_cell_length_a 8.988422
_cell_length_b 19.152998
_cell_length_c 20.715895
_cell_angle_alpha 90.000000
_cell_angle_beta 90.000000
_cell_angle_gamma 90.000000
_cell_volume 3566.349639
_symmetry_space_group_name_H-M "C M M 2"
_symmetry_group_IT_number 35
_symmetry_cell_setting 'orthorhombic'
loop_
_space_group_symop_operation_xyz
x,y,z
-x,-y,z
-x,y,z
x,-y,z
1/2+x,1/2+y,z
1/2-x,1/2-y,z
1/2-x,1/2+y,z
1/2+x,1/2-y,z
loop_
_atom_site_type_symbol
_atom_site_label
_atom_site_fract_x
_atom_site_fract_y
_atom_site_fract_z
Si Si1 0.676942 0.177635 0.573220
Si Si2 0.826761 0.420591 0.455567
Si Si3 0.166778 0.583353 0.202763
Si Si4 0.332141 0.582925 0.078522
Si Si5 0.332530 0.416831 0.328524
Si Si6 0.822027 0.176276 0.707383
Si Si7 0.833168 0.082895 0.936905
Si Si8 0.170484 0.417291 0.810663
O O1 0.500000 0.186027 0.583404
O O2 0.750000 0.250000 0.551000
O O3 0.717427 0.121587 0.519077
O O4 0.753588 0.152094 0.639158
O O5 0.776360 0.500000 0.467983
O O6 0.745341 0.388151 0.393223
O O7 0.000000 0.415698 0.440639
O O8 0.174930 0.500000 0.202062
O O9 0.232941 0.614496 0.136135
O O10 0.254659 0.613341 0.264450
O O11 0.000000 0.610704 0.208577
O O12 0.500000 0.608281 0.090007
O O13 0.324021 0.500000 0.081027
O O14 0.277071 0.608964 0.007641
O O15 0.500000 0.389413 0.328337
O O16 0.322762 0.500000 0.328017
O O17 0.750000 0.250000 0.727961
O O18 0.777794 0.117973 0.758834
O O19 0.000000 0.183047 0.702881
O O20 0.720931 0.109164 0.881610
O O21 0.000000 0.111308 0.923174
O O22 0.837993 0.000000 0.937350
O O23 0.189912 0.500000 0.803756
O O24 0.000000 0.394587 0.799833
#
# Coordination Sequence:
#
# PCOD8173070 Si02
#       8
#     8   8   8   8   8   8   8   8
#     4  10  20  35  54  74  97 125 156 192 236 284
#     4   9  18  32  49  69  94 124 156 191 233 279
#     4   9  15  21  31  49  76 112 152 190 228 274
#     4   8  13  21  33  50  76 112 152 191 230 274
#     4   9  16  25  38  57  83 115 150 189 232 276
#     4  11  22  37  56  75  98 127 161 200 242 289
#     4   8  14  25  40  59  86 120 156 194 237 282
#     4  10  20  33  50  73 101 131 163 200 242 289
#
# _framework density 17.945519999999998
#
# number of rings (size 3 to 8) (size 9 to 14) (size 15 to 20)
#    0.000    2.750    0.000    4.125    0.000    5.750 
#    0.000    3.750    0.000    0.000    0.000    0.000 
#    0.000    1.000    0.000    7.000    0.000   10.125 
#
# Total GULP energy -396663.410706 kJ/mol
# GULP energy per Si atom -12395.731585 kJ/mol
# Density = 1.790468 g / cm^3
# Si number density = 17.945520 Si / 1000 Ang^3
#
#
#
# Elastic Constant Matrix: (Units=GPa)
#
#
# Indices 1 2 3 4 5 6 
#
# 1 121.7047 27.8570 82.4131 0.0000 0.0000 0.0000
# 2 27.8570 27.6705 44.2738 0.0000 0.0000 0.0000
# 3 82.4131 44.2738 164.2679 0.0000 0.0000 0.0000
# 4 0.0000 0.0000 0.0000 -0.4631 0.0000 0.0000
# 5 0.0000 0.0000 0.0000 0.0000 39.6044 0.0000
# 6 0.0000 0.0000 0.0000 0.0000 0.0000 16.9064
#
#
#
# Elastic Compliance Matrix: (Units=1/GPa)
#
#
# Indices 1 2 3 4 5 6 
#
# 1 0.012766 -0.004579 -0.005171 0.000000 0.000000 0.000000
# 2 -0.004579 0.065184 -0.015271 0.000000 0.000000 0.000000
# 3 -0.005171 -0.015271 0.012798 0.000000 0.000000 0.000000
# 4 0.000000 0.000000 0.000000 -2.159546 0.000000 0.000000
# 5 0.000000 0.000000 0.000000 0.000000 0.025250 0.000000
# 6 0.000000 0.000000 0.000000 0.000000 0.000000 0.059149
#
#
# Mechanical properties :
#
#
# Convention : Reuss Voigt Hill
#
# Bulk Modulus (GPa) = 24.56641 69.19233 46.87937
# Shear Modulus (GPa) = -2.60310 21.81616 9.60653
#
# Velocity S-wave (km/s) = -1.20570 3.49045 2.31620
# Velocity P-wave (km/s) = 3.43233 7.40844 5.77347
#
# Compressibility (1/GPa) = 0.04070598
#
# Stress axis : x y z
#
# Youngs Moduli (GPa) = 78.33338 15.34122 78.13961
#
# Poissons Ratio (x) = 0.07025 0.40402
# Poissons Ratio (y) = 0.35868 1.19329
# Poissons Ratio (z) = 0.40503 0.23428
#
# Static dielectric constant tensor:
#      x y z
#    x 3.444560 0.000000 0.000000 
#    y 0.000000 2.740350 0.000000 
#    z 0.000000 0.000000 3.678570 
# 
# 
# High freq. dielectric constant tensor:
#      x y z
#    x 1.703690 0.000000 0.000000 
#    y 0.000000 1.624490 0.000000 
#    z 0.000000 0.000000 1.714890 
# 
# From -- ./inp_files/18503.got.cif
#   From: 2010.03.12/outbox.cif.g09.slc.cpg/sg35_10_cif.got.tgz:18503.got - 2010.04.14 02:02:04.
