data_PCOD8173942
_publ_section_title
;
Structure prediction by ZEFSAII (Michael W. Deem and Ramdas Pophale) SiO2 
 PCOD8173942
Probable space group: C M M 2
;
_chemical_formula_sum "Si O2"
_cell_formula_units_Z 56
_cell_length_a 14.427790
_cell_length_b 20.178896
_cell_length_c 8.672175
_cell_angle_alpha 90.000000
_cell_angle_beta 90.000000
_cell_angle_gamma 90.000000
_cell_volume 2524.789920
_symmetry_space_group_name_H-M "C M M 2"
_symmetry_group_IT_number 35
_symmetry_cell_setting 'orthorhombic'
loop_
_space_group_symop_operation_xyz
x,y,z
-x,-y,z
-x,y,z
x,-y,z
1/2+x,1/2+y,z
1/2-x,1/2-y,z
1/2-x,1/2+y,z
1/2+x,1/2-y,z
loop_
_atom_site_type_symbol
_atom_site_label
_atom_site_fract_x
_atom_site_fract_y
_atom_site_fract_z
Si Si1 0.103755 0.194587 0.821160
Si Si2 0.892796 0.713506 0.267061
Si Si3 0.752803 0.143899 0.050330
Si Si4 0.396595 0.630176 0.282228
Si Si5 0.670202 0.073208 0.765067
Si Si6 0.862094 0.925800 0.617329
Si Si7 0.103131 0.693605 0.600221
O O1 0.092532 0.123108 0.741469
O O2 0.149175 0.247989 0.702526
O O3 0.000000 0.216177 0.878312
O O4 0.174810 0.192983 0.963448
O O5 0.828461 0.685588 0.131439
O O6 0.879767 0.791466 0.286854
O O7 0.853723 0.683354 0.429859
O O8 0.000000 0.693573 0.233255
O O9 0.816347 0.101519 0.169942
O O10 0.705785 0.092209 0.934645
O O11 0.500000 0.614284 0.218487
O O12 0.387056 0.598154 0.448206
O O13 0.752216 0.074749 0.640501
O O14 0.597921 0.126269 0.699636
O O15 0.625098 0.000000 0.773982
O O16 0.901584 0.000000 0.642777
O O17 0.000000 0.719569 0.567225
#
# Coordination Sequence:
#
# PCOD8173942 Si02
#       7
#     8   8   8   8   8   8   8
#     4  10  21  39  62  96 129 162 214 262 310 374
#     4  10  22  40  62  94 128 161 207 265 315 371
#     4  11  24  38  61  90 126 172 201 256 324 376
#     4  11  22  37  58  91 130 166 211 256 305 373
#     4  10  24  42  60  89 125 164 215 266 317 383
#     4  10  21  39  64  91 128 175 215 254 305 366
#     4  10  21  40  66  91 121 160 210 272 323 369
#
# _framework density 22.180063000000001
#
# number of rings (size 3 to 8) (size 9 to 14) (size 15 to 20)
#    0.000    1.714    1.429    2.143    4.000    4.286 
#    0.000    0.714    0.000    3.429    0.000    0.000 
#    0.000    0.000    0.000    0.000    0.000    0.000 
#
# Total GULP energy -347065.558451 kJ/mol
# GULP energy per Si atom -12395.198516 kJ/mol
# Density = 2.212958 g / cm^3
# Si number density = 22.180063 Si / 1000 Ang^3
#
#
#
# Elastic Constant Matrix: (Units=GPa)
#
#
# Indices 1 2 3 4 5 6 
#
# 1 87.3228 24.7209 47.9686 0.0000 0.0000 0.0000
# 2 24.7209 129.4748 47.3524 0.0000 0.0000 0.0000
# 3 47.9686 47.3524 126.7891 0.0000 0.0000 0.0000
# 4 0.0000 0.0000 0.0000 28.7153 0.0000 0.0000
# 5 0.0000 0.0000 0.0000 0.0000 33.4879 0.0000
# 6 0.0000 0.0000 0.0000 0.0000 0.0000 -25.6638
#
#
#
# Elastic Compliance Matrix: (Units=1/GPa)
#
#
# Indices 1 2 3 4 5 6 
#
# 1 0.014543 -0.000885 -0.005172 0.000000 0.000000 0.000000
# 2 -0.000885 0.008999 -0.003026 0.000000 0.000000 0.000000
# 3 -0.005172 -0.003026 0.010974 0.000000 0.000000 0.000000
# 4 0.000000 0.000000 0.000000 0.034825 0.000000 0.000000
# 5 0.000000 0.000000 0.000000 0.000000 0.029862 0.000000
# 6 0.000000 0.000000 0.000000 0.000000 0.000000 -0.038965
#
#
# Mechanical properties :
#
#
# Convention : Reuss Voigt Hill
#
# Bulk Modulus (GPa) = 61.16041 64.85226 63.00634
# Shear Modulus (GPa) = 59.62806 22.21087 40.91947
#
# Velocity S-wave (km/s) = 5.19057 3.16791 4.29986
# Velocity P-wave (km/s) = 7.97227 6.53325 7.28836
#
# Compressibility (1/GPa) = 0.01635045
#
# Stress axis : x y z
#
# Youngs Moduli (GPa) = 68.76037 111.12032 91.12606
#
# Poissons Ratio (x) = 0.09839 0.47126
# Poissons Ratio (y) = 0.06088 0.27575
# Poissons Ratio (z) = 0.35560 0.33625
#
# Static dielectric constant tensor:
#      x y z
#    x 4.068860 0.000000 0.000000 
#    y 0.000000 3.898170 0.000000 
#    z 0.000000 0.000000 4.261020 
# 
# 
# High freq. dielectric constant tensor:
#      x y z
#    x 1.875070 0.000000 0.000000 
#    y 0.000000 1.848050 0.000000 
#    z 0.000000 0.000000 1.884790 
# 
# From -- ./inp_files/7625.got.cif
#   From: 2010.03.12/outbox.cif.g09.slc.cpg/sg35_4_cif.got.tgz:7625.got - 2010.04.14 02:02:04.
