data_PCOD8173917
_publ_section_title
;
Structure prediction by ZEFSAII (Michael W. Deem and Ramdas Pophale) SiO2 
 PCOD8173917
Probable space group: C M M 2
;
_chemical_formula_sum "Si O2"
_cell_formula_units_Z 64
_cell_length_a 30.748901
_cell_length_b 8.675467
_cell_length_c 11.895877
_cell_angle_alpha 90.000000
_cell_angle_beta 90.000000
_cell_angle_gamma 90.000000
_cell_volume 3173.356947
_symmetry_space_group_name_H-M "C M M 2"
_symmetry_group_IT_number 35
_symmetry_cell_setting 'orthorhombic'
loop_
_space_group_symop_operation_xyz
x,y,z
-x,-y,z
-x,y,z
x,-y,z
1/2+x,1/2+y,z
1/2-x,1/2-y,z
1/2-x,1/2+y,z
1/2+x,1/2-y,z
loop_
_atom_site_type_symbol
_atom_site_label
_atom_site_fract_x
_atom_site_fract_y
_atom_site_fract_z
Si Si1 0.205551 0.181244 0.895870
Si Si2 0.583555 0.678149 0.128149
Si Si3 0.951236 0.323320 0.344730
Si Si4 0.628330 0.820625 0.498688
Si Si5 0.871660 0.679380 0.757644
Si Si6 0.451237 0.823321 0.911578
Si Si7 0.705550 0.318770 0.360479
Si Si8 0.676827 0.181081 0.128180
O O1 0.250000 0.250000 0.844200
O O2 0.165948 0.222470 0.814884
O O3 0.209508 0.000000 0.904852
O O4 0.199215 0.249262 0.019221
O O5 0.597581 0.500000 0.128143
O O6 0.555261 0.714160 0.237715
O O7 0.625899 0.784053 0.128127
O O8 0.555253 0.714166 0.018599
O O9 0.944115 0.500000 0.306824
O O10 0.917772 0.278126 0.442835
O O11 0.000000 0.298101 0.391497
O O12 0.625187 0.773365 0.628166
O O13 0.665943 0.722543 0.441422
O O14 0.639403 0.000000 0.482929
O O15 0.860579 0.500000 0.773406
O O16 0.917764 0.721863 0.813492
O O17 0.500000 0.798096 0.864795
O O18 0.444120 0.000000 0.949484
O O19 0.709521 0.500000 0.351681
O O20 0.750000 0.250000 0.412110
O O21 0.699208 0.251038 0.237046
O O22 0.684163 0.000000 0.128345
#
# Coordination Sequence:
#
# PCOD8173917 Si02
#       8
#     8   8   8   8   8   8   8   8
#     4  12  25  42  65  94 126 163 204 251 308 369
#     4  12  23  36  59  92 126 165 204 250 308 370
#     4  10  21  38  62  91 125 166 208 253 307 367
#     4  10  22  41  64  90 123 165 212 260 308 361
#     4  10  22  41  64  90 123 165 212 260 308 361
#     4  10  21  38  62  91 125 166 208 253 307 367
#     4  12  25  42  65  94 126 163 204 251 308 369
#     4  12  23  40  65  93 127 162 199 250 308 372
#
# _framework density 20.167916999999999
#
# number of rings (size 3 to 8) (size 9 to 14) (size 15 to 20)
#    0.000    1.000    2.500    5.250    0.000    3.500 
#    0.000    2.500    0.000    0.000    0.000    3.500 
#    0.000    0.000    0.000    0.000    0.000    0.000 
#
# Total GULP energy -396998.388583 kJ/mol
# GULP energy per Si atom -12406.199643 kJ/mol
# Density = 2.012201 g / cm^3
# Si number density = 20.167917 Si / 1000 Ang^3
#
#
#
# Elastic Constant Matrix: (Units=GPa)
#
#
# Indices 1 2 3 4 5 6 
#
# 1 162.8271 59.4245 59.3762 0.0000 0.0000 0.0000
# 2 59.4245 134.3756 60.9777 0.0000 0.0000 0.0000
# 3 59.3762 60.9777 137.3711 0.0000 0.0000 0.0000
# 4 0.0000 0.0000 0.0000 13.2010 0.0000 0.0000
# 5 0.0000 0.0000 0.0000 0.0000 4.5080 0.0000
# 6 0.0000 0.0000 0.0000 0.0000 0.0000 30.4052
#
#
#
# Elastic Compliance Matrix: (Units=1/GPa)
#
#
# Indices 1 2 3 4 5 6 
#
# 1 0.007876 -0.002427 -0.002327 0.000000 0.000000 0.000000
# 2 -0.002427 0.010067 -0.003420 0.000000 0.000000 0.000000
# 3 -0.002327 -0.003420 0.009803 0.000000 0.000000 0.000000
# 4 0.000000 0.000000 0.000000 0.075752 0.000000 0.000000
# 5 0.000000 0.000000 0.000000 0.000000 0.221830 0.000000
# 6 0.000000 0.000000 0.000000 0.000000 0.000000 0.032889
#
#
# Mechanical properties :
#
#
# Convention : Reuss Voigt Hill
#
# Bulk Modulus (GPa) = 87.72676 88.23675 87.98175
# Shear Modulus (GPa) = 13.21483 26.60919 19.91201
#
# Velocity S-wave (km/s) = 2.56254 3.63627 3.14556
# Velocity P-wave (km/s) = 7.23520 7.84066 7.54401
#
# Compressibility (1/GPa) = 0.01139903
#
# Stress axis : x y z
#
# Youngs Moduli (GPa) = 126.97258 99.33596 102.00761
#
# Poissons Ratio (x) = 0.24109 0.23735
# Poissons Ratio (y) = 0.30816 0.34882
# Poissons Ratio (z) = 0.29544 0.33969
#
# Static dielectric constant tensor:
#      x y z
#    x 3.889130 0.000000 0.000000 
#    y 0.000000 3.621660 0.000000 
#    z 0.000000 0.000000 3.632360 
# 
# 
# High freq. dielectric constant tensor:
#      x y z
#    x 1.805520 0.000000 0.000000 
#    y 0.000000 1.786680 0.000000 
#    z 0.000000 0.000000 1.780110 
# 
# From -- ./inp_files/14565.got.cif
#   From: 2010.03.12/outbox.cif.g09.slc.cpg/sg35_8_cif.got.tgz:14565.got - 2010.04.14 02:02:04.
