data_PCOD8173243
_publ_section_title
;
Structure prediction by ZEFSAII (Michael W. Deem and Ramdas Pophale) SiO2 
 PCOD8173243
Probable space group: C M M 2
;
_chemical_formula_sum "Si O2"
_cell_formula_units_Z 56
_cell_length_a 9.007262
_cell_length_b 17.823378
_cell_length_c 18.044548
_cell_angle_alpha 90.000000
_cell_angle_beta 90.000000
_cell_angle_gamma 90.000000
_cell_volume 2896.868765
_symmetry_space_group_name_H-M "C M M 2"
_symmetry_group_IT_number 35
_symmetry_cell_setting 'orthorhombic'
loop_
_space_group_symop_operation_xyz
x,y,z
-x,-y,z
-x,y,z
x,-y,z
1/2+x,1/2+y,z
1/2-x,1/2-y,z
1/2-x,1/2+y,z
1/2+x,1/2-y,z
loop_
_atom_site_type_symbol
_atom_site_label
_atom_site_fract_x
_atom_site_fract_y
_atom_site_fract_z
Si Si1 0.166328 0.910550 0.837330
Si Si2 0.172025 0.327068 0.392876
Si Si3 0.824031 0.830013 0.114153
Si Si4 0.171181 0.413183 0.244717
Si Si5 0.834522 0.589446 0.694876
Si Si6 0.167786 0.589078 0.982512
Si Si7 0.177092 0.416282 0.532526
O O1 0.229784 0.878603 0.759778
O O2 0.000000 0.879762 0.847600
O O3 0.167835 0.000000 0.836000
O O4 0.266719 0.880692 0.904894
O O5 0.250000 0.250000 0.371677
O O6 0.199225 0.387393 0.328508
O O7 0.239413 0.361310 0.468886
O O8 0.000000 0.309310 0.402882
O O9 0.750000 0.750000 0.103014
O O10 0.776225 0.865009 0.192115
O O11 0.771373 0.883749 0.048589
O O12 0.000000 0.821636 0.112390
O O13 0.214862 0.500000 0.238302
O O14 0.000000 0.400377 0.221324
O O15 0.839309 0.500000 0.696685
O O16 0.773761 0.614433 0.613752
O O17 0.000000 0.621105 0.708348
O O18 0.168729 0.500000 0.984041
O O19 0.000000 0.619736 0.991478
O O20 0.241185 0.500000 0.519189
O O21 0.000000 0.420143 0.528994
#
# Coordination Sequence:
#
# PCOD8173243 Si02
#       7
#     8   8   8   8   8   8   8
#     4   9  16  26  43  71 106 139 172 214 265 317
#     4  10  20  34  53  77 106 140 176 215 261 313
#     4  12  25  40  58  80 109 143 178 216 262 316
#     4  10  21  38  60  84 109 138 175 219 266 316
#     4   8  13  23  42  68  96 127 168 219 269 313
#     4  10  20  35  56  81 109 141 179 222 267 316
#     4   8  14  27  49  74  98 130 176 223 263 309
#
# _framework density 19.331216999999999
#
# number of rings (size 3 to 8) (size 9 to 14) (size 15 to 20)
#    0.000    2.429    0.000    4.286    0.000    8.000 
#    0.000    0.714    0.000    3.000    0.000    4.000 
#    0.000    0.000    0.000    0.000    0.000    0.000 
#
# Total GULP energy -347172.953008 kJ/mol
# GULP energy per Si atom -12399.034036 kJ/mol
# Density = 1.928722 g / cm^3
# Si number density = 19.331217 Si / 1000 Ang^3
#
#
#
# Elastic Constant Matrix: (Units=GPa)
#
#
# Indices 1 2 3 4 5 6 
#
# 1 106.6357 20.3348 50.6319 0.0000 0.0000 0.0000
# 2 20.3348 29.8412 10.8839 0.0000 0.0000 0.0000
# 3 50.6319 10.8839 124.5361 0.0000 0.0000 0.0000
# 4 0.0000 0.0000 0.0000 6.9033 0.0000 0.0000
# 5 0.0000 0.0000 0.0000 0.0000 16.9583 0.0000
# 6 0.0000 0.0000 0.0000 0.0000 0.0000 20.3070
#
#
#
# Elastic Compliance Matrix: (Units=1/GPa)
#
#
# Indices 1 2 3 4 5 6 
#
# 1 0.012938 -0.007125 -0.004638 0.000000 0.000000 0.000000
# 2 -0.007125 0.038538 -0.000471 0.000000 0.000000 0.000000
# 3 -0.004638 -0.000471 0.009956 0.000000 0.000000 0.000000
# 4 0.000000 0.000000 0.000000 0.144859 0.000000 0.000000
# 5 0.000000 0.000000 0.000000 0.000000 0.058968 0.000000
# 6 0.000000 0.000000 0.000000 0.000000 0.000000 0.049244
#
#
# Mechanical properties :
#
#
# Convention : Reuss Voigt Hill
#
# Bulk Modulus (GPa) = 27.05272 47.19045 37.12158
# Shear Modulus (GPa) = 14.23311 20.77787 17.50549
#
# Velocity S-wave (km/s) = 2.71638 3.28202 3.01251
# Velocity P-wave (km/s) = 4.88498 6.23111 5.59865
#
# Compressibility (1/GPa) = 0.03696487
#
# Stress axis : x y z
#
# Youngs Moduli (GPa) = 77.28909 25.94844 100.43737
#
# Poissons Ratio (x) = 0.18489 0.46579
# Poissons Ratio (y) = 0.55070 0.04732
# Poissons Ratio (z) = 0.35844 0.01223
#
# Static dielectric constant tensor:
#      x y z
#    x 3.506350 0.000000 0.000000 
#    y 0.000000 3.230440 0.000000 
#    z 0.000000 0.000000 3.861130 
# 
# 
# High freq. dielectric constant tensor:
#      x y z
#    x 1.736480 0.000000 0.000000 
#    y 0.000000 1.716870 0.000000 
#    z 0.000000 0.000000 1.773050 
# 
# From -- ./inp_files/18205.got.cif
#   From: 2010.03.12/outbox.cif.g09.slc.cpg/sg35_10_cif.got.tgz:18205.got - 2010.04.14 02:02:04.
