data_PCOD8173348
_publ_section_title
;
Structure prediction by ZEFSAII (Michael W. Deem and Ramdas Pophale) SiO2 
 PCOD8173348
Probable space group: C M M 2
;
_chemical_formula_sum "Si O2"
_cell_formula_units_Z 56
_cell_length_a 8.889500
_cell_length_b 21.531179
_cell_length_c 14.501068
_cell_angle_alpha 90.000000
_cell_angle_beta 90.000000
_cell_angle_gamma 90.000000
_cell_volume 2775.524945
_symmetry_space_group_name_H-M "C M M 2"
_symmetry_group_IT_number 35
_symmetry_cell_setting 'orthorhombic'
loop_
_space_group_symop_operation_xyz
x,y,z
-x,-y,z
-x,y,z
x,-y,z
1/2+x,1/2+y,z
1/2-x,1/2-y,z
1/2-x,1/2+y,z
1/2+x,1/2-y,z
loop_
_atom_site_type_symbol
_atom_site_label
_atom_site_fract_x
_atom_site_fract_y
_atom_site_fract_z
Si Si1 0.321728 0.119118 0.363810
Si Si2 0.321741 0.000000 0.472592
Si Si3 0.321226 0.000000 0.681161
Si Si4 0.677904 0.186601 0.867703
Si Si5 0.676107 0.570982 0.189252
Si Si6 0.175097 0.124490 0.705626
Si Si7 0.175342 0.570836 0.996116
Si Si8 0.325904 0.688952 0.519215
O O1 0.500000 0.123858 0.359627
O O2 0.257856 0.117266 0.260401
O O3 0.255204 0.175966 0.421746
O O4 0.260596 0.059227 0.418319
O O5 0.500000 0.000000 0.474274
O O6 0.261020 0.000000 0.576397
O O7 0.255555 0.060050 0.732078
O O8 0.500000 0.000000 0.690524
O O9 0.500000 0.195204 0.862871
O O10 0.750000 0.250000 0.910252
O O11 0.746419 0.178198 0.765609
O O12 0.722870 0.124281 0.924092
O O13 0.500000 0.583205 0.194318
O O14 0.717637 0.500000 0.214552
O O15 0.732276 0.586580 0.087549
O O16 0.200449 0.136546 0.596818
O O17 0.000000 0.121585 0.730706
O O18 0.212392 0.500000 0.960929
O O19 0.000000 0.575785 0.019796
O O20 0.500000 0.700040 0.499639
O O21 0.250000 0.750000 0.560988
#
# Coordination Sequence:
#
# PCOD8173348 Si02
#       8
#     8   4   4   8   8   8   8   8
#     4  11  20  35  58  85 117 155 197 240 289 348
#     4   9  18  31  53  84 113 150 191 231 282 338
#     4  11  21  37  59  88 123 160 203 247 302 362
#     4  11  24  42  66  92 121 160 205 254 310 372
#     4  10  20  34  56  89 123 154 190 240 302 360
#     4  11  24  40  60  89 123 159 201 250 304 361
#     4   9  20  40  64  90 119 155 201 251 308 371
#     4  11  24  40  57  80 114 157 204 251 297 351
#
# _framework density 20.176362000000001
#
# number of rings (size 3 to 8) (size 9 to 14) (size 15 to 20)
#    0.000    1.571    2.143    2.786    1.000    4.571 
#    0.000    0.714    0.000    1.714    0.000    0.000 
#    0.000    0.000    0.000    0.000    0.000    0.000 
#
# Total GULP energy -347228.318998 kJ/mol
# GULP energy per Si atom -12401.011393 kJ/mol
# Density = 2.013044 g / cm^3
# Si number density = 20.176362 Si / 1000 Ang^3
#
#
#
# Elastic Constant Matrix: (Units=GPa)
#
#
# Indices 1 2 3 4 5 6 
#
# 1 114.2657 50.9085 53.9890 0.0000 0.0000 0.0000
# 2 50.9085 113.8288 39.8634 0.0000 0.0000 0.0000
# 3 53.9890 39.8634 89.0789 0.0000 0.0000 0.0000
# 4 0.0000 0.0000 0.0000 -2.3934 0.0000 0.0000
# 5 0.0000 0.0000 0.0000 0.0000 32.1959 0.0000
# 6 0.0000 0.0000 0.0000 0.0000 0.0000 35.1354
#
#
#
# Elastic Compliance Matrix: (Units=1/GPa)
#
#
# Indices 1 2 3 4 5 6 
#
# 1 0.013497 -0.003761 -0.006497 0.000000 0.000000 0.000000
# 2 -0.003761 0.011466 -0.002852 0.000000 0.000000 0.000000
# 3 -0.006497 -0.002852 0.016440 0.000000 0.000000 0.000000
# 4 0.000000 0.000000 0.000000 -0.417814 0.000000 0.000000
# 5 0.000000 0.000000 0.000000 0.000000 0.031060 0.000000
# 6 0.000000 0.000000 0.000000 0.000000 0.000000 0.028461
#
#
# Mechanical properties :
#
#
# Convention : Reuss Voigt Hill
#
# Bulk Modulus (GPa) = 65.86222 67.41059 66.63640
# Shear Modulus (GPa) = -17.50640 24.48173 3.48766
#
# Velocity S-wave (km/s) = -2.94882 3.48715 1.31618
# Velocity P-wave (km/s) = 4.59566 7.04960 5.95050
#
# Compressibility (1/GPa) = 0.01518321
#
# Stress axis : x y z
#
# Youngs Moduli (GPa) = 74.09054 87.21578 60.82761
#
# Poissons Ratio (x) = 0.32802 0.39521
# Poissons Ratio (y) = 0.27866 0.17345
# Poissons Ratio (z) = 0.48138 0.24870
#
# Static dielectric constant tensor:
#      x y z
#    x 3.536500 0.000000 0.000000 
#    y 0.000000 4.224170 0.000000 
#    z 0.000000 0.000000 3.544200 
# 
# 
# High freq. dielectric constant tensor:
#      x y z
#    x 1.790860 0.000000 0.000000 
#    y 0.000000 1.782460 0.000000 
#    z 0.000000 0.000000 1.781780 
# 
# From -- ./inp_files/15784.got.cif
#   From: 2010.03.12/outbox.cif.g09.slc.cpg/sg35_8_cif.got.tgz:15784.got - 2010.04.14 02:02:04.
