data_PCOD8173333
_publ_section_title
;
Structure prediction by ZEFSAII (Michael W. Deem and Ramdas Pophale) SiO2 
 PCOD8173333
Probable space group: C M M 2
;
_chemical_formula_sum "Si O2"
_cell_formula_units_Z 32
_cell_length_a 14.964986
_cell_length_b 14.207610
_cell_length_c 7.469785
_cell_angle_alpha 90.000000
_cell_angle_beta 90.000000
_cell_angle_gamma 90.000000
_cell_volume 1588.200922
_symmetry_space_group_name_H-M "C M M 2"
_symmetry_group_IT_number 35
_symmetry_cell_setting 'orthorhombic'
loop_
_space_group_symop_operation_xyz
x,y,z
-x,-y,z
-x,y,z
x,-y,z
1/2+x,1/2+y,z
1/2-x,1/2-y,z
1/2-x,1/2+y,z
1/2+x,1/2-y,z
loop_
_atom_site_type_symbol
_atom_site_label
_atom_site_fract_x
_atom_site_fract_y
_atom_site_fract_z
Si Si1 0.597999 0.606553 0.277010
Si Si2 0.788608 0.609155 0.405520
Si Si3 0.900186 0.606701 0.738877
Si Si4 0.846048 0.274790 0.064943
O O1 0.500000 0.617786 0.371638
O O2 0.608290 0.500000 0.202331
O O3 0.681097 0.627839 0.411079
O O4 0.601980 0.678150 0.110009
O O5 0.811451 0.500000 0.378337
O O6 0.830837 0.645694 0.591120
O O7 0.834876 0.664603 0.244931
O O8 0.874324 0.500000 0.791381
O O9 0.000000 0.611249 0.657533
O O10 0.900068 0.668262 0.917697
O O11 0.750000 0.250000 0.982505
#
# Coordination Sequence:
#
# PCOD8173333 Si02
#       4
#     8   8   8   8
#     4   9  18  34  57  82 108 144 187 226 268 319
#     4   9  19  36  56  80 112 145 179 224 274 324
#     4  10  21  36  56  84 114 143 179 223 272 328
#     4  10  20  34  56  81 110 146 182 222 272 324
#
# _framework density 20.148582999999999
#
# number of rings (size 3 to 8) (size 9 to 14) (size 15 to 20)
#    0.000    2.500    0.000    1.500    0.000    6.000 
#    0.000    2.500    0.000    7.500    0.000   24.500 
#    0.000    0.000    0.000    0.000    0.000    0.000 
#
# Total GULP energy -198309.764185 kJ/mol
# GULP energy per Si atom -12394.360262 kJ/mol
# Density = 2.010272 g / cm^3
# Si number density = 20.148583 Si / 1000 Ang^3
#
#
#
# Elastic Constant Matrix: (Units=GPa)
#
#
# Indices 1 2 3 4 5 6 
#
# 1 136.9030 45.9819 64.9072 0.0000 0.0000 0.0000
# 2 45.9819 89.6702 54.2669 0.0000 0.0000 0.0000
# 3 64.9072 54.2669 108.1689 0.0000 0.0000 0.0000
# 4 0.0000 0.0000 0.0000 21.9379 0.0000 0.0000
# 5 0.0000 0.0000 0.0000 0.0000 20.3842 0.0000
# 6 0.0000 0.0000 0.0000 0.0000 0.0000 16.7284
#
#
#
# Elastic Compliance Matrix: (Units=1/GPa)
#
#
# Indices 1 2 3 4 5 6 
#
# 1 0.010518 -0.002260 -0.005178 0.000000 0.000000 0.000000
# 2 -0.002260 0.016500 -0.006921 0.000000 0.000000 0.000000
# 3 -0.005178 -0.006921 0.015824 0.000000 0.000000 0.000000
# 4 0.000000 0.000000 0.000000 0.045583 0.000000 0.000000
# 5 0.000000 0.000000 0.000000 0.000000 0.049058 0.000000
# 6 0.000000 0.000000 0.000000 0.000000 0.000000 0.059779
#
#
# Mechanical properties :
#
#
# Convention : Reuss Voigt Hill
#
# Bulk Modulus (GPa) = 70.80397 73.89488 72.34943
# Shear Modulus (GPa) = 21.67430 23.11585 22.39508
#
# Velocity S-wave (km/s) = 3.28338 3.39081 3.33753
# Velocity P-wave (km/s) = 7.04211 7.21698 7.13008
#
# Compressibility (1/GPa) = 0.01412350
#
# Stress axis : x y z
#
# Youngs Moduli (GPa) = 95.07165 60.60700 63.19501
#
# Poissons Ratio (x) = 0.13699 0.32720
# Poissons Ratio (y) = 0.21489 0.43740
# Poissons Ratio (z) = 0.49225 0.41949
#
# Static dielectric constant tensor:
#      x y z
#    x 3.897200 0.000000 0.000000 
#    y 0.000000 3.909980 0.000000 
#    z 0.000000 0.000000 3.207860 
# 
# 
# High freq. dielectric constant tensor:
#      x y z
#    x 1.799590 0.000000 0.000000 
#    y 0.000000 1.804830 0.000000 
#    z 0.000000 0.000000 1.741160 
# 
# From -- ./inp_files/1536.got.cif
#   From: 2010.03.12/outbox.cif.g09.slc.cpg/sg35_1_cif.got.tgz:1536.got - 2010.04.14 02:02:04.
