data_PCOD8173073
_publ_section_title
;
Structure prediction by ZEFSAII (Michael W. Deem and Ramdas Pophale) SiO2 
 PCOD8173073
Probable space group: C M M 2
;
_chemical_formula_sum "Si O2"
_cell_formula_units_Z 56
_cell_length_a 18.565004
_cell_length_b 9.056608
_cell_length_c 18.086981
_cell_angle_alpha 90.000000
_cell_angle_beta 90.000000
_cell_angle_gamma 90.000000
_cell_volume 3041.071982
_symmetry_space_group_name_H-M "C M M 2"
_symmetry_group_IT_number 35
_symmetry_cell_setting 'orthorhombic'
loop_
_space_group_symop_operation_xyz
x,y,z
-x,-y,z
-x,y,z
x,-y,z
1/2+x,1/2+y,z
1/2-x,1/2-y,z
1/2-x,1/2+y,z
1/2+x,1/2-y,z
loop_
_atom_site_type_symbol
_atom_site_label
_atom_site_fract_x
_atom_site_fract_y
_atom_site_fract_z
Si Si1 0.914238 0.166828 0.671020
Si Si2 0.823321 0.326819 0.954721
Si Si3 0.580258 0.175107 0.087471
Si Si4 0.172660 0.675125 0.226246
Si Si5 0.914172 0.170252 0.351795
Si Si6 0.676524 0.827109 0.787318
Si Si7 0.578444 0.674266 0.512399
O O1 0.887058 0.275778 0.734128
O O2 0.882687 0.219194 0.590001
O O3 0.000000 0.175417 0.668435
O O4 0.888919 0.000000 0.689109
O O5 0.810360 0.500000 0.962145
O O6 0.750000 0.250000 0.979963
O O7 0.844426 0.282192 0.871142
O O8 0.886594 0.272865 0.009185
O O9 0.500000 0.243267 0.094864
O O10 0.630429 0.232595 0.153803
O O11 0.575452 0.000000 0.090761
O O12 0.182613 0.500000 0.226092
O O13 0.250000 0.750000 0.228462
O O14 0.125866 0.721068 0.296603
O O15 0.883631 0.213841 0.434193
O O16 0.000000 0.194877 0.347364
O O17 0.895458 0.000000 0.333274
O O18 0.750000 0.750000 0.762370
O O19 0.687524 0.000000 0.779664
O O20 0.500000 0.750520 0.511108
O O21 0.567546 0.500000 0.515033
#
# Coordination Sequence:
#
# PCOD8173073 Si02
#       7
#     8   8   8   8   8   8   8
#     4   9  17  31  52  76 102 132 166 205 250 299
#     4   9  18  33  53  73  96 129 165 202 244 293
#     4   9  18  33  53  76 100 127 161 201 246 296
#     4  11  22  35  52  74 102 135 170 206 246 294
#     4   9  17  32  55  79 102 129 164 206 250 298
#     4  10  20  33  50  73 101 134 171 208 248 295
#     4   7  12  26  49  74  98 128 164 200 244 298
#
# _framework density 18.414559000000001
#
# number of rings (size 3 to 8) (size 9 to 14) (size 15 to 20)
#    0.000    2.857    0.000    3.429    0.000    2.286 
#    0.000    3.571    0.000    4.714    0.000    0.000 
#    0.000    0.000    0.000    0.000    0.000    0.000 
#
# Total GULP energy -346977.536465 kJ/mol
# GULP energy per Si atom -12392.054874 kJ/mol
# Density = 1.837265 g / cm^3
# Si number density = 18.414559 Si / 1000 Ang^3
#
#
#
# Elastic Constant Matrix: (Units=GPa)
#
#
# Indices 1 2 3 4 5 6 
#
# 1 82.5655 29.1965 59.2892 0.0000 0.0000 0.0000
# 2 29.1965 46.9240 35.9395 0.0000 0.0000 0.0000
# 3 59.2892 35.9395 142.1909 0.0000 0.0000 0.0000
# 4 0.0000 0.0000 0.0000 21.7924 0.0000 0.0000
# 5 0.0000 0.0000 0.0000 0.0000 13.9356 0.0000
# 6 0.0000 0.0000 0.0000 0.0000 0.0000 22.6033
#
#
#
# Elastic Compliance Matrix: (Units=1/GPa)
#
#
# Indices 1 2 3 4 5 6 
#
# 1 0.019045 -0.007152 -0.006133 0.000000 0.000000 0.000000
# 2 -0.007152 0.029113 -0.004376 0.000000 0.000000 0.000000
# 3 -0.006133 -0.004376 0.010696 0.000000 0.000000 0.000000
# 4 0.000000 0.000000 0.000000 0.045888 0.000000 0.000000
# 5 0.000000 0.000000 0.000000 0.000000 0.071759 0.000000
# 6 0.000000 0.000000 0.000000 0.000000 0.000000 0.044241
#
#
# Mechanical properties :
#
#
# Convention : Reuss Voigt Hill
#
# Bulk Modulus (GPa) = 42.49786 57.83677 50.16732
# Shear Modulus (GPa) = 18.94588 21.48328 20.21458
#
# Velocity S-wave (km/s) = 3.21105 3.41933 3.31683
# Velocity P-wave (km/s) = 6.07259 6.86042 6.47849
#
# Compressibility (1/GPa) = 0.02353060
#
# Stress axis : x y z
#
# Youngs Moduli (GPa) = 52.50682 34.34882 93.48988
#
# Poissons Ratio (x) = 0.24568 0.57341
# Poissons Ratio (y) = 0.37555 0.40913
# Poissons Ratio (z) = 0.32205 0.15032
#
# Static dielectric constant tensor:
#      x y z
#    x 3.247690 0.000000 0.000000 
#    y 0.000000 3.127790 0.000000 
#    z 0.000000 0.000000 3.830910 
# 
# 
# High freq. dielectric constant tensor:
#      x y z
#    x 1.692030 0.000000 0.000000 
#    y 0.000000 1.684780 0.000000 
#    z 0.000000 0.000000 1.736420 
# 
# From -- ./inp_files/17412.got.cif
#   From: 2010.03.12/outbox.cif.g09.slc.cpg/sg35_9_cif.got.tgz:17412.got - 2010.04.14 02:02:04.
