data_PCOD8173094
_publ_section_title
;
Structure prediction by ZEFSAII (Michael W. Deem and Ramdas Pophale) SiO2 
 PCOD8173094
Probable space group: C M M 2
;
_chemical_formula_sum "Si O2"
_cell_formula_units_Z 64
_cell_length_a 8.953085
_cell_length_b 19.086629
_cell_length_c 20.383585
_cell_angle_alpha 90.000000
_cell_angle_beta 90.000000
_cell_angle_gamma 90.000000
_cell_volume 3483.232856
_symmetry_space_group_name_H-M "C M M 2"
_symmetry_group_IT_number 35
_symmetry_cell_setting 'orthorhombic'
loop_
_space_group_symop_operation_xyz
x,y,z
-x,-y,z
-x,y,z
x,-y,z
1/2+x,1/2+y,z
1/2-x,1/2-y,z
1/2-x,1/2+y,z
1/2+x,1/2-y,z
loop_
_atom_site_type_symbol
_atom_site_label
_atom_site_fract_x
_atom_site_fract_y
_atom_site_fract_z
Si Si1 0.677781 0.173876 0.289900
Si Si2 0.674378 0.418520 0.399728
Si Si3 0.322315 0.078260 0.171397
Si Si4 0.175092 0.320917 0.648777
Si Si5 0.169840 0.917031 0.899567
Si Si6 0.323868 0.177638 0.796927
Si Si7 0.665882 0.916813 0.027516
Si Si8 0.829434 0.419105 0.533076
O O1 0.500000 0.181142 0.291128
O O2 0.750000 0.250000 0.291246
O O3 0.729369 0.129243 0.351915
O O4 0.736059 0.133135 0.225224
O O5 0.500000 0.402420 0.390786
O O6 0.711183 0.500000 0.385685
O O7 0.722842 0.397919 0.473121
O O8 0.500000 0.074271 0.172020
O O9 0.269911 0.104918 0.099242
O O10 0.258590 0.000000 0.186595
O O11 0.250000 0.250000 0.624334
O O12 0.226305 0.340408 0.722526
O O13 0.226729 0.380743 0.598625
O O14 0.000000 0.309452 0.647029
O O15 0.268824 0.885420 0.841913
O O16 0.000000 0.892640 0.891089
O O17 0.186934 0.000000 0.895258
O O18 0.226546 0.888771 0.970178
O O19 0.500000 0.185163 0.803519
O O20 0.250000 0.250000 0.820480
O O21 0.500000 0.885297 0.016330
O O22 0.656192 0.000000 0.025809
O O23 0.814941 0.500000 0.549831
O O24 0.000000 0.399008 0.515017
#
# Coordination Sequence:
#
# PCOD8173094 Si02
#       8
#     8   8   8   8   8   8   8   8
#     4  11  22  36  54  77 107 140 174 213 258 305
#     4  10  21  37  56  79 106 136 173 214 255 304
#     4   8  15  30  54  79  99 127 171 216 257 307
#     4   9  19  34  53  76 101 132 169 210 254 305
#     4  10  20  33  50  76 108 138 172 215 259 304
#     4  10  20  35  54  75 102 137 176 215 258 308
#     4   8  14  28  51  76 100 129 169 214 258 306
#     4   9  18  34  55  78 104 134 169 209 253 301
#
# _framework density 18.373735
#
# number of rings (size 3 to 8) (size 9 to 14) (size 15 to 20)
#    0.000    2.625    0.000    2.625    0.000    4.000 
#    0.000    4.375    0.000    6.000    0.000    0.000 
#    0.000    0.000    0.000    0.000    0.000    0.000 
#
# Total GULP energy -396763.942234 kJ/mol
# GULP energy per Si atom -12398.873195 kJ/mol
# Density = 1.833192 g / cm^3
# Si number density = 18.373735 Si / 1000 Ang^3
#
#
#
# Elastic Constant Matrix: (Units=GPa)
#
#
# Indices 1 2 3 4 5 6 
#
# 1 66.9924 37.2261 43.0112 0.0000 0.0000 0.0000
# 2 37.2261 76.4206 65.7669 0.0000 0.0000 0.0000
# 3 43.0112 65.7669 130.9868 0.0000 0.0000 0.0000
# 4 0.0000 0.0000 0.0000 5.4820 0.0000 0.0000
# 5 0.0000 0.0000 0.0000 0.0000 22.5199 0.0000
# 6 0.0000 0.0000 0.0000 0.0000 0.0000 25.5685
#
#
#
# Elastic Compliance Matrix: (Units=1/GPa)
#
#
# Indices 1 2 3 4 5 6 
#
# 1 0.021169 -0.007624 -0.003123 0.000000 0.000000 0.000000
# 2 -0.007624 0.025787 -0.010444 0.000000 0.000000 0.000000
# 3 -0.003123 -0.010444 0.013904 0.000000 0.000000 0.000000
# 4 0.000000 0.000000 0.000000 0.182415 0.000000 0.000000
# 5 0.000000 0.000000 0.000000 0.000000 0.044405 0.000000
# 6 0.000000 0.000000 0.000000 0.000000 0.000000 0.039111
#
#
# Mechanical properties :
#
#
# Convention : Reuss Voigt Hill
#
# Bulk Modulus (GPa) = 54.12017 62.93423 58.52720
# Shear Modulus (GPa) = 13.32154 19.27379 16.29766
#
# Velocity S-wave (km/s) = 2.69556 3.24232 2.98150
# Velocity P-wave (km/s) = 6.26157 6.95295 6.61629
#
# Compressibility (1/GPa) = 0.01847740
#
# Stress axis : x y z
#
# Youngs Moduli (GPa) = 47.23968 38.77869 71.92320
#
# Poissons Ratio (x) = 0.29565 0.22462
# Poissons Ratio (y) = 0.36015 0.75117
# Poissons Ratio (z) = 0.14753 0.40501
#
# Static dielectric constant tensor:
#      x y z
#    x 3.332530 0.000000 0.000000 
#    y 0.000000 3.285830 0.000000 
#    z 0.000000 0.000000 3.701760 
# 
# 
# High freq. dielectric constant tensor:
#      x y z
#    x 1.704170 0.000000 0.000000 
#    y 0.000000 1.693350 0.000000 
#    z 0.000000 0.000000 1.725290 
# 
# From -- ./inp_files/18331.got.cif
#   From: 2010.03.12/outbox.cif.g09.slc.cpg/sg35_10_cif.got.tgz:18331.got - 2010.04.14 02:02:04.
