data_PCOD8173941
_publ_section_title
;
Structure prediction by ZEFSAII (Michael W. Deem and Ramdas Pophale) SiO2 
 PCOD8173941
Probable space group: C M M 2
;
_chemical_formula_sum "Si O2"
_cell_formula_units_Z 40
_cell_length_a 14.107966
_cell_length_b 17.495805
_cell_length_c 7.657560
_cell_angle_alpha 90.000000
_cell_angle_beta 90.000000
_cell_angle_gamma 90.000000
_cell_volume 1890.117235
_symmetry_space_group_name_H-M "C M M 2"
_symmetry_group_IT_number 35
_symmetry_cell_setting 'orthorhombic'
loop_
_space_group_symop_operation_xyz
x,y,z
-x,-y,z
-x,y,z
x,-y,z
1/2+x,1/2+y,z
1/2-x,1/2-y,z
1/2-x,1/2+y,z
1/2+x,1/2-y,z
loop_
_atom_site_type_symbol
_atom_site_label
_atom_site_fract_x
_atom_site_fract_y
_atom_site_fract_z
Si Si1 0.889279 0.351676 0.041340
Si Si2 0.735542 0.913314 0.754779
Si Si3 0.102836 0.086460 0.248421
Si Si4 0.697676 0.912750 0.379988
Si Si5 0.607418 0.684301 0.907051
O O1 0.855263 0.357321 0.243374
O O2 0.000000 0.369539 0.035776
O O3 0.832543 0.412080 0.923652
O O4 0.863891 0.270254 0.957023
O O5 0.672279 0.893498 0.581583
O O6 0.821673 0.852473 0.766012
O O7 0.775602 0.000000 0.737328
O O8 0.188411 0.100350 0.381338
O O9 0.000000 0.105967 0.335307
O O10 0.103657 0.000000 0.179671
O O11 0.120571 0.137442 0.081887
O O12 0.670429 0.000000 0.331477
O O13 0.500000 0.680474 0.834774
#
# Coordination Sequence:
#
# PCOD8173941 Si02
#       5
#     8   8   8   8   8
#     4  11  24  43  62  86 125 167 210 256 305 361
#     4  11  23  40  64  94 124 158 207 259 310 369
#     4   9  17  33  59  89 120 155 196 241 297 365
#     4  10  22  39  63  92 121 162 211 258 309 362
#     4  10  21  39  62  91 125 161 197 243 310 377
#
# _framework density 21.162709
#
# number of rings (size 3 to 8) (size 9 to 14) (size 15 to 20)
#    0.000    1.800    2.000    1.800    0.000    4.400 
#    7.200    4.000    0.000    0.000    0.000    0.000 
#    0.000    0.000    0.000    0.000    0.000    0.000 
#
# Total GULP energy -247910.500427 kJ/mol
# GULP energy per Si atom -12395.525021 kJ/mol
# Density = 2.111454 g / cm^3
# Si number density = 21.162709 Si / 1000 Ang^3
#
#
#
# Elastic Constant Matrix: (Units=GPa)
#
#
# Indices 1 2 3 4 5 6 
#
# 1 95.7462 34.9371 37.0143 0.0000 0.0000 0.0000
# 2 34.9371 82.5461 36.2785 0.0000 0.0000 0.0000
# 3 37.0143 36.2785 108.2117 0.0000 0.0000 0.0000
# 4 0.0000 0.0000 0.0000 11.9471 0.0000 0.0000
# 5 0.0000 0.0000 0.0000 0.0000 19.0495 0.0000
# 6 0.0000 0.0000 0.0000 0.0000 0.0000 26.7655
#
#
#
# Elastic Compliance Matrix: (Units=1/GPa)
#
#
# Indices 1 2 3 4 5 6 
#
# 1 0.013180 -0.004218 -0.003094 0.000000 0.000000 0.000000
# 2 -0.004218 0.015558 -0.003773 0.000000 0.000000 0.000000
# 3 -0.003094 -0.003773 0.011564 0.000000 0.000000 0.000000
# 4 0.000000 0.000000 0.000000 0.083702 0.000000 0.000000
# 5 0.000000 0.000000 0.000000 0.000000 0.052495 0.000000
# 6 0.000000 0.000000 0.000000 0.000000 0.000000 0.037361
#
#
# Mechanical properties :
#
#
# Convention : Reuss Voigt Hill
#
# Bulk Modulus (GPa) = 55.15297 55.88487 55.51892
# Shear Modulus (GPa) = 20.65476 23.43737 22.04606
#
# Velocity S-wave (km/s) = 3.12749 3.33150 3.23110
# Velocity P-wave (km/s) = 6.25776 6.42363 6.34124
#
# Compressibility (1/GPa) = 0.01813139
#
# Stress axis : x y z
#
# Youngs Moduli (GPa) = 75.87475 64.27535 86.47268
#
# Poissons Ratio (x) = 0.27114 0.26754
# Poissons Ratio (y) = 0.32007 0.32626
# Poissons Ratio (z) = 0.23475 0.24251
#
# Static dielectric constant tensor:
#      x y z
#    x 3.961810 0.000000 0.000000 
#    y 0.000000 4.280460 0.000000 
#    z 0.000000 0.000000 3.642580 
# 
# 
# High freq. dielectric constant tensor:
#      x y z
#    x 1.829500 0.000000 0.000000 
#    y 0.000000 1.827130 0.000000 
#    z 0.000000 0.000000 1.815530 
# 
# From -- ./inp_files/6987.got.cif
#   From: 2010.03.12/outbox.cif.g09.slc.cpg/sg35_4_cif.got.tgz:6987.got - 2010.04.14 02:02:04.
