data_PCOD8173924
_publ_section_title
;
Structure prediction by ZEFSAII (Michael W. Deem and Ramdas Pophale) SiO2 
 PCOD8173924
Probable space group: C M M 2
;
_chemical_formula_sum "Si O2"
_cell_formula_units_Z 40
_cell_length_a 20.203691
_cell_length_b 18.425846
_cell_length_c 5.099878
_cell_angle_alpha 90.000000
_cell_angle_beta 90.000000
_cell_angle_gamma 90.000000
_cell_volume 1898.532088
_symmetry_space_group_name_H-M "C M M 2"
_symmetry_group_IT_number 35
_symmetry_cell_setting 'orthorhombic'
loop_
_space_group_symop_operation_xyz
x,y,z
-x,-y,z
-x,y,z
x,-y,z
1/2+x,1/2+y,z
1/2-x,1/2-y,z
1/2-x,1/2+y,z
1/2+x,1/2-y,z
loop_
_atom_site_type_symbol
_atom_site_label
_atom_site_fract_x
_atom_site_fract_y
_atom_site_fract_z
Si Si1 0.835008 0.000000 0.976280
Si Si2 0.424711 0.639534 0.029160
Si Si3 0.858866 0.618939 0.555466
Si Si4 0.928924 0.581000 0.056284
Si Si5 0.576587 0.265739 0.533615
Si Si6 0.250948 0.000000 0.478233
O O1 0.809252 0.000000 0.679675
O O2 0.878451 0.929510 0.017881
O O3 0.773923 0.000000 0.179658
O O4 0.500000 0.613616 0.986310
O O5 0.414516 0.674307 0.312195
O O6 0.405310 0.698179 0.810097
O O7 0.907504 0.577313 0.358049
O O8 0.867761 0.703584 0.475303
O O9 0.789613 0.576536 0.525140
O O10 0.878247 0.619878 0.861763
O O11 0.935284 0.500000 0.949494
O O12 0.000000 0.621024 0.036788
O O13 0.500000 0.236186 0.533119
#
# Coordination Sequence:
#
# PCOD8173924 Si02
#       6
#     4   8   8   8   8   4
#     4  12  25  46  68  90 119 160 212 270 310 368
#     4  10  22  43  70  98 120 147 198 267 340 384
#     4  12  22  40  57  87 135 172 208 254 295 356
#     4  11  20  32  54  84 117 163 220 261 295 339
#     4  10  21  38  64  97 129 159 196 253 324 383
#     4  12  26  42  60  90 128 178 222 244 284 360
#
# _framework density 21.068909999999999
#
# number of rings (size 3 to 8) (size 9 to 14) (size 15 to 20)
#    0.000    1.000    2.000    5.700    0.000    3.200 
#    0.000   10.000    0.000    0.000    0.000    0.000 
#    0.000    0.000    0.000    0.000    0.000    0.000 
#
# Total GULP energy -247856.109203 kJ/mol
# GULP energy per Si atom -12392.805460 kJ/mol
# Density = 2.102096 g / cm^3
# Si number density = 21.068910 Si / 1000 Ang^3
#
#
#
# Elastic Constant Matrix: (Units=GPa)
#
#
# Indices 1 2 3 4 5 6 
#
# 1 77.5402 50.3945 15.3643 0.0000 0.0000 0.0000
# 2 50.3945 106.5221 2.1719 0.0000 0.0000 0.0000
# 3 15.3643 2.1719 88.9095 0.0000 0.0000 0.0000
# 4 0.0000 0.0000 0.0000 24.1088 0.0000 0.0000
# 5 0.0000 0.0000 0.0000 0.0000 36.5565 0.0000
# 6 0.0000 0.0000 0.0000 0.0000 0.0000 31.2746
#
#
#
# Elastic Compliance Matrix: (Units=1/GPa)
#
#
# Indices 1 2 3 4 5 6 
#
# 1 0.019461 -0.009143 -0.003140 0.000000 0.000000 0.000000
# 2 -0.009143 0.013688 0.001246 0.000000 0.000000 0.000000
# 3 -0.003140 0.001246 0.011760 0.000000 0.000000 0.000000
# 4 0.000000 0.000000 0.000000 0.041479 0.000000 0.000000
# 5 0.000000 0.000000 0.000000 0.000000 0.027355 0.000000
# 6 0.000000 0.000000 0.000000 0.000000 0.000000 0.031975
#
#
# Mechanical properties :
#
#
# Convention : Reuss Voigt Hill
#
# Bulk Modulus (GPa) = 43.79360 45.42591 44.60976
# Shear Modulus (GPa) = 28.50616 32.05738 30.28177
#
# Velocity S-wave (km/s) = 3.68230 3.90494 3.79525
# Velocity P-wave (km/s) = 6.23780 6.47602 6.35802
#
# Compressibility (1/GPa) = 0.02283439
#
# Stress axis : x y z
#
# Youngs Moduli (GPa) = 51.38610 73.05897 85.03757
#
# Poissons Ratio (x) = 0.66795 0.26698
# Poissons Ratio (y) = 0.46980 -0.10592
# Poissons Ratio (z) = 0.16133 -0.09100
#
# Static dielectric constant tensor:
#      x y z
#    x 3.661260 0.000000 0.000000 
#    y 0.000000 3.753320 0.000000 
#    z 0.000000 0.000000 3.981910 
# 
# 
# High freq. dielectric constant tensor:
#      x y z
#    x 1.796940 0.000000 0.000000 
#    y 0.000000 1.824830 0.000000 
#    z 0.000000 0.000000 1.849410 
# 
# From -- ./inp_files/2365.got.cif
#   From: 2010.03.12/outbox.cif.g09.slc.cpg/sg35_2_cif.got.tgz:2365.got - 2010.04.14 02:02:04.
