data_PCOD8173558
_publ_section_title
;
Structure prediction by ZEFSAII (Michael W. Deem and Ramdas Pophale) SiO2 
 PCOD8173558
Probable space group: C M M 2
;
_chemical_formula_sum "Si O2"
_cell_formula_units_Z 48
_cell_length_a 8.819379
_cell_length_b 15.871003
_cell_length_c 16.896618
_cell_angle_alpha 90.000000
_cell_angle_beta 90.000000
_cell_angle_gamma 90.000000
_cell_volume 2365.060014
_symmetry_space_group_name_H-M "C M M 2"
_symmetry_group_IT_number 35
_symmetry_cell_setting 'orthorhombic'
loop_
_space_group_symop_operation_xyz
x,y,z
-x,-y,z
-x,y,z
x,-y,z
1/2+x,1/2+y,z
1/2-x,1/2-y,z
1/2-x,1/2+y,z
1/2+x,1/2-y,z
loop_
_atom_site_type_symbol
_atom_site_label
_atom_site_fract_x
_atom_site_fract_y
_atom_site_fract_z
Si Si1 0.669726 0.905016 0.514460
Si Si2 0.321973 0.662411 0.368441
Si Si3 0.320496 0.163167 0.679387
Si Si4 0.179350 0.093601 0.203614
Si Si5 0.679590 0.000000 0.953063
Si Si6 0.180008 0.161742 0.037122
Si Si7 0.178746 0.500000 0.770149
O O1 0.500000 0.878038 0.488421
O O2 0.779994 0.900793 0.438999
O O3 0.726611 0.847934 0.587360
O O4 0.669377 0.000000 0.546739
O O5 0.500000 0.670858 0.361353
O O6 0.250000 0.750000 0.393112
O O7 0.252435 0.631785 0.284612
O O8 0.500000 0.167881 0.688725
O O9 0.250000 0.250000 0.711753
O O10 0.254247 0.084879 0.730145
O O11 0.225725 0.151131 0.129361
O O12 0.000000 0.087414 0.211017
O O13 0.247021 0.000000 0.191130
O O14 0.500000 0.000000 0.967325
O O15 0.723978 0.000000 0.861517
O O16 0.750707 0.084042 0.989600
O O17 0.250000 0.250000 0.006809
O O18 0.000000 0.162443 0.024866
O O19 0.000000 0.500000 0.757522
#
# Coordination Sequence:
#
# PCOD8173558 Si02
#       7
#     8   8   8   8   4   8   4
#     4  10  20  36  58  82 113 153 196 240 292 350
#     4  11  22  35  53  79 115 154 197 245 292 343
#     4  10  20  38  62  87 116 156 196 238 291 349
#     4   9  18  35  58  82 112 154 198 243 295 347
#     4  11  23  41  65  94 123 156 200 249 305 369
#     4  11  22  40  65  91 124 163 203 249 302 360
#     4   9  20  41  65  86 117 156 192 237 297 359
#
# _framework density 20.295468
#
# number of rings (size 3 to 8) (size 9 to 14) (size 15 to 20)
#    0.000    1.833    1.667    2.750    0.000    3.667 
#    0.000    6.250    0.000    0.000    0.000    0.000 
#    0.000    0.000    0.000    0.000    0.000    0.000 
#
# Total GULP energy -297608.348553 kJ/mol
# GULP energy per Si atom -12400.347856 kJ/mol
# Density = 2.024927 g / cm^3
# Si number density = 20.295468 Si / 1000 Ang^3
#
#
#
# Elastic Constant Matrix: (Units=GPa)
#
#
# Indices 1 2 3 4 5 6 
#
# 1 62.4551 39.8279 44.8686 0.0000 0.0000 0.0000
# 2 39.8279 160.7163 66.8918 0.0000 0.0000 0.0000
# 3 44.8686 66.8918 128.7096 0.0000 0.0000 0.0000
# 4 0.0000 0.0000 0.0000 20.9416 0.0000 0.0000
# 5 0.0000 0.0000 0.0000 0.0000 22.7653 0.0000
# 6 0.0000 0.0000 0.0000 0.0000 0.0000 31.4123
#
#
#
# Elastic Compliance Matrix: (Units=1/GPa)
#
#
# Indices 1 2 3 4 5 6 
#
# 1 0.022396 -0.002936 -0.006282 0.000000 0.000000 0.000000
# 2 -0.002936 0.008324 -0.003303 0.000000 0.000000 0.000000
# 3 -0.006282 -0.003303 0.011676 0.000000 0.000000 0.000000
# 4 0.000000 0.000000 0.000000 0.047752 0.000000 0.000000
# 5 0.000000 0.000000 0.000000 0.000000 0.043926 0.000000
# 6 0.000000 0.000000 0.000000 0.000000 0.000000 0.031835
#
#
# Mechanical properties :
#
#
# Convention : Reuss Voigt Hill
#
# Bulk Modulus (GPa) = 57.61690 72.78417 65.20054
# Shear Modulus (GPa) = 25.41480 28.37667 26.89574
#
# Velocity S-wave (km/s) = 3.54254 3.74328 3.64429
# Velocity P-wave (km/s) = 6.72186 7.39074 7.06422
#
# Compressibility (1/GPa) = 0.01735602
#
# Stress axis : x y z
#
# Youngs Moduli (GPa) = 44.64984 120.12977 85.64707
#
# Poissons Ratio (x) = 0.35266 0.53802
# Poissons Ratio (y) = 0.13108 0.28288
# Poissons Ratio (z) = 0.28048 0.39677
#
# Static dielectric constant tensor:
#      x y z
#    x 3.379490 0.000000 0.000000 
#    y 0.000000 3.829760 0.000000 
#    z 0.000000 0.000000 3.739080 
# 
# 
# High freq. dielectric constant tensor:
#      x y z
#    x 1.763780 0.000000 0.000000 
#    y 0.000000 1.807610 0.000000 
#    z 0.000000 0.000000 1.795330 
# 
# From -- ./inp_files/17837.got.cif
#   From: 2010.03.12/outbox.cif.g09.slc.cpg/sg35_9_cif.got.tgz:17837.got - 2010.04.14 02:02:04.
