data_PCOD8173903
_publ_section_title
;
Structure prediction by ZEFSAII (Michael W. Deem and Ramdas Pophale) SiO2 
 PCOD8173903
Probable space group: C M M 2
;
_chemical_formula_sum "Si O2"
_cell_formula_units_Z 64
_cell_length_a 29.569536
_cell_length_b 8.715621
_cell_length_c 12.160678
_cell_angle_alpha 90.000000
_cell_angle_beta 90.000000
_cell_angle_gamma 90.000000
_cell_volume 3134.011858
_symmetry_space_group_name_H-M "C M M 2"
_symmetry_group_IT_number 35
_symmetry_cell_setting 'orthorhombic'
loop_
_space_group_symop_operation_xyz
x,y,z
-x,-y,z
-x,y,z
x,-y,z
1/2+x,1/2+y,z
1/2-x,1/2-y,z
1/2-x,1/2+y,z
1/2+x,1/2-y,z
loop_
_atom_site_type_symbol
_atom_site_label
_atom_site_fract_x
_atom_site_fract_y
_atom_site_fract_z
Si Si1 0.798718 0.322633 0.780920
Si Si2 0.373277 0.820699 0.150124
Si Si3 0.552792 0.677858 0.004308
Si Si4 0.373874 0.679764 0.386245
Si Si5 0.448683 0.321231 0.559466
Si Si6 0.053640 0.329358 0.781247
Si Si7 0.299864 0.319202 0.998018
Si Si8 0.799682 0.320402 0.538175
O O1 0.794533 0.500000 0.811515
O O2 0.750000 0.250000 0.772057
O O3 0.821381 0.299079 0.661010
O O4 0.823425 0.238613 0.883370
O O5 0.420465 0.774466 0.094405
O O6 0.376298 0.778926 0.277178
O O7 0.331099 0.731278 0.098444
O O8 0.365020 0.000000 0.135794
O O9 0.500000 0.714225 0.020613
O O10 0.563756 0.500000 0.021280
O O11 0.569541 0.725229 0.882815
O O12 0.371850 0.500000 0.358187
O O13 0.418648 0.722264 0.454862
O O14 0.329736 0.726447 0.453612
O O15 0.500000 0.268421 0.534036
O O16 0.446730 0.500000 0.585980
O O17 0.428202 0.237456 0.666568
O O18 0.073871 0.500000 0.797061
O O19 0.000000 0.332952 0.776796
O O20 0.296039 0.500000 0.996773
O O21 0.250000 0.250000 0.013283
O O22 0.797889 0.500000 0.507202
O O23 0.750000 0.250000 0.531584
#
# Coordination Sequence:
#
# PCOD8173903 Si02
#       8
#     8   8   8   8   8   8   8   8
#     4   9  17  32  56  87 120 152 189 234 287 347
#     4  12  26  43  61  84 116 153 199 248 293 345
#     4  10  21  39  63  89 119 155 194 238 291 349
#     4  11  24  41  60  84 114 151 199 246 289 343
#     4   9  19  37  60  85 116 154 193 236 287 343
#     4   9  17  31  55  88 122 153 189 235 287 343
#     4  11  22  39  63  90 121 155 194 239 292 349
#     4  10  21  38  61  88 119 154 191 235 288 344
#
# _framework density 20.421111
#
# number of rings (size 3 to 8) (size 9 to 14) (size 15 to 20)
#    0.000    1.875    0.000    4.875    0.000    6.750 
#    0.000    6.250    0.000    0.000    0.000    0.000 
#    0.000    0.000    0.000    0.000    0.000    0.000 
#
# Total GULP energy -396793.091321 kJ/mol
# GULP energy per Si atom -12399.784104 kJ/mol
# Density = 2.037463 g / cm^3
# Si number density = 20.421111 Si / 1000 Ang^3
#
#
#
# Elastic Constant Matrix: (Units=GPa)
#
#
# Indices 1 2 3 4 5 6 
#
# 1 81.5754 34.9078 46.6420 0.0000 0.0000 0.0000
# 2 34.9078 120.9387 48.2641 0.0000 0.0000 0.0000
# 3 46.6420 48.2641 136.2065 0.0000 0.0000 0.0000
# 4 0.0000 0.0000 0.0000 39.7488 0.0000 0.0000
# 5 0.0000 0.0000 0.0000 0.0000 32.6551 0.0000
# 6 0.0000 0.0000 0.0000 0.0000 0.0000 27.7260
#
#
#
# Elastic Compliance Matrix: (Units=1/GPa)
#
#
# Indices 1 2 3 4 5 6 
#
# 1 0.016039 -0.002839 -0.004486 0.000000 0.000000 0.000000
# 2 -0.002839 0.010133 -0.002618 0.000000 0.000000 0.000000
# 3 -0.004486 -0.002618 0.009806 0.000000 0.000000 0.000000
# 4 0.000000 0.000000 0.000000 0.025158 0.000000 0.000000
# 5 0.000000 0.000000 0.000000 0.000000 0.030623 0.000000
# 6 0.000000 0.000000 0.000000 0.000000 0.000000 0.036067
#
#
# Mechanical properties :
#
#
# Convention : Reuss Voigt Hill
#
# Bulk Modulus (GPa) = 62.14963 66.48316 64.31639
# Shear Modulus (GPa) = 32.66344 33.95310 33.30827
#
# Velocity S-wave (km/s) = 4.00371 4.08198 4.04303
# Velocity P-wave (km/s) = 7.20229 7.40564 7.30467
#
# Compressibility (1/GPa) = 0.01609020
#
# Stress axis : x y z
#
# Youngs Moduli (GPa) = 62.34990 98.68684 101.98002
#
# Poissons Ratio (x) = 0.28017 0.45750
# Poissons Ratio (y) = 0.17701 0.26703
# Poissons Ratio (z) = 0.27971 0.25840
#
# Static dielectric constant tensor:
#      x y z
#    x 3.581970 0.000000 0.000000 
#    y 0.000000 3.838010 0.000000 
#    z 0.000000 0.000000 3.975230 
# 
# 
# High freq. dielectric constant tensor:
#      x y z
#    x 1.789900 0.000000 0.000000 
#    y 0.000000 1.810500 0.000000 
#    z 0.000000 0.000000 1.802730 
# 
# From -- ./inp_files/14605.got.cif
#   From: 2010.03.12/outbox.cif.g09.slc.cpg/sg35_8_cif.got.tgz:14605.got - 2010.04.14 02:02:04.
