data_PCOD8173501
_publ_section_title
;
Structure prediction by ZEFSAII (Michael W. Deem and Ramdas Pophale) SiO2 
 PCOD8173501
Probable space group: C M M 2
;
_chemical_formula_sum "Si O2"
_cell_formula_units_Z 56
_cell_length_a 18.011166
_cell_length_b 15.380432
_cell_length_c 9.922051
_cell_angle_alpha 90.000000
_cell_angle_beta 90.000000
_cell_angle_gamma 90.000000
_cell_volume 2748.601745
_symmetry_space_group_name_H-M "C M M 2"
_symmetry_group_IT_number 35
_symmetry_cell_setting 'orthorhombic'
loop_
_space_group_symop_operation_xyz
x,y,z
-x,-y,z
-x,y,z
x,-y,z
1/2+x,1/2+y,z
1/2-x,1/2-y,z
1/2-x,1/2+y,z
1/2+x,1/2-y,z
loop_
_atom_site_type_symbol
_atom_site_label
_atom_site_fract_x
_atom_site_fract_y
_atom_site_fract_z
Si Si1 0.082123 0.235447 0.088370
Si Si2 0.084380 0.600167 0.265959
Si Si3 0.707638 0.096326 0.849086
Si Si4 0.793595 0.099639 0.107281
Si Si5 0.199763 0.827425 0.644249
Si Si6 0.772281 0.596656 0.396775
Si Si7 0.916476 0.726751 0.781000
O O1 0.101691 0.332325 0.144073
O O2 0.136737 0.160860 0.139882
O O3 0.000000 0.210540 0.140312
O O4 0.084019 0.231230 0.927756
O O5 0.097675 0.500000 0.214907
O O6 0.139094 0.619442 0.394916
O O7 0.000000 0.611330 0.317734
O O8 0.773183 0.092041 0.735722
O O9 0.634885 0.141987 0.788012
O O10 0.681471 0.000000 0.884346
O O11 0.743369 0.138000 0.985005
O O12 0.745252 0.104273 0.240400
O O13 0.819126 0.000000 0.076543
O O14 0.250000 0.750000 0.704650
O O15 0.220199 0.840990 0.486824
O O16 0.114787 0.798497 0.672571
O O17 0.758136 0.500000 0.452422
O O18 0.000000 0.701740 0.736263
#
# Coordination Sequence:
#
# PCOD8173501 Si02
#       7
#     8   8   8   8   8   8   8
#     4  10  20  35  59  87 120 158 192 243 311 365
#     4   9  19  35  56  89 128 158 191 243 311 382
#     4  10  20  37  61  86 116 154 194 244 300 354
#     4  10  21  36  58  89 118 150 201 255 298 355
#     4  10  21  37  57  83 112 155 198 242 284 347
#     4  10  21  36  57  85 116 152 196 244 294 353
#     4  10  21  37  57  86 121 155 197 244 297 365
#
# _framework density 20.373996000000002
#
# number of rings (size 3 to 8) (size 9 to 14) (size 15 to 20)
#    0.000    2.143    1.429    1.286    2.000    3.429 
#    0.000    5.000    0.000    6.000    0.000    0.000 
#    0.000    0.000    0.000    0.000    0.000    0.000 
#
# Total GULP energy -346924.295932 kJ/mol
# GULP energy per Si atom -12390.153426 kJ/mol
# Density = 2.032762 g / cm^3
# Si number density = 20.373996 Si / 1000 Ang^3
#
#
#
# Elastic Constant Matrix: (Units=GPa)
#
#
# Indices 1 2 3 4 5 6 
#
# 1 142.6373 65.2243 42.7833 0.0000 0.0000 0.0000
# 2 65.2243 85.1921 26.9547 0.0000 0.0000 0.0000
# 3 42.7833 26.9547 94.9598 0.0000 0.0000 0.0000
# 4 0.0000 0.0000 0.0000 30.8637 0.0000 0.0000
# 5 0.0000 0.0000 0.0000 0.0000 28.7883 0.0000
# 6 0.0000 0.0000 0.0000 0.0000 0.0000 28.1798
#
#
#
# Elastic Compliance Matrix: (Units=1/GPa)
#
#
# Indices 1 2 3 4 5 6 
#
# 1 0.011491 -0.007866 -0.002944 0.000000 0.000000 0.000000
# 2 -0.007866 0.018281 -0.001645 0.000000 0.000000 0.000000
# 3 -0.002944 -0.001645 0.012324 0.000000 0.000000 0.000000
# 4 0.000000 0.000000 0.000000 0.032401 0.000000 0.000000
# 5 0.000000 0.000000 0.000000 0.000000 0.034736 0.000000
# 6 0.000000 0.000000 0.000000 0.000000 0.000000 0.035486
#
#
# Mechanical properties :
#
#
# Convention : Reuss Voigt Hill
#
# Bulk Modulus (GPa) = 58.18957 65.85707 62.02332
# Shear Modulus (GPa) = 28.51300 30.08816 29.30058
#
# Velocity S-wave (km/s) = 3.74502 3.84707 3.79639
# Velocity P-wave (km/s) = 6.87917 7.21994 7.05161
#
# Compressibility (1/GPa) = 0.01718521
#
# Stress axis : x y z
#
# Youngs Moduli (GPa) = 87.02608 54.70161 81.14060
#
# Poissons Ratio (x) = 0.43028 0.23890
# Poissons Ratio (y) = 0.68454 0.13349
# Poissons Ratio (z) = 0.25623 0.08999
#
# Static dielectric constant tensor:
#      x y z
#    x 3.902260 0.000000 0.000000 
#    y 0.000000 3.710610 0.000000 
#    z 0.000000 0.000000 3.435430 
# 
# 
# High freq. dielectric constant tensor:
#      x y z
#    x 1.792610 0.000000 0.000000 
#    y 0.000000 1.788780 0.000000 
#    z 0.000000 0.000000 1.780510 
# 
# From -- ./inp_files/9282.got.cif
#   From: 2010.03.12/outbox.cif.g09.slc.cpg/sg35_5_cif.got.tgz:9282.got - 2010.04.14 02:02:04.
