data_PCOD8173029
_publ_section_title
;
Structure prediction by ZEFSAII (Michael W. Deem and Ramdas Pophale) SiO2 
 PCOD8173029
Probable space group: C M M 2
;
_chemical_formula_sum "Si O2"
_cell_formula_units_Z 64
_cell_length_a 18.339008
_cell_length_b 20.861837
_cell_length_c 9.138705
_cell_angle_alpha 90.000000
_cell_angle_beta 90.000000
_cell_angle_gamma 90.000000
_cell_volume 3496.335068
_symmetry_space_group_name_H-M "C M M 2"
_symmetry_group_IT_number 35
_symmetry_cell_setting 'orthorhombic'
loop_
_space_group_symop_operation_xyz
x,y,z
-x,-y,z
-x,y,z
x,-y,z
1/2+x,1/2+y,z
1/2-x,1/2-y,z
1/2-x,1/2+y,z
1/2+x,1/2-y,z
loop_
_atom_site_type_symbol
_atom_site_label
_atom_site_fract_x
_atom_site_fract_y
_atom_site_fract_z
Si Si1 0.920438 0.426246 0.628600
Si Si2 0.582490 0.737150 0.391702
Si Si3 0.583917 0.271388 0.731712
Si Si4 0.788272 0.819435 0.245235
Si Si5 0.582989 0.137984 0.195282
Si Si6 0.362750 0.856005 0.876498
Si Si7 0.212111 0.181265 0.910281
Si Si8 0.684861 0.073334 0.381347
O O1 0.929233 0.500000 0.595305
O O2 0.901692 0.416436 0.800370
O O3 0.852523 0.400811 0.531907
O O4 0.000000 0.393799 0.589985
O O5 0.500000 0.714124 0.368900
O O6 0.602421 0.740278 0.562475
O O7 0.633126 0.683163 0.321028
O O8 0.595092 0.804820 0.310825
O O9 0.500000 0.294191 0.754973
O O10 0.596834 0.203987 0.806225
O O11 0.639448 0.322324 0.808971
O O12 0.750000 0.750000 0.263202
O O13 0.745692 0.876357 0.328495
O O14 0.804614 0.837912 0.077348
O O15 0.500000 0.124768 0.155739
O O16 0.618646 0.074284 0.263822
O O17 0.627077 0.153069 0.048861
O O18 0.275942 0.864175 0.845947
O O19 0.250000 0.250000 0.906499
O O20 0.715011 0.000000 0.392856
#
# Coordination Sequence:
#
# PCOD8173029 Si02
#       8
#     8   8   8   8   8   8   8   8
#     4  10  22  38  53  73 108 152 194 231 272 329
#     4  10  21  34  55  85 114 144 187 235 284 335
#     4  10  20  32  50  81 113 142 178 225 280 337
#     4  11  20  37  58  82 111 146 187 234 281 333
#     4  11  20  34  55  80 114 154 189 228 276 328
#     4  11  20  34  50  77 109 148 189 226 271 324
#     4   9  19  33  50  75 108 143 179 225 277 328
#     4  11  23  38  56  81 113 150 190 235 281 335
#
# _framework density 18.304881999999999
#
# number of rings (size 3 to 8) (size 9 to 14) (size 15 to 20)
#    0.000    1.625    2.500    3.750    1.750    4.250 
#    0.000    0.000    0.000    0.375    0.000    0.000 
#    0.000    0.500    0.000    0.000    0.000    0.000 
#
# Total GULP energy -396480.374852 kJ/mol
# GULP energy per Si atom -12390.011714 kJ/mol
# Density = 1.826322 g / cm^3
# Si number density = 18.304882 Si / 1000 Ang^3
#
#
#
# Elastic Constant Matrix: (Units=GPa)
#
#
# Indices 1 2 3 4 5 6 
#
# 1 90.9595 25.3863 42.6187 0.0000 0.0000 0.0000
# 2 25.3863 47.1091 23.2369 0.0000 0.0000 0.0000
# 3 42.6187 23.2369 116.4138 0.0000 0.0000 0.0000
# 4 0.0000 0.0000 0.0000 61.3422 0.0000 0.0000
# 5 0.0000 0.0000 0.0000 0.0000 33.9719 0.0000
# 6 0.0000 0.0000 0.0000 0.0000 0.0000 20.1273
#
#
#
# Elastic Compliance Matrix: (Units=1/GPa)
#
#
# Indices 1 2 3 4 5 6 
#
# 1 0.014567 -0.005789 -0.004177 0.000000 0.000000 0.000000
# 2 -0.005789 0.025846 -0.003040 0.000000 0.000000 0.000000
# 3 -0.004177 -0.003040 0.010726 0.000000 0.000000 0.000000
# 4 0.000000 0.000000 0.000000 0.016302 0.000000 0.000000
# 5 0.000000 0.000000 0.000000 0.000000 0.029436 0.000000
# 6 0.000000 0.000000 0.000000 0.000000 0.000000 0.049684
#
#
# Mechanical properties :
#
#
# Convention : Reuss Voigt Hill
#
# Bulk Modulus (GPa) = 39.79812 48.55179 44.17495
# Shear Modulus (GPa) = 27.63199 33.97097 30.80148
#
# Velocity S-wave (km/s) = 3.88950 4.31262 4.10651
# Velocity P-wave (km/s) = 6.47765 7.16797 6.83154
#
# Compressibility (1/GPa) = 0.02512682
#
# Stress axis : x y z
#
# Youngs Moduli (GPa) = 68.64850 38.69000 93.23081
#
# Poissons Ratio (x) = 0.22399 0.38945
# Poissons Ratio (y) = 0.39743 0.28339
# Poissons Ratio (z) = 0.28677 0.11760
#
# Static dielectric constant tensor:
#      x y z
#    x 4.085990 0.000000 0.000000 
#    y 0.000000 1.800640 0.000000 
#    z 0.000000 0.000000 3.812190 
# 
# 
# High freq. dielectric constant tensor:
#      x y z
#    x 1.717270 0.000000 0.000000 
#    y 0.000000 1.653840 0.000000 
#    z 0.000000 0.000000 1.727400 
# 
# From -- ./inp_files/8730.got.cif
#   From: 2010.03.12/outbox.cif.g09.slc.cpg/sg35_5_cif.got.tgz:8730.got - 2010.04.14 02:02:04.
