data_PCOD8173716
_publ_section_title
;
Structure prediction by ZEFSAII (Michael W. Deem and Ramdas Pophale) SiO2 
 PCOD8173716
Probable space group: C M M 2
;
_chemical_formula_sum "Si O2"
_cell_formula_units_Z 48
_cell_length_a 15.019103
_cell_length_b 8.488411
_cell_length_c 18.969950
_cell_angle_alpha 90.000000
_cell_angle_beta 90.000000
_cell_angle_gamma 90.000000
_cell_volume 2418.447039
_symmetry_space_group_name_H-M "C M M 2"
_symmetry_group_IT_number 35
_symmetry_cell_setting 'orthorhombic'
loop_
_space_group_symop_operation_xyz
x,y,z
-x,-y,z
-x,y,z
x,-y,z
1/2+x,1/2+y,z
1/2-x,1/2-y,z
1/2-x,1/2+y,z
1/2+x,1/2-y,z
loop_
_atom_site_type_symbol
_atom_site_label
_atom_site_fract_x
_atom_site_fract_y
_atom_site_fract_z
Si Si1 0.500000 0.816520 0.203110
Si Si2 0.000000 0.186297 0.840456
Si Si3 0.901015 0.686529 0.597757
Si Si4 0.648762 0.313737 0.105843
Si Si5 0.000000 0.186715 0.998699
Si Si6 0.500000 0.682776 0.355187
Si Si7 0.842473 0.686357 0.748259
Si Si8 0.842715 0.686816 0.446010
O O1 0.408177 0.742346 0.173365
O O2 0.500000 0.789586 0.286189
O O3 0.500000 0.000000 0.185537
O O4 0.085617 0.247516 0.800932
O O5 0.000000 0.000000 0.841793
O O6 0.000000 0.255564 0.919829
O O7 0.905924 0.500000 0.602235
O O8 0.855604 0.753224 0.668731
O O9 0.848600 0.739249 0.528003
O O10 0.000000 0.757468 0.593338
O O11 0.655946 0.500000 0.108586
O O12 0.750000 0.250000 0.104261
O O13 0.590570 0.255893 0.038144
O O14 0.000000 0.000000 0.998176
O O15 0.500000 0.500000 0.333947
O O16 0.584875 0.722567 0.401535
O O17 0.846714 0.500000 0.749236
O O18 0.750000 0.750000 0.777729
O O19 0.854114 0.500000 0.436864
O O20 0.750000 0.750000 0.416145
#
# Coordination Sequence:
#
# PCOD8173716 Si02
#       8
#     4   4   8   8   4   4   8   8
#     4  11  23  41  64  92 122 157 195 237 286 340
#     4  11  22  39  59  85 119 157 198 243 294 350
#     4   9  17  34  59  82 110 149 194 247 302 353
#     4  10  20  39  65  94 123 155 192 236 285 341
#     4   8  19  38  60  86 122 158 194 240 288 340
#     4  12  25  42  61  87 121 158 197 240 290 348
#     4  11  22  38  58  83 115 154 199 248 301 355
#     4  11  22  39  61  86 116 153 196 246 300 354
#
# _framework density 19.847448
#
# number of rings (size 3 to 8) (size 9 to 14) (size 15 to 20)
#    0.000    1.667    1.667    4.250    0.000    1.333 
#    0.000   13.333    0.000    0.000    0.000    0.000 
#    0.000    0.000    0.000    0.000    0.000    0.000 
#
# Total GULP energy -297567.534704 kJ/mol
# GULP energy per Si atom -12398.647279 kJ/mol
# Density = 1.980227 g / cm^3
# Si number density = 19.847448 Si / 1000 Ang^3
#
#
#
# Elastic Constant Matrix: (Units=GPa)
#
#
# Indices 1 2 3 4 5 6 
#
# 1 185.7572 34.5325 61.8602 0.0000 0.0000 0.0000
# 2 34.5325 73.1912 25.8419 0.0000 0.0000 0.0000
# 3 61.8602 25.8419 132.5746 0.0000 0.0000 0.0000
# 4 0.0000 0.0000 0.0000 25.3070 0.0000 0.0000
# 5 0.0000 0.0000 0.0000 0.0000 415.8368 0.0000
# 6 0.0000 0.0000 0.0000 0.0000 0.0000 34.1496
#
#
#
# Elastic Compliance Matrix: (Units=1/GPa)
#
#
# Indices 1 2 3 4 5 6 
#
# 1 0.006690 -0.002206 -0.002691 0.000000 0.000000 0.000000
# 2 -0.002206 0.015400 -0.001972 0.000000 0.000000 0.000000
# 3 -0.002691 -0.001972 0.009183 0.000000 0.000000 0.000000
# 4 0.000000 0.000000 0.000000 0.039515 0.000000 0.000000
# 5 0.000000 0.000000 0.000000 0.000000 0.002405 0.000000
# 6 0.000000 0.000000 0.000000 0.000000 0.000000 0.029283
#
#
# Mechanical properties :
#
#
# Convention : Reuss Voigt Hill
#
# Bulk Modulus (GPa) = 57.03482 70.66579 63.85030
# Shear Modulus (GPa) = 40.96346 113.01125 76.98735
#
# Velocity S-wave (km/s) = 4.54796 7.55404 6.23488
# Velocity P-wave (km/s) = 7.50850 10.57197 9.16908
#
# Compressibility (1/GPa) = 0.01753315
#
# Stress axis : x y z
#
# Youngs Moduli (GPa) = 149.48163 64.93457 108.89364
#
# Poissons Ratio (x) = 0.14325 0.29309
# Poissons Ratio (y) = 0.32976 0.21479
# Poissons Ratio (z) = 0.40233 0.12808
#
# Static dielectric constant tensor:
#      x y z
#    x 2.272630 0.000000 0.000000 
#    y 0.000000 3.460430 0.000000 
#    z 0.000000 0.000000 3.825510 
# 
# 
# High freq. dielectric constant tensor:
#      x y z
#    x 1.788500 0.000000 0.000000 
#    y 0.000000 1.763690 0.000000 
#    z 0.000000 0.000000 1.774700 
# 
# From -- ./inp_files/18839.got.cif
#   From: 2010.03.12/outbox.cif.g09.slc.cpg/sg35_10_cif.got.tgz:18839.got - 2010.04.14 02:02:04.
