data_PCOD8173745
_publ_section_title
;
Structure prediction by ZEFSAII (Michael W. Deem and Ramdas Pophale) SiO2 
 PCOD8173745
Probable space group: C M M 2
;
_chemical_formula_sum "Si O2"
_cell_formula_units_Z 64
_cell_length_a 24.241423
_cell_length_b 14.699624
_cell_length_c 9.331110
_cell_angle_alpha 90.000000
_cell_angle_beta 90.000000
_cell_angle_gamma 90.000000
_cell_volume 3325.045902
_symmetry_space_group_name_H-M "C M M 2"
_symmetry_group_IT_number 35
_symmetry_cell_setting 'orthorhombic'
loop_
_space_group_symop_operation_xyz
x,y,z
-x,-y,z
-x,y,z
x,-y,z
1/2+x,1/2+y,z
1/2-x,1/2-y,z
1/2-x,1/2+y,z
1/2+x,1/2-y,z
loop_
_atom_site_type_symbol
_atom_site_label
_atom_site_fract_x
_atom_site_fract_y
_atom_site_fract_z
Si Si1 0.373418 0.893329 0.045750
Si Si2 0.873418 0.606671 0.713506
Si Si3 0.352460 0.398927 0.549601
Si Si4 0.768738 0.607955 0.220733
Si Si5 0.647540 0.398927 0.209655
Si Si6 0.563169 0.751437 0.546464
Si Si7 0.436831 0.751437 0.212792
Si Si8 0.768738 0.392045 0.538522
O O1 0.315544 0.858390 0.111812
O O2 0.423365 0.842624 0.124902
O O3 0.382061 0.000000 0.071797
O O4 0.373596 0.868178 0.879628
O O5 0.882061 0.500000 0.687458
O O6 0.923365 0.657376 0.634354
O O7 0.815545 0.641610 0.647443
O O8 0.362421 0.500000 0.615327
O O9 0.355503 0.406275 0.379628
O O10 0.399373 0.330960 0.607109
O O11 0.291796 0.359916 0.592833
O O12 0.767194 0.500000 0.229367
O O13 0.708204 0.640084 0.166422
O O14 0.781736 0.647652 0.379628
O O15 0.637579 0.500000 0.143928
O O16 0.600627 0.330960 0.152147
O O17 0.500000 0.724245 0.572880
O O18 0.574957 0.770421 0.379628
O O19 0.500000 0.724245 0.186376
O O20 0.767194 0.500000 0.529889
#
# Coordination Sequence:
#
# PCOD8173745 Si02
#       8
#     8   8   8   8   8   8   8   8
#     4  10  21  36  53  73 100 134 169 209 257 303
#     4  10  21  36  53  73 100 134 169 209 257 303
#     4   8  15  30  53  80 107 133 162 200 248 299
#     4   8  14  28  52  78 102 129 162 201 247 301
#     4   8  15  30  53  80 107 133 162 200 248 299
#     4  10  21  35  52  76 103 133 172 212 247 290
#     4  10  21  35  52  76 103 133 172 212 247 290
#     4   8  14  28  52  78 102 129 162 201 247 301
#
# _framework density 19.247855000000001
#
# number of rings (size 3 to 8) (size 9 to 14) (size 15 to 20)
#    0.000    3.000    0.000    2.250    0.000    4.000 
#    0.000   11.250    0.000    2.250    0.000    1.750 
#    0.000    0.000    0.000    0.000    0.000    0.000 
#
# Total GULP energy -396709.085594 kJ/mol
# GULP energy per Si atom -12397.158925 kJ/mol
# Density = 1.920405 g / cm^3
# Si number density = 19.247855 Si / 1000 Ang^3
#
#
#
# Elastic Constant Matrix: (Units=GPa)
#
#
# Indices 1 2 3 4 5 6 
#
# 1 107.1356 31.0775 39.3898 0.0000 0.0000 0.0000
# 2 31.0775 53.1563 31.4600 0.0000 0.0000 0.0000
# 3 39.3898 31.4600 68.4347 0.0000 0.0000 0.0000
# 4 0.0000 0.0000 0.0000 16.1339 0.0000 0.0000
# 5 0.0000 0.0000 0.0000 0.0000 1.9474 0.0000
# 6 0.0000 0.0000 0.0000 0.0000 0.0000 34.1176
#
#
#
# Elastic Compliance Matrix: (Units=1/GPa)
#
#
# Indices 1 2 3 4 5 6 
#
# 1 0.012482 -0.004184 -0.005261 0.000000 0.000000 0.000000
# 2 -0.004184 0.027246 -0.010117 0.000000 0.000000 0.000000
# 3 -0.005261 -0.010117 0.022292 0.000000 0.000000 0.000000
# 4 0.000000 0.000000 0.000000 0.061981 0.000000 0.000000
# 5 0.000000 0.000000 0.000000 0.000000 0.513495 0.000000
# 6 0.000000 0.000000 0.000000 0.000000 0.000000 0.029310
#
#
# Mechanical properties :
#
#
# Convention : Reuss Voigt Hill
#
# Bulk Modulus (GPa) = 43.67637 48.06459 45.87048
# Shear Modulus (GPa) = 7.00710 18.89307 12.95008
#
# Velocity S-wave (km/s) = 1.91007 3.13640 2.59667
# Velocity P-wave (km/s) = 5.25407 6.17589 5.73354
#
# Compressibility (1/GPa) = 0.02289567
#
# Stress axis : x y z
#
# Youngs Moduli (GPa) = 80.11624 36.70231 44.85998
#
# Poissons Ratio (x) = 0.15355 0.23601
# Poissons Ratio (y) = 0.33519 0.45386
# Poissons Ratio (z) = 0.42149 0.37132
#
# Static dielectric constant tensor:
#      x y z
#    x 3.689870 0.000000 0.000000 
#    y 0.000000 3.577050 0.000000 
#    z 0.000000 0.000000 3.214870 
# 
# 
# High freq. dielectric constant tensor:
#      x y z
#    x 1.751530 0.000000 0.000000 
#    y 0.000000 1.744780 0.000000 
#    z 0.000000 0.000000 1.707300 
# 
# From -- ./inp_files/7892.got.cif
#   From: 2010.03.12/outbox.cif.g09.slc.cpg/sg35_4_cif.got.tgz:7892.got - 2010.04.14 02:02:04.
