data_PCOD8173101
_publ_section_title
;
Structure prediction by ZEFSAII (Michael W. Deem and Ramdas Pophale) SiO2 
 PCOD8173101
Probable space group: C M M 2
;
_chemical_formula_sum "Si O2"
_cell_formula_units_Z 64
_cell_length_a 9.283306
_cell_length_b 18.338093
_cell_length_c 20.459552
_cell_angle_alpha 90.000000
_cell_angle_beta 90.000000
_cell_angle_gamma 90.000000
_cell_volume 3482.995848
_symmetry_space_group_name_H-M "C M M 2"
_symmetry_group_IT_number 35
_symmetry_cell_setting 'orthorhombic'
loop_
_space_group_symop_operation_xyz
x,y,z
-x,-y,z
-x,y,z
x,-y,z
1/2+x,1/2+y,z
1/2-x,1/2-y,z
1/2-x,1/2+y,z
1/2+x,1/2-y,z
loop_
_atom_site_type_symbol
_atom_site_label
_atom_site_fract_x
_atom_site_fract_y
_atom_site_fract_z
Si Si1 0.670931 0.582017 0.815310
Si Si2 0.831312 0.083690 0.563892
Si Si3 0.166601 0.584005 0.438372
Si Si4 0.669073 0.673864 0.938842
Si Si5 0.833223 0.678251 0.318113
Si Si6 0.169498 0.324722 0.169709
Si Si7 0.670351 0.326391 0.690594
Si Si8 0.665732 0.584536 0.068040
O O1 0.500000 0.576813 0.816964
O O2 0.735776 0.500000 0.815909
O O3 0.727076 0.626523 0.878016
O O4 0.723013 0.623709 0.750572
O O5 0.753948 0.116426 0.499716
O O6 0.782639 0.132072 0.625006
O O7 0.000000 0.089138 0.551870
O O8 0.784603 0.000000 0.577158
O O9 0.203363 0.500000 0.431327
O O10 0.216840 0.617599 0.369606
O O11 0.000000 0.599384 0.452126
O O12 0.500000 0.689365 0.932318
O O13 0.750000 0.750000 0.940899
O O14 0.706407 0.629164 0.003645
O O15 0.750000 0.750000 0.337801
O O16 0.797355 0.652850 0.244513
O O17 0.000000 0.696338 0.324747
O O18 0.250000 0.250000 0.150852
O O19 0.231200 0.390015 0.126412
O O20 0.000000 0.314402 0.156642
O O21 0.500000 0.312864 0.693264
O O22 0.750000 0.250000 0.694486
O O23 0.500000 0.597819 0.088119
O O24 0.695249 0.500000 0.053680
#
# Coordination Sequence:
#
# PCOD8173101 Si02
#       8
#     8   8   8   8   8   8   8   8
#     4   9  17  32  55  78  99 130 172 210 245 291
#     4   9  18  33  51  71  96 128 167 207 245 289
#     4   9  18  33  52  73  98 129 164 203 249 298
#     4  10  20  34  54  78 104 135 170 209 252 299
#     4   9  19  34  52  74 100 130 165 206 249 297
#     4  10  20  35  55  77 102 135 173 212 256 306
#     4  10  20  33  51  75 102 131 164 205 249 294
#     4  10  21  36  53  76 106 137 171 213 258 304
#
# _framework density 18.374984999999999
#
# number of rings (size 3 to 8) (size 9 to 14) (size 15 to 20)
#    0.000    2.500    0.000    1.875    0.000    7.250 
#    0.000    3.750    0.000    4.500    0.000    0.000 
#    0.000    0.000    0.000    0.000    0.000    0.000 
#
# Total GULP energy -396840.513979 kJ/mol
# GULP energy per Si atom -12401.266062 kJ/mol
# Density = 1.833316 g / cm^3
# Si number density = 18.374985 Si / 1000 Ang^3
#
#
#
# Elastic Constant Matrix: (Units=GPa)
#
#
# Indices 1 2 3 4 5 6 
#
# 1 45.7405 48.4967 51.7811 0.0000 0.0000 0.0000
# 2 48.4967 137.5315 86.7091 0.0000 0.0000 0.0000
# 3 51.7811 86.7091 153.7324 0.0000 0.0000 0.0000
# 4 0.0000 0.0000 0.0000 36.7187 0.0000 0.0000
# 5 0.0000 0.0000 0.0000 0.0000 24.5874 0.0000
# 6 0.0000 0.0000 0.0000 0.0000 0.0000 31.4868
#
#
#
# Elastic Compliance Matrix: (Units=1/GPa)
#
#
# Indices 1 2 3 4 5 6 
#
# 1 0.041493 -0.009032 -0.008882 0.000000 0.000000 0.000000
# 2 -0.009032 0.013249 -0.004431 0.000000 0.000000 0.000000
# 3 -0.008882 -0.004431 0.011996 0.000000 0.000000 0.000000
# 4 0.000000 0.000000 0.000000 0.027234 0.000000 0.000000
# 5 0.000000 0.000000 0.000000 0.000000 0.040671 0.000000
# 6 0.000000 0.000000 0.000000 0.000000 0.000000 0.031759
#
#
# Mechanical properties :
#
#
# Convention : Reuss Voigt Hill
#
# Bulk Modulus (GPa) = 45.35302 78.99757 62.17530
# Shear Modulus (GPa) = 22.88942 28.55974 25.72458
#
# Velocity S-wave (km/s) = 3.53325 3.94670 3.74569
# Velocity P-wave (km/s) = 6.43278 7.99086 7.25378
#
# Compressibility (1/GPa) = 0.02204925
#
# Stress axis : x y z
#
# Youngs Moduli (GPa) = 24.10031 75.47527 83.36404
#
# Poissons Ratio (x) = 0.68167 0.74043
# Poissons Ratio (y) = 0.21767 0.36937
# Poissons Ratio (z) = 0.21406 0.33442
#
# Static dielectric constant tensor:
#      x y z
#    x 3.226780 0.000000 0.000000 
#    y 0.000000 3.440920 0.000000 
#    z 0.000000 0.000000 3.674300 
# 
# 
# High freq. dielectric constant tensor:
#      x y z
#    x 1.692790 0.000000 0.000000 
#    y 0.000000 1.713570 0.000000 
#    z 0.000000 0.000000 1.728400 
# 
# From -- ./inp_files/18386.got.cif
#   From: 2010.03.12/outbox.cif.g09.slc.cpg/sg35_10_cif.got.tgz:18386.got - 2010.04.14 02:02:04.
