data_PCOD8173723
_publ_section_title
;
Structure prediction by ZEFSAII (Michael W. Deem and Ramdas Pophale) SiO2 
 PCOD8173723
Probable space group: C M M 2
;
_chemical_formula_sum "Si O2"
_cell_formula_units_Z 48
_cell_length_a 15.887616
_cell_length_b 8.680887
_cell_length_c 17.162401
_cell_angle_alpha 90.000000
_cell_angle_beta 90.000000
_cell_angle_gamma 90.000000
_cell_volume 2367.014305
_symmetry_space_group_name_H-M "C M M 2"
_symmetry_group_IT_number 35
_symmetry_cell_setting 'orthorhombic'
loop_
_space_group_symop_operation_xyz
x,y,z
-x,-y,z
-x,y,z
x,-y,z
1/2+x,1/2+y,z
1/2-x,1/2-y,z
1/2-x,1/2+y,z
1/2+x,1/2-y,z
loop_
_atom_site_type_symbol
_atom_site_label
_atom_site_fract_x
_atom_site_fract_y
_atom_site_fract_z
Si Si1 0.337555 0.678494 0.450930
Si Si2 0.000000 0.817078 0.015290
Si Si3 0.836484 0.320354 0.750373
Si Si4 0.159418 0.683634 0.925923
Si Si5 0.344624 0.318487 0.280209
Si Si6 0.594366 0.332679 0.608400
Si Si7 0.500000 0.816626 0.186202
O O1 0.332038 0.500000 0.470602
O O2 0.250000 0.750000 0.431266
O O3 0.383545 0.705471 0.367985
O O4 0.371988 0.755785 0.530617
O O5 0.000000 0.764246 0.103311
O O6 0.915563 0.751933 0.976356
O O7 0.000000 0.000000 0.008281
O O8 0.828237 0.500000 0.753642
O O9 0.750000 0.250000 0.719529
O O10 0.858838 0.261180 0.836979
O O11 0.903767 0.271412 0.685757
O O12 0.160824 0.500000 0.934307
O O13 0.250000 0.750000 0.953395
O O14 0.339757 0.500000 0.260443
O O15 0.250000 0.250000 0.267734
O O16 0.413252 0.235030 0.226764
O O17 0.500000 0.365455 0.586528
O O18 0.638255 0.500000 0.624340
O O19 0.500000 0.000000 0.177918
#
# Coordination Sequence:
#
# PCOD8173723 Si02
#       7
#     8   4   8   8   8   8   4
#     4   9  19  35  57  81 113 154 198 246 298 351
#     4  12  26  44  68  97 126 161 202 247 308 373
#     4  10  21  37  58  82 114 154 199 246 297 350
#     4  10  22  42  66  94 127 164 206 255 308 366
#     4  10  21  40  66  94 126 164 207 255 309 368
#     4  10  21  34  51  80 117 157 200 245 295 348
#     4  12  26  44  66  95 128 161 202 251 306 369
#
# _framework density 20.278711999999999
#
# number of rings (size 3 to 8) (size 9 to 14) (size 15 to 20)
#    0.000    1.833    0.000    3.500    2.333    5.667 
#    0.000    3.333    0.000    0.000    0.000    0.000 
#    0.000    0.000    0.000    0.000    0.000    0.000 
#
# Total GULP energy -297319.600246 kJ/mol
# GULP energy per Si atom -12388.316677 kJ/mol
# Density = 2.023256 g / cm^3
# Si number density = 20.278712 Si / 1000 Ang^3
#
#
#
# Elastic Constant Matrix: (Units=GPa)
#
#
# Indices 1 2 3 4 5 6 
#
# 1 106.2057 29.0123 53.5397 0.0000 0.0000 0.0000
# 2 29.0123 68.8150 26.0277 0.0000 0.0000 0.0000
# 3 53.5397 26.0277 119.7509 0.0000 0.0000 0.0000
# 4 0.0000 0.0000 0.0000 33.7399 0.0000 0.0000
# 5 0.0000 0.0000 0.0000 0.0000 36.6994 0.0000
# 6 0.0000 0.0000 0.0000 0.0000 0.0000 33.1332
#
#
#
# Elastic Compliance Matrix: (Units=1/GPa)
#
#
# Indices 1 2 3 4 5 6 
#
# 1 0.012905 -0.003550 -0.004998 0.000000 0.000000 0.000000
# 2 -0.003550 0.016810 -0.002066 0.000000 0.000000 0.000000
# 3 -0.004998 -0.002066 0.011034 0.000000 0.000000 0.000000
# 4 0.000000 0.000000 0.000000 0.029639 0.000000 0.000000
# 5 0.000000 0.000000 0.000000 0.000000 0.027248 0.000000
# 6 0.000000 0.000000 0.000000 0.000000 0.000000 0.030181
#
#
# Mechanical properties :
#
#
# Convention : Reuss Voigt Hill
#
# Bulk Modulus (GPa) = 51.22942 56.88122 54.05532
# Shear Modulus (GPa) = 32.14315 33.12728 32.63522
#
# Velocity S-wave (km/s) = 3.98561 4.04617 4.01600
# Velocity P-wave (km/s) = 6.81892 7.06677 6.94395
#
# Compressibility (1/GPa) = 0.01952003
#
# Stress axis : x y z
#
# Youngs Moduli (GPa) = 77.48826 59.48811 90.62567
#
# Poissons Ratio (x) = 0.21121 0.45296
# Poissons Ratio (y) = 0.27511 0.18726
# Poissons Ratio (z) = 0.38730 0.12292
#
# Static dielectric constant tensor:
#      x y z
#    x 3.609310 0.000000 0.000000 
#    y 0.000000 3.620390 0.000000 
#    z 0.000000 0.000000 3.986890 
# 
# 
# High freq. dielectric constant tensor:
#      x y z
#    x 1.787480 0.000000 0.000000 
#    y 0.000000 1.793550 0.000000 
#    z 0.000000 0.000000 1.807120 
# 
# From -- ./inp_files/18785.got.cif
#   From: 2010.03.12/outbox.cif.g09.slc.cpg/sg35_10_cif.got.tgz:18785.got - 2010.04.14 02:02:04.
