data_PCOD8173233
_publ_section_title
;
Structure prediction by ZEFSAII (Michael W. Deem and Ramdas Pophale) SiO2 
 PCOD8173233
Probable space group: C M M 2
;
_chemical_formula_sum "Si O2"
_cell_formula_units_Z 64
_cell_length_a 9.185336
_cell_length_b 18.646187
_cell_length_c 20.068188
_cell_angle_alpha 90.000000
_cell_angle_beta 90.000000
_cell_angle_gamma 90.000000
_cell_volume 3437.108515
_symmetry_space_group_name_H-M "C M M 2"
_symmetry_group_IT_number 35
_symmetry_cell_setting 'orthorhombic'
loop_
_space_group_symop_operation_xyz
x,y,z
-x,-y,z
-x,y,z
x,-y,z
1/2+x,1/2+y,z
1/2-x,1/2-y,z
1/2-x,1/2+y,z
1/2+x,1/2-y,z
loop_
_atom_site_type_symbol
_atom_site_label
_atom_site_fract_x
_atom_site_fract_y
_atom_site_fract_z
Si Si1 0.672567 0.580034 0.808980
Si Si2 0.829197 0.177269 0.538459
Si Si3 0.167462 0.583036 0.436365
Si Si4 0.670995 0.674395 0.931645
Si Si5 0.832051 0.680008 0.315360
Si Si6 0.171902 0.323178 0.163796
Si Si7 0.669489 0.321664 0.690549
Si Si8 0.668252 0.583150 0.061434
O O1 0.500000 0.574740 0.814800
O O2 0.739888 0.500000 0.814496
O O3 0.731641 0.630649 0.867999
O O4 0.719791 0.613335 0.737942
O O5 0.750000 0.250000 0.516331
O O6 0.770528 0.112997 0.493848
O O7 0.791420 0.157716 0.614790
O O8 0.000000 0.187372 0.527121
O O9 0.199988 0.500000 0.430442
O O10 0.208279 0.615342 0.364420
O O11 0.000000 0.599331 0.454902
O O12 0.500000 0.688942 0.925284
O O13 0.750000 0.750000 0.937082
O O14 0.709165 0.627041 0.995677
O O15 0.750000 0.750000 0.341297
O O16 0.786851 0.659282 0.240270
O O17 0.000000 0.699746 0.318014
O O18 0.250000 0.250000 0.140315
O O19 0.231548 0.389492 0.121496
O O20 0.000000 0.314601 0.152718
O O21 0.500000 0.305815 0.698932
O O22 0.750000 0.250000 0.713620
O O23 0.500000 0.594397 0.080824
O O24 0.702858 0.500000 0.048089
#
# Coordination Sequence:
#
# PCOD8173233 Si02
#       8
#     8   8   8   8   8   8   8   8
#     4   9  17  31  52  76 101 132 170 208 249 299
#     4  10  20  34  53  77 104 135 173 215 257 304
#     4  10  21  36  53  75 105 138 170 209 259 310
#     4  10  20  34  54  77 101 133 172 213 254 299
#     4   9  19  35  55  77 101 132 171 213 254 301
#     4  10  20  35  56  80 105 135 172 212 254 303
#     4   9  18  32  52  76 101 131 167 209 252 297
#     4  10  21  36  53  76 107 139 171 211 259 308
#
# _framework density 18.620303
#
# number of rings (size 3 to 8) (size 9 to 14) (size 15 to 20)
#    0.000    2.375    0.000    2.250    0.000    7.000 
#    0.000    2.500    0.000    2.250    0.000    0.000 
#    0.000    0.000    0.000    0.000    0.000    0.000 
#
# Total GULP energy -396881.051890 kJ/mol
# GULP energy per Si atom -12402.532872 kJ/mol
# Density = 1.857792 g / cm^3
# Si number density = 18.620303 Si / 1000 Ang^3
#
#
#
# Elastic Constant Matrix: (Units=GPa)
#
#
# Indices 1 2 3 4 5 6 
#
# 1 57.0514 54.8607 46.9865 0.0000 0.0000 0.0000
# 2 54.8607 158.7429 81.5669 0.0000 0.0000 0.0000
# 3 46.9865 81.5669 113.5739 0.0000 0.0000 0.0000
# 4 0.0000 0.0000 0.0000 28.8859 0.0000 0.0000
# 5 0.0000 0.0000 0.0000 0.0000 9.1641 0.0000
# 6 0.0000 0.0000 0.0000 0.0000 0.0000 29.9072
#
#
#
# Elastic Compliance Matrix: (Units=1/GPa)
#
#
# Indices 1 2 3 4 5 6 
#
# 1 0.030156 -0.006357 -0.007910 0.000000 0.000000 0.000000
# 2 -0.006357 0.011324 -0.005503 0.000000 0.000000 0.000000
# 3 -0.007910 -0.005503 0.016029 0.000000 0.000000 0.000000
# 4 0.000000 0.000000 0.000000 0.034619 0.000000 0.000000
# 5 0.000000 0.000000 0.000000 0.000000 0.109122 0.000000
# 6 0.000000 0.000000 0.000000 0.000000 0.000000 0.033437
#
#
# Mechanical properties :
#
#
# Convention : Reuss Voigt Hill
#
# Bulk Modulus (GPa) = 55.65117 77.35517 66.50317
# Shear Modulus (GPa) = 17.84338 23.32171 20.58254
#
# Velocity S-wave (km/s) = 3.09896 3.54289 3.32834
# Velocity P-wave (km/s) = 6.53888 7.64001 7.11079
#
# Compressibility (1/GPa) = 0.01796908
#
# Stress axis : x y z
#
# Youngs Moduli (GPa) = 33.16121 88.30849 62.38633
#
# Poissons Ratio (x) = 0.56140 0.49347
# Poissons Ratio (y) = 0.21081 0.34329
# Poissons Ratio (z) = 0.26230 0.48593
#
# Static dielectric constant tensor:
#      x y z
#    x 3.295670 0.000000 0.000000 
#    y 0.000000 3.463910 0.000000 
#    z 0.000000 0.000000 3.609780 
# 
# 
# High freq. dielectric constant tensor:
#      x y z
#    x 1.706470 0.000000 0.000000 
#    y 0.000000 1.723140 0.000000 
#    z 0.000000 0.000000 1.735400 
# 
# From -- ./inp_files/18420.got.cif
#   From: 2010.03.12/outbox.cif.g09.slc.cpg/sg35_10_cif.got.tgz:18420.got - 2010.04.14 02:02:04.
