data_PCOD8173440
_publ_section_title
;
Structure prediction by ZEFSAII (Michael W. Deem and Ramdas Pophale) SiO2 
 PCOD8173440
Probable space group: C M M 2
;
_chemical_formula_sum "Si O2"
_cell_formula_units_Z 64
_cell_length_a 28.414904
_cell_length_b 8.971579
_cell_length_c 12.597386
_cell_angle_alpha 90.000000
_cell_angle_beta 90.000000
_cell_angle_gamma 90.000000
_cell_volume 3211.408228
_symmetry_space_group_name_H-M "C M M 2"
_symmetry_group_IT_number 35
_symmetry_cell_setting 'orthorhombic'
loop_
_space_group_symop_operation_xyz
x,y,z
-x,-y,z
-x,y,z
x,-y,z
1/2+x,1/2+y,z
1/2-x,1/2-y,z
1/2-x,1/2+y,z
1/2+x,1/2-y,z
loop_
_atom_site_type_symbol
_atom_site_label
_atom_site_fract_x
_atom_site_fract_y
_atom_site_fract_z
Si Si1 0.700999 0.822948 0.970540
Si Si2 0.555597 0.666064 0.857403
Si Si3 0.142710 0.670020 0.531976
Si Si4 0.800767 0.824970 0.351281
Si Si5 0.053099 0.672873 0.646630
Si Si6 0.296377 0.829532 0.731845
Si Si7 0.445837 0.175501 0.072172
Si Si8 0.859575 0.823414 0.146188
O O1 0.750000 0.750000 0.006791
O O2 0.689038 0.774834 0.849555
O O3 0.703333 0.000000 0.987389
O O4 0.660467 0.752763 0.041219
O O5 0.500000 0.657232 0.852383
O O6 0.577110 0.500000 0.871057
O O7 0.573196 0.737266 0.747437
O O8 0.570352 0.768941 0.956008
O O9 0.152464 0.500000 0.495738
O O10 0.166480 0.780442 0.449545
O O11 0.086748 0.702310 0.544453
O O12 0.162117 0.700372 0.649815
O O13 0.750000 0.750000 0.357747
O O14 0.827783 0.774101 0.245511
O O15 0.792633 0.000000 0.354562
O O16 0.054900 0.500000 0.679222
O O17 0.000000 0.721052 0.615184
O O18 0.250000 0.750000 0.688282
O O19 0.282221 0.000000 0.739568
O O20 0.500000 0.217774 0.096699
O O21 0.412670 0.258343 0.158791
O O22 0.437781 0.000000 0.078370
O O23 0.861409 0.000000 0.134406
#
# Coordination Sequence:
#
# PCOD8173440 Si02
#       8
#     8   8   8   8   8   8   8   8
#     4  10  20  35  56  83 118 154 191 237 294 358
#     4   9  17  30  50  79 116 157 197 238 285 338
#     4  10  21  37  59  85 116 153 197 244 295 349
#     4  11  25  44  65  88 115 148 193 246 298 354
#     4   9  18  33  54  82 118 159 201 244 289 341
#     4   9  19  34  52  79 113 147 183 231 289 350
#     4  10  21  37  58  85 118 157 200 244 291 346
#     4  11  24  40  60  87 117 152 197 244 298 356
#
# _framework density 19.928951999999999
#
# number of rings (size 3 to 8) (size 9 to 14) (size 15 to 20)
#    0.000    2.125    0.000    2.625    1.750    7.750 
#    0.000    0.625    0.000    2.250    0.000    0.000 
#    0.000    0.000    0.000    0.000    0.000    0.000 
#
# Total GULP energy -396792.115119 kJ/mol
# GULP energy per Si atom -12399.753597 kJ/mol
# Density = 1.988359 g / cm^3
# Si number density = 19.928952 Si / 1000 Ang^3
#
#
#
# Elastic Constant Matrix: (Units=GPa)
#
#
# Indices 1 2 3 4 5 6 
#
# 1 113.2239 42.1985 51.5877 0.0000 0.0000 0.0000
# 2 42.1985 77.4988 36.7516 0.0000 0.0000 0.0000
# 3 51.5877 36.7516 77.2234 0.0000 0.0000 0.0000
# 4 0.0000 0.0000 0.0000 29.3985 0.0000 0.0000
# 5 0.0000 0.0000 0.0000 0.0000 30.6509 0.0000
# 6 0.0000 0.0000 0.0000 0.0000 0.0000 31.2747
#
#
#
# Elastic Compliance Matrix: (Units=1/GPa)
#
#
# Indices 1 2 3 4 5 6 
#
# 1 0.013592 -0.003997 -0.007178 0.000000 0.000000 0.000000
# 2 -0.003997 0.017840 -0.005820 0.000000 0.000000 0.000000
# 3 -0.007178 -0.005820 0.020514 0.000000 0.000000 0.000000
# 4 0.000000 0.000000 0.000000 0.034015 0.000000 0.000000
# 5 0.000000 0.000000 0.000000 0.000000 0.032625 0.000000
# 6 0.000000 0.000000 0.000000 0.000000 0.000000 0.031975
#
#
# Mechanical properties :
#
#
# Convention : Reuss Voigt Hill
#
# Bulk Modulus (GPa) = 55.69014 58.78019 57.23517
# Shear Modulus (GPa) = 26.24165 27.42538 26.83352
#
# Velocity S-wave (km/s) = 3.63266 3.71368 3.67339
# Velocity P-wave (km/s) = 6.75277 6.92441 6.83913
#
# Compressibility (1/GPa) = 0.01795650
#
# Stress axis : x y z
#
# Youngs Moduli (GPa) = 73.57200 56.05422 48.74681
#
# Poissons Ratio (x) = 0.22406 0.34989
# Poissons Ratio (y) = 0.29408 0.28371
# Poissons Ratio (z) = 0.52808 0.32624
#
# Static dielectric constant tensor:
#      x y z
#    x 3.859350 0.000000 0.000000 
#    y 0.000000 3.710290 0.000000 
#    z 0.000000 0.000000 3.529230 
# 
# 
# High freq. dielectric constant tensor:
#      x y z
#    x 1.786750 0.000000 0.000000 
#    y 0.000000 1.780320 0.000000 
#    z 0.000000 0.000000 1.756070 
# 
# From -- ./inp_files/14574.got.cif
#   From: 2010.03.12/outbox.cif.g09.slc.cpg/sg35_8_cif.got.tgz:14574.got - 2010.04.14 02:02:04.
