data_PCOD8173938
_publ_section_title
;
Structure prediction by ZEFSAII (Michael W. Deem and Ramdas Pophale) SiO2 
 PCOD8173938
Probable space group: C M M 2
;
_chemical_formula_sum "Si O2"
_cell_formula_units_Z 56
_cell_length_a 22.118079
_cell_length_b 8.697574
_cell_length_c 14.763352
_cell_angle_alpha 90.000000
_cell_angle_beta 90.000000
_cell_angle_gamma 90.000000
_cell_volume 2840.079598
_symmetry_space_group_name_H-M "C M M 2"
_symmetry_group_IT_number 35
_symmetry_cell_setting 'orthorhombic'
loop_
_space_group_symop_operation_xyz
x,y,z
-x,-y,z
-x,y,z
x,-y,z
1/2+x,1/2+y,z
1/2-x,1/2-y,z
1/2-x,1/2+y,z
1/2+x,1/2-y,z
loop_
_atom_site_type_symbol
_atom_site_label
_atom_site_fract_x
_atom_site_fract_y
_atom_site_fract_z
Si Si1 0.000000 0.176165 0.729290
Si Si2 0.688631 0.679802 0.338368
Si Si3 0.372315 0.828221 0.500866
Si Si4 0.928621 0.317281 0.021939
Si Si5 0.888814 0.319599 0.822851
Si Si6 0.685897 0.317758 0.674135
Si Si7 0.500000 0.164220 0.557355
Si Si8 0.184352 0.817104 0.132852
O O1 0.056922 0.271002 0.760219
O O2 0.000000 0.185823 0.621206
O O3 0.000000 0.000000 0.762630
O O4 0.693733 0.500000 0.338222
O O5 0.750000 0.750000 0.375881
O O6 0.640299 0.734116 0.410326
O O7 0.675406 0.736984 0.236436
O O8 0.357469 0.743178 0.595027
O O9 0.443614 0.834662 0.491302
O O10 0.343277 0.000000 0.500269
O O11 0.926734 0.500000 0.031490
O O12 0.905196 0.263122 0.923479
O O13 0.000000 0.263663 0.037471
O O14 0.877549 0.244837 0.086945
O O15 0.877375 0.500000 0.820902
O O16 0.831227 0.237980 0.776175
O O17 0.685852 0.500000 0.673035
O O18 0.750000 0.250000 0.648466
O O19 0.500000 0.000000 0.612774
O O20 0.250000 0.750000 0.097103
O O21 0.187137 0.000000 0.120007
#
# Coordination Sequence:
#
# PCOD8173938 Si02
#       8
#     4   8   8   8   8   8   4   8
#     4  12  22  34  58  87 114 153 198 241 286 342
#     4  10  21  39  62  88 117 153 197 245 298 357
#     4  11  22  38  60  86 118 158 199 244 295 352
#     4  10  22  41  65  93 124 163 205 251 308 371
#     4  11  22  40  62  85 118 158 199 244 295 352
#     4  12  25  40  58  86 120 158 202 248 300 353
#     4  10  22  38  58  81 116 159 200 241 292 350
#     4  10  22  41  66  93 123 160 202 255 312 370
#
# _framework density 19.717756999999999
#
# number of rings (size 3 to 8) (size 9 to 14) (size 15 to 20)
#    0.000    1.286    2.143    4.071    0.000    4.286 
#    1.286    0.000    0.000    0.000    0.000    0.000 
#    0.000    0.000    0.000    0.000    0.000    0.000 
#
# Total GULP energy -346906.416519 kJ/mol
# GULP energy per Si atom -12389.514876 kJ/mol
# Density = 1.967288 g / cm^3
# Si number density = 19.717757 Si / 1000 Ang^3
#
#
#
# Elastic Constant Matrix: (Units=GPa)
#
#
# Indices 1 2 3 4 5 6 
#
# 1 127.9195 34.1761 54.6344 0.0000 0.0000 0.0000
# 2 34.1761 74.8685 32.9577 0.0000 0.0000 0.0000
# 3 54.6344 32.9577 101.4971 0.0000 0.0000 0.0000
# 4 0.0000 0.0000 0.0000 31.3420 0.0000 0.0000
# 5 0.0000 0.0000 0.0000 0.0000 46.9884 0.0000
# 6 0.0000 0.0000 0.0000 0.0000 0.0000 30.9818
#
#
#
# Elastic Compliance Matrix: (Units=1/GPa)
#
#
# Indices 1 2 3 4 5 6 
#
# 1 0.010604 -0.002716 -0.004826 0.000000 0.000000 0.000000
# 2 -0.002716 0.016280 -0.003824 0.000000 0.000000 0.000000
# 3 -0.004826 -0.003824 0.013692 0.000000 0.000000 0.000000
# 4 0.000000 0.000000 0.000000 0.031906 0.000000 0.000000
# 5 0.000000 0.000000 0.000000 0.000000 0.021282 0.000000
# 6 0.000000 0.000000 0.000000 0.000000 0.000000 0.032277
#
#
# Mechanical properties :
#
#
# Convention : Reuss Voigt Hill
#
# Bulk Modulus (GPa) = 56.04349 60.86906 58.45628
# Shear Modulus (GPa) = 32.31587 34.03024 33.17305
#
# Velocity S-wave (km/s) = 4.05275 4.15886 4.10615
# Velocity P-wave (km/s) = 7.09819 7.34838 7.22437
#
# Compressibility (1/GPa) = 0.01784328
#
# Stress axis : x y z
#
# Youngs Moduli (GPa) = 94.30084 61.42455 73.03442
#
# Poissons Ratio (x) = 0.16684 0.35248
# Poissons Ratio (y) = 0.25614 0.27931
# Poissons Ratio (z) = 0.45511 0.23491
#
# Static dielectric constant tensor:
#      x y z
#    x 3.692570 0.000000 0.000000 
#    y 0.000000 3.733170 0.000000 
#    z 0.000000 0.000000 3.686220 
# 
# 
# High freq. dielectric constant tensor:
#      x y z
#    x 1.778330 0.000000 0.000000 
#    y 0.000000 1.777160 0.000000 
#    z 0.000000 0.000000 1.761690 
# 
# From -- ./inp_files/17440.got.cif
#   From: 2010.03.12/outbox.cif.g09.slc.cpg/sg35_9_cif.got.tgz:17440.got - 2010.04.14 02:02:04.
