data_PCOD8173078
_publ_section_title
;
Structure prediction by ZEFSAII (Michael W. Deem and Ramdas Pophale) SiO2 
 PCOD8173078
Probable space group: C M M 2
;
_chemical_formula_sum "Si O2"
_cell_formula_units_Z 64
_cell_length_a 28.274603
_cell_length_b 8.695518
_cell_length_c 15.483040
_cell_angle_alpha 90.000000
_cell_angle_beta 90.000000
_cell_angle_gamma 90.000000
_cell_volume 3806.696125
_symmetry_space_group_name_H-M "C M M 2"
_symmetry_group_IT_number 35
_symmetry_cell_setting 'orthorhombic'
loop_
_space_group_symop_operation_xyz
x,y,z
-x,-y,z
-x,y,z
x,-y,z
1/2+x,1/2+y,z
1/2-x,1/2-y,z
1/2-x,1/2+y,z
1/2+x,1/2-y,z
loop_
_atom_site_type_symbol
_atom_site_label
_atom_site_fract_x
_atom_site_fract_y
_atom_site_fract_z
Si Si1 0.053908 0.181143 0.897950
Si Si2 0.610083 0.680301 0.729661
Si Si3 0.389436 0.820739 0.403540
Si Si4 0.055205 0.322238 0.574800
Si Si5 0.056142 0.327074 0.073084
Si Si6 0.944659 0.821959 0.248741
Si Si7 0.299368 0.818429 0.659413
Si Si8 0.299380 0.681514 0.472930
O O1 0.084548 0.236144 0.816688
O O2 0.000000 0.235101 0.881846
O O3 0.056149 0.000000 0.910703
O O4 0.075996 0.258056 0.983666
O O5 0.620533 0.500000 0.730794
O O6 0.576443 0.717214 0.649416
O O7 0.659487 0.770961 0.725192
O O8 0.421974 0.773419 0.484195
O O9 0.416749 0.780175 0.316779
O O10 0.340472 0.726426 0.406207
O O11 0.377409 0.000000 0.404473
O O12 0.065925 0.500000 0.596346
O O13 0.000000 0.288505 0.567607
O O14 0.075120 0.500000 0.084743
O O15 0.073570 0.224943 0.153598
O O16 0.000000 0.322208 0.068740
O O17 0.000000 0.784962 0.258854
O O18 0.933684 0.000000 0.264476
O O19 0.250000 0.750000 0.693442
O O20 0.312553 0.752315 0.565693
O O21 0.295065 0.000000 0.652568
O O22 0.294667 0.500000 0.482015
O O23 0.250000 0.750000 0.438588
#
# Coordination Sequence:
#
# PCOD8173078 Si02
#       8
#     8   8   8   8   8   8   8   8
#     4   9  18  32  49  71 101 135 169 206 248 295
#     4  11  21  33  50  73 100 134 171 208 250 300
#     4  11  21  34  51  73 101 135 171 209 251 297
#     4  10  21  34  47  66  98 138 174 207 244 289
#     4   9  17  30  49  72  97 128 167 211 255 296
#     4  10  20  33  50  73 102 136 172 210 252 300
#     4  11  21  35  53  73  97 128 166 211 257 300
#     4  11  21  35  54  75  98 128 166 210 256 301
#
# _framework density 16.812479
#
# number of rings (size 3 to 8) (size 9 to 14) (size 15 to 20)
#    0.000    1.750    1.250    5.250    0.000    5.000 
#    0.000    1.250    0.000    0.000    0.000    0.875 
#    0.000    4.000    0.000    0.000    0.000    0.000 
#
# Total GULP energy -396917.849802 kJ/mol
# GULP energy per Si atom -12403.682806 kJ/mol
# Density = 1.677421 g / cm^3
# Si number density = 16.812479 Si / 1000 Ang^3
#
#
#
# Elastic Constant Matrix: (Units=GPa)
#
#
# Indices 1 2 3 4 5 6 
#
# 1 90.3504 38.1634 46.2727 0.0000 0.0000 0.0000
# 2 38.1634 92.5818 36.2649 0.0000 0.0000 0.0000
# 3 46.2727 36.2649 110.2288 0.0000 0.0000 0.0000
# 4 0.0000 0.0000 0.0000 28.8876 0.0000 0.0000
# 5 0.0000 0.0000 0.0000 0.0000 9.3734 0.0000
# 6 0.0000 0.0000 0.0000 0.0000 0.0000 26.8306
#
#
#
# Elastic Compliance Matrix: (Units=1/GPa)
#
#
# Indices 1 2 3 4 5 6 
#
# 1 0.015528 -0.004417 -0.005065 0.000000 0.000000 0.000000
# 2 -0.004417 0.013655 -0.002639 0.000000 0.000000 0.000000
# 3 -0.005065 -0.002639 0.012066 0.000000 0.000000 0.000000
# 4 0.000000 0.000000 0.000000 0.034617 0.000000 0.000000
# 5 0.000000 0.000000 0.000000 0.000000 0.106685 0.000000
# 6 0.000000 0.000000 0.000000 0.000000 0.000000 0.037271
#
#
# Mechanical properties :
#
#
# Convention : Reuss Voigt Hill
#
# Bulk Modulus (GPa) = 58.79355 59.39590 59.09472
# Shear Modulus (GPa) = 20.02139 24.51565 22.26852
#
# Velocity S-wave (km/s) = 3.45463 3.82276 3.64335
# Velocity P-wave (km/s) = 7.13854 7.40876 7.27491
#
# Compressibility (1/GPa) = 0.01700867
#
# Stress axis : x y z
#
# Youngs Moduli (GPa) = 64.40087 73.23122 82.87441
#
# Poissons Ratio (x) = 0.32344 0.41978
# Poissons Ratio (y) = 0.28443 0.21867
# Poissons Ratio (z) = 0.32621 0.19322
#
# Static dielectric constant tensor:
#      x y z
#    x 3.115770 0.000000 0.000000 
#    y 0.000000 3.222840 0.000000 
#    z 0.000000 0.000000 3.130740 
# 
# 
# High freq. dielectric constant tensor:
#      x y z
#    x 1.630280 0.000000 0.000000 
#    y 0.000000 1.662420 0.000000 
#    z 0.000000 0.000000 1.634720 
# 
# From -- ./inp_files/14539.got.cif
#   From: 2010.03.12/outbox.cif.g09.slc.cpg/sg35_8_cif.got.tgz:14539.got - 2010.04.14 02:02:04.
