data_PCOD8173581
_publ_section_title
;
Structure prediction by ZEFSAII (Michael W. Deem and Ramdas Pophale) SiO2 
 PCOD8173581
Probable space group: C M M 2
;
_chemical_formula_sum "Si O2"
_cell_formula_units_Z 56
_cell_length_a 18.637028
_cell_length_b 8.896373
_cell_length_c 17.930137
_cell_angle_alpha 90.000000
_cell_angle_beta 90.000000
_cell_angle_gamma 90.000000
_cell_volume 2972.851727
_symmetry_space_group_name_H-M "C M M 2"
_symmetry_group_IT_number 35
_symmetry_cell_setting 'orthorhombic'
loop_
_space_group_symop_operation_xyz
x,y,z
-x,-y,z
-x,y,z
x,-y,z
1/2+x,1/2+y,z
1/2-x,1/2-y,z
1/2-x,1/2+y,z
1/2+x,1/2-y,z
loop_
_atom_site_type_symbol
_atom_site_label
_atom_site_fract_x
_atom_site_fract_y
_atom_site_fract_z
Si Si1 0.323935 0.177406 0.260900
Si Si2 0.085184 0.168637 0.544535
Si Si3 0.671819 0.678040 0.826339
Si Si4 0.676496 0.175147 0.094466
Si Si5 0.584018 0.824506 0.695168
Si Si6 0.083080 0.675505 0.956117
Si Si7 0.416808 0.174543 0.397357
O O1 0.250000 0.250000 0.286190
O O2 0.345448 0.231810 0.177411
O O3 0.382597 0.232680 0.320288
O O4 0.315780 0.000000 0.262910
O O5 0.109518 0.271801 0.613520
O O6 0.116571 0.236856 0.467843
O O7 0.000000 0.168949 0.539863
O O8 0.114950 0.000000 0.555398
O O9 0.680037 0.500000 0.824689
O O10 0.750000 0.750000 0.829571
O O11 0.629828 0.731293 0.753602
O O12 0.626750 0.725573 0.898164
O O13 0.750000 0.250000 0.066392
O O14 0.692300 0.000000 0.095623
O O15 0.611881 0.214356 0.038645
O O16 0.500000 0.790446 0.708394
O O17 0.600533 0.000000 0.704248
O O18 0.093745 0.500000 0.936814
O O19 0.000000 0.720966 0.952781
O O20 0.500000 0.209006 0.389349
O O21 0.401318 0.000000 0.411277
#
# Coordination Sequence:
#
# PCOD8173581 Si02
#       7
#     8   8   8   8   8   8   8
#     4   9  18  32  50  73 102 137 176 217 262 313
#     4   9  17  30  50  77 107 138 174 216 263 314
#     4  12  25  40  58  80 109 143 179 218 263 316
#     4   9  18  33  53  76 103 138 177 217 263 314
#     4  10  20  36  59  84 110 140 176 219 266 316
#     4  10  21  37  57  82 111 141 176 219 266 316
#     4   9  17  30  49  73 101 134 174 219 265 313
#
# _framework density 18.837132
#
# number of rings (size 3 to 8) (size 9 to 14) (size 15 to 20)
#    0.000    2.286    0.000    3.000    0.000    7.429 
#    0.000    3.571    0.000    1.714    0.000    6.000 
#    0.000    0.000    0.000    0.000    0.000    0.000 
#
# Total GULP energy -347203.900020 kJ/mol
# GULP energy per Si atom -12400.139286 kJ/mol
# Density = 1.879426 g / cm^3
# Si number density = 18.837132 Si / 1000 Ang^3
#
#
#
# Elastic Constant Matrix: (Units=GPa)
#
#
# Indices 1 2 3 4 5 6 
#
# 1 94.5442 54.3861 69.5084 0.0000 0.0000 0.0000
# 2 54.3861 89.5488 60.3867 0.0000 0.0000 0.0000
# 3 69.5084 60.3867 143.2402 0.0000 0.0000 0.0000
# 4 0.0000 0.0000 0.0000 22.7583 0.0000 0.0000
# 5 0.0000 0.0000 0.0000 0.0000 26.1805 0.0000
# 6 0.0000 0.0000 0.0000 0.0000 0.0000 26.5051
#
#
#
# Elastic Compliance Matrix: (Units=1/GPa)
#
#
# Indices 1 2 3 4 5 6 
#
# 1 0.019609 -0.007674 -0.006280 0.000000 0.000000 0.000000
# 2 -0.007674 0.018606 -0.004120 0.000000 0.000000 0.000000
# 3 -0.006280 -0.004120 0.011766 0.000000 0.000000 0.000000
# 4 0.000000 0.000000 0.000000 0.043940 0.000000 0.000000
# 5 0.000000 0.000000 0.000000 0.000000 0.038196 0.000000
# 6 0.000000 0.000000 0.000000 0.000000 0.000000 0.037729
#
#
# Mechanical properties :
#
#
# Convention : Reuss Voigt Hill
#
# Bulk Modulus (GPa) = 72.29546 77.32176 74.80861
# Shear Modulus (GPa) = 23.74122 24.62558 24.18340
#
# Velocity S-wave (km/s) = 3.55398 3.61957 3.58692
# Velocity P-wave (km/s) = 7.43664 7.65539 7.54681
#
# Compressibility (1/GPa) = 0.01383213
#
# Stress axis : x y z
#
# Youngs Moduli (GPa) = 50.99808 53.74574 84.99362
#
# Poissons Ratio (x) = 0.41245 0.53376
# Poissons Ratio (y) = 0.39136 0.35017
# Poissons Ratio (z) = 0.32027 0.22143
#
# Static dielectric constant tensor:
#      x y z
#    x 3.249500 0.000000 0.000000 
#    y 0.000000 3.488820 0.000000 
#    z 0.000000 0.000000 3.869900 
# 
# 
# High freq. dielectric constant tensor:
#      x y z
#    x 1.710980 0.000000 0.000000 
#    y 0.000000 1.730260 0.000000 
#    z 0.000000 0.000000 1.749820 
# 
# From -- ./inp_files/17407.got.cif
#   From: 2010.03.12/outbox.cif.g09.slc.cpg/sg35_9_cif.got.tgz:17407.got - 2010.04.14 02:02:04.
