data_PCOD8173688
_publ_section_title
;
Structure prediction by ZEFSAII (Michael W. Deem and Ramdas Pophale) SiO2 
 PCOD8173688
Probable space group: C M M 2
;
_chemical_formula_sum "Si O2"
_cell_formula_units_Z 40
_cell_length_a 9.974535
_cell_length_b 14.371079
_cell_length_c 13.336193
_cell_angle_alpha 90.000000
_cell_angle_beta 90.000000
_cell_angle_gamma 90.000000
_cell_volume 1911.674325
_symmetry_space_group_name_H-M "C M M 2"
_symmetry_group_IT_number 35
_symmetry_cell_setting 'orthorhombic'
loop_
_space_group_symop_operation_xyz
x,y,z
-x,-y,z
-x,y,z
x,-y,z
1/2+x,1/2+y,z
1/2-x,1/2-y,z
1/2-x,1/2+y,z
1/2+x,1/2-y,z
loop_
_atom_site_type_symbol
_atom_site_label
_atom_site_fract_x
_atom_site_fract_y
_atom_site_fract_z
Si Si1 0.500000 0.745941 0.697571
Si Si2 0.846886 0.110683 0.212507
Si Si3 0.000000 0.890454 0.866998
Si Si4 0.156642 0.609889 0.393279
Si Si5 0.750000 0.750000 0.555213
Si Si6 0.000000 0.389314 0.877632
Si Si7 0.241634 0.890059 0.998174
O O1 0.500000 0.650262 0.757097
O O2 0.625611 0.739909 0.626702
O O3 0.500000 0.836092 0.771024
O O4 0.744777 0.144070 0.298681
O O5 0.000000 0.147698 0.229430
O O6 0.851502 0.000000 0.208688
O O7 0.783741 0.150810 0.109267
O O8 0.872836 0.851652 0.926044
O O9 0.000000 0.000000 0.856697
O O10 0.168872 0.500000 0.409996
O O11 0.223898 0.658778 0.488493
O O12 0.000000 0.638357 0.378582
O O13 0.878023 0.356876 0.947395
O O14 0.000000 0.500000 0.854195
O O15 0.236314 0.000000 0.005415
#
# Coordination Sequence:
#
# PCOD8173688 Si02
#       7
#     4   8   4   8   4   4   8
#     4  12  26  42  64  86 118 162 216 270 316 362
#     4   9  17  32  61  97 127 161 203 246 303 376
#     4  10  20  38  61  87 119 153 198 254 309 368
#     4  10  23  43  67  94 126 165 209 258 317 382
#     4  12  26  46  64  88 124 164 210 278 326 364
#     4  10  22  38  59  89 125 167 210 250 301 372
#     4   9  17  33  59  91 127 161 195 243 303 368
#
# _framework density 20.924064999999999
#
# number of rings (size 3 to 8) (size 9 to 14) (size 15 to 20)
#    0.000    2.000    2.000    1.200    2.800    1.600 
#    0.000    2.000    0.000    0.000    0.000    0.000 
#    0.000    0.000    0.000    0.000    0.000    0.000 
#
# Total GULP energy -247912.744680 kJ/mol
# GULP energy per Si atom -12395.637234 kJ/mol
# Density = 2.087644 g / cm^3
# Si number density = 20.924065 Si / 1000 Ang^3
#
#
#
# Elastic Constant Matrix: (Units=GPa)
#
#
# Indices 1 2 3 4 5 6 
#
# 1 220.2434 38.8226 121.4080 0.0000 0.0000 0.0000
# 2 38.8226 55.1403 45.2827 0.0000 0.0000 0.0000
# 3 121.4080 45.2827 204.1965 0.0000 0.0000 0.0000
# 4 0.0000 0.0000 0.0000 -14.7198 0.0000 0.0000
# 5 0.0000 0.0000 0.0000 0.0000 54.9078 0.0000
# 6 0.0000 0.0000 0.0000 0.0000 0.0000 44.6600
#
#
#
# Elastic Compliance Matrix: (Units=1/GPa)
#
#
# Indices 1 2 3 4 5 6 
#
# 1 0.006900 -0.001821 -0.003699 0.000000 0.000000 0.000000
# 2 -0.001821 0.022654 -0.003941 0.000000 0.000000 0.000000
# 3 -0.003699 -0.003941 0.007971 0.000000 0.000000 0.000000
# 4 0.000000 0.000000 0.000000 -0.067936 0.000000 0.000000
# 5 0.000000 0.000000 0.000000 0.000000 0.018212 0.000000
# 6 0.000000 0.000000 0.000000 0.000000 0.000000 0.022391
#
#
# Mechanical properties :
#
#
# Convention : Reuss Voigt Hill
#
# Bulk Modulus (GPa) = 53.75412 98.95628 76.35520
# Shear Modulus (GPa) = 141.57823 35.24073 88.40948
#
# Velocity S-wave (km/s) = 8.23467 4.10838 6.50725
# Velocity P-wave (km/s) = 10.77770 8.36067 9.64520
#
# Compressibility (1/GPa) = 0.01860323
#
# Stress axis : x y z
#
# Youngs Moduli (GPa) = 144.91902 44.14206 125.46184
#
# Poissons Ratio (x) = 0.08037 0.46408
# Poissons Ratio (y) = 0.26385 0.49448
# Poissons Ratio (z) = 0.53605 0.17398
#
# Static dielectric constant tensor:
#      x y z
#    x 4.088720 0.000000 0.000000 
#    y 0.000000 3.492780 0.000000 
#    z 0.000000 0.000000 4.052290 
# 
# 
# High freq. dielectric constant tensor:
#      x y z
#    x 1.838310 0.000000 0.000000 
#    y 0.000000 1.810090 0.000000 
#    z 0.000000 0.000000 1.825940 
# 
# From -- ./inp_files/14864.got.cif
#   From: 2010.03.12/outbox.cif.g09.slc.cpg/sg35_8_cif.got.tgz:14864.got - 2010.04.14 02:02:04.
