data_PCOD8173114
_publ_section_title
;
Structure prediction by ZEFSAII (Michael W. Deem and Ramdas Pophale) SiO2 
 PCOD8173114
Probable space group: C M M 2
;
_chemical_formula_sum "Si O2"
_cell_formula_units_Z 48
_cell_length_a 17.969450
_cell_length_b 8.957637
_cell_length_c 15.676612
_cell_angle_alpha 90.000000
_cell_angle_beta 90.000000
_cell_angle_gamma 90.000000
_cell_volume 2523.367198
_symmetry_space_group_name_H-M "C M M 2"
_symmetry_group_IT_number 35
_symmetry_cell_setting 'orthorhombic'
loop_
_space_group_symop_operation_xyz
x,y,z
-x,-y,z
-x,y,z
x,-y,z
1/2+x,1/2+y,z
1/2-x,1/2-y,z
1/2-x,1/2+y,z
1/2+x,1/2-y,z
loop_
_atom_site_type_symbol
_atom_site_label
_atom_site_fract_x
_atom_site_fract_y
_atom_site_fract_z
Si Si1 0.584637 0.677371 0.965460
Si Si2 0.670533 0.175530 0.447863
Si Si3 0.088893 0.170036 0.598118
Si Si4 0.327548 0.673861 0.126276
Si Si5 0.417912 0.323297 0.781707
Si Si6 0.586089 0.327427 0.296662
O O1 0.500000 0.737636 0.975090
O O2 0.582678 0.500000 0.974471
O O3 0.619712 0.724768 0.872261
O O4 0.636720 0.743651 0.039996
O O5 0.750000 0.250000 0.457166
O O6 0.620527 0.218719 0.528407
O O7 0.631391 0.226084 0.361429
O O8 0.681155 0.000000 0.445177
O O9 0.120738 0.223384 0.691837
O O10 0.000000 0.179822 0.598269
O O11 0.113896 0.000000 0.577717
O O12 0.311872 0.500000 0.115222
O O13 0.250000 0.750000 0.147992
O O14 0.385196 0.705270 0.201963
O O15 0.500000 0.252399 0.783612
O O16 0.425220 0.500000 0.779398
O O17 0.500000 0.282539 0.300859
O O18 0.597708 0.500000 0.321924
#
# Coordination Sequence:
#
# PCOD8173114 Si02
#       6
#     8   8   8   8   8   8
#     4   8  13  25  48  76 102 131 173 217 250 290
#     4  12  25  39  55  76 104 138 174 213 260 311
#     4   9  17  32  55  81 108 138 173 214 260 309
#     4  10  20  33  51  76 106 139 171 207 253 303
#     4   7  11  22  45  76 104 131 167 211 254 295
#     4  10  21  38  59  81 104 132 169 213 260 310
#
# _framework density 19.022202
#
# number of rings (size 3 to 8) (size 9 to 14) (size 15 to 20)
#    0.000    2.667    0.000    5.000    0.000    6.667 
#    0.000    0.833    0.000    4.500    0.000    2.333 
#    0.000    0.000    0.000    0.000    0.000    0.000 
#
# Total GULP energy -297375.608205 kJ/mol
# GULP energy per Si atom -12390.650342 kJ/mol
# Density = 1.897891 g / cm^3
# Si number density = 19.022202 Si / 1000 Ang^3
#
#
#
# Elastic Constant Matrix: (Units=GPa)
#
#
# Indices 1 2 3 4 5 6 
#
# 1 41.3446 17.2894 12.8998 0.0000 0.0000 0.0000
# 2 17.2894 59.3664 36.3882 0.0000 0.0000 0.0000
# 3 12.8998 36.3882 127.6956 0.0000 0.0000 0.0000
# 4 0.0000 0.0000 0.0000 1.0838 0.0000 0.0000
# 5 0.0000 0.0000 0.0000 0.0000 3.9053 0.0000
# 6 0.0000 0.0000 0.0000 0.0000 0.0000 20.9516
#
#
#
# Elastic Compliance Matrix: (Units=1/GPa)
#
#
# Indices 1 2 3 4 5 6 
#
# 1 0.027579 -0.007663 -0.000602 0.000000 0.000000 0.000000
# 2 -0.007663 0.022538 -0.005648 0.000000 0.000000 0.000000
# 3 -0.000602 -0.005648 0.009502 0.000000 0.000000 0.000000
# 4 0.000000 0.000000 0.000000 0.922716 0.000000 0.000000
# 5 0.000000 0.000000 0.000000 0.000000 0.256061 0.000000
# 6 0.000000 0.000000 0.000000 0.000000 0.000000 0.047729
#
#
# Mechanical properties :
#
#
# Convention : Reuss Voigt Hill
#
# Bulk Modulus (GPa) = 31.45449 40.17348 35.81399
# Shear Modulus (GPa) = 3.77487 15.97675 9.87581
#
# Velocity S-wave (km/s) = 1.41023 2.90125 2.28101
# Velocity P-wave (km/s) = 4.38443 5.69105 5.07993
#
# Compressibility (1/GPa) = 0.03179196
#
# Stress axis : x y z
#
# Youngs Moduli (GPa) = 36.25905 44.36881 105.24567
#
# Poissons Ratio (x) = 0.33998 0.06341
# Poissons Ratio (y) = 0.27784 0.59448
# Poissons Ratio (z) = 0.02185 0.25062
#
# Static dielectric constant tensor:
#      x y z
#    x 3.339330 0.000000 0.000000 
#    y 0.000000 3.093890 0.000000 
#    z 0.000000 0.000000 4.086010 
# 
# 
# High freq. dielectric constant tensor:
#      x y z
#    x 1.717650 0.000000 0.000000 
#    y 0.000000 1.693480 0.000000 
#    z 0.000000 0.000000 1.770490 
# 
# From -- ./inp_files/15129.got.cif
#   From: 2010.03.12/outbox.cif.g09.slc.cpg/sg35_8_cif.got.tgz:15129.got - 2010.04.14 02:02:04.
