data_PCOD8173933
_publ_section_title
;
Structure prediction by ZEFSAII (Michael W. Deem and Ramdas Pophale) SiO2 
 PCOD8173933
Probable space group: C M M 2
;
_chemical_formula_sum "Si O2"
_cell_formula_units_Z 48
_cell_length_a 15.741445
_cell_length_b 8.817815
_cell_length_c 16.637885
_cell_angle_alpha 90.000000
_cell_angle_beta 90.000000
_cell_angle_gamma 90.000000
_cell_volume 2309.424120
_symmetry_space_group_name_H-M "C M M 2"
_symmetry_group_IT_number 35
_symmetry_cell_setting 'orthorhombic'
loop_
_space_group_symop_operation_xyz
x,y,z
-x,-y,z
-x,y,z
x,-y,z
1/2+x,1/2+y,z
1/2-x,1/2-y,z
1/2-x,1/2+y,z
1/2+x,1/2-y,z
loop_
_atom_site_type_symbol
_atom_site_label
_atom_site_fract_x
_atom_site_fract_y
_atom_site_fract_z
Si Si1 0.500000 0.673155 0.000000
Si Si2 0.338000 0.179510 0.919293
Si Si3 0.000000 0.826514 0.190138
Si Si4 0.904033 0.330355 0.750374
Si Si5 0.159478 0.822535 0.598020
Si Si6 0.098282 0.175304 0.425905
Si Si7 0.662209 0.820618 0.271732
O O1 0.500000 0.500000 0.969551
O O2 0.584563 0.754317 0.969683
O O3 0.500000 0.682262 0.095237
O O4 0.250000 0.250000 0.951445
O O5 0.346912 0.223683 0.825166
O O6 0.337078 0.000000 0.931365
O O7 0.915900 0.744960 0.221709
O O8 0.000000 0.000000 0.221386
O O9 0.877876 0.500000 0.723440
O O10 0.897249 0.220811 0.674258
O O11 0.000000 0.326854 0.782463
O O12 0.250000 0.750000 0.610017
O O13 0.115702 0.765135 0.516032
O O14 0.169523 0.000000 0.595293
O O15 0.153028 0.276746 0.365473
O O16 0.000000 0.197857 0.404995
O O17 0.125259 0.000000 0.416329
O O18 0.750000 0.750000 0.238320
O O19 0.665017 0.000000 0.261845
#
# Coordination Sequence:
#
# PCOD8173933 Si02
#       7
#     4   8   4   8   8   8   8
#     4  11  25  45  71 100 129 168 211 259 324 387
#     4  11  23  42  67  97 133 172 215 265 320 382
#     4  11  25  47  71  98 133 166 207 265 322 385
#     4  10  21  39  61  88 122 164 211 264 320 373
#     4  11  23  37  55  85 121 166 215 264 317 371
#     4  10  21  39  62  88 125 167 211 266 322 376
#     4  12  25  42  68 100 131 172 218 261 319 383
#
# _framework density 20.784403000000001
#
# number of rings (size 3 to 8) (size 9 to 14) (size 15 to 20)
#    0.000    1.167    1.667    4.500    0.000    8.333 
#    0.000    0.000    0.000    0.000    0.000    0.000 
#    0.000    0.000    0.000    0.000    0.000    0.000 
#
# Total GULP energy -297709.378055 kJ/mol
# GULP energy per Si atom -12404.557419 kJ/mol
# Density = 2.073710 g / cm^3
# Si number density = 20.784403 Si / 1000 Ang^3
#
#
#
# Elastic Constant Matrix: (Units=GPa)
#
#
# Indices 1 2 3 4 5 6 
#
# 1 149.7281 60.1739 43.9758 0.0000 0.0000 0.0000
# 2 60.1739 120.6602 51.9413 0.0000 0.0000 0.0000
# 3 43.9758 51.9413 88.4419 0.0000 0.0000 0.0000
# 4 0.0000 0.0000 0.0000 33.9114 0.0000 0.0000
# 5 0.0000 0.0000 0.0000 0.0000 2.9001 0.0000
# 6 0.0000 0.0000 0.0000 0.0000 0.0000 34.6358
#
#
#
# Elastic Compliance Matrix: (Units=1/GPa)
#
#
# Indices 1 2 3 4 5 6 
#
# 1 0.008713 -0.003319 -0.002383 0.000000 0.000000 0.000000
# 2 -0.003319 0.012357 -0.005606 0.000000 0.000000 0.000000
# 3 -0.002383 -0.005606 0.015784 0.000000 0.000000 0.000000
# 4 0.000000 0.000000 0.000000 0.029489 0.000000 0.000000
# 5 0.000000 0.000000 0.000000 0.000000 0.344820 0.000000
# 6 0.000000 0.000000 0.000000 0.000000 0.000000 0.028872
#
#
# Mechanical properties :
#
#
# Convention : Reuss Voigt Hill
#
# Bulk Modulus (GPa) = 70.24256 74.55690 72.39973
# Shear Modulus (GPa) = 10.69755 27.80541 19.25148
#
# Velocity S-wave (km/s) = 2.27114 3.66156 3.04673
# Velocity P-wave (km/s) = 6.38331 7.33659 6.87649
#
# Compressibility (1/GPa) = 0.01423638
#
# Stress axis : x y z
#
# Youngs Moduli (GPa) = 114.77655 80.92880 63.35425
#
# Poissons Ratio (x) = 0.26863 0.15096
# Poissons Ratio (y) = 0.38098 0.35519
# Poissons Ratio (z) = 0.27348 0.45372
#
# Static dielectric constant tensor:
#      x y z
#    x 3.880790 0.000000 0.000000 
#    y 0.000000 3.833120 0.000000 
#    z 0.000000 0.000000 3.816880 
# 
# 
# High freq. dielectric constant tensor:
#      x y z
#    x 1.828020 0.000000 0.000000 
#    y 0.000000 1.816010 0.000000 
#    z 0.000000 0.000000 1.815000 
# 
# From -- ./inp_files/18776.got.cif
#   From: 2010.03.12/outbox.cif.g09.slc.cpg/sg35_10_cif.got.tgz:18776.got - 2010.04.14 02:02:04.
