data_PCOD8173326
_publ_section_title
;
Structure prediction by ZEFSAII (Michael W. Deem and Ramdas Pophale) SiO2 
 PCOD8173326
Probable space group: C M M 2
;
_chemical_formula_sum "Si O2"
_cell_formula_units_Z 56
_cell_length_a 12.992257
_cell_length_b 17.526363
_cell_length_c 11.799010
_cell_angle_alpha 90.000000
_cell_angle_beta 90.000000
_cell_angle_gamma 90.000000
_cell_volume 2686.717316
_symmetry_space_group_name_H-M "C M M 2"
_symmetry_group_IT_number 35
_symmetry_cell_setting 'orthorhombic'
loop_
_space_group_symop_operation_xyz
x,y,z
-x,-y,z
-x,y,z
x,-y,z
1/2+x,1/2+y,z
1/2-x,1/2-y,z
1/2-x,1/2+y,z
1/2+x,1/2-y,z
loop_
_atom_site_type_symbol
_atom_site_label
_atom_site_fract_x
_atom_site_fract_y
_atom_site_fract_z
Si Si1 0.700044 0.084499 0.457970
Si Si2 0.382842 0.196968 0.618905
Si Si3 0.120210 0.413509 0.212238
Si Si4 0.617974 0.085649 0.804857
Si Si5 0.217756 0.337345 0.002169
Si Si6 0.610086 0.587007 0.863102
Si Si7 0.877801 0.868436 0.613095
O O1 0.626154 0.152323 0.500744
O O2 0.692024 0.092022 0.323047
O O3 0.816090 0.092439 0.508953
O O4 0.658808 0.000000 0.493052
O O5 0.500000 0.210435 0.654605
O O6 0.328601 0.138697 0.708426
O O7 0.334445 0.281395 0.614473
O O8 0.122563 0.500000 0.164505
O O9 0.177999 0.356623 0.126982
O O10 0.000000 0.389800 0.233063
O O11 0.500000 0.073313 0.774342
O O12 0.669550 0.000000 0.813096
O O13 0.626364 0.134456 0.919767
O O14 0.250000 0.250000 0.992889
O O15 0.317837 0.382403 0.961636
O O16 0.500000 0.630216 0.871335
O O17 0.593419 0.500000 0.890518
O O18 0.652411 0.596221 0.734996
O O19 0.000000 0.876327 0.587721
#
# Coordination Sequence:
#
# PCOD8173326 Si02
#       7
#     8   8   8   8   8   8   8
#     4  11  22  37  59  84 112 148 192 240 288 344
#     4  10  20  34  55  85 120 151 185 236 293 347
#     4  10  23  44  66  85 109 146 193 244 297 352
#     4  10  20  35  58  87 118 153 195 243 293 346
#     4  12  24  37  58  86 116 150 188 238 293 349
#     4  10  21  38  59  83 116 157 197 233 272 328
#     4  10  21  37  58  85 120 160 196 233 280 336
#
# _framework density 20.843278999999999
#
# number of rings (size 3 to 8) (size 9 to 14) (size 15 to 20)
#    0.000    1.571    0.000    5.143    0.000    6.857 
#    0.000    0.714    0.000    0.857    0.000    0.000 
#    0.000    0.000    0.000    0.000    0.000    0.000 
#
# Total GULP energy -346934.324097 kJ/mol
# GULP energy per Si atom -12390.511575 kJ/mol
# Density = 2.079584 g / cm^3
# Si number density = 20.843279 Si / 1000 Ang^3
#
#
#
# Elastic Constant Matrix: (Units=GPa)
#
#
# Indices 1 2 3 4 5 6 
#
# 1 80.6069 9.1518 23.4008 0.0000 0.0000 0.0000
# 2 9.1518 147.9930 52.4854 0.0000 0.0000 0.0000
# 3 23.4008 52.4854 100.4886 0.0000 0.0000 0.0000
# 4 0.0000 0.0000 0.0000 -3.4473 0.0000 0.0000
# 5 0.0000 0.0000 0.0000 0.0000 40.5155 0.0000
# 6 0.0000 0.0000 0.0000 0.0000 0.0000 24.1949
#
#
#
# Elastic Compliance Matrix: (Units=1/GPa)
#
#
# Indices 1 2 3 4 5 6 
#
# 1 0.013319 0.000339 -0.003279 0.000000 0.000000 0.000000
# 2 0.000339 0.008302 -0.004415 0.000000 0.000000 0.000000
# 3 -0.003279 -0.004415 0.013021 0.000000 0.000000 0.000000
# 4 0.000000 0.000000 0.000000 -0.290085 0.000000 0.000000
# 5 0.000000 0.000000 0.000000 0.000000 0.024682 0.000000
# 6 0.000000 0.000000 0.000000 0.000000 0.000000 0.041331
#
#
# Mechanical properties :
#
#
# Convention : Reuss Voigt Hill
#
# Bulk Modulus (GPa) = 50.16900 55.46272 52.81586
# Shear Modulus (GPa) = -29.74844 28.52267 -0.61288
#
# Velocity S-wave (km/s) = -3.78199 3.70325 -0.54285
# Velocity P-wave (km/s) = 2.24737 6.70467 5.00016
#
# Compressibility (1/GPa) = 0.01993263
#
# Stress axis : x y z
#
# Youngs Moduli (GPa) = 75.07940 120.45432 76.79954
#
# Poissons Ratio (x) = -0.04085 0.25181
# Poissons Ratio (y) = -0.02546 0.33908
# Poissons Ratio (z) = 0.24617 0.53182
#
# Static dielectric constant tensor:
#      x y z
#    x 3.388040 0.000000 0.000000 
#    y 0.000000 4.133460 0.000000 
#    z 0.000000 0.000000 3.520980 
# 
# 
# High freq. dielectric constant tensor:
#      x y z
#    x 1.833110 0.000000 0.000000 
#    y 0.000000 1.828590 0.000000 
#    z 0.000000 0.000000 1.790700 
# 
# From -- ./inp_files/12991.got.cif
#   From: 2010.03.12/outbox.cif.g09.slc.cpg/sg35_7_cif.got.tgz:12991.got - 2010.04.14 02:02:04.
