data_PCOD8173872
_publ_section_title
;
Structure prediction by ZEFSAII (Michael W. Deem and Ramdas Pophale) SiO2 
 PCOD8173872
Probable space group: C M M 2
;
_chemical_formula_sum "Si O2"
_cell_formula_units_Z 40
_cell_length_a 15.444032
_cell_length_b 10.153750
_cell_length_c 12.812294
_cell_angle_alpha 90.000000
_cell_angle_beta 90.000000
_cell_angle_gamma 90.000000
_cell_volume 2009.157833
_symmetry_space_group_name_H-M "C M M 2"
_symmetry_group_IT_number 35
_symmetry_cell_setting 'orthorhombic'
loop_
_space_group_symop_operation_xyz
x,y,z
-x,-y,z
-x,y,z
x,-y,z
1/2+x,1/2+y,z
1/2-x,1/2-y,z
1/2-x,1/2+y,z
1/2+x,1/2-y,z
loop_
_atom_site_type_symbol
_atom_site_label
_atom_site_fract_x
_atom_site_fract_y
_atom_site_fract_z
Si Si1 0.760800 0.000000 0.632870
Si Si2 0.903591 0.349309 0.907666
Si Si3 0.250000 0.750000 0.773443
Si Si4 0.096161 0.000000 0.452119
Si Si5 0.352182 0.236878 0.351029
Si Si6 0.671816 0.848528 0.127152
Si Si7 0.902838 0.500000 0.496033
O O1 0.774144 0.872005 0.701732
O O2 0.830970 0.000000 0.540780
O O3 0.662858 0.000000 0.591862
O O4 0.889451 0.500000 0.874365
O O5 0.833587 0.264965 0.846092
O O6 0.000000 0.301399 0.877238
O O7 0.894721 0.333985 0.032221
O O8 0.104478 0.124633 0.376433
O O9 0.000000 0.000000 0.502993
O O10 0.250000 0.250000 0.366015
O O11 0.376181 0.193751 0.233572
O O12 0.389680 0.129587 0.428514
O O13 0.750000 0.750000 0.104561
O O14 0.705433 0.000000 0.136752
O O15 0.000000 0.500000 0.542138
#
# Coordination Sequence:
#
# PCOD8173872 Si02
#       7
#     4   8   4   4   8   8   4
#     4  12  26  44  66  92 128 166 216 278 322 370
#     4  10  22  43  69  98 130 165 211 260 319 387
#     4  12  24  44  70  92 126 164 220 270 326 370
#     4  12  26  44  65  93 132 171 211 264 327 374
#     4  11  21  41  66  95 133 172 211 253 313 383
#     4  10  21  37  68  99 131 172 208 252 313 383
#     4  12  24  42  67  95 124 167 223 262 309 386
#
# _framework density 19.908840999999999
#
# number of rings (size 3 to 8) (size 9 to 14) (size 15 to 20)
#    0.000    1.000    5.000    1.800    4.200    3.200 
#    0.000    0.000    0.000    0.000    0.000    0.000 
#    0.000    0.000    0.000    0.000    0.000    0.000 
#
# Total GULP energy -248048.537004 kJ/mol
# GULP energy per Si atom -12402.426850 kJ/mol
# Density = 1.986353 g / cm^3
# Si number density = 19.908841 Si / 1000 Ang^3
#
#
#
# Elastic Constant Matrix: (Units=GPa)
#
#
# Indices 1 2 3 4 5 6 
#
# 1 152.6992 47.6425 63.7209 0.0000 0.0000 0.0000
# 2 47.6425 156.2372 61.8217 0.0000 0.0000 0.0000
# 3 63.7209 61.8217 115.1590 0.0000 0.0000 0.0000
# 4 0.0000 0.0000 0.0000 59.7249 0.0000 0.0000
# 5 0.0000 0.0000 0.0000 0.0000 6.9658 0.0000
# 6 0.0000 0.0000 0.0000 0.0000 0.0000 32.2277
#
#
#
# Elastic Compliance Matrix: (Units=1/GPa)
#
#
# Indices 1 2 3 4 5 6 
#
# 1 0.008623 -0.000941 -0.004266 0.000000 0.000000 0.000000
# 2 -0.000941 0.008230 -0.003897 0.000000 0.000000 0.000000
# 3 -0.004266 -0.003897 0.013136 0.000000 0.000000 0.000000
# 4 0.000000 0.000000 0.000000 0.016743 0.000000 0.000000
# 5 0.000000 0.000000 0.000000 0.000000 0.143558 0.000000
# 6 0.000000 0.000000 0.000000 0.000000 0.000000 0.031029
#
#
# Mechanical properties :
#
#
# Convention : Reuss Voigt Hill
#
# Bulk Modulus (GPa) = 84.89057 85.60729 85.24893
# Shear Modulus (GPa) = 20.53776 36.51104 28.52440
#
# Velocity S-wave (km/s) = 3.21532 4.28706 3.78928
# Velocity P-wave (km/s) = 7.51775 8.22181 7.87765
#
# Compressibility (1/GPa) = 0.01177987
#
# Stress axis : x y z
#
# Youngs Moduli (GPa) = 115.97367 121.51207 76.12600
#
# Poissons Ratio (x) = 0.11440 0.32474
# Poissons Ratio (y) = 0.10918 0.29667
# Poissons Ratio (z) = 0.49472 0.47354
#
# Static dielectric constant tensor:
#      x y z
#    x 3.646470 0.000000 0.000000 
#    y 0.000000 3.770190 0.000000 
#    z 0.000000 0.000000 3.730520 
# 
# 
# High freq. dielectric constant tensor:
#      x y z
#    x 1.775090 0.000000 0.000000 
#    y 0.000000 1.787250 0.000000 
#    z 0.000000 0.000000 1.783530 
# 
# From -- ./inp_files/14852.got.cif
#   From: 2010.03.12/outbox.cif.g09.slc.cpg/sg35_8_cif.got.tgz:14852.got - 2010.04.14 02:02:04.
