data_PCOD8173259
_publ_section_title
;
Structure prediction by ZEFSAII (Michael W. Deem and Ramdas Pophale) SiO2 
 PCOD8173259
Probable space group: C M M 2
;
_chemical_formula_sum "Si O2"
_cell_formula_units_Z 64
_cell_length_a 8.802087
_cell_length_b 18.420469
_cell_length_c 20.588657
_cell_angle_alpha 90.000000
_cell_angle_beta 90.000000
_cell_angle_gamma 90.000000
_cell_volume 3338.215419
_symmetry_space_group_name_H-M "C M M 2"
_symmetry_group_IT_number 35
_symmetry_cell_setting 'orthorhombic'
loop_
_space_group_symop_operation_xyz
x,y,z
-x,-y,z
-x,y,z
x,-y,z
1/2+x,1/2+y,z
1/2-x,1/2-y,z
1/2-x,1/2+y,z
1/2+x,1/2-y,z
loop_
_atom_site_type_symbol
_atom_site_label
_atom_site_fract_x
_atom_site_fract_y
_atom_site_fract_z
Si Si1 0.675980 0.584651 0.821920
Si Si2 0.820285 0.173659 0.069744
Si Si3 0.171189 0.413539 0.439422
Si Si4 0.320619 0.328653 0.694803
Si Si5 0.179646 0.082799 0.571053
Si Si6 0.329104 0.586504 0.310275
Si Si7 0.679874 0.173255 0.932806
Si Si8 0.671864 0.086062 0.180086
O O1 0.500000 0.600931 0.837334
O O2 0.705355 0.500000 0.811565
O O3 0.729963 0.624813 0.756864
O O4 0.778438 0.611963 0.881071
O O5 0.750000 0.250000 0.092011
O O6 0.780271 0.114330 0.123382
O O7 0.000000 0.180727 0.061780
O O8 0.748396 0.148767 0.001622
O O9 0.177147 0.500000 0.437945
O O10 0.249987 0.384904 0.504986
O O11 0.257712 0.381968 0.376577
O O12 0.000000 0.384403 0.437634
O O13 0.500000 0.321354 0.691659
O O14 0.250000 0.250000 0.700219
O O15 0.259205 0.369128 0.630644
O O16 0.000000 0.086733 0.564758
O O17 0.232715 0.000000 0.582855
O O18 0.500000 0.616026 0.303676
O O19 0.326985 0.500000 0.312021
O O20 0.232115 0.615203 0.249248
O O21 0.500000 0.181262 0.938943
O O22 0.750000 0.250000 0.910282
O O23 0.500000 0.114152 0.170279
O O24 0.679111 0.000000 0.178100
#
# Coordination Sequence:
#
# PCOD8173259 Si02
#       8
#     8   8   8   8   8   8   8   8
#     4  10  21  38  59  83 111 142 177 219 267 317
#     4  11  22  38  59  81 108 143 183 223 266 319
#     4   9  16  26  43  70 102 134 169 213 266 318
#     4  10  21  36  55  78 105 140 178 216 260 313
#     4   9  17  31  51  74 100 132 172 216 261 312
#     4   9  16  27  45  71 103 139 178 218 263 317
#     4  11  22  38  59  82 109 141 179 220 265 318
#     4  10  20  34  53  79 111 144 180 225 273 319
#
# _framework density 19.171921000000001
#
# number of rings (size 3 to 8) (size 9 to 14) (size 15 to 20)
#    0.000    2.125    0.000    4.875    0.000    8.000 
#    0.000    0.000    0.000    3.000    0.000    3.500 
#    0.000    0.000    0.000    0.000    0.000    0.000 
#
# Total GULP energy -396880.967771 kJ/mol
# GULP energy per Si atom -12402.530243 kJ/mol
# Density = 1.912829 g / cm^3
# Si number density = 19.171921 Si / 1000 Ang^3
#
#
#
# Elastic Constant Matrix: (Units=GPa)
#
#
# Indices 1 2 3 4 5 6 
#
# 1 117.6359 35.7156 61.5897 0.0000 0.0000 0.0000
# 2 35.7156 66.1896 58.0963 0.0000 0.0000 0.0000
# 3 61.5897 58.0963 158.3871 0.0000 0.0000 0.0000
# 4 0.0000 0.0000 0.0000 20.9176 0.0000 0.0000
# 5 0.0000 0.0000 0.0000 0.0000 27.4693 0.0000
# 6 0.0000 0.0000 0.0000 0.0000 0.0000 24.9960
#
#
#
# Elastic Compliance Matrix: (Units=1/GPa)
#
#
# Indices 1 2 3 4 5 6 
#
# 1 0.011130 -0.003255 -0.003134 0.000000 0.000000 0.000000
# 2 -0.003255 0.023233 -0.007256 0.000000 0.000000 0.000000
# 3 -0.003134 -0.007256 0.010194 0.000000 0.000000 0.000000
# 4 0.000000 0.000000 0.000000 0.047807 0.000000 0.000000
# 5 0.000000 0.000000 0.000000 0.000000 0.036404 0.000000
# 6 0.000000 0.000000 0.000000 0.000000 0.000000 0.040006
#
#
# Mechanical properties :
#
#
# Convention : Reuss Voigt Hill
#
# Bulk Modulus (GPa) = 57.91435 72.55733 65.23584
# Shear Modulus (GPa) = 24.77445 27.13064 25.95254
#
# Velocity S-wave (km/s) = 3.59865 3.76589 3.68322
# Velocity P-wave (km/s) = 6.89497 7.53904 7.22418
#
# Compressibility (1/GPa) = 0.01726688
#
# Stress axis : x y z
#
# Youngs Moduli (GPa) = 89.84833 43.04132 98.09698
#
# Poissons Ratio (x) = 0.14009 0.30744
# Poissons Ratio (y) = 0.29244 0.71183
# Poissons Ratio (z) = 0.28159 0.31233
#
# Static dielectric constant tensor:
#      x y z
#    x 3.594990 0.000000 0.000000 
#    y 0.000000 3.139660 0.000000 
#    z 0.000000 0.000000 3.716200 
# 
# 
# High freq. dielectric constant tensor:
#      x y z
#    x 1.751450 0.000000 0.000000 
#    y 0.000000 1.709790 0.000000 
#    z 0.000000 0.000000 1.763300 
# 
# From -- ./inp_files/18370.got.cif
#   From: 2010.03.12/outbox.cif.g09.slc.cpg/sg35_10_cif.got.tgz:18370.got - 2010.04.14 02:02:04.
