data_PCOD8173720
_publ_section_title
;
Structure prediction by ZEFSAII (Michael W. Deem and Ramdas Pophale) SiO2 
 PCOD8173720
Probable space group: C M M 2
;
_chemical_formula_sum "Si O2"
_cell_formula_units_Z 40
_cell_length_a 22.649473
_cell_length_b 8.794908
_cell_length_c 9.883342
_cell_angle_alpha 90.000000
_cell_angle_beta 90.000000
_cell_angle_gamma 90.000000
_cell_volume 1968.762036
_symmetry_space_group_name_H-M "C M M 2"
_symmetry_group_IT_number 35
_symmetry_cell_setting 'orthorhombic'
loop_
_space_group_symop_operation_xyz
x,y,z
-x,-y,z
-x,y,z
x,-y,z
1/2+x,1/2+y,z
1/2-x,1/2-y,z
1/2-x,1/2+y,z
1/2+x,1/2-y,z
loop_
_atom_site_type_symbol
_atom_site_label
_atom_site_fract_x
_atom_site_fract_y
_atom_site_fract_z
Si Si1 0.500000 0.819744 0.834350
Si Si2 0.878293 0.820206 0.398748
Si Si3 0.190973 0.828008 0.654097
Si Si4 0.882167 0.175261 0.916466
Si Si5 0.500000 0.322225 0.537948
Si Si6 0.313512 0.180202 0.154849
O O1 0.444776 0.758208 0.920153
O O2 0.500000 0.765770 0.679430
O O3 0.500000 0.000000 0.836635
O O4 0.833080 0.760747 0.513425
O O5 0.943958 0.777715 0.446868
O O6 0.862750 0.730075 0.263183
O O7 0.872690 0.000000 0.373305
O O8 0.250000 0.750000 0.705738
O O9 0.139772 0.811323 0.763326
O O10 0.208448 0.000000 0.629792
O O11 0.888689 0.000000 0.961896
O O12 0.834741 0.258917 0.010327
O O13 0.500000 0.500000 0.576018
O O14 0.250000 0.250000 0.192167
O O15 0.307618 0.000000 0.150504
#
# Coordination Sequence:
#
# PCOD8173720 Si02
#       6
#     4   8   8   8   4   8
#     4  12  24  39  64  99 134 166 208 266 322 379
#     4  10  21  40  65  93 124 168 215 261 318 382
#     4  10  21  36  60  90 121 158 210 262 313 375
#     4  11  23  43  67  91 124 172 216 262 320 381
#     4  10  20  41  68  93 128 168 214 262 316 383
#     4  12  26  44  64  93 131 171 215 267 323 386
#
# _framework density 20.317336999999998
#
# number of rings (size 3 to 8) (size 9 to 14) (size 15 to 20)
#    0.000    1.200    2.000    4.500    0.000    7.200 
#    0.000    3.000    0.000    0.000    0.000    0.000 
#    0.000    0.000    0.000    0.000    0.000    0.000 
#
# Total GULP energy -248083.175016 kJ/mol
# GULP energy per Si atom -12404.158751 kJ/mol
# Density = 2.027109 g / cm^3
# Si number density = 20.317337 Si / 1000 Ang^3
#
#
#
# Elastic Constant Matrix: (Units=GPa)
#
#
# Indices 1 2 3 4 5 6 
#
# 1 123.9211 50.7965 17.4512 0.0000 0.0000 0.0000
# 2 50.7965 124.1644 37.7397 0.0000 0.0000 0.0000
# 3 17.4512 37.7397 75.6405 0.0000 0.0000 0.0000
# 4 0.0000 0.0000 0.0000 34.8348 0.0000 0.0000
# 5 0.0000 0.0000 0.0000 0.0000 34.2454 0.0000
# 6 0.0000 0.0000 0.0000 0.0000 0.0000 29.8592
#
#
#
# Elastic Compliance Matrix: (Units=1/GPa)
#
#
# Indices 1 2 3 4 5 6 
#
# 1 0.009701 -0.003877 -0.000304 0.000000 0.000000 0.000000
# 2 -0.003877 0.011043 -0.004615 0.000000 0.000000 0.000000
# 3 -0.000304 -0.004615 0.015593 0.000000 0.000000 0.000000
# 4 0.000000 0.000000 0.000000 0.028707 0.000000 0.000000
# 5 0.000000 0.000000 0.000000 0.000000 0.029201 0.000000
# 6 0.000000 0.000000 0.000000 0.000000 0.000000 0.033491
#
#
# Mechanical properties :
#
#
# Convention : Reuss Voigt Hill
#
# Bulk Modulus (GPa) = 53.34556 59.52231 56.43394
# Shear Modulus (GPa) = 32.98679 34.30379 33.64529
#
# Velocity S-wave (km/s) = 4.03374 4.11347 4.07380
# Velocity P-wave (km/s) = 6.92877 7.20561 7.06855
#
# Compressibility (1/GPa) = 0.01874570
#
# Stress axis : x y z
#
# Youngs Moduli (GPa) = 103.07689 90.55907 64.13032
#
# Poissons Ratio (x) = 0.35105 0.01950
# Poissons Ratio (y) = 0.39958 0.29597
# Poissons Ratio (z) = 0.03135 0.41794
#
# Static dielectric constant tensor:
#      x y z
#    x 3.831100 0.000000 0.000000 
#    y 0.000000 3.642960 0.000000 
#    z 0.000000 0.000000 3.605720 
# 
# 
# High freq. dielectric constant tensor:
#      x y z
#    x 1.808470 0.000000 0.000000 
#    y 0.000000 1.789180 0.000000 
#    z 0.000000 0.000000 1.796560 
# 
# From -- ./inp_files/9667.got.cif
#   From: 2010.03.12/outbox.cif.g09.slc.cpg/sg35_5_cif.got.tgz:9667.got - 2010.04.14 02:02:04.
