data_PCOD8173791
_publ_section_title
;
Structure prediction by ZEFSAII (Michael W. Deem and Ramdas Pophale) SiO2 
 PCOD8173791
Probable space group: C M M 2
;
_chemical_formula_sum "Si O2"
_cell_formula_units_Z 48
_cell_length_a 18.649473
_cell_length_b 9.221585
_cell_length_c 15.253746
_cell_angle_alpha 90.000000
_cell_angle_beta 90.000000
_cell_angle_gamma 90.000000
_cell_volume 2623.304161
_symmetry_space_group_name_H-M "C M M 2"
_symmetry_group_IT_number 35
_symmetry_cell_setting 'orthorhombic'
loop_
_space_group_symop_operation_xyz
x,y,z
-x,-y,z
-x,y,z
x,-y,z
1/2+x,1/2+y,z
1/2-x,1/2-y,z
1/2-x,1/2+y,z
1/2+x,1/2-y,z
loop_
_atom_site_type_symbol
_atom_site_label
_atom_site_fract_x
_atom_site_fract_y
_atom_site_fract_z
Si Si1 0.418078 0.669538 0.469240
Si Si2 0.320913 0.832670 0.943733
Si Si3 0.082275 0.668539 0.298708
Si Si4 0.416670 0.831835 0.782410
Si Si5 0.326280 0.327875 0.637765
Si Si6 0.678576 0.829912 0.140452
O O1 0.500000 0.719230 0.489433
O O2 0.414977 0.500000 0.451693
O O3 0.386808 0.747763 0.383042
O O4 0.367745 0.715075 0.549403
O O5 0.250000 0.750000 0.911192
O O6 0.387343 0.800515 0.879961
O O7 0.299569 0.000000 0.942424
O O8 0.344197 0.784113 0.041774
O O9 0.095421 0.500000 0.315943
O O10 0.118549 0.721142 0.208856
O O11 0.000000 0.708438 0.286603
O O12 0.500000 0.789804 0.780716
O O13 0.374236 0.728332 0.717251
O O14 0.404934 0.000000 0.756391
O O15 0.315594 0.500000 0.647017
O O16 0.250000 0.250000 0.638514
O O17 0.750000 0.750000 0.169605
O O18 0.692136 0.000000 0.146452
#
# Coordination Sequence:
#
# PCOD8173791 Si02
#       6
#     8   8   8   8   8   8
#     4   9  19  36  55  74  99 133 170 208 254 306
#     4   9  18  33  52  74 102 136 171 209 253 301
#     4   9  18  32  51  75 101 131 168 209 252 298
#     4  10  21  36  55  80 107 136 172 213 258 308
#     4  11  23  38  56  78 105 137 173 213 259 310
#     4   9  18  32  50  73 102 135 170 208 251 299
#
# _framework density 18.297536000000001
#
# number of rings (size 3 to 8) (size 9 to 14) (size 15 to 20)
#    0.000    2.500    0.000    1.500    0.000    6.333 
#    0.000    8.333    0.000    0.000    0.000    7.000 
#    0.000    0.000    0.000    0.000    0.000    0.000 
#
# Total GULP energy -297611.805957 kJ/mol
# GULP energy per Si atom -12400.491915 kJ/mol
# Density = 1.825589 g / cm^3
# Si number density = 18.297536 Si / 1000 Ang^3
#
#
#
# Elastic Constant Matrix: (Units=GPa)
#
#
# Indices 1 2 3 4 5 6 
#
# 1 120.1540 48.0777 80.4150 0.0000 0.0000 0.0000
# 2 48.0777 49.7373 52.7690 0.0000 0.0000 0.0000
# 3 80.4150 52.7690 137.3475 0.0000 0.0000 0.0000
# 4 0.0000 0.0000 0.0000 30.4782 0.0000 0.0000
# 5 0.0000 0.0000 0.0000 0.0000 33.8046 0.0000
# 6 0.0000 0.0000 0.0000 0.0000 0.0000 25.3921
#
#
#
# Elastic Compliance Matrix: (Units=1/GPa)
#
#
# Indices 1 2 3 4 5 6 
#
# 1 0.015860 -0.009249 -0.005732 0.000000 0.000000 0.000000
# 2 -0.009249 0.039334 -0.009697 0.000000 0.000000 0.000000
# 3 -0.005732 -0.009697 0.014363 0.000000 0.000000 0.000000
# 4 0.000000 0.000000 0.000000 0.032810 0.000000 0.000000
# 5 0.000000 0.000000 0.000000 0.000000 0.029582 0.000000
# 6 0.000000 0.000000 0.000000 0.000000 0.000000 0.039382
#
#
# Mechanical properties :
#
#
# Convention : Reuss Voigt Hill
#
# Bulk Modulus (GPa) = 49.50505 74.41802 61.96153
# Shear Modulus (GPa) = 21.98565 26.33345 24.15955
#
# Velocity S-wave (km/s) = 3.47012 3.79777 3.63763
# Velocity P-wave (km/s) = 6.57038 7.74533 7.18192
#
# Compressibility (1/GPa) = 0.02019996
#
# Stress axis : x y z
#
# Youngs Moduli (GPa) = 63.05201 25.42321 69.62539
#
# Poissons Ratio (x) = 0.23514 0.39911
# Poissons Ratio (y) = 0.58317 0.67516
# Poissons Ratio (z) = 0.36143 0.24653
#
# Static dielectric constant tensor:
#      x y z
#    x 3.517220 0.000000 0.000000 
#    y 0.000000 3.340410 0.000000 
#    z 0.000000 0.000000 3.667280 
# 
# 
# High freq. dielectric constant tensor:
#      x y z
#    x 1.705170 0.000000 0.000000 
#    y 0.000000 1.704590 0.000000 
#    z 0.000000 0.000000 1.722170 
# 
# From -- ./inp_files/14079.got.cif
#   From: 2010.03.12/outbox.cif.g09.slc.cpg/sg35_8_cif.got.tgz:14079.got - 2010.04.14 02:02:04.
