data_PCOD8173503
_publ_section_title
;
Structure prediction by ZEFSAII (Michael W. Deem and Ramdas Pophale) SiO2 
 PCOD8173503
Probable space group: C M M 2
;
_chemical_formula_sum "Si O2"
_cell_formula_units_Z 48
_cell_length_a 27.914769
_cell_length_b 8.399941
_cell_length_c 10.082647
_cell_angle_alpha 90.000000
_cell_angle_beta 90.000000
_cell_angle_gamma 90.000000
_cell_volume 2364.203394
_symmetry_space_group_name_H-M "C M M 2"
_symmetry_group_IT_number 35
_symmetry_cell_setting 'orthorhombic'
loop_
_space_group_symop_operation_xyz
x,y,z
-x,-y,z
-x,y,z
x,-y,z
1/2+x,1/2+y,z
1/2-x,1/2-y,z
1/2-x,1/2+y,z
1/2+x,1/2-y,z
loop_
_atom_site_type_symbol
_atom_site_label
_atom_site_fract_x
_atom_site_fract_y
_atom_site_fract_z
Si Si1 0.053556 0.184530 0.656370
Si Si2 0.197912 0.184436 0.979841
Si Si3 0.148253 0.682617 0.724675
Si Si4 0.946481 0.316678 0.372305
Si Si5 0.353005 0.816298 0.226035
Si Si6 0.198462 0.815585 0.477087
O O1 0.091698 0.281337 0.745510
O O2 0.063713 0.209694 0.500466
O O3 0.000000 0.245994 0.691205
O O4 0.058717 0.000000 0.690165
O O5 0.250000 0.250000 0.018023
O O6 0.163179 0.206704 0.104909
O O7 0.200843 0.000000 0.942187
O O8 0.177589 0.281250 0.856347
O O9 0.156479 0.500000 0.686037
O O10 0.164977 0.793920 0.604517
O O11 0.939780 0.500000 0.415998
O O12 0.908267 0.272445 0.258617
O O13 0.000000 0.285622 0.316119
O O14 0.320442 0.785108 0.353659
O O15 0.347440 0.000000 0.184481
O O16 0.250000 0.750000 0.517951
O O17 0.200426 0.000000 0.437589
#
# Coordination Sequence:
#
# PCOD8173503 Si02
#       6
#     8   8   8   8   8   8
#     4  10  20  35  59  92 127 161 201 250 305 361
#     4  12  26  45  65  87 120 163 207 255 311 373
#     4  12  24  41  63  90 122 160 205 253 306 367
#     4   9  18  34  59  90 124 161 201 247 300 359
#     4  11  22  39  62  91 124 161 205 252 303 364
#     4  12  24  39  60  88 121 156 201 255 308 362
#
# _framework density 20.302820000000001
#
# number of rings (size 3 to 8) (size 9 to 14) (size 15 to 20)
#    0.000    1.000    1.667    6.500    0.000    1.667 
#    0.000    0.833    0.000    3.000    0.000    0.000 
#    0.000    0.000    0.000    0.000    0.000    0.000 
#
# Total GULP energy -297740.649524 kJ/mol
# GULP energy per Si atom -12405.860397 kJ/mol
# Density = 2.025661 g / cm^3
# Si number density = 20.302820 Si / 1000 Ang^3
#
#
#
# Elastic Constant Matrix: (Units=GPa)
#
#
# Indices 1 2 3 4 5 6 
#
# 1 115.8171 41.6845 20.2469 0.0000 0.0000 0.0000
# 2 41.6845 72.0265 10.5039 0.0000 0.0000 0.0000
# 3 20.2469 10.5039 68.3330 0.0000 0.0000 0.0000
# 4 0.0000 0.0000 0.0000 34.0802 0.0000 0.0000
# 5 0.0000 0.0000 0.0000 0.0000 31.0785 0.0000
# 6 0.0000 0.0000 0.0000 0.0000 0.0000 -20.0795
#
#
#
# Elastic Compliance Matrix: (Units=1/GPa)
#
#
# Indices 1 2 3 4 5 6 
#
# 1 0.011276 -0.006177 -0.002391 0.000000 0.000000 0.000000
# 2 -0.006177 0.017586 -0.000873 0.000000 0.000000 0.000000
# 3 -0.002391 -0.000873 0.015477 0.000000 0.000000 0.000000
# 4 0.000000 0.000000 0.000000 0.029343 0.000000 0.000000
# 5 0.000000 0.000000 0.000000 0.000000 0.032177 0.000000
# 6 0.000000 0.000000 0.000000 0.000000 0.000000 -0.049802
#
#
# Mechanical properties :
#
#
# Convention : Reuss Voigt Hill
#
# Bulk Modulus (GPa) = 39.28387 44.56081 41.92234
# Shear Modulus (GPa) = 59.93534 21.26527 40.60030
#
# Velocity S-wave (km/s) = 5.43919 3.23987 4.47669
# Velocity P-wave (km/s) = 7.67055 5.99929 6.88581
#
# Compressibility (1/GPa) = 0.02545574
#
# Stress axis : x y z
#
# Youngs Moduli (GPa) = 88.68777 56.86385 64.61206
#
# Poissons Ratio (x) = 0.35124 0.15451
# Poissons Ratio (y) = 0.54781 0.05641
# Poissons Ratio (z) = 0.21209 0.04965
#
# Static dielectric constant tensor:
#      x y z
#    x 4.074080 0.000000 0.000000 
#    y 0.000000 3.640040 0.000000 
#    z 0.000000 0.000000 3.478650 
# 
# 
# High freq. dielectric constant tensor:
#      x y z
#    x 1.814150 0.000000 0.000000 
#    y 0.000000 1.800970 0.000000 
#    z 0.000000 0.000000 1.764060 
# 
# From -- ./inp_files/5346.got.cif
#   From: 2010.03.12/outbox.cif.g09.slc.cpg/sg35_3_cif.got.tgz:5346.got - 2010.04.14 02:02:04.
