data_PCOD8173642
_publ_section_title
;
Structure prediction by ZEFSAII (Michael W. Deem and Ramdas Pophale) SiO2 
 PCOD8173642
Probable space group: C M M 2
;
_chemical_formula_sum "Si O2"
_cell_formula_units_Z 48
_cell_length_a 14.942883
_cell_length_b 8.719486
_cell_length_c 18.976505
_cell_angle_alpha 90.000000
_cell_angle_beta 90.000000
_cell_angle_gamma 90.000000
_cell_volume 2472.529660
_symmetry_space_group_name_H-M "C M M 2"
_symmetry_group_IT_number 35
_symmetry_cell_setting 'orthorhombic'
loop_
_space_group_symop_operation_xyz
x,y,z
-x,-y,z
-x,y,z
x,-y,z
1/2+x,1/2+y,z
1/2-x,1/2-y,z
1/2-x,1/2+y,z
1/2+x,1/2-y,z
loop_
_atom_site_type_symbol
_atom_site_label
_atom_site_fract_x
_atom_site_fract_y
_atom_site_fract_z
Si Si1 0.500000 0.818541 0.214571
Si Si2 0.000000 0.182432 0.851304
Si Si3 0.894642 0.674396 0.605995
Si Si4 0.649197 0.317193 0.118150
Si Si5 0.000000 0.180898 0.010005
Si Si6 0.500000 0.682150 0.366641
Si Si7 0.843242 0.682260 0.760864
Si Si8 0.839564 0.821005 0.464154
O O1 0.408240 0.746393 0.183835
O O2 0.500000 0.780557 0.296534
O O3 0.500000 0.000000 0.201541
O O4 0.086334 0.246532 0.813474
O O5 0.000000 0.246866 0.931182
O O6 0.000000 0.000000 0.848967
O O7 0.863538 0.500000 0.594722
O O8 0.861598 0.737495 0.681155
O O9 0.851847 0.775410 0.545285
O O10 0.000000 0.690210 0.603274
O O11 0.656395 0.500000 0.124797
O O12 0.750000 0.250000 0.115383
O O13 0.591335 0.265550 0.049493
O O14 0.000000 0.000000 0.008640
O O15 0.500000 0.500000 0.350927
O O16 0.583024 0.737400 0.413328
O O17 0.846906 0.500000 0.766286
O O18 0.750000 0.750000 0.786651
O O19 0.750000 0.750000 0.432682
O O20 0.832657 0.000000 0.461399
#
# Coordination Sequence:
#
# PCOD8173642 Si02
#       8
#     4   4   8   8   4   4   8   8
#     4  11  23  39  62  92 122 157 197 237 286 342
#     4  11  22  39  61  87 119 157 196 241 294 350
#     4  10  20  37  60  83 111 147 192 247 298 349
#     4  10  20  39  65  92 123 156 192 238 285 341
#     4   8  19  38  60  88 122 156 194 238 288 342
#     4  10  23  42  59  81 119 158 193 238 290 346
#     4  11  23  40  58  84 116 154 200 247 299 354
#     4  11  23  39  59  85 114 150 195 242 293 349
#
# _framework density 19.413316999999999
#
# number of rings (size 3 to 8) (size 9 to 14) (size 15 to 20)
#    0.000    1.667    1.667    3.500    0.000    5.333 
#    0.000    8.333    0.000    0.000    0.000    0.000 
#    0.000    0.000    0.000    0.000    0.000    0.000 
#
# Total GULP energy -297602.923221 kJ/mol
# GULP energy per Si atom -12400.121801 kJ/mol
# Density = 1.936913 g / cm^3
# Si number density = 19.413317 Si / 1000 Ang^3
#
#
#
# Elastic Constant Matrix: (Units=GPa)
#
#
# Indices 1 2 3 4 5 6 
#
# 1 176.1879 54.1889 87.2154 0.0000 0.0000 0.0000
# 2 54.1889 79.9588 51.3878 0.0000 0.0000 0.0000
# 3 87.2154 51.3878 151.2335 0.0000 0.0000 0.0000
# 4 0.0000 0.0000 0.0000 -0.6327 0.0000 0.0000
# 5 0.0000 0.0000 0.0000 0.0000 80.0884 0.0000
# 6 0.0000 0.0000 0.0000 0.0000 0.0000 34.4250
#
#
#
# Elastic Compliance Matrix: (Units=1/GPa)
#
#
# Indices 1 2 3 4 5 6 
#
# 1 0.008603 -0.003380 -0.003813 0.000000 0.000000 0.000000
# 2 -0.003380 0.017328 -0.003939 0.000000 0.000000 0.000000
# 3 -0.003813 -0.003939 0.010149 0.000000 0.000000 0.000000
# 4 0.000000 0.000000 0.000000 -1.580478 0.000000 0.000000
# 5 0.000000 0.000000 0.000000 0.000000 0.012486 0.000000
# 6 0.000000 0.000000 0.000000 0.000000 0.000000 0.029049
#
#
# Mechanical properties :
#
#
# Convention : Reuss Voigt Hill
#
# Bulk Modulus (GPa) = 72.37080 88.10715 80.23897
# Shear Modulus (GPa) = -3.38755 37.08200 16.84723
#
# Velocity S-wave (km/s) = -1.32240 4.37525 2.94907
# Velocity P-wave (km/s) = 5.91846 8.42657 7.28132
#
# Compressibility (1/GPa) = 0.01381773
#
# Stress axis : x y z
#
# Youngs Moduli (GPa) = 116.24471 57.70866 98.52763
#
# Poissons Ratio (x) = 0.19504 0.37565
# Poissons Ratio (y) = 0.39288 0.38810
# Poissons Ratio (z) = 0.44320 0.22731
#
# Static dielectric constant tensor:
#      x y z
#    x 3.660920 0.000000 0.000000 
#    y 0.000000 3.518430 0.000000 
#    z 0.000000 0.000000 3.715230 
# 
# 
# High freq. dielectric constant tensor:
#      x y z
#    x 1.772550 0.000000 0.000000 
#    y 0.000000 1.754890 0.000000 
#    z 0.000000 0.000000 1.755520 
# 
# From -- ./inp_files/17946.got.cif
#   From: 2010.03.12/outbox.cif.g09.slc.cpg/sg35_9_cif.got.tgz:17946.got - 2010.04.14 02:02:04.
