data_PCOD8173555
_publ_section_title
;
Structure prediction by ZEFSAII (Michael W. Deem and Ramdas Pophale) SiO2 
 PCOD8173555
Probable space group: C M M 2
;
_chemical_formula_sum "Si O2"
_cell_formula_units_Z 36
_cell_length_a 13.175117
_cell_length_b 22.033420
_cell_length_c 6.214645
_cell_angle_alpha 90.000000
_cell_angle_beta 90.000000
_cell_angle_gamma 90.000000
_cell_volume 1804.067235
_symmetry_space_group_name_H-M "C M M 2"
_symmetry_group_IT_number 35
_symmetry_cell_setting 'orthorhombic'
loop_
_space_group_symop_operation_xyz
x,y,z
-x,-y,z
-x,y,z
x,-y,z
1/2+x,1/2+y,z
1/2-x,1/2-y,z
1/2-x,1/2+y,z
1/2+x,1/2-y,z
loop_
_atom_site_type_symbol
_atom_site_label
_atom_site_fract_x
_atom_site_fract_y
_atom_site_fract_z
Si Si1 0.884595 0.431274 0.735790
Si Si2 0.202383 0.068769 0.426683
Si Si3 0.750000 0.750000 0.360964
Si Si4 0.615917 0.675076 0.671352
Si Si5 0.258242 0.145218 0.048870
O O1 0.873935 0.500000 0.826793
O O2 0.815509 0.423588 0.524575
O O3 0.000000 0.417188 0.668609
O O4 0.851736 0.383082 0.917263
O O5 0.124308 0.108259 0.567001
O O6 0.204091 0.091031 0.180584
O O7 0.163552 0.000000 0.433936
O O8 0.659333 0.725429 0.508991
O O9 0.702779 0.803728 0.215247
O O10 0.500000 0.691048 0.719771
O O11 0.676051 0.676888 0.895079
#
# Coordination Sequence:
#
# PCOD8173555 Si02
#       5
#     8   8   4   8   8
#     4   9  18  33  55  85 118 148 180 222 272 326
#     4   9  19  36  56  82 116 148 181 224 273 326
#     4  10  22  40  58  80 110 144 184 228 276 324
#     4  10  22  40  59  81 111 144 181 227 275 324
#     4  10  20  36  58  82 110 146 186 227 272 324
#
# _framework density 19.954910000000002
#
# number of rings (size 3 to 8) (size 9 to 14) (size 15 to 20)
#    0.000    2.444    0.000    1.333    0.000    6.667 
#    0.000   17.778    0.000    0.000    0.000    0.000 
#    0.000    0.000    0.000    0.000    0.000    0.000 
#
# Total GULP energy -223212.523402 kJ/mol
# GULP energy per Si atom -12400.695745 kJ/mol
# Density = 1.990949 g / cm^3
# Si number density = 19.954910 Si / 1000 Ang^3
#
#
#
# Elastic Constant Matrix: (Units=GPa)
#
#
# Indices 1 2 3 4 5 6 
#
# 1 109.7515 35.6890 35.2432 0.0000 0.0000 0.0000
# 2 35.6890 114.4081 47.4377 0.0000 0.0000 0.0000
# 3 35.2432 47.4377 110.1868 0.0000 0.0000 0.0000
# 4 0.0000 0.0000 0.0000 31.8377 0.0000 0.0000
# 5 0.0000 0.0000 0.0000 0.0000 12.8188 0.0000
# 6 0.0000 0.0000 0.0000 0.0000 0.0000 21.4855
#
#
#
# Elastic Compliance Matrix: (Units=1/GPa)
#
#
# Indices 1 2 3 4 5 6 
#
# 1 0.010638 -0.002322 -0.002403 0.000000 0.000000 0.000000
# 2 -0.002322 0.011147 -0.004056 0.000000 0.000000 0.000000
# 3 -0.002403 -0.004056 0.011590 0.000000 0.000000 0.000000
# 4 0.000000 0.000000 0.000000 0.031409 0.000000 0.000000
# 5 0.000000 0.000000 0.000000 0.000000 0.078011 0.000000
# 6 0.000000 0.000000 0.000000 0.000000 0.000000 0.046543
#
#
# Mechanical properties :
#
#
# Convention : Reuss Voigt Hill
#
# Bulk Modulus (GPa) = 63.23966 63.45404 63.34685
# Shear Modulus (GPa) = 23.56579 27.62682 25.59631
#
# Velocity S-wave (km/s) = 3.44023 3.72487 3.58538
# Velocity P-wave (km/s) = 6.89495 7.09699 6.99670
#
# Compressibility (1/GPa) = 0.01581286
#
# Stress axis : x y z
#
# Youngs Moduli (GPa) = 94.00047 89.71110 86.27877
#
# Poissons Ratio (x) = 0.20833 0.20732
# Poissons Ratio (y) = 0.21829 0.34996
# Poissons Ratio (z) = 0.22587 0.36389
#
# Static dielectric constant tensor:
#      x y z
#    x 3.254000 0.000000 0.000000 
#    y 0.000000 3.834090 0.000000 
#    z 0.000000 0.000000 3.710930 
# 
# 
# High freq. dielectric constant tensor:
#      x y z
#    x 1.746580 0.000000 0.000000 
#    y 0.000000 1.792890 0.000000 
#    z 0.000000 0.000000 1.783980 
# 
# From -- ./inp_files/1168.got.cif
#   From: 2010.03.12/outbox.cif.g09.slc.cpg/sg35_1_cif.got.tgz:1168.got - 2010.04.14 02:02:04.
