data_PCOD8173044
_publ_section_title
;
Structure prediction by ZEFSAII (Michael W. Deem and Ramdas Pophale) SiO2 
 PCOD8173044
Probable space group: C M M 2
;
_chemical_formula_sum "Si O2"
_cell_formula_units_Z 40
_cell_length_a 18.521530
_cell_length_b 9.433608
_cell_length_c 12.929377
_cell_angle_alpha 90.000000
_cell_angle_beta 90.000000
_cell_angle_gamma 90.000000
_cell_volume 2259.083503
_symmetry_space_group_name_H-M "C M M 2"
_symmetry_group_IT_number 35
_symmetry_cell_setting 'orthorhombic'
loop_
_space_group_symop_operation_xyz
x,y,z
-x,-y,z
-x,y,z
x,-y,z
1/2+x,1/2+y,z
1/2-x,1/2-y,z
1/2-x,1/2+y,z
1/2+x,1/2-y,z
loop_
_atom_site_type_symbol
_atom_site_label
_atom_site_fract_x
_atom_site_fract_y
_atom_site_fract_z
Si Si1 0.083371 0.163040 0.755850
Si Si2 0.913955 0.340344 0.560599
Si Si3 0.323449 0.666508 0.955676
Si Si4 0.914021 0.158078 0.371405
Si Si5 0.080313 0.168484 0.143393
O O1 0.113379 0.258284 0.662159
O O2 0.127397 0.201927 0.857581
O O3 0.000000 0.196347 0.779724
O O4 0.093599 0.000000 0.723310
O O5 0.883724 0.500000 0.563432
O O6 0.882601 0.263391 0.458382
O O7 0.000000 0.338638 0.557275
O O8 0.307306 0.500000 0.964532
O O9 0.250000 0.750000 0.943274
O O10 0.364703 0.725324 0.057033
O O11 0.891122 0.213867 0.257338
O O12 0.000000 0.152416 0.376494
O O13 0.883257 0.000000 0.391662
O O14 0.000000 0.231243 0.122947
O O15 0.075286 0.000000 0.137716
#
# Coordination Sequence:
#
# PCOD8173044 Si02
#       5
#     8   8   8   8   8
#     4   9  17  30  49  70  91 120 159 195 224 264
#     4   9  16  25  40  66  98 124 146 182 233 279
#     4  10  20  33  49  69  94 123 154 191 234 277
#     4   8  13  23  42  67  92 117 148 187 227 268
#     4   8  14  27  49  73  93 118 156 195 225 261
#
# _framework density 17.706295999999998
#
# number of rings (size 3 to 8) (size 9 to 14) (size 15 to 20)
#    0.000    3.200    0.000    2.400    0.000    5.600 
#    0.000    1.000    0.000    4.200    0.000    2.800 
#    0.000    0.000    0.000    0.000    0.000    0.000 
#
# Total GULP energy -247923.011048 kJ/mol
# GULP energy per Si atom -12396.150552 kJ/mol
# Density = 1.766600 g / cm^3
# Si number density = 17.706296 Si / 1000 Ang^3
#
#
#
# Elastic Constant Matrix: (Units=GPa)
#
#
# Indices 1 2 3 4 5 6 
#
# 1 56.9637 34.8762 53.9513 0.0000 0.0000 0.0000
# 2 34.8762 84.8041 80.3928 0.0000 0.0000 0.0000
# 3 53.9513 80.3928 180.2458 0.0000 0.0000 0.0000
# 4 0.0000 0.0000 0.0000 16.2833 0.0000 0.0000
# 5 0.0000 0.0000 0.0000 0.0000 1.2571 0.0000
# 6 0.0000 0.0000 0.0000 0.0000 0.0000 17.8921
#
#
#
# Elastic Compliance Matrix: (Units=1/GPa)
#
#
# Indices 1 2 3 4 5 6 
#
# 1 0.026024 -0.005749 -0.005225 0.000000 0.000000 0.000000
# 2 -0.005749 0.021700 -0.007958 0.000000 0.000000 0.000000
# 3 -0.005225 -0.007958 0.010661 0.000000 0.000000 0.000000
# 4 0.000000 0.000000 0.000000 0.061412 0.000000 0.000000
# 5 0.000000 0.000000 0.000000 0.000000 0.795483 0.000000
# 6 0.000000 0.000000 0.000000 0.000000 0.000000 0.055891
#
#
# Mechanical properties :
#
#
# Convention : Reuss Voigt Hill
#
# Bulk Modulus (GPa) = 48.73041 73.38380 61.05711
# Shear Modulus (GPa) = 4.92186 17.27273 11.09730
#
# Velocity S-wave (km/s) = 1.66906 3.12671 2.50620
# Velocity P-wave (km/s) = 5.59425 7.38716 6.55232
#
# Compressibility (1/GPa) = 0.02052106
#
# Stress axis : x y z
#
# Youngs Moduli (GPa) = 38.42629 46.08284 93.79651
#
# Poissons Ratio (x) = 0.26493 0.49012
# Poissons Ratio (y) = 0.22091 0.74642
# Poissons Ratio (z) = 0.20079 0.36672
#
# Static dielectric constant tensor:
#      x y z
#    x 2.870450 0.000000 0.000000 
#    y 0.000000 3.184490 0.000000 
#    z 0.000000 0.000000 3.661450 
# 
# 
# High freq. dielectric constant tensor:
#      x y z
#    x 1.633580 0.000000 0.000000 
#    y 0.000000 1.661570 0.000000 
#    z 0.000000 0.000000 1.704870 
# 
# From -- ./inp_files/11030.got.cif
#   From: 2010.03.12/outbox.cif.g09.slc.cpg/sg35_6_cif.got.tgz:11030.got - 2010.04.14 02:02:04.
