data_PCOD8173241
_publ_section_title
;
Structure prediction by ZEFSAII (Michael W. Deem and Ramdas Pophale) SiO2 
 PCOD8173241
Probable space group: C M M 2
;
_chemical_formula_sum "Si O2"
_cell_formula_units_Z 64
_cell_length_a 8.812750
_cell_length_b 19.386105
_cell_length_c 20.254602
_cell_angle_alpha 90.000000
_cell_angle_beta 90.000000
_cell_angle_gamma 90.000000
_cell_volume 3460.395389
_symmetry_space_group_name_H-M "C M M 2"
_symmetry_group_IT_number 35
_symmetry_cell_setting 'orthorhombic'
loop_
_space_group_symop_operation_xyz
x,y,z
-x,-y,z
-x,y,z
x,-y,z
1/2+x,1/2+y,z
1/2-x,1/2-y,z
1/2-x,1/2+y,z
1/2+x,1/2-y,z
loop_
_atom_site_type_symbol
_atom_site_label
_atom_site_fract_x
_atom_site_fract_y
_atom_site_fract_z
Si Si1 0.831320 0.081993 0.890220
Si Si2 0.319154 0.576319 0.033945
Si Si3 0.177196 0.420631 0.396361
Si Si4 0.821569 0.822047 0.293387
Si Si5 0.320832 0.321075 0.143544
Si Si6 0.673832 0.081253 0.758948
Si Si7 0.321038 0.821811 0.515272
Si Si8 0.320619 0.677714 0.654935
O O1 0.718734 0.106615 0.832447
O O2 0.000000 0.111318 0.875372
O O3 0.839256 0.000000 0.893693
O O4 0.771304 0.107552 0.962119
O O5 0.500000 0.573111 0.036299
O O6 0.250527 0.500000 0.043624
O O7 0.254324 0.621792 0.093832
O O8 0.228610 0.500000 0.402947
O O9 0.266207 0.386046 0.336395
O O10 0.218874 0.382077 0.464101
O O11 0.000000 0.414475 0.381084
O O12 0.750000 0.750000 0.318096
O O13 0.771209 0.838407 0.218352
O O14 0.000000 0.814209 0.300377
O O15 0.500000 0.315681 0.138052
O O16 0.250000 0.250000 0.119780
O O17 0.500000 0.101390 0.746089
O O18 0.780519 0.118308 0.706417
O O19 0.701363 0.000000 0.751335
O O20 0.500000 0.811890 0.524450
O O21 0.250000 0.750000 0.489502
O O22 0.247812 0.843744 0.584458
O O23 0.500000 0.685576 0.648826
O O24 0.250000 0.750000 0.679076
#
# Coordination Sequence:
#
# PCOD8173241 Si02
#       8
#     8   8   8   8   8   8   8   8
#     4   8  14  27  48  72  97 129 171 214 255 303
#     4   8  14  27  49  73  96 127 169 214 256 299
#     4  10  22  38  55  78 109 140 169 209 259 305
#     4  10  20  34  54  77 102 137 178 217 256 306
#     4   9  18  32  50  73 101 132 167 208 255 305
#     4  10  20  34  53  77 106 139 174 214 259 306
#     4  10  20  36  57  78 102 136 175 210 251 305
#     4  11  22  37  57  80 107 137 172 213 256 304
#
# _framework density 18.494996
#
# number of rings (size 3 to 8) (size 9 to 14) (size 15 to 20)
#    0.000    2.500    0.000    4.125    0.000    4.500 
#    0.000    3.750    0.000    2.625    0.000    0.000 
#    0.000    0.000    0.000    0.000    0.000    0.000 
#
# Total GULP energy -396769.357177 kJ/mol
# GULP energy per Si atom -12399.042412 kJ/mol
# Density = 1.845290 g / cm^3
# Si number density = 18.494996 Si / 1000 Ang^3
#
#
#
# Elastic Constant Matrix: (Units=GPa)
#
#
# Indices 1 2 3 4 5 6 
#
# 1 70.6125 39.9509 47.0775 0.0000 0.0000 0.0000
# 2 39.9509 108.1170 78.1819 0.0000 0.0000 0.0000
# 3 47.0775 78.1819 127.7103 0.0000 0.0000 0.0000
# 4 0.0000 0.0000 0.0000 27.6083 0.0000 0.0000
# 5 0.0000 0.0000 0.0000 0.0000 22.9834 0.0000
# 6 0.0000 0.0000 0.0000 0.0000 0.0000 26.6005
#
#
#
# Elastic Compliance Matrix: (Units=1/GPa)
#
#
# Indices 1 2 3 4 5 6 
#
# 1 0.019530 -0.003608 -0.004991 0.000000 0.000000 0.000000
# 2 -0.003608 0.017262 -0.009238 0.000000 0.000000 0.000000
# 3 -0.004991 -0.009238 0.015325 0.000000 0.000000 0.000000
# 4 0.000000 0.000000 0.000000 0.036221 0.000000 0.000000
# 5 0.000000 0.000000 0.000000 0.000000 0.043510 0.000000
# 6 0.000000 0.000000 0.000000 0.000000 0.000000 0.037593
#
#
# Mechanical properties :
#
#
# Convention : Reuss Voigt Hill
#
# Bulk Modulus (GPa) = 60.80810 70.76225 65.78517
# Shear Modulus (GPa) = 23.74208 24.85375 24.29791
#
# Velocity S-wave (km/s) = 3.58677 3.66978 3.62851
# Velocity P-wave (km/s) = 7.07833 7.50331 7.29391
#
# Compressibility (1/GPa) = 0.01644518
#
# Stress axis : x y z
#
# Youngs Moduli (GPa) = 51.20227 57.92915 65.25212
#
# Poissons Ratio (x) = 0.20900 0.32566
# Poissons Ratio (y) = 0.18473 0.60279
# Poissons Ratio (z) = 0.25554 0.53514
#
# Static dielectric constant tensor:
#      x y z
#    x 3.304810 0.000000 0.000000 
#    y 0.000000 3.380840 0.000000 
#    z 0.000000 0.000000 3.659550 
# 
# 
# High freq. dielectric constant tensor:
#      x y z
#    x 1.709140 0.000000 0.000000 
#    y 0.000000 1.699760 0.000000 
#    z 0.000000 0.000000 1.730080 
# 
# From -- ./inp_files/18418.got.cif
#   From: 2010.03.12/outbox.cif.g09.slc.cpg/sg35_10_cif.got.tgz:18418.got - 2010.04.14 02:02:04.
