data_PCOD8173814
_publ_section_title
;
Structure prediction by ZEFSAII (Michael W. Deem and Ramdas Pophale) SiO2 
 PCOD8173814
Probable space group: C M M 2
;
_chemical_formula_sum "Si O2"
_cell_formula_units_Z 56
_cell_length_a 8.748770
_cell_length_b 19.523935
_cell_length_c 17.795221
_cell_angle_alpha 90.000000
_cell_angle_beta 90.000000
_cell_angle_gamma 90.000000
_cell_volume 3039.609116
_symmetry_space_group_name_H-M "C M M 2"
_symmetry_group_IT_number 35
_symmetry_cell_setting 'orthorhombic'
loop_
_space_group_symop_operation_xyz
x,y,z
-x,-y,z
-x,y,z
x,-y,z
1/2+x,1/2+y,z
1/2-x,1/2-y,z
1/2-x,1/2+y,z
1/2+x,1/2-y,z
loop_
_atom_site_type_symbol
_atom_site_label
_atom_site_fract_x
_atom_site_fract_y
_atom_site_fract_z
Si Si1 0.818667 0.678054 0.162160
Si Si2 0.175599 0.578426 0.459720
Si Si3 0.321264 0.578695 0.616570
Si Si4 0.818963 0.674351 0.739762
Si Si5 0.819757 0.321713 0.330508
Si Si6 0.318260 0.076059 0.037824
Si Si7 0.818463 0.423023 0.870867
O O1 0.750000 0.750000 0.138041
O O2 0.765096 0.657847 0.246419
O O3 0.749733 0.624258 0.102572
O O4 0.000000 0.681759 0.157120
O O5 0.192460 0.500000 0.435729
O O6 0.280272 0.595978 0.530816
O O7 0.237160 0.621337 0.388918
O O8 0.000000 0.596307 0.479518
O O9 0.500000 0.590392 0.629448
O O10 0.274294 0.500000 0.635318
O O11 0.227313 0.631394 0.666836
O O12 0.750000 0.750000 0.738249
O O13 0.754127 0.632472 0.811822
O O14 0.000000 0.681381 0.742232
O O15 0.750000 0.250000 0.356074
O O16 0.000000 0.314526 0.332072
O O17 0.500000 0.076768 0.041091
O O18 0.256496 0.000000 0.053801
O O19 0.264603 0.099455 0.954450
O O20 0.757177 0.500000 0.852263
O O21 0.000000 0.424642 0.866478
#
# Coordination Sequence:
#
# PCOD8173814 Si02
#       7
#     8   8   8   8   8   8   8
#     4   9  17  29  46  69  97 129 162 197 240 287
#     4   9  18  33  52  73  97 126 162 203 245 289
#     4  10  21  37  56  77 101 129 163 203 248 300
#     4  11  22  35  52  75 103 133 167 206 248 294
#     4   9  18  31  47  69  97 129 163 198 239 288
#     4   8  14  26  46  72  98 124 160 204 243 281
#     4   8  15  29  49  72  97 127 163 201 243 292
#
# _framework density 18.423421000000001
#
# number of rings (size 3 to 8) (size 9 to 14) (size 15 to 20)
#    0.000    2.857    0.000    2.143    0.000    3.714 
#    0.000    4.286    0.000    1.286    0.000    8.000 
#    0.000    0.000    0.000    0.000    0.000    0.000 
#
# Total GULP energy -347107.229907 kJ/mol
# GULP energy per Si atom -12396.686782 kJ/mol
# Density = 1.838149 g / cm^3
# Si number density = 18.423421 Si / 1000 Ang^3
#
#
#
# Elastic Constant Matrix: (Units=GPa)
#
#
# Indices 1 2 3 4 5 6 
#
# 1 27.6101 27.0956 22.9188 0.0000 0.0000 0.0000
# 2 27.0956 138.2529 101.7094 0.0000 0.0000 0.0000
# 3 22.9188 101.7094 138.2468 0.0000 0.0000 0.0000
# 4 0.0000 0.0000 0.0000 34.8411 0.0000 0.0000
# 5 0.0000 0.0000 0.0000 0.0000 14.9949 0.0000
# 6 0.0000 0.0000 0.0000 0.0000 0.0000 23.4519
#
#
#
# Elastic Compliance Matrix: (Units=1/GPa)
#
#
# Indices 1 2 3 4 5 6 
#
# 1 0.045128 -0.007282 -0.002124 0.000000 0.000000 0.000000
# 2 -0.007282 0.016942 -0.011257 0.000000 0.000000 0.000000
# 3 -0.002124 -0.011257 0.015867 0.000000 0.000000 0.000000
# 4 0.000000 0.000000 0.000000 0.028702 0.000000 0.000000
# 5 0.000000 0.000000 0.000000 0.000000 0.066689 0.000000
# 6 0.000000 0.000000 0.000000 0.000000 0.000000 0.042640
#
#
# Mechanical properties :
#
#
# Convention : Reuss Voigt Hill
#
# Bulk Modulus (GPa) = 27.31399 67.50640 47.41020
# Shear Modulus (GPa) = 18.55301 24.81665 21.68483
#
# Velocity S-wave (km/s) = 3.17682 3.67415 3.43450
# Velocity P-wave (km/s) = 5.32110 7.39732 6.44339
#
# Compressibility (1/GPa) = 0.03661127
#
# Stress axis : x y z
#
# Youngs Moduli (GPa) = 22.15926 59.02569 63.02198
#
# Poissons Ratio (x) = 0.42981 0.13387
# Poissons Ratio (y) = 0.16136 0.70944
# Poissons Ratio (z) = 0.04707 0.66445
#
# Static dielectric constant tensor:
#      x y z
#    x 3.056190 0.000000 0.000000 
#    y 0.000000 3.508800 0.000000 
#    z 0.000000 0.000000 3.702640 
# 
# 
# High freq. dielectric constant tensor:
#      x y z
#    x 1.682550 0.000000 0.000000 
#    y 0.000000 1.713860 0.000000 
#    z 0.000000 0.000000 1.725570 
# 
# From -- ./inp_files/15629.got.cif
#   From: 2010.03.12/outbox.cif.g09.slc.cpg/sg35_8_cif.got.tgz:15629.got - 2010.04.14 02:02:04.
