data_PCOD8173292
_publ_section_title
;
Structure prediction by ZEFSAII (Michael W. Deem and Ramdas Pophale) SiO2 
 PCOD8173292
Probable space group: C M M 2
;
_chemical_formula_sum "Si O2"
_cell_formula_units_Z 64
_cell_length_a 8.922230
_cell_length_b 18.724943
_cell_length_c 20.320729
_cell_angle_alpha 90.000000
_cell_angle_beta 90.000000
_cell_angle_gamma 90.000000
_cell_volume 3394.948596
_symmetry_space_group_name_H-M "C M M 2"
_symmetry_group_IT_number 35
_symmetry_cell_setting 'orthorhombic'
loop_
_space_group_symop_operation_xyz
x,y,z
-x,-y,z
-x,y,z
x,-y,z
1/2+x,1/2+y,z
1/2-x,1/2-y,z
1/2-x,1/2+y,z
1/2+x,1/2-y,z
loop_
_atom_site_type_symbol
_atom_site_label
_atom_site_fract_x
_atom_site_fract_y
_atom_site_fract_z
Si Si1 0.330253 0.415633 0.217480
Si Si2 0.675128 0.918100 0.084909
Si Si3 0.822540 0.672607 0.958701
Si Si4 0.176164 0.676308 0.473579
Si Si5 0.675375 0.823124 0.322487
Si Si6 0.668791 0.084756 0.710204
Si Si7 0.675398 0.416482 0.843694
Si Si8 0.670555 0.415270 0.579670
O O1 0.500000 0.387943 0.222132
O O2 0.319885 0.500000 0.221093
O O3 0.261661 0.388695 0.148658
O O4 0.236566 0.387176 0.278764
O O5 0.500000 0.911363 0.099455
O O6 0.719195 0.000000 0.068935
O O7 0.725577 0.869531 0.024147
O O8 0.750000 0.750000 0.960428
O O9 0.763087 0.628190 0.897476
O O10 0.000000 0.679929 0.952688
O O11 0.250000 0.750000 0.497159
O O12 0.217305 0.660355 0.397921
O O13 0.243395 0.612100 0.515639
O O14 0.000000 0.681298 0.484884
O O15 0.500000 0.815709 0.312307
O O16 0.750000 0.750000 0.298374
O O17 0.500000 0.115553 0.714634
O O18 0.764161 0.109493 0.773099
O O19 0.749014 0.115171 0.645030
O O20 0.664770 0.000000 0.706751
O O21 0.500000 0.399758 0.847624
O O22 0.708930 0.500000 0.855056
O O23 0.500000 0.387834 0.579416
O O24 0.677459 0.500000 0.577971
#
# Coordination Sequence:
#
# PCOD8173292 Si02
#       8
#     8   8   8   8   8   8   8   8
#     4  10  21  36  56  83 113 143 177 220 268 318
#     4   9  19  37  59  80 105 141 183 224 267 318
#     4  11  23  38  56  80 111 145 181 222 269 318
#     4  10  21  37  56  78 106 142 183 224 269 322
#     4  10  21  37  57  79 106 142 182 224 269 321
#     4   9  17  31  53  80 109 141 179 222 266 316
#     4  10  20  35  57  83 110 142 180 221 267 321
#     4  10  20  34  54  81 112 144 179 222 270 318
#
# _framework density 18.851535999999999
#
# number of rings (size 3 to 8) (size 9 to 14) (size 15 to 20)
#    0.000    2.125    0.000    3.000    0.000    7.750 
#    0.000    5.625    0.000    0.000    0.000    0.000 
#    0.000    0.000    0.000    0.000    0.000    0.000 
#
# Total GULP energy -396918.821199 kJ/mol
# GULP energy per Si atom -12403.713162 kJ/mol
# Density = 1.880863 g / cm^3
# Si number density = 18.851536 Si / 1000 Ang^3
#
#
#
# Elastic Constant Matrix: (Units=GPa)
#
#
# Indices 1 2 3 4 5 6 
#
# 1 104.7163 37.9037 62.6561 0.0000 0.0000 0.0000
# 2 37.9037 53.3953 50.7747 0.0000 0.0000 0.0000
# 3 62.6561 50.7747 133.8481 0.0000 0.0000 0.0000
# 4 0.0000 0.0000 0.0000 4.4863 0.0000 0.0000
# 5 0.0000 0.0000 0.0000 0.0000 36.1848 0.0000
# 6 0.0000 0.0000 0.0000 0.0000 0.0000 29.6650
#
#
#
# Elastic Compliance Matrix: (Units=1/GPa)
#
#
# Indices 1 2 3 4 5 6 
#
# 1 0.014382 -0.005956 -0.004473 0.000000 0.000000 0.000000
# 2 -0.005956 0.031763 -0.009261 0.000000 0.000000 0.000000
# 3 -0.004473 -0.009261 0.013078 0.000000 0.000000 0.000000
# 4 0.000000 0.000000 0.000000 0.222903 0.000000 0.000000
# 5 0.000000 0.000000 0.000000 0.000000 0.027636 0.000000
# 6 0.000000 0.000000 0.000000 0.000000 0.000000 0.033710
#
#
# Mechanical properties :
#
#
# Convention : Reuss Voigt Hill
#
# Bulk Modulus (GPa) = 50.39573 66.06986 58.23280
# Shear Modulus (GPa) = 12.83812 23.44221 18.14016
#
# Velocity S-wave (km/s) = 2.61245 3.53018 3.10540
# Velocity P-wave (km/s) = 5.99090 7.19304 6.61931
#
# Compressibility (1/GPa) = 0.01984295
#
# Stress axis : x y z
#
# Youngs Moduli (GPa) = 69.53245 31.48364 76.46327
#
# Poissons Ratio (x) = 0.18751 0.34202
# Poissons Ratio (y) = 0.41411 0.70813
# Poissons Ratio (z) = 0.31102 0.29157
#
# Static dielectric constant tensor:
#      x y z
#    x 3.649700 0.000000 0.000000 
#    y 0.000000 3.266570 0.000000 
#    z 0.000000 0.000000 3.585880 
# 
# 
# High freq. dielectric constant tensor:
#      x y z
#    x 1.749190 0.000000 0.000000 
#    y 0.000000 1.710970 0.000000 
#    z 0.000000 0.000000 1.744030 
# 
# From -- ./inp_files/18315.got.cif
#   From: 2010.03.12/outbox.cif.g09.slc.cpg/sg35_10_cif.got.tgz:18315.got - 2010.04.14 02:02:04.
