data_PCOD8173681
_publ_section_title
;
Structure prediction by ZEFSAII (Michael W. Deem and Ramdas Pophale) SiO2 
 PCOD8173681
Probable space group: C M M 2
;
_chemical_formula_sum "Si O2"
_cell_formula_units_Z 40
_cell_length_a 17.549667
_cell_length_b 13.556960
_cell_length_c 7.030957
_cell_angle_alpha 90.000000
_cell_angle_beta 90.000000
_cell_angle_gamma 90.000000
_cell_volume 1672.806228
_symmetry_space_group_name_H-M "C M M 2"
_symmetry_group_IT_number 35
_symmetry_cell_setting 'orthorhombic'
loop_
_space_group_symop_operation_xyz
x,y,z
-x,-y,z
-x,y,z
x,-y,z
1/2+x,1/2+y,z
1/2-x,1/2-y,z
1/2-x,1/2+y,z
1/2+x,1/2-y,z
loop_
_atom_site_type_symbol
_atom_site_label
_atom_site_fract_x
_atom_site_fract_y
_atom_site_fract_z
Si Si1 0.736142 0.610769 0.461770
Si Si2 0.587443 0.609516 0.897253
Si Si3 0.823209 0.291916 0.807718
Si Si4 0.136829 0.390405 0.173133
Si Si5 0.584622 0.691793 0.312725
O O1 0.722498 0.500000 0.530426
O O2 0.793919 0.662337 0.610088
O O3 0.777494 0.616044 0.257373
O O4 0.653415 0.662810 0.453507
O O5 0.500000 0.608643 0.840599
O O6 0.622684 0.500000 0.857129
O O7 0.624680 0.695238 0.767468
O O8 0.599071 0.632857 0.118841
O O9 0.750000 0.250000 0.922074
O O10 0.862681 0.371633 0.945034
O O11 0.102781 0.500000 0.207707
O O12 0.083874 0.309466 0.274015
O O13 0.500000 0.665226 0.394944
#
# Coordination Sequence:
#
# PCOD8173681 Si02
#       5
#     8   8   8   8   8
#     4  11  23  40  62  89 124 166 212 262 317 379
#     4   9  19  38  66  98 130 167 212 265 328 391
#     4  11  22  37  60  91 126 163 208 259 314 379
#     4  10  21  39  63  89 121 165 213 261 314 374
#     4  10  20  37  64  97 132 169 212 265 326 391
#
# _framework density 23.911915
#
# number of rings (size 3 to 8) (size 9 to 14) (size 15 to 20)
#    0.000    1.800    0.000    5.400    0.000    4.800 
#    0.000    5.000    0.000    5.400    0.000    5.600 
#    0.000    0.000    0.000    0.000    0.000    0.000 
#
# Total GULP energy -247810.523772 kJ/mol
# GULP energy per Si atom -12390.526189 kJ/mol
# Density = 2.385749 g / cm^3
# Si number density = 23.911915 Si / 1000 Ang^3
#
#
#
# Elastic Constant Matrix: (Units=GPa)
#
#
# Indices 1 2 3 4 5 6 
#
# 1 99.2134 57.8535 35.3778 0.0000 0.0000 0.0000
# 2 57.8535 221.7867 57.2777 0.0000 0.0000 0.0000
# 3 35.3778 57.2777 97.4648 0.0000 0.0000 0.0000
# 4 0.0000 0.0000 0.0000 25.4690 0.0000 0.0000
# 5 0.0000 0.0000 0.0000 0.0000 8.9083 0.0000
# 6 0.0000 0.0000 0.0000 0.0000 0.0000 29.4225
#
#
#
# Elastic Compliance Matrix: (Units=1/GPa)
#
#
# Indices 1 2 3 4 5 6 
#
# 1 0.012647 -0.002492 -0.003126 0.000000 0.000000 0.000000
# 2 -0.002492 0.005806 -0.002508 0.000000 0.000000 0.000000
# 3 -0.003126 -0.002508 0.012869 0.000000 0.000000 0.000000
# 4 0.000000 0.000000 0.000000 0.039263 0.000000 0.000000
# 5 0.000000 0.000000 0.000000 0.000000 0.112255 0.000000
# 6 0.000000 0.000000 0.000000 0.000000 0.000000 0.033988
#
#
# Mechanical properties :
#
#
# Convention : Reuss Voigt Hill
#
# Bulk Modulus (GPa) = 66.35491 79.94255 73.14873
# Shear Modulus (GPa) = 20.99923 30.62366 25.81145
#
# Velocity S-wave (km/s) = 2.96664 3.58255 3.28905
# Velocity P-wave (km/s) = 6.28845 7.11460 6.71424
#
# Compressibility (1/GPa) = 0.01507048
#
# Stress axis : x y z
#
# Youngs Moduli (GPa) = 79.07022 172.22207 77.70759
#
# Poissons Ratio (x) = 0.42911 0.24294
# Poissons Ratio (y) = 0.19701 0.19488
# Poissons Ratio (z) = 0.24720 0.43192
#
# Static dielectric constant tensor:
#      x y z
#    x 4.210780 0.000000 0.000000 
#    y 0.000000 4.659050 0.000000 
#    z 0.000000 0.000000 4.002520 
# 
# 
# High freq. dielectric constant tensor:
#      x y z
#    x 1.928840 0.000000 0.000000 
#    y 0.000000 1.962200 0.000000 
#    z 0.000000 0.000000 1.943660 
# 
# From -- ./inp_files/7004.got.cif
#   From: 2010.03.12/outbox.cif.g09.slc.cpg/sg35_4_cif.got.tgz:7004.got - 2010.04.14 02:02:04.
