data_PCOD8173619
_publ_section_title
;
Structure prediction by ZEFSAII (Michael W. Deem and Ramdas Pophale) SiO2 
 PCOD8173619
Probable space group: C M M 2
;
_chemical_formula_sum "Si O2"
_cell_formula_units_Z 40
_cell_length_a 14.182102
_cell_length_b 17.828234
_cell_length_c 7.520492
_cell_angle_alpha 90.000000
_cell_angle_beta 90.000000
_cell_angle_gamma 90.000000
_cell_volume 1901.494983
_symmetry_space_group_name_H-M "C M M 2"
_symmetry_group_IT_number 35
_symmetry_cell_setting 'orthorhombic'
loop_
_space_group_symop_operation_xyz
x,y,z
-x,-y,z
-x,y,z
x,-y,z
1/2+x,1/2+y,z
1/2-x,1/2-y,z
1/2-x,1/2+y,z
1/2+x,1/2-y,z
loop_
_atom_site_type_symbol
_atom_site_label
_atom_site_fract_x
_atom_site_fract_y
_atom_site_fract_z
Si Si1 0.784703 0.910577 0.472910
Si Si2 0.611034 0.679687 0.179398
Si Si3 0.220558 0.168969 0.812881
Si Si4 0.894133 0.656927 0.328040
Si Si5 0.603662 0.086236 0.957681
O O1 0.844348 0.884677 0.302287
O O2 0.830950 0.877621 0.654526
O O3 0.679442 0.874545 0.471558
O O4 0.782125 0.000000 0.477473
O O5 0.500000 0.667041 0.168106
O O6 0.636637 0.761055 0.257909
O O7 0.652315 0.672594 0.981966
O O8 0.250000 0.250000 0.741205
O O9 0.318957 0.130583 0.852901
O O10 0.000000 0.659407 0.409393
O O11 0.887873 0.598480 0.167619
O O12 0.500000 0.113538 0.894287
O O13 0.619231 0.000000 0.915048
#
# Coordination Sequence:
#
# PCOD8173619 Si02
#       5
#     8   8   8   8   8
#     4  12  26  42  64  97 134 171 214 265 323 385
#     4  11  24  45  69  92 124 171 225 274 316 369
#     4  12  23  40  68  96 131 170 215 263 323 386
#     4  10  20  40  68  96 126 164 207 259 325 390
#     4  10  20  36  62  96 130 162 200 254 323 390
#
# _framework density 21.036079000000001
#
# number of rings (size 3 to 8) (size 9 to 14) (size 15 to 20)
#    0.000    1.000    4.000    3.000    0.000    4.000 
#    0.000    0.000    0.000    0.000    0.000    0.000 
#    0.000    0.000    0.000    0.000    0.000    0.000 
#
# Total GULP energy -248014.865308 kJ/mol
# GULP energy per Si atom -12400.743265 kJ/mol
# Density = 2.098820 g / cm^3
# Si number density = 21.036079 Si / 1000 Ang^3
#
#
#
# Elastic Constant Matrix: (Units=GPa)
#
#
# Indices 1 2 3 4 5 6 
#
# 1 96.7711 47.5536 29.8303 0.0000 0.0000 0.0000
# 2 47.5536 102.3205 64.4730 0.0000 0.0000 0.0000
# 3 29.8303 64.4730 89.4308 0.0000 0.0000 0.0000
# 4 0.0000 0.0000 0.0000 -113.6460 0.0000 0.0000
# 5 0.0000 0.0000 0.0000 0.0000 14.3769 0.0000
# 6 0.0000 0.0000 0.0000 0.0000 0.0000 27.7263
#
#
#
# Elastic Compliance Matrix: (Units=1/GPa)
#
#
# Indices 1 2 3 4 5 6 
#
# 1 0.013392 -0.006247 0.000037 0.000000 0.000000 0.000000
# 2 -0.006247 0.020822 -0.012928 0.000000 0.000000 0.000000
# 3 0.000037 -0.012928 0.020489 0.000000 0.000000 0.000000
# 4 0.000000 0.000000 0.000000 -0.008799 0.000000 0.000000
# 5 0.000000 0.000000 0.000000 0.000000 0.069556 0.000000
# 6 0.000000 0.000000 0.000000 0.000000 0.000000 0.036067
#
#
# Mechanical properties :
#
#
# Convention : Reuss Voigt Hill
#
# Bulk Modulus (GPa) = 60.87221 63.58180 62.22701
# Shear Modulus (GPa) = 25.60428 -4.53086 10.53671
#
# Velocity S-wave (km/s) = 3.49257 -1.46919 2.24048
# Velocity P-wave (km/s) = 6.72785 5.23571 6.02813
#
# Compressibility (1/GPa) = 0.01642786
#
# Stress axis : x y z
#
# Youngs Moduli (GPa) = 74.67004 48.02518 48.80558
#
# Poissons Ratio (x) = 0.30002 -0.00179
# Poissons Ratio (y) = 0.46648 0.63094
# Poissons Ratio (z) = -0.00274 0.62085
#
# Static dielectric constant tensor:
#      x y z
#    x 3.931560 0.000000 0.000000 
#    y 0.000000 4.606030 0.000000 
#    z 0.000000 0.000000 3.819380 
# 
# 
# High freq. dielectric constant tensor:
#      x y z
#    x 1.823570 0.000000 0.000000 
#    y 0.000000 1.832080 0.000000 
#    z 0.000000 0.000000 1.822540 
# 
# From -- ./inp_files/6990.got.cif
#   From: 2010.03.12/outbox.cif.g09.slc.cpg/sg35_4_cif.got.tgz:6990.got - 2010.04.14 02:02:04.
