data_PCOD8173002
_publ_section_title
;
Structure prediction by ZEFSAII (Michael W. Deem and Ramdas Pophale) SiO2 
 PCOD8173002
Probable space group: C M M 2
;
_chemical_formula_sum "Si O2"
_cell_formula_units_Z 56
_cell_length_a 9.253172
_cell_length_b 19.453218
_cell_length_c 17.828668
_cell_angle_alpha 90.000000
_cell_angle_beta 90.000000
_cell_angle_gamma 90.000000
_cell_volume 3209.231057
_symmetry_space_group_name_H-M "C M M 2"
_symmetry_group_IT_number 35
_symmetry_cell_setting 'orthorhombic'
loop_
_space_group_symop_operation_xyz
x,y,z
-x,-y,z
-x,y,z
x,-y,z
1/2+x,1/2+y,z
1/2-x,1/2-y,z
1/2-x,1/2+y,z
1/2+x,1/2-y,z
loop_
_atom_site_type_symbol
_atom_site_label
_atom_site_fract_x
_atom_site_fract_y
_atom_site_fract_z
Si Si1 0.838108 0.418403 0.820890
Si Si2 0.162649 0.418271 0.986299
Si Si3 0.670804 0.819945 0.569358
Si Si4 0.333141 0.418576 0.677800
Si Si5 0.167153 0.682836 0.397039
Si Si6 0.337552 0.418014 0.126331
Si Si7 0.668688 0.921511 0.270926
O O1 0.841488 0.500000 0.821196
O O2 0.787738 0.392474 0.903481
O O3 0.725906 0.392136 0.758326
O O4 0.000000 0.390937 0.802918
O O5 0.168732 0.500000 0.988826
O O6 0.000000 0.393093 0.002351
O O7 0.265898 0.387361 0.050635
O O8 0.500000 0.813687 0.585210
O O9 0.750000 0.750000 0.594794
O O10 0.737990 0.883603 0.613702
O O11 0.704553 0.835781 0.482577
O O12 0.500000 0.396677 0.670842
O O13 0.313777 0.500000 0.668981
O O14 0.250000 0.750000 0.369469
O O15 0.215301 0.619569 0.345085
O O16 0.000000 0.699490 0.387646
O O17 0.500000 0.390031 0.130520
O O18 0.332310 0.500000 0.124302
O O19 0.252260 0.391123 0.199138
O O20 0.500000 0.914427 0.253395
O O21 0.712804 0.000000 0.286309
#
# Coordination Sequence:
#
# PCOD8173002 Si02
#       7
#     8   8   8   8   8   8   8
#     4   8  14  25  41  62  89 122 159 195 232 276
#     4   8  13  22  37  57  84 120 157 190 227 272
#     4  10  20  35  54  73  95 124 160 200 241 288
#     4  10  20  32  47  71 102 131 160 197 241 286
#     4   9  19  34  52  72  92 119 154 193 235 279
#     4   9  16  24  36  59  90 121 153 189 230 273
#     4   9  17  30  47  67  93 123 155 190 228 273
#
# _framework density 17.449662
#
# number of rings (size 3 to 8) (size 9 to 14) (size 15 to 20)
#    0.000    3.000    0.000    2.143    0.000    4.857 
#    0.000    4.286    0.000    1.714    0.000    1.000 
#    0.000    4.571    0.000    0.000    0.000    0.000 
#
# Total GULP energy -347104.709592 kJ/mol
# GULP energy per Si atom -12396.596771 kJ/mol
# Density = 1.740995 g / cm^3
# Si number density = 17.449662 Si / 1000 Ang^3
#
#
#
# Elastic Constant Matrix: (Units=GPa)
#
#
# Indices 1 2 3 4 5 6 
#
# 1 101.8643 36.1754 70.4629 0.0000 0.0000 0.0000
# 2 36.1754 42.1650 46.6147 0.0000 0.0000 0.0000
# 3 70.4629 46.6147 131.9262 0.0000 0.0000 0.0000
# 4 0.0000 0.0000 0.0000 2.8637 0.0000 0.0000
# 5 0.0000 0.0000 0.0000 0.0000 27.4339 0.0000
# 6 0.0000 0.0000 0.0000 0.0000 0.0000 20.7433
#
#
#
# Elastic Compliance Matrix: (Units=1/GPa)
#
#
# Indices 1 2 3 4 5 6 
#
# 1 0.016869 -0.007405 -0.006394 0.000000 0.000000 0.000000
# 2 -0.007405 0.042170 -0.010945 0.000000 0.000000 0.000000
# 3 -0.006394 -0.010945 0.014862 0.000000 0.000000 0.000000
# 4 0.000000 0.000000 0.000000 0.349199 0.000000 0.000000
# 5 0.000000 0.000000 0.000000 0.000000 0.036451 0.000000
# 6 0.000000 0.000000 0.000000 0.000000 0.000000 0.048208
#
#
# Mechanical properties :
#
#
# Convention : Reuss Voigt Hill
#
# Bulk Modulus (GPa) = 40.96012 64.71794 52.83903
# Shear Modulus (GPa) = 8.84352 18.38832 13.61592
#
# Velocity S-wave (km/s) = 2.25367 3.24974 2.79641
# Velocity P-wave (km/s) = 5.50421 7.15891 6.38538
#
# Compressibility (1/GPa) = 0.02441399
#
# Stress axis : x y z
#
# Youngs Moduli (GPa) = 59.27908 23.71380 67.28401
#
# Poissons Ratio (x) = 0.17559 0.43020
# Poissons Ratio (y) = 0.43894 0.73645
# Poissons Ratio (z) = 0.37902 0.25956
#
# Static dielectric constant tensor:
#      x y z
#    x 3.362940 0.000000 0.000000 
#    y 0.000000 2.787430 0.000000 
#    z 0.000000 0.000000 3.568790 
# 
# 
# High freq. dielectric constant tensor:
#      x y z
#    x 1.679060 0.000000 0.000000 
#    y 0.000000 1.617050 0.000000 
#    z 0.000000 0.000000 1.687720 
# 
# From -- ./inp_files/15651.got.cif
#   From: 2010.03.12/outbox.cif.g09.slc.cpg/sg35_8_cif.got.tgz:15651.got - 2010.04.14 02:02:04.
