data_PCOD8173189
_publ_section_title
;
Structure prediction by ZEFSAII (Michael W. Deem and Ramdas Pophale) SiO2 
 PCOD8173189
Probable space group: C M M 2
;
_chemical_formula_sum "Si O2"
_cell_formula_units_Z 64
_cell_length_a 8.995186
_cell_length_b 20.226030
_cell_length_c 19.868591
_cell_angle_alpha 90.000000
_cell_angle_beta 90.000000
_cell_angle_gamma 90.000000
_cell_volume 3614.829891
_symmetry_space_group_name_H-M "C M M 2"
_symmetry_group_IT_number 35
_symmetry_cell_setting 'orthorhombic'
loop_
_space_group_symop_operation_xyz
x,y,z
-x,-y,z
-x,y,z
x,-y,z
1/2+x,1/2+y,z
1/2-x,1/2-y,z
1/2-x,1/2+y,z
1/2+x,1/2-y,z
loop_
_atom_site_type_symbol
_atom_site_label
_atom_site_fract_x
_atom_site_fract_y
_atom_site_fract_z
Si Si1 0.175893 0.182460 0.847200
Si Si2 0.826483 0.423402 0.448598
Si Si3 0.825774 0.817084 0.694350
Si Si4 0.674939 0.681868 0.355011
Si Si5 0.825510 0.816959 0.200135
Si Si6 0.327533 0.424516 0.587065
Si Si7 0.176643 0.926485 0.949227
Si Si8 0.823303 0.926577 0.099398
O O1 0.250000 0.250000 0.871975
O O2 0.223193 0.166383 0.770591
O O3 0.240793 0.124471 0.894454
O O4 0.000000 0.189479 0.854370
O O5 0.793156 0.500000 0.432372
O O6 0.738603 0.379979 0.395113
O O7 0.769761 0.405194 0.522747
O O8 0.000000 0.407129 0.444249
O O9 0.750000 0.750000 0.668233
O O10 0.774955 0.878170 0.648198
O O11 0.000000 0.805583 0.689738
O O12 0.500000 0.687704 0.367409
O O13 0.750000 0.750000 0.379797
O O14 0.714673 0.668209 0.277368
O O15 0.750000 0.750000 0.175024
O O16 0.758979 0.875872 0.154442
O O17 0.000000 0.809023 0.189822
O O18 0.500000 0.413196 0.568962
O O19 0.298560 0.500000 0.609318
O O20 0.000000 0.926919 0.945694
O O21 0.236758 0.000000 0.932366
O O22 0.228338 0.905496 0.024326
O O23 0.000000 0.927220 0.102938
O O24 0.762658 0.000000 0.116207
#
# Coordination Sequence:
#
# PCOD8173189 Si02
#       8
#     8   8   8   8   8   8   8   8
#     4   9  17  29  45  67  94 122 154 191 232 277
#     4  10  21  36  53  74 100 128 158 195 239 287
#     4   9  18  31  47  68  94 123 154 191 233 277
#     4  10  20  34  52  73  98 128 162 200 241 286
#     4   9  18  31  48  70  95 123 155 193 234 277
#     4   9  18  33  51  70  93 122 157 196 236 278
#     4   8  14  25  43  67  93 121 155 195 233 269
#     4   8  14  26  44  67  94 122 155 194 232 271
#
# _framework density 17.704844000000001
#
# number of rings (size 3 to 8) (size 9 to 14) (size 15 to 20)
#    0.000    3.000    0.000    1.500    0.000    3.750 
#    0.000    5.000    0.000    0.750    0.000    5.250 
#    0.000    0.000    0.000    0.000    0.000    0.000 
#
# Total GULP energy -396755.619823 kJ/mol
# GULP energy per Si atom -12398.613119 kJ/mol
# Density = 1.766455 g / cm^3
# Si number density = 17.704844 Si / 1000 Ang^3
#
#
#
# Elastic Constant Matrix: (Units=GPa)
#
#
# Indices 1 2 3 4 5 6 
#
# 1 38.2678 38.9982 33.6647 0.0000 0.0000 0.0000
# 2 38.9982 145.7360 98.0578 0.0000 0.0000 0.0000
# 3 33.6647 98.0578 111.4345 0.0000 0.0000 0.0000
# 4 0.0000 0.0000 0.0000 41.5735 0.0000 0.0000
# 5 0.0000 0.0000 0.0000 0.0000 15.4423 0.0000
# 6 0.0000 0.0000 0.0000 0.0000 0.0000 28.6210
#
#
#
# Elastic Compliance Matrix: (Units=1/GPa)
#
#
# Indices 1 2 3 4 5 6 
#
# 1 0.037567 -0.005924 -0.006136 0.000000 0.000000 0.000000
# 2 -0.005924 0.017755 -0.013834 0.000000 0.000000 0.000000
# 3 -0.006136 -0.013834 0.023001 0.000000 0.000000 0.000000
# 4 0.000000 0.000000 0.000000 0.024054 0.000000 0.000000
# 5 0.000000 0.000000 0.000000 0.000000 0.064757 0.000000
# 6 0.000000 0.000000 0.000000 0.000000 0.000000 0.034939
#
#
# Mechanical properties :
#
#
# Convention : Reuss Voigt Hill
#
# Bulk Modulus (GPa) = 37.68692 70.76444 54.22568
# Shear Modulus (GPa) = 19.03258 25.44187 22.23723
#
# Velocity S-wave (km/s) = 3.28227 3.79489 3.54785
# Velocity P-wave (km/s) = 5.97468 7.69788 6.89036
#
# Compressibility (1/GPa) = 0.02653440
#
# Stress axis : x y z
#
# Youngs Moduli (GPa) = 26.61929 56.32129 43.47590
#
# Poissons Ratio (x) = 0.33364 0.26678
# Poissons Ratio (y) = 0.15769 0.60146
# Poissons Ratio (z) = 0.16334 0.77916
#
# Static dielectric constant tensor:
#      x y z
#    x 3.018180 0.000000 0.000000 
#    y 0.000000 3.506840 0.000000 
#    z 0.000000 0.000000 3.435290 
# 
# 
# High freq. dielectric constant tensor:
#      x y z
#    x 1.657490 0.000000 0.000000 
#    y 0.000000 1.690980 0.000000 
#    z 0.000000 0.000000 1.686190 
# 
# From -- ./inp_files/18348.got.cif
#   From: 2010.03.12/outbox.cif.g09.slc.cpg/sg35_10_cif.got.tgz:18348.got - 2010.04.14 02:02:04.
