data_PCOD8173423
_publ_section_title
;
Structure prediction by ZEFSAII (Michael W. Deem and Ramdas Pophale) SiO2 
 PCOD8173423
Probable space group: C M M 2
;
_chemical_formula_sum "Si O2"
_cell_formula_units_Z 48
_cell_length_a 15.780249
_cell_length_b 8.757622
_cell_length_c 17.074039
_cell_angle_alpha 90.000000
_cell_angle_beta 90.000000
_cell_angle_gamma 90.000000
_cell_volume 2359.588750
_symmetry_space_group_name_H-M "C M M 2"
_symmetry_group_IT_number 35
_symmetry_cell_setting 'orthorhombic'
loop_
_space_group_symop_operation_xyz
x,y,z
-x,-y,z
-x,y,z
x,-y,z
1/2+x,1/2+y,z
1/2-x,1/2-y,z
1/2-x,1/2+y,z
1/2+x,1/2-y,z
loop_
_atom_site_type_symbol
_atom_site_label
_atom_site_fract_x
_atom_site_fract_y
_atom_site_fract_z
Si Si1 0.839956 0.681800 0.373670
Si Si2 0.340762 0.681667 0.892598
Si Si3 0.842690 0.820872 0.527647
Si Si4 0.500000 0.324066 0.639674
Si Si5 0.662804 0.678363 0.069432
Si Si6 0.000000 0.679258 0.804644
Si Si7 0.404883 0.833555 0.211982
O O1 0.845366 0.500000 0.370908
O O2 0.750000 0.750000 0.393926
O O3 0.888364 0.746621 0.449975
O O4 0.864999 0.748461 0.288418
O O5 0.337262 0.500000 0.883783
O O6 0.250000 0.750000 0.866364
O O7 0.415466 0.747594 0.840514
O O8 0.361068 0.733140 0.982120
O O9 0.750000 0.750000 0.550648
O O10 0.912658 0.789362 0.594140
O O11 0.828807 0.000000 0.513651
O O12 0.500000 0.500000 0.667463
O O13 0.500000 0.211259 0.713055
O O14 0.671286 0.500000 0.070192
O O15 0.750000 0.750000 0.098594
O O16 0.595516 0.730850 0.134053
O O17 0.000000 0.500000 0.821731
O O18 0.500000 0.860266 0.237134
O O19 0.362399 0.000000 0.195240
#
# Coordination Sequence:
#
# PCOD8173423 Si02
#       7
#     8   8   8   4   8   4   8
#     4  10  20  35  56  80 112 152 195 241 292 345
#     4  10  22  42  66  93 127 163 206 256 308 366
#     4  10  21  39  63  90 119 156 199 245 300 357
#     4  10  24  44  64  89 124 159 194 245 304 363
#     4  10  21  37  59  84 112 152 198 244 295 349
#     4  12  26  42  66  97 126 163 204 245 308 373
#     4  10  22  36  51  79 117 156 196 243 294 343
#
# _framework density 20.342528000000001
#
# number of rings (size 3 to 8) (size 9 to 14) (size 15 to 20)
#    0.000    1.833    0.000    4.250    2.333    7.000 
#    0.000    1.667    0.000    0.000    0.000    0.000 
#    0.000    0.000    0.000    0.000    0.000    0.000 
#
# Total GULP energy -297413.845955 kJ/mol
# GULP energy per Si atom -12392.243581 kJ/mol
# Density = 2.029623 g / cm^3
# Si number density = 20.342528 Si / 1000 Ang^3
#
#
#
# Elastic Constant Matrix: (Units=GPa)
#
#
# Indices 1 2 3 4 5 6 
#
# 1 103.1634 39.5803 56.6865 0.0000 0.0000 0.0000
# 2 39.5803 89.1916 47.1351 0.0000 0.0000 0.0000
# 3 56.6865 47.1351 128.6900 0.0000 0.0000 0.0000
# 4 0.0000 0.0000 0.0000 35.3118 0.0000 0.0000
# 5 0.0000 0.0000 0.0000 0.0000 34.0944 0.0000
# 6 0.0000 0.0000 0.0000 0.0000 0.0000 25.9701
#
#
#
# Elastic Compliance Matrix: (Units=1/GPa)
#
#
# Indices 1 2 3 4 5 6 
#
# 1 0.013648 -0.003571 -0.004704 0.000000 0.000000 0.000000
# 2 -0.003571 0.014837 -0.003862 0.000000 0.000000 0.000000
# 3 -0.004704 -0.003862 0.011257 0.000000 0.000000 0.000000
# 4 0.000000 0.000000 0.000000 0.028319 0.000000 0.000000
# 5 0.000000 0.000000 0.000000 0.000000 0.029330 0.000000
# 6 0.000000 0.000000 0.000000 0.000000 0.000000 0.038506
#
#
# Mechanical properties :
#
#
# Convention : Reuss Voigt Hill
#
# Bulk Modulus (GPa) = 64.64201 67.53875 66.09038
# Shear Modulus (GPa) = 30.24320 30.91812 30.58066
#
# Velocity S-wave (km/s) = 3.85996 3.90279 3.88143
# Velocity P-wave (km/s) = 7.19107 7.31996 7.25580
#
# Compressibility (1/GPa) = 0.01546982
#
# Stress axis : x y z
#
# Youngs Moduli (GPa) = 73.27045 67.39882 88.83339
#
# Poissons Ratio (x) = 0.24066 0.41787
# Poissons Ratio (y) = 0.26162 0.34303
# Poissons Ratio (z) = 0.34466 0.26026
#
# Static dielectric constant tensor:
#      x y z
#    x 3.645010 0.000000 0.000000 
#    y 0.000000 3.719480 0.000000 
#    z 0.000000 0.000000 3.852860 
# 
# 
# High freq. dielectric constant tensor:
#      x y z
#    x 1.791410 0.000000 0.000000 
#    y 0.000000 1.797350 0.000000 
#    z 0.000000 0.000000 1.804190 
# 
# From -- ./inp_files/17081.got.cif
#   From: 2010.03.12/outbox.cif.g09.slc.cpg/sg35_9_cif.got.tgz:17081.got - 2010.04.14 02:02:04.
