data_PCOD8173459
_publ_section_title
;
Structure prediction by ZEFSAII (Michael W. Deem and Ramdas Pophale) SiO2 
 PCOD8173459
Probable space group: C M M 2
;
_chemical_formula_sum "Si O2"
_cell_formula_units_Z 64
_cell_length_a 31.609190
_cell_length_b 9.054671
_cell_length_c 11.697496
_cell_angle_alpha 90.000000
_cell_angle_beta 90.000000
_cell_angle_gamma 90.000000
_cell_volume 3347.949876
_symmetry_space_group_name_H-M "C M M 2"
_symmetry_group_IT_number 35
_symmetry_cell_setting 'orthorhombic'
loop_
_space_group_symop_operation_xyz
x,y,z
-x,-y,z
-x,y,z
x,-y,z
1/2+x,1/2+y,z
1/2-x,1/2-y,z
1/2-x,1/2+y,z
1/2+x,1/2-y,z
loop_
_atom_site_type_symbol
_atom_site_label
_atom_site_fract_x
_atom_site_fract_y
_atom_site_fract_z
Si Si1 0.123069 0.673059 0.961820
Si Si2 0.874134 0.673094 0.696544
Si Si3 0.404022 0.325191 0.487773
Si Si4 0.171811 0.331654 0.357045
Si Si5 0.951379 0.337294 0.314405
Si Si6 0.295142 0.174904 0.111160
Si Si7 0.950727 0.174387 0.090073
Si Si8 0.710697 0.164704 0.588504
O O1 0.115067 0.500000 0.983756
O O2 0.125518 0.711994 0.828565
O O3 0.167156 0.721358 0.023078
O O4 0.081419 0.763930 0.995933
O O5 0.880836 0.500000 0.672940
O O6 0.907014 0.763204 0.617701
O O7 0.830365 0.734235 0.645755
O O8 0.402707 0.500000 0.491104
O O9 0.366684 0.265221 0.405042
O O10 0.445826 0.262343 0.427241
O O11 0.155923 0.500000 0.341865
O O12 0.189896 0.271075 0.236984
O O13 0.209134 0.325026 0.450780
O O14 0.929638 0.500000 0.324238
O O15 0.933417 0.249585 0.205499
O O16 0.000000 0.361081 0.293360
O O17 0.250000 0.250000 0.078911
O O18 0.287736 0.000000 0.107928
O O19 0.000000 0.214149 0.061238
O O20 0.945562 0.000000 0.101764
O O21 0.750000 0.250000 0.638921
O O22 0.715587 0.000000 0.633118
#
# Coordination Sequence:
#
# PCOD8173459 Si02
#       8
#     8   8   8   8   8   8   8   8
#     4  10  21  38  59  80 107 150 198 235 271 324
#     4   9  20  38  54  71 102 144 188 227 264 319
#     4  11  21  33  54  82 108 136 174 223 279 328
#     4   9  18  33  51  73 106 143 177 217 268 330
#     4  10  20  35  57  83 111 143 175 207 254 324
#     4  10  21  35  53  80 112 146 184 227 275 327
#     4  10  21  37  59  89 120 145 176 225 281 330
#     4   9  17  29  47  70  97 132 174 224 276 321
#
# _framework density 19.116178000000001
#
# number of rings (size 3 to 8) (size 9 to 14) (size 15 to 20)
#    0.000    2.250    0.000    3.750    0.000    6.500 
#    0.000    0.625    0.000    0.750    0.000    0.000 
#    0.000    0.000    0.000    0.000    0.000    0.000 
#
# Total GULP energy -396552.192528 kJ/mol
# GULP energy per Si atom -12392.256016 kJ/mol
# Density = 1.907267 g / cm^3
# Si number density = 19.116178 Si / 1000 Ang^3
#
#
#
# Elastic Constant Matrix: (Units=GPa)
#
#
# Indices 1 2 3 4 5 6 
#
# 1 70.8545 35.2923 46.3356 0.0000 0.0000 0.0000
# 2 35.2923 91.9881 55.2024 0.0000 0.0000 0.0000
# 3 46.3356 55.2024 142.0618 0.0000 0.0000 0.0000
# 4 0.0000 0.0000 0.0000 25.8088 0.0000 0.0000
# 5 0.0000 0.0000 0.0000 0.0000 17.4498 0.0000
# 6 0.0000 0.0000 0.0000 0.0000 0.0000 32.5361
#
#
#
# Elastic Compliance Matrix: (Units=1/GPa)
#
#
# Indices 1 2 3 4 5 6 
#
# 1 0.019416 -0.004758 -0.004484 0.000000 0.000000 0.000000
# 2 -0.004758 0.015343 -0.004410 0.000000 0.000000 0.000000
# 3 -0.004484 -0.004410 0.010215 0.000000 0.000000 0.000000
# 4 0.000000 0.000000 0.000000 0.038747 0.000000 0.000000
# 5 0.000000 0.000000 0.000000 0.000000 0.057307 0.000000
# 6 0.000000 0.000000 0.000000 0.000000 0.000000 0.030735
#
#
# Mechanical properties :
#
#
# Convention : Reuss Voigt Hill
#
# Bulk Modulus (GPa) = 56.59358 64.28500 60.43929
# Shear Modulus (GPa) = 24.39540 26.36390 25.37965
#
# Velocity S-wave (km/s) = 3.57622 3.71771 3.64765
# Velocity P-wave (km/s) = 6.83534 7.22011 7.03036
#
# Compressibility (1/GPa) = 0.01766985
#
# Stress axis : x y z
#
# Youngs Moduli (GPa) = 51.50479 65.17624 97.89283
#
# Poissons Ratio (x) = 0.31013 0.43892
# Poissons Ratio (y) = 0.24508 0.43171
# Poissons Ratio (z) = 0.23093 0.28743
#
# Static dielectric constant tensor:
#      x y z
#    x 3.498920 0.000000 0.000000 
#    y 0.000000 3.493080 0.000000 
#    z 0.000000 0.000000 3.559600 
# 
# 
# High freq. dielectric constant tensor:
#      x y z
#    x 1.737200 0.000000 0.000000 
#    y 0.000000 1.737730 0.000000 
#    z 0.000000 0.000000 1.739480 
# 
# From -- ./inp_files/14559.got.cif
#   From: 2010.03.12/outbox.cif.g09.slc.cpg/sg35_8_cif.got.tgz:14559.got - 2010.04.14 02:02:04.
