data_PCOD8173447
_publ_section_title
;
Structure prediction by ZEFSAII (Michael W. Deem and Ramdas Pophale) SiO2 
 PCOD8173447
Probable space group: C M M 2
;
_chemical_formula_sum "Si O2"
_cell_formula_units_Z 64
_cell_length_a 8.833571
_cell_length_b 29.158004
_cell_length_c 12.294162
_cell_angle_alpha 90.000000
_cell_angle_beta 90.000000
_cell_angle_gamma 90.000000
_cell_volume 3166.598683
_symmetry_space_group_name_H-M "C M M 2"
_symmetry_group_IT_number 35
_symmetry_cell_setting 'orthorhombic'
loop_
_space_group_symop_operation_xyz
x,y,z
-x,-y,z
-x,y,z
x,-y,z
1/2+x,1/2+y,z
1/2-x,1/2-y,z
1/2-x,1/2+y,z
1/2+x,1/2-y,z
loop_
_atom_site_type_symbol
_atom_site_label
_atom_site_fract_x
_atom_site_fract_y
_atom_site_fract_z
Si Si1 0.178582 0.053472 0.130250
Si Si2 0.830728 0.916592 0.720318
Si Si3 0.179296 0.608047 0.326794
Si Si4 0.168991 0.816332 0.641412
Si Si5 0.820064 0.203535 0.884146
Si Si6 0.678558 0.109095 0.936691
Si Si7 0.668385 0.949781 0.527532
Si Si8 0.177033 0.295823 0.418174
O O1 0.228057 0.084619 0.231138
O O2 0.000000 0.057859 0.113969
O O3 0.225320 0.000000 0.146273
O O4 0.262075 0.073999 0.026265
O O5 0.830579 0.870757 0.649314
O O6 0.719667 0.913790 0.822164
O O7 0.769820 0.953878 0.635770
O O8 0.000000 0.928706 0.761285
O O9 0.234186 0.584395 0.437879
O O10 0.224611 0.661469 0.341428
O O11 0.000000 0.601472 0.306701
O O12 0.228246 0.797326 0.757227
O O13 0.276702 0.800808 0.544361
O O14 0.000000 0.798038 0.616811
O O15 0.750000 0.250000 0.935621
O O16 0.754238 0.159406 0.947439
O O17 0.000000 0.202392 0.897388
O O18 0.500000 0.115076 0.948148
O O19 0.500000 0.933377 0.561217
O O20 0.664562 0.000000 0.473830
O O21 0.250000 0.250000 0.367458
O O22 0.000000 0.290086 0.416459
#
# Coordination Sequence:
#
# PCOD8173447 Si02
#       8
#     8   8   8   8   8   8   8   8
#     4  11  25  45  69  94 118 150 197 255 314 371
#     4  10  20  35  56  84 122 161 198 247 301 358
#     4  10  22  41  63  88 120 158 201 250 300 360
#     4   9  18  32  52  80 117 161 203 244 289 343
#     4  10  20  35  56  88 127 166 208 251 299 357
#     4  11  23  40  64  90 120 159 204 254 306 363
#     4  10  20  35  57  86 120 157 197 243 298 364
#     4  11  22  35  56  85 120 160 202 246 295 350
#
# _framework density 20.21096
#
# number of rings (size 3 to 8) (size 9 to 14) (size 15 to 20)
#    0.000    1.750    1.250    4.125    0.000    7.250 
#    0.000    0.625    0.000    1.500    0.000    0.000 
#    0.000    0.000    0.000    0.000    0.000    0.000 
#
# Total GULP energy -396748.459680 kJ/mol
# GULP energy per Si atom -12398.389365 kJ/mol
# Density = 2.016496 g / cm^3
# Si number density = 20.210960 Si / 1000 Ang^3
#
#
#
# Elastic Constant Matrix: (Units=GPa)
#
#
# Indices 1 2 3 4 5 6 
#
# 1 105.4845 58.0657 43.2760 0.0000 0.0000 0.0000
# 2 58.0657 134.3532 57.1122 0.0000 0.0000 0.0000
# 3 43.2760 57.1122 84.5437 0.0000 0.0000 0.0000
# 4 0.0000 0.0000 0.0000 16.2467 0.0000 0.0000
# 5 0.0000 0.0000 0.0000 0.0000 34.1475 0.0000
# 6 0.0000 0.0000 0.0000 0.0000 0.0000 29.0896
#
#
#
# Elastic Compliance Matrix: (Units=1/GPa)
#
#
# Indices 1 2 3 4 5 6 
#
# 1 0.013395 -0.004033 -0.004133 0.000000 0.000000 0.000000
# 2 -0.004033 0.011655 -0.005810 0.000000 0.000000 0.000000
# 3 -0.004133 -0.005810 0.017868 0.000000 0.000000 0.000000
# 4 0.000000 0.000000 0.000000 0.061551 0.000000 0.000000
# 5 0.000000 0.000000 0.000000 0.000000 0.029285 0.000000
# 6 0.000000 0.000000 0.000000 0.000000 0.000000 0.034377
#
#
# Mechanical properties :
#
#
# Convention : Reuss Voigt Hill
#
# Bulk Modulus (GPa) = 66.80231 71.25434 69.02832
# Shear Modulus (GPa) = 24.86693 26.95859 25.91276
#
# Velocity S-wave (km/s) = 3.51147 3.65617 3.58455
# Velocity P-wave (km/s) = 7.04023 7.29076 7.16659
#
# Compressibility (1/GPa) = 0.01496954
#
# Stress axis : x y z
#
# Youngs Moduli (GPa) = 74.65314 85.79686 55.96556
#
# Poissons Ratio (x) = 0.34598 0.23128
# Poissons Ratio (y) = 0.30104 0.32513
# Poissons Ratio (z) = 0.30851 0.49844
#
# Static dielectric constant tensor:
#      x y z
#    x 3.690200 0.000000 0.000000 
#    y 0.000000 3.964340 0.000000 
#    z 0.000000 0.000000 3.492430 
# 
# 
# High freq. dielectric constant tensor:
#      x y z
#    x 1.792020 0.000000 0.000000 
#    y 0.000000 1.802600 0.000000 
#    z 0.000000 0.000000 1.764970 
# 
# From -- ./inp_files/12012.got.cif
#   From: 2010.03.12/outbox.cif.g09.slc.cpg/sg35_7_cif.got.tgz:12012.got - 2010.04.14 02:02:04.
