data_PCOD8173846
_publ_section_title
;
Structure prediction by ZEFSAII (Michael W. Deem and Ramdas Pophale) SiO2 
 PCOD8173846
Probable space group: C M M 2
;
_chemical_formula_sum "Si O2"
_cell_formula_units_Z 64
_cell_length_a 8.966256
_cell_length_b 30.853632
_cell_length_c 11.883276
_cell_angle_alpha 90.000000
_cell_angle_beta 90.000000
_cell_angle_gamma 90.000000
_cell_volume 3287.408047
_symmetry_space_group_name_H-M "C M M 2"
_symmetry_group_IT_number 35
_symmetry_cell_setting 'orthorhombic'
loop_
_space_group_symop_operation_xyz
x,y,z
-x,-y,z
-x,y,z
x,-y,z
1/2+x,1/2+y,z
1/2-x,1/2-y,z
1/2-x,1/2+y,z
1/2+x,1/2-y,z
loop_
_atom_site_type_symbol
_atom_site_label
_atom_site_fract_x
_atom_site_fract_y
_atom_site_fract_z
Si Si1 0.176729 0.827000 0.029970
Si Si2 0.323145 0.294271 0.790925
Si Si3 0.176296 0.075697 0.029970
Si Si4 0.829252 0.451850 0.808855
Si Si5 0.829252 0.548150 0.251085
Si Si6 0.173508 0.371186 0.399467
Si Si7 0.823145 0.794271 0.269015
Si Si8 0.173508 0.628814 0.660474
O O1 0.242164 0.875550 0.029970
O O2 0.234025 0.802597 0.141469
O O3 0.000000 0.829286 0.029970
O O4 0.234025 0.802597 0.918471
O O5 0.500000 0.290314 0.784554
O O6 0.250000 0.250000 0.746769
O O7 0.272092 0.333020 0.711388
O O8 0.230553 0.050995 0.139966
O O9 0.000000 0.076015 0.029970
O O10 0.230553 0.050995 0.919974
O O11 0.807886 0.500000 0.756763
O O12 0.778641 0.416535 0.717177
O O13 0.000000 0.443902 0.843827
O O14 0.807886 0.500000 0.303177
O O15 0.778641 0.583465 0.342764
O O16 0.000000 0.556098 0.216113
O O17 0.272092 0.333020 0.348552
O O18 0.211595 0.375419 0.529970
O O19 0.000000 0.360714 0.379116
O O20 0.750000 0.750000 0.313172
O O21 0.000000 0.790314 0.275386
O O22 0.000000 0.639286 0.680824
#
# Coordination Sequence:
#
# PCOD8173846 Si02
#       8
#     8   8   8   8   8   8   8   8
#     4   9  19  35  57  85 116 147 181 227 281 337
#     4  11  22  39  61  87 117 149 187 232 285 341
#     4  11  20  35  58  86 118 152 188 230 283 341
#     4  10  21  37  58  86 118 151 189 235 286 338
#     4  10  21  37  58  86 118 151 189 235 286 338
#     4  10  22  40  60  83 112 150 196 240 283 333
#     4  11  22  39  61  87 117 149 187 232 285 341
#     4  10  22  40  60  83 112 150 196 240 283 333
#
# _framework density 19.468225
#
# number of rings (size 3 to 8) (size 9 to 14) (size 15 to 20)
#    0.000    1.750    2.500    1.875    0.000    3.500 
#    0.000    4.375    0.000    0.000    0.000    3.500 
#    0.000    0.000    0.000    0.000    0.000    0.000 
#
# Total GULP energy -396901.022895 kJ/mol
# GULP energy per Si atom -12403.156965 kJ/mol
# Density = 1.942391 g / cm^3
# Si number density = 19.468225 Si / 1000 Ang^3
#
#
#
# Elastic Constant Matrix: (Units=GPa)
#
#
# Indices 1 2 3 4 5 6 
#
# 1 68.5545 53.9144 48.1393 0.0000 0.0000 0.0000
# 2 53.9144 171.8774 65.2845 0.0000 0.0000 0.0000
# 3 48.1393 65.2845 133.6231 0.0000 0.0000 0.0000
# 4 0.0000 0.0000 0.0000 -0.5893 0.0000 0.0000
# 5 0.0000 0.0000 0.0000 0.0000 22.0994 0.0000
# 6 0.0000 0.0000 0.0000 0.0000 0.0000 29.3429
#
#
#
# Elastic Compliance Matrix: (Units=1/GPa)
#
#
# Indices 1 2 3 4 5 6 
#
# 1 0.022416 -0.004867 -0.005697 0.000000 0.000000 0.000000
# 2 -0.004867 0.008201 -0.002253 0.000000 0.000000 0.000000
# 3 -0.005697 -0.002253 0.010637 0.000000 0.000000 0.000000
# 4 0.000000 0.000000 0.000000 -1.696800 0.000000 0.000000
# 5 0.000000 0.000000 0.000000 0.000000 0.045250 0.000000
# 6 0.000000 0.000000 0.000000 0.000000 0.000000 0.034080
#
#
# Mechanical properties :
#
#
# Convention : Reuss Voigt Hill
#
# Bulk Modulus (GPa) = 64.03002 78.74793 71.38898
# Shear Modulus (GPa) = -3.23546 23.95171 10.35812
#
# Velocity S-wave (km/s) = -1.29055 3.51136 2.30913
# Velocity P-wave (km/s) = 5.54438 7.54830 6.62258
#
# Compressibility (1/GPa) = 0.01561767
#
# Stress axis : x y z
#
# Youngs Moduli (GPa) = 44.61196 121.94141 94.01016
#
# Poissons Ratio (x) = 0.59351 0.53562
# Poissons Ratio (y) = 0.21714 0.21182
# Poissons Ratio (z) = 0.25418 0.27475
#
# Static dielectric constant tensor:
#      x y z
#    x 3.371100 0.000000 0.000000 
#    y 0.000000 3.736770 0.000000 
#    z 0.000000 0.000000 3.535720 
# 
# 
# High freq. dielectric constant tensor:
#      x y z
#    x 1.745370 0.000000 0.000000 
#    y 0.000000 1.775240 0.000000 
#    z 0.000000 0.000000 1.751280 
# 
# From -- ./inp_files/11885.got.cif
#   From: 2010.03.12/outbox.cif.g09.slc.cpg/sg35_6_cif.got.tgz:11885.got - 2010.04.14 02:02:04.
