data_PCOD8173064
_publ_section_title
;
Structure prediction by ZEFSAII (Michael W. Deem and Ramdas Pophale) SiO2 
 PCOD8173064
Probable space group: C M M 2
;
_chemical_formula_sum "Si O2"
_cell_formula_units_Z 64
_cell_length_a 9.126160
_cell_length_b 19.455795
_cell_length_c 20.264924
_cell_angle_alpha 90.000000
_cell_angle_beta 90.000000
_cell_angle_gamma 90.000000
_cell_volume 3598.172993
_symmetry_space_group_name_H-M "C M M 2"
_symmetry_group_IT_number 35
_symmetry_cell_setting 'orthorhombic'
loop_
_space_group_symop_operation_xyz
x,y,z
-x,-y,z
-x,y,z
x,-y,z
1/2+x,1/2+y,z
1/2-x,1/2-y,z
1/2-x,1/2+y,z
1/2+x,1/2-y,z
loop_
_atom_site_type_symbol
_atom_site_label
_atom_site_fract_x
_atom_site_fract_y
_atom_site_fract_z
Si Si1 0.828285 0.820472 0.189740
Si Si2 0.173829 0.076851 0.078292
Si Si3 0.831316 0.418801 0.719827
Si Si4 0.672040 0.680093 0.339422
Si Si5 0.329084 0.680941 0.968539
Si Si6 0.825692 0.923984 0.447983
Si Si7 0.327623 0.679840 0.816770
Si Si8 0.663055 0.418266 0.592235
O O1 0.750000 0.750000 0.169420
O O2 0.771625 0.881830 0.142866
O O3 0.789786 0.841963 0.264644
O O4 0.000000 0.807903 0.180233
O O5 0.000000 0.071190 0.079108
O O6 0.242398 0.000000 0.078385
O O7 0.226370 0.117095 0.012692
O O8 0.809273 0.500000 0.727406
O O9 0.736546 0.383755 0.776596
O O10 0.774016 0.392651 0.648624
O O11 0.000000 0.397263 0.726639
O O12 0.500000 0.690527 0.348745
O O13 0.750000 0.750000 0.358898
O O14 0.735621 0.623023 0.389146
O O15 0.500000 0.693798 0.979091
O O16 0.250000 0.750000 0.992551
O O17 0.291279 0.664110 0.892928
O O18 0.780749 0.893359 0.520009
O O19 0.000000 0.928240 0.444956
O O20 0.758520 0.000000 0.437861
O O21 0.500000 0.686650 0.803921
O O22 0.250000 0.750000 0.793706
O O23 0.500000 0.389223 0.607552
O O24 0.655963 0.500000 0.590108
#
# Coordination Sequence:
#
# PCOD8173064 Si02
#       8
#     8   8   8   8   8   8   8   8
#     4   9  17  29  47  68  91 124 159 190 227 274
#     4   9  17  29  46  71  99 122 151 194 236 270
#     4  10  20  33  50  73 100 128 159 198 241 285
#     4   9  17  29  45  67  94 122 154 191 232 277
#     4   9  18  32  51  71  92 123 158 192 230 277
#     4   8  14  26  46  69  90 116 155 200 237 271
#     4  10  20  34  52  73  97 126 161 199 240 287
#     4   8  14  27  47  68  90 120 158 196 235 281
#
# _framework density 17.786805000000001
#
# number of rings (size 3 to 8) (size 9 to 14) (size 15 to 20)
#    0.000    3.000    0.000    1.875    0.000    2.250 
#    0.000    5.000    0.000    4.125    0.000    3.500 
#    0.000    0.000    0.000    0.000    0.000    0.000 
#
# Total GULP energy -396708.480475 kJ/mol
# GULP energy per Si atom -12397.140015 kJ/mol
# Density = 1.774632 g / cm^3
# Si number density = 17.786805 Si / 1000 Ang^3
#
#
#
# Elastic Constant Matrix: (Units=GPa)
#
#
# Indices 1 2 3 4 5 6 
#
# 1 50.1324 36.3833 38.3560 0.0000 0.0000 0.0000
# 2 36.3833 113.1335 80.2210 0.0000 0.0000 0.0000
# 3 38.3560 80.2210 129.4931 0.0000 0.0000 0.0000
# 4 0.0000 0.0000 0.0000 28.0031 0.0000 0.0000
# 5 0.0000 0.0000 0.0000 0.0000 17.9578 0.0000
# 6 0.0000 0.0000 0.0000 0.0000 0.0000 24.6746
#
#
#
# Elastic Compliance Matrix: (Units=1/GPa)
#
#
# Indices 1 2 3 4 5 6 
#
# 1 0.027579 -0.005487 -0.004769 0.000000 0.000000 0.000000
# 2 -0.005487 0.016856 -0.008817 0.000000 0.000000 0.000000
# 3 -0.004769 -0.008817 0.014597 0.000000 0.000000 0.000000
# 4 0.000000 0.000000 0.000000 0.035710 0.000000 0.000000
# 5 0.000000 0.000000 0.000000 0.000000 0.055686 0.000000
# 6 0.000000 0.000000 0.000000 0.000000 0.000000 0.040528
#
#
# Mechanical properties :
#
#
# Convention : Reuss Voigt Hill
#
# Bulk Modulus (GPa) = 47.88249 66.96438 57.42343
# Shear Modulus (GPa) = 21.18074 23.31368 22.24721
#
# Velocity S-wave (km/s) = 3.45456 3.62433 3.54046
# Velocity P-wave (km/s) = 6.54909 7.43266 7.00482
#
# Compressibility (1/GPa) = 0.02088446
#
# Stress axis : x y z
#
# Youngs Moduli (GPa) = 36.26001 59.32767 68.50685
#
# Poissons Ratio (x) = 0.32554 0.32674
# Poissons Ratio (y) = 0.19897 0.60400
# Poissons Ratio (z) = 0.17294 0.52307
#
# Static dielectric constant tensor:
#      x y z
#    x 3.090460 0.000000 0.000000 
#    y 0.000000 3.329060 0.000000 
#    z 0.000000 0.000000 3.593500 
# 
# 
# High freq. dielectric constant tensor:
#      x y z
#    x 1.661200 0.000000 0.000000 
#    y 0.000000 1.671580 0.000000 
#    z 0.000000 0.000000 1.701760 
# 
# From -- ./inp_files/18399.got.cif
#   From: 2010.03.12/outbox.cif.g09.slc.cpg/sg35_10_cif.got.tgz:18399.got - 2010.04.14 02:02:04.
