data_PCOD8173680
_publ_section_title
;
Structure prediction by ZEFSAII (Michael W. Deem and Ramdas Pophale) SiO2 
 PCOD8173680
Probable space group: C M M 2
;
_chemical_formula_sum "Si O2"
_cell_formula_units_Z 48
_cell_length_a 7.651083
_cell_length_b 18.160470
_cell_length_c 17.264643
_cell_angle_alpha 90.000000
_cell_angle_beta 90.000000
_cell_angle_gamma 90.000000
_cell_volume 2398.874897
_symmetry_space_group_name_H-M "C M M 2"
_symmetry_group_IT_number 35
_symmetry_cell_setting 'orthorhombic'
loop_
_space_group_symop_operation_xyz
x,y,z
-x,-y,z
-x,y,z
x,-y,z
1/2+x,1/2+y,z
1/2-x,1/2-y,z
1/2-x,1/2+y,z
1/2+x,1/2-y,z
loop_
_atom_site_type_symbol
_atom_site_label
_atom_site_fract_x
_atom_site_fract_y
_atom_site_fract_z
Si Si1 0.795948 0.081935 0.248420
Si Si2 0.704478 0.081796 0.415539
Si Si3 0.500000 0.088069 0.999236
Si Si4 0.206546 0.164520 0.096715
Si Si5 0.204842 0.334514 0.564105
Si Si6 0.694624 0.584236 0.715338
Si Si7 0.500000 0.912730 0.823825
O O1 0.747144 0.117138 0.331680
O O2 0.730147 0.136223 0.181105
O O3 0.000000 0.073490 0.240763
O O4 0.710002 0.000000 0.239930
O O5 0.500000 0.076879 0.427188
O O6 0.782450 0.130996 0.484722
O O7 0.788433 0.000000 0.419510
O O8 0.321345 0.119380 0.035417
O O9 0.500000 0.000000 0.006501
O O10 0.500000 0.117032 0.910938
O O11 0.250000 0.250000 0.090191
O O12 0.000000 0.150309 0.081468
O O13 0.250000 0.250000 0.562528
O O14 0.300441 0.370938 0.636210
O O15 0.000000 0.348724 0.572658
O O16 0.500000 0.590640 0.750561
O O17 0.743539 0.500000 0.695845
O O18 0.828550 0.616755 0.778728
O O19 0.500000 0.000000 0.826616
#
# Coordination Sequence:
#
# PCOD8173680 Si02
#       7
#     8   8   4   8   8   8   4
#     4   9  19  35  56  84 117 154 203 259 306 358
#     4   9  19  34  54  80 111 154 203 250 300 353
#     4  11  24  42  70  99 126 166 207 257 324 376
#     4  11  23  41  64  92 131 169 211 259 312 382
#     4  11  22  36  54  79 119 157 201 252 297 357
#     4  10  20  37  64  91 117 153 196 243 301 360
#     4   9  20  40  64  93 123 150 195 251 297 360
#
# _framework density 20.009381000000001
#
# number of rings (size 3 to 8) (size 9 to 14) (size 15 to 20)
#    0.000    2.000    1.667    1.500    1.167    4.333 
#    0.000    7.500    0.000    0.000    0.000    0.000 
#    0.000    0.000    0.000    0.000    0.000    0.000 
#
# Total GULP energy -297566.976235 kJ/mol
# GULP energy per Si atom -12398.624010 kJ/mol
# Density = 1.996384 g / cm^3
# Si number density = 20.009381 Si / 1000 Ang^3
#
#
#
# Elastic Constant Matrix: (Units=GPa)
#
#
# Indices 1 2 3 4 5 6 
#
# 1 98.9456 31.1616 57.5179 0.0000 0.0000 0.0000
# 2 31.1616 99.9943 66.2014 0.0000 0.0000 0.0000
# 3 57.5179 66.2014 183.8032 0.0000 0.0000 0.0000
# 4 0.0000 0.0000 0.0000 59.3144 0.0000 0.0000
# 5 0.0000 0.0000 0.0000 0.0000 16.7670 0.0000
# 6 0.0000 0.0000 0.0000 0.0000 0.0000 21.9452
#
#
#
# Elastic Compliance Matrix: (Units=1/GPa)
#
#
# Indices 1 2 3 4 5 6 
#
# 1 0.012576 -0.001725 -0.003314 0.000000 0.000000 0.000000
# 2 -0.001725 0.013369 -0.004275 0.000000 0.000000 0.000000
# 3 -0.003314 -0.004275 0.008018 0.000000 0.000000 0.000000
# 4 0.000000 0.000000 0.000000 0.016859 0.000000 0.000000
# 5 0.000000 0.000000 0.000000 0.000000 0.059641 0.000000
# 6 0.000000 0.000000 0.000000 0.000000 0.000000 0.045568
#
#
# Mechanical properties :
#
#
# Convention : Reuss Voigt Hill
#
# Bulk Modulus (GPa) = 65.21640 76.94498 71.08069
# Shear Modulus (GPa) = 27.81318 34.79615 31.30466
#
# Velocity S-wave (km/s) = 3.73232 4.17465 3.95967
# Velocity P-wave (km/s) = 7.15803 7.85970 7.51705
#
# Compressibility (1/GPa) = 0.01533357
#
# Stress axis : x y z
#
# Youngs Moduli (GPa) = 79.51367 74.80242 124.72619
#
# Poissons Ratio (x) = 0.12904 0.41337
# Poissons Ratio (y) = 0.13716 0.53323
# Poissons Ratio (z) = 0.26353 0.31980
#
# Static dielectric constant tensor:
#      x y z
#    x 3.714300 0.000000 0.000000 
#    y 0.000000 3.591350 0.000000 
#    z 0.000000 0.000000 3.858110 
# 
# 
# High freq. dielectric constant tensor:
#      x y z
#    x 1.786920 0.000000 0.000000 
#    y 0.000000 1.764240 0.000000 
#    z 0.000000 0.000000 1.782190 
# 
# From -- ./inp_files/15174.got.cif
#   From: 2010.03.12/outbox.cif.g09.slc.cpg/sg35_8_cif.got.tgz:15174.got - 2010.04.14 02:02:04.
