data_PCOD8173754
_publ_section_title
;
Structure prediction by ZEFSAII (Michael W. Deem and Ramdas Pophale) SiO2 
 PCOD8173754
Probable space group: C M M 2
;
_chemical_formula_sum "Si O2"
_cell_formula_units_Z 48
_cell_length_a 15.603123
_cell_length_b 8.840400
_cell_length_c 17.135885
_cell_angle_alpha 90.000000
_cell_angle_beta 90.000000
_cell_angle_gamma 90.000000
_cell_volume 2363.687110
_symmetry_space_group_name_H-M "C M M 2"
_symmetry_group_IT_number 35
_symmetry_cell_setting 'orthorhombic'
loop_
_space_group_symop_operation_xyz
x,y,z
-x,-y,z
-x,y,z
x,-y,z
1/2+x,1/2+y,z
1/2-x,1/2-y,z
1/2-x,1/2+y,z
1/2+x,1/2-y,z
loop_
_atom_site_type_symbol
_atom_site_label
_atom_site_fract_x
_atom_site_fract_y
_atom_site_fract_z
Si Si1 0.500000 0.678989 0.861840
Si Si2 0.101287 0.173458 0.125881
Si Si3 0.597901 0.834887 0.277261
Si Si4 0.000000 0.323838 0.695063
Si Si5 0.659362 0.678959 0.423776
Si Si6 0.838360 0.820250 0.958850
Si Si7 0.341618 0.178875 0.585520
O O1 0.500000 0.500000 0.866963
O O2 0.500000 0.728057 0.772827
O O3 0.584937 0.742089 0.904445
O O4 0.140805 0.262961 0.200003
O O5 0.000000 0.194021 0.115955
O O6 0.124737 0.000000 0.139849
O O7 0.145466 0.235267 0.047313
O O8 0.500000 0.857476 0.255554
O O9 0.600031 0.723831 0.351477
O O10 0.639837 0.000000 0.295124
O O11 0.914069 0.280196 0.648157
O O12 0.000000 0.500000 0.715419
O O13 0.663776 0.500000 0.434021
O O14 0.750000 0.750000 0.402339
O O15 0.625344 0.751827 0.503934
O O16 0.750000 0.750000 0.927422
O O17 0.833650 0.000000 0.954396
O O18 0.250000 0.250000 0.610387
O O19 0.329837 0.000000 0.575606
#
# Coordination Sequence:
#
# PCOD8173754 Si02
#       7
#     4   8   8   4   8   8   8
#     4  10  22  42  64  87 120 155 192 237 290 353
#     4   9  17  34  57  78 110 154 200 246 292 344
#     4  10  21  35  53  81 117 155 197 243 291 339
#     4  10  24  42  64  91 120 155 192 235 298 355
#     4  11  22  37  57  82 113 152 196 242 293 346
#     4  10  21  38  61  89 118 155 196 241 294 351
#     4  10  21  40  62  88 121 157 195 243 296 350
#
# _framework density 20.307255000000001
#
# number of rings (size 3 to 8) (size 9 to 14) (size 15 to 20)
#    0.000    2.000    0.833    3.500    1.167    5.000 
#    0.000    5.000    0.000    0.000    0.000    0.000 
#    0.000    0.000    0.000    0.000    0.000    0.000 
#
# Total GULP energy -297571.841200 kJ/mol
# GULP energy per Si atom -12398.826717 kJ/mol
# Density = 2.026103 g / cm^3
# Si number density = 20.307255 Si / 1000 Ang^3
#
#
#
# Elastic Constant Matrix: (Units=GPa)
#
#
# Indices 1 2 3 4 5 6 
#
# 1 100.0035 41.9823 67.9118 0.0000 0.0000 0.0000
# 2 41.9823 100.1130 53.9782 0.0000 0.0000 0.0000
# 3 67.9118 53.9782 142.4166 0.0000 0.0000 0.0000
# 4 0.0000 0.0000 0.0000 36.0193 0.0000 0.0000
# 5 0.0000 0.0000 0.0000 0.0000 16.4967 0.0000
# 6 0.0000 0.0000 0.0000 0.0000 0.0000 30.0373
#
#
#
# Elastic Compliance Matrix: (Units=1/GPa)
#
#
# Indices 1 2 3 4 5 6 
#
# 1 0.015550 -0.003171 -0.006213 0.000000 0.000000 0.000000
# 2 -0.003171 0.013201 -0.003491 0.000000 0.000000 0.000000
# 3 -0.006213 -0.003491 0.011308 0.000000 0.000000 0.000000
# 4 0.000000 0.000000 0.000000 0.027763 0.000000 0.000000
# 5 0.000000 0.000000 0.000000 0.000000 0.060618 0.000000
# 6 0.000000 0.000000 0.000000 0.000000 0.000000 0.033292
#
#
# Mechanical properties :
#
#
# Convention : Reuss Voigt Hill
#
# Bulk Modulus (GPa) = 69.89209 74.47528 72.18368
# Shear Modulus (GPa) = 26.00751 28.42139 27.21445
#
# Velocity S-wave (km/s) = 3.58257 3.74514 3.66476
# Velocity P-wave (km/s) = 7.18367 7.44683 7.31643
#
# Compressibility (1/GPa) = 0.01430777
#
# Stress axis : x y z
#
# Youngs Moduli (GPa) = 64.30746 75.75286 88.43479
#
# Poissons Ratio (x) = 0.24021 0.54948
# Poissons Ratio (y) = 0.20391 0.30875
# Poissons Ratio (z) = 0.39957 0.26447
#
# Static dielectric constant tensor:
#      x y z
#    x 3.647120 0.000000 0.000000 
#    y 0.000000 3.750550 0.000000 
#    z 0.000000 0.000000 3.701980 
# 
# 
# High freq. dielectric constant tensor:
#      x y z
#    x 1.788240 0.000000 0.000000 
#    y 0.000000 1.792120 0.000000 
#    z 0.000000 0.000000 1.795490 
# 
# From -- ./inp_files/15257.got.cif
#   From: 2010.03.12/outbox.cif.g09.slc.cpg/sg35_8_cif.got.tgz:15257.got - 2010.04.14 02:02:04.
