data_PCOD8173762
_publ_section_title
;
Structure prediction by ZEFSAII (Michael W. Deem and Ramdas Pophale) SiO2 
 PCOD8173762
Probable space group: C M M 2
;
_chemical_formula_sum "Si O2"
_cell_formula_units_Z 56
_cell_length_a 14.079596
_cell_length_b 26.850617
_cell_length_c 6.985445
_cell_angle_alpha 90.000000
_cell_angle_beta 90.000000
_cell_angle_gamma 90.000000
_cell_volume 2640.818421
_symmetry_space_group_name_H-M "C M M 2"
_symmetry_group_IT_number 35
_symmetry_cell_setting 'orthorhombic'
loop_
_space_group_symop_operation_xyz
x,y,z
-x,-y,z
-x,y,z
x,-y,z
1/2+x,1/2+y,z
1/2-x,1/2-y,z
1/2-x,1/2+y,z
1/2+x,1/2-y,z
loop_
_atom_site_type_symbol
_atom_site_label
_atom_site_fract_x
_atom_site_fract_y
_atom_site_fract_z
Si Si1 0.613320 0.614345 0.027350
Si Si2 0.763611 0.606359 0.729790
Si Si3 0.387512 0.085188 0.067052
Si Si4 0.324758 0.786664 0.628034
Si Si5 0.732245 0.444536 0.325487
Si Si6 0.390415 0.726562 0.988496
Si Si7 0.606993 0.187985 0.236179
O O1 0.500000 0.607697 0.006259
O O2 0.649496 0.586890 0.219094
O O3 0.666514 0.591273 0.841475
O O4 0.649825 0.671582 0.027128
O O5 0.773891 0.666244 0.724982
O O6 0.760791 0.583020 0.520574
O O7 0.854962 0.584129 0.844960
O O8 0.500000 0.074573 0.083123
O O9 0.326373 0.046975 0.193868
O O10 0.348769 0.136849 0.160417
O O11 0.250000 0.750000 0.525086
O O12 0.376208 0.750632 0.779733
O O13 0.394540 0.807633 0.465791
O O14 0.693320 0.500000 0.370811
O O15 0.500000 0.720855 0.031886
O O16 0.341683 0.764515 0.139357
O O17 0.500000 0.186184 0.159307
#
# Coordination Sequence:
#
# PCOD8173762 Si02
#       7
#     8   8   8   8   8   8   8
#     4  10  24  45  68  94 128 169 219 277 335 392
#     4  11  23  40  64  98 132 170 214 270 324 394
#     4  10  22  41  67  96 130 171 215 263 318 392
#     4  12  22  32  56  92 130 173 209 247 311 384
#     4  11  26  47  67  92 127 169 222 285 341 385
#     4  10  21  37  58  89 130 169 207 256 312 383
#     4  10  21  35  56  88 128 174 212 246 300 379
#
# _framework density 21.205546999999999
#
# number of rings (size 3 to 8) (size 9 to 14) (size 15 to 20)
#    0.000    1.429    4.286    0.429    2.000    5.143 
#    0.000    0.000    0.000    0.000    0.000    0.000 
#    0.000    0.000    0.000    0.000    0.000    0.000 
#
# Total GULP energy -346941.429465 kJ/mol
# GULP energy per Si atom -12390.765338 kJ/mol
# Density = 2.115728 g / cm^3
# Si number density = 21.205547 Si / 1000 Ang^3
#
#
#
# Elastic Constant Matrix: (Units=GPa)
#
#
# Indices 1 2 3 4 5 6 
#
# 1 79.7195 11.7674 18.4710 0.0000 0.0000 0.0000
# 2 11.7674 94.6632 24.5661 0.0000 0.0000 0.0000
# 3 18.4710 24.5661 114.9801 0.0000 0.0000 0.0000
# 4 0.0000 0.0000 0.0000 13.1668 0.0000 0.0000
# 5 0.0000 0.0000 0.0000 0.0000 27.1138 0.0000
# 6 0.0000 0.0000 0.0000 0.0000 0.0000 17.5464
#
#
#
# Elastic Compliance Matrix: (Units=1/GPa)
#
#
# Indices 1 2 3 4 5 6 
#
# 1 0.013146 -0.001150 -0.001866 0.000000 0.000000 0.000000
# 2 -0.001150 0.011284 -0.002226 0.000000 0.000000 0.000000
# 3 -0.001866 -0.002226 0.009473 0.000000 0.000000 0.000000
# 4 0.000000 0.000000 0.000000 0.075948 0.000000 0.000000
# 5 0.000000 0.000000 0.000000 0.000000 0.036882 0.000000
# 6 0.000000 0.000000 0.000000 0.000000 0.000000 0.056992
#
#
# Mechanical properties :
#
#
# Convention : Reuss Voigt Hill
#
# Bulk Modulus (GPa) = 42.70125 44.33021 43.51573
# Shear Modulus (GPa) = 22.52094 27.20264 24.86179
#
# Velocity S-wave (km/s) = 3.26242 3.58552 3.42778
# Velocity P-wave (km/s) = 5.86274 6.17184 6.01927
#
# Compressibility (1/GPa) = 0.02341852
#
# Stress axis : x y z
#
# Youngs Moduli (GPa) = 76.06814 88.61757 105.56765
#
# Poissons Ratio (x) = 0.10190 0.19701
# Poissons Ratio (y) = 0.08747 0.23502
# Poissons Ratio (z) = 0.14196 0.19729
#
# Static dielectric constant tensor:
#      x y z
#    x 3.627970 0.000000 0.000000 
#    y 0.000000 3.943110 0.000000 
#    z 0.000000 0.000000 3.684360 
# 
# 
# High freq. dielectric constant tensor:
#      x y z
#    x 1.825930 0.000000 0.000000 
#    y 0.000000 1.828160 0.000000 
#    z 0.000000 0.000000 1.832160 
# 
# From -- ./inp_files/2070.got.cif
#   From: 2010.03.12/outbox.cif.g09.slc.cpg/sg35_2_cif.got.tgz:2070.got - 2010.04.14 02:02:04.
