data_PCOD8173151
_publ_section_title
;
Structure prediction by ZEFSAII (Michael W. Deem and Ramdas Pophale) SiO2 
 PCOD8173151
Probable space group: C M M 2
;
_chemical_formula_sum "Si O2"
_cell_formula_units_Z 40
_cell_length_a 17.816531
_cell_length_b 7.467596
_cell_length_c 14.860492
_cell_angle_alpha 90.000000
_cell_angle_beta 90.000000
_cell_angle_gamma 90.000000
_cell_volume 1977.138762
_symmetry_space_group_name_H-M "C M M 2"
_symmetry_group_IT_number 35
_symmetry_cell_setting 'orthorhombic'
loop_
_space_group_symop_operation_xyz
x,y,z
-x,-y,z
-x,y,z
x,-y,z
1/2+x,1/2+y,z
1/2-x,1/2-y,z
1/2-x,1/2+y,z
1/2+x,1/2-y,z
loop_
_atom_site_type_symbol
_atom_site_label
_atom_site_fract_x
_atom_site_fract_y
_atom_site_fract_z
Si Si1 0.084401 0.212659 0.365990
Si Si2 0.911615 0.204814 0.008798
Si Si3 0.088719 0.500000 0.871730
Si Si4 0.162649 0.209229 0.548009
Si Si5 0.836897 0.208772 0.189337
Si Si6 0.410615 0.000000 0.669184
O O1 0.132144 0.276284 0.451748
O O2 0.122467 0.294902 0.276325
O O3 0.000000 0.288005 0.374378
O O4 0.083881 0.000000 0.361245
O O5 0.883993 0.322198 0.924237
O O6 0.000000 0.222236 0.025000
O O7 0.888034 0.000000 0.989404
O O8 0.871508 0.286084 0.097338
O O9 0.121071 0.500000 0.771124
O O10 0.000000 0.500000 0.866542
O O11 0.250000 0.250000 0.552428
O O12 0.119828 0.319467 0.624249
O O13 0.146122 0.000000 0.564372
O O14 0.750000 0.250000 0.194896
O O15 0.853165 0.000000 0.189789
O O16 0.500000 0.000000 0.664691
#
# Coordination Sequence:
#
# PCOD8173151 Si02
#       6
#     8   8   4   8   8   4
#     4   9  18  34  57  86 117 155 200 243 291 352
#     4   9  18  35  59  83 110 150 195 238 289 348
#     4   9  20  38  61  87 115 145 189 251 302 346
#     4  11  22  40  65  89 126 165 204 249 312 369
#     4  10  20  33  53  79 117 154 191 234 290 348
#     4  11  24  42  65  95 124 155 207 265 311 368
#
# _framework density 20.231255999999998
#
# number of rings (size 3 to 8) (size 9 to 14) (size 15 to 20)
#    0.000    2.200    1.000    1.800    1.400    4.400 
#    1.800    3.000    0.000    0.000    0.000    0.000 
#    0.000    0.000    0.000    0.000    0.000    0.000 
#
# Total GULP energy -248005.880976 kJ/mol
# GULP energy per Si atom -12400.294049 kJ/mol
# Density = 2.018521 g / cm^3
# Si number density = 20.231256 Si / 1000 Ang^3
#
#
#
# Elastic Constant Matrix: (Units=GPa)
#
#
# Indices 1 2 3 4 5 6 
#
# 1 115.4746 26.1490 68.5483 0.0000 0.0000 0.0000
# 2 26.1490 91.3674 66.9039 0.0000 0.0000 0.0000
# 3 68.5483 66.9039 207.2837 0.0000 0.0000 0.0000
# 4 0.0000 0.0000 0.0000 -163.4552 0.0000 0.0000
# 5 0.0000 0.0000 0.0000 0.0000 15.8403 0.0000
# 6 0.0000 0.0000 0.0000 0.0000 0.0000 17.2803
#
#
#
# Elastic Compliance Matrix: (Units=1/GPa)
#
#
# Indices 1 2 3 4 5 6 
#
# 1 0.010802 -0.000623 -0.003371 0.000000 0.000000 0.000000
# 2 -0.000623 0.014368 -0.004431 0.000000 0.000000 0.000000
# 3 -0.003371 -0.004431 0.007369 0.000000 0.000000 0.000000
# 4 0.000000 0.000000 0.000000 -0.006118 0.000000 0.000000
# 5 0.000000 0.000000 0.000000 0.000000 0.063130 0.000000
# 6 0.000000 0.000000 0.000000 0.000000 0.000000 0.057869
#
#
# Mechanical properties :
#
#
# Convention : Reuss Voigt Hill
#
# Bulk Modulus (GPa) = 63.74127 81.92536 72.83332
# Shear Modulus (GPa) = 29.49820 -9.23194 10.13313
#
# Velocity S-wave (km/s) = 3.82259 -2.13848 2.24043
# Velocity P-wave (km/s) = 7.14546 5.87238 6.53997
#
# Compressibility (1/GPa) = 0.01568842
#
# Stress axis : x y z
#
# Youngs Moduli (GPa) = 92.57374 69.59867 135.69479
#
# Poissons Ratio (x) = 0.04336 0.45745
# Poissons Ratio (y) = 0.05767 0.60133
# Poissons Ratio (z) = 0.31208 0.30843
#
# Static dielectric constant tensor:
#      x y z
#    x 3.561130 0.000000 0.000000 
#    y 0.000000 3.890710 0.000000 
#    z 0.000000 0.000000 3.990180 
# 
# 
# High freq. dielectric constant tensor:
#      x y z
#    x 1.784210 0.000000 0.000000 
#    y 0.000000 1.787420 0.000000 
#    z 0.000000 0.000000 1.794010 
# 
# From -- ./inp_files/14761.got.cif
#   From: 2010.03.12/outbox.cif.g09.slc.cpg/sg35_8_cif.got.tgz:14761.got - 2010.04.14 02:02:04.
