data_PCOD8173059
_publ_section_title
;
Structure prediction by ZEFSAII (Michael W. Deem and Ramdas Pophale) SiO2 
 PCOD8173059
Probable space group: C M M 2
;
_chemical_formula_sum "Si O2"
_cell_formula_units_Z 64
_cell_length_a 8.657152
_cell_length_b 28.338279
_cell_length_c 15.650927
_cell_angle_alpha 90.000000
_cell_angle_beta 90.000000
_cell_angle_gamma 90.000000
_cell_volume 3839.622963
_symmetry_space_group_name_H-M "C M M 2"
_symmetry_group_IT_number 35
_symmetry_cell_setting 'orthorhombic'
loop_
_space_group_symop_operation_xyz
x,y,z
-x,-y,z
-x,y,z
x,-y,z
1/2+x,1/2+y,z
1/2-x,1/2-y,z
1/2-x,1/2+y,z
1/2+x,1/2-y,z
loop_
_atom_site_type_symbol
_atom_site_label
_atom_site_fract_x
_atom_site_fract_y
_atom_site_fract_z
Si Si1 0.181752 0.198242 0.357130
Si Si2 0.817511 0.698760 0.850313
Si Si3 0.820148 0.148253 0.686529
Si Si4 0.176508 0.052551 0.769928
Si Si5 0.319318 0.356620 0.006174
Si Si6 0.818802 0.302024 0.527460
Si Si7 0.819034 0.801197 0.170714
Si Si8 0.821197 0.553208 0.949531
O O1 0.250000 0.250000 0.356642
O O2 0.259308 0.173121 0.439193
O O3 0.225191 0.176479 0.263966
O O4 0.000000 0.199329 0.372045
O O5 0.750000 0.750000 0.869403
O O6 0.737362 0.677791 0.767060
O O7 0.780338 0.666500 0.931361
O O8 0.000000 0.701321 0.835872
O O9 0.788223 0.092322 0.699258
O O10 0.727493 0.163388 0.603360
O O11 0.000000 0.159014 0.673155
O O12 0.287627 0.061550 0.849719
O O13 0.000000 0.057709 0.802340
O O14 0.204745 0.000000 0.731125
O O15 0.500000 0.347308 0.990246
O O16 0.282566 0.412296 0.007313
O O17 0.262217 0.336349 0.096972
O O18 0.750000 0.250000 0.542339
O O19 0.000000 0.296606 0.523882
O O20 0.750000 0.750000 0.154624
O O21 0.000000 0.793938 0.166333
O O22 0.777285 0.500000 0.976005
O O23 0.000000 0.563880 0.965846
#
# Coordination Sequence:
#
# PCOD8173059 Si02
#       8
#     8   8   8   8   8   8   8   8
#     4   9  16  30  49  70  95 124 159 201 245 287
#     4  12  24  36  48  66  97 134 170 203 238 284
#     4  11  21  34  51  72  98 129 164 201 243 291
#     4   9  18  33  53  73  94 123 160 202 246 292
#     4  11  21  34  50  72  99 131 167 202 244 293
#     4  11  21  33  49  71  99 130 165 202 242 289
#     4   9  19  32  49  72  99 129 163 201 241 287
#     4  10  20  33  50  72  97 126 163 207 251 291
#
# _framework density 16.668302000000001
#
# number of rings (size 3 to 8) (size 9 to 14) (size 15 to 20)
#    0.000    1.750    1.250    5.250    0.000    3.750 
#    0.000    0.000    0.000    0.000    0.000    0.875 
#    0.000    3.000    0.000    0.000    0.000    0.000 
#
# Total GULP energy -396714.807111 kJ/mol
# GULP energy per Si atom -12397.337722 kJ/mol
# Density = 1.663036 g / cm^3
# Si number density = 16.668302 Si / 1000 Ang^3
#
#
#
# Elastic Constant Matrix: (Units=GPa)
#
#
# Indices 1 2 3 4 5 6 
#
# 1 62.8813 24.6284 29.2390 0.0000 0.0000 0.0000
# 2 24.6284 89.8618 47.7934 0.0000 0.0000 0.0000
# 3 29.2390 47.7934 126.8501 0.0000 0.0000 0.0000
# 4 0.0000 0.0000 0.0000 21.7583 0.0000 0.0000
# 5 0.0000 0.0000 0.0000 0.0000 10.2096 0.0000
# 6 0.0000 0.0000 0.0000 0.0000 0.0000 22.1630
#
#
#
# Elastic Compliance Matrix: (Units=1/GPa)
#
#
# Indices 1 2 3 4 5 6 
#
# 1 0.018670 -0.003537 -0.002971 0.000000 0.000000 0.000000
# 2 -0.003537 0.014587 -0.004681 0.000000 0.000000 0.000000
# 3 -0.002971 -0.004681 0.010332 0.000000 0.000000 0.000000
# 4 0.000000 0.000000 0.000000 0.045960 0.000000 0.000000
# 5 0.000000 0.000000 0.000000 0.000000 0.097947 0.000000
# 6 0.000000 0.000000 0.000000 0.000000 0.000000 0.045120
#
#
# Mechanical properties :
#
#
# Convention : Reuss Voigt Hill
#
# Bulk Modulus (GPa) = 47.14383 53.65721 50.40052
# Shear Modulus (GPa) = 19.07945 22.68834 20.88389
#
# Velocity S-wave (km/s) = 3.38694 3.69340 3.54349
# Velocity P-wave (km/s) = 6.60607 7.10277 6.85892
#
# Compressibility (1/GPa) = 0.02121169
#
# Stress axis : x y z
#
# Youngs Moduli (GPa) = 53.56304 68.55434 96.78984
#
# Poissons Ratio (x) = 0.24246 0.28755
# Poissons Ratio (y) = 0.18944 0.45305
# Poissons Ratio (z) = 0.15913 0.32088
#
# Static dielectric constant tensor:
#      x y z
#    x 3.252160 0.000000 0.000000 
#    y 0.000000 3.106480 0.000000 
#    z 0.000000 0.000000 3.742210 
# 
# 
# High freq. dielectric constant tensor:
#      x y z
#    x 1.657250 0.000000 0.000000 
#    y 0.000000 1.620910 0.000000 
#    z 0.000000 0.000000 1.633660 
# 
# From -- ./inp_files/16167.got.cif
#   From: 2010.03.12/outbox.cif.g09.slc.cpg/sg35_9_cif.got.tgz:16167.got - 2010.04.14 02:02:04.
