data_PCOD8173161
_publ_section_title
;
Structure prediction by ZEFSAII (Michael W. Deem and Ramdas Pophale) SiO2 
 PCOD8173161
Probable space group: C M M 2
;
_chemical_formula_sum "Si O2"
_cell_formula_units_Z 64
_cell_length_a 8.765338
_cell_length_b 28.046717
_cell_length_c 12.997802
_cell_angle_alpha 90.000000
_cell_angle_beta 90.000000
_cell_angle_gamma 90.000000
_cell_volume 3195.366052
_symmetry_space_group_name_H-M "C M M 2"
_symmetry_group_IT_number 35
_symmetry_cell_setting 'orthorhombic'
loop_
_space_group_symop_operation_xyz
x,y,z
-x,-y,z
-x,y,z
x,-y,z
1/2+x,1/2+y,z
1/2-x,1/2-y,z
1/2-x,1/2+y,z
1/2+x,1/2-y,z
loop_
_atom_site_type_symbol
_atom_site_label
_atom_site_fract_x
_atom_site_fract_y
_atom_site_fract_z
Si Si1 0.179787 0.198396 0.744120
Si Si2 0.324037 0.800625 0.174442
Si Si3 0.680813 0.891304 0.664711
Si Si4 0.320353 0.698181 0.973131
Si Si5 0.822733 0.393301 0.284667
Si Si6 0.181124 0.553856 0.084999
Si Si7 0.821398 0.055231 0.474716
Si Si8 0.181437 0.446372 0.861358
O O1 0.250000 0.250000 0.722843
O O2 0.247409 0.161652 0.660459
O O3 0.223891 0.179138 0.859337
O O4 0.000000 0.202632 0.730563
O O5 0.500000 0.791872 0.150815
O O6 0.250000 0.750000 0.203473
O O7 0.302491 0.836219 0.271686
O O8 0.253758 0.827707 0.072709
O O9 0.500000 0.886832 0.663417
O O10 0.731270 0.924058 0.571098
O O11 0.746832 0.914689 0.769144
O O12 0.500000 0.699661 0.986778
O O13 0.250000 0.750000 0.984453
O O14 0.755483 0.416189 0.180147
O O15 0.722602 0.413102 0.377049
O O16 0.000000 0.406701 0.303351
O O17 0.239733 0.500000 0.098234
O O18 0.000000 0.555628 0.085921
O O19 0.238017 0.573502 0.973001
O O20 0.000000 0.060112 0.495438
O O21 0.774398 0.000000 0.457658
O O22 0.242782 0.500000 0.846540
O O23 0.000000 0.446490 0.856738
#
# Coordination Sequence:
#
# PCOD8173161 Si02
#       8
#     8   8   8   8   8   8   8   8
#     4  10  21  37  56  83 120 159 201 245 292 347
#     4  10  20  33  53  82 118 155 196 243 292 345
#     4  11  22  36  61  89 116 153 198 246 296 351
#     4   9  17  30  50  76 111 156 198 237 282 336
#     4  10  21  36  59  87 112 148 198 247 292 347
#     4   8  14  27  49  79 113 143 175 226 289 346
#     4  11  25  44  64  86 116 153 193 243 300 358
#     4   8  15  28  49  81 116 147 182 228 286 349
#
# _framework density 20.029005999999999
#
# number of rings (size 3 to 8) (size 9 to 14) (size 15 to 20)
#    0.000    2.375    0.000    4.125    1.750    4.500 
#    0.000    0.625    0.000    1.500    0.000    3.500 
#    0.000    0.000    0.000    0.000    0.000    0.000 
#
# Total GULP energy -396584.882178 kJ/mol
# GULP energy per Si atom -12393.277568 kJ/mol
# Density = 1.998342 g / cm^3
# Si number density = 20.029006 Si / 1000 Ang^3
#
#
#
# Elastic Constant Matrix: (Units=GPa)
#
#
# Indices 1 2 3 4 5 6 
#
# 1 71.4776 32.6698 27.3852 0.0000 0.0000 0.0000
# 2 32.6698 90.6047 53.5642 0.0000 0.0000 0.0000
# 3 27.3852 53.5642 103.7317 0.0000 0.0000 0.0000
# 4 0.0000 0.0000 0.0000 34.7736 0.0000 0.0000
# 5 0.0000 0.0000 0.0000 0.0000 27.1540 0.0000
# 6 0.0000 0.0000 0.0000 0.0000 0.0000 23.2671
#
#
#
# Elastic Compliance Matrix: (Units=1/GPa)
#
#
# Indices 1 2 3 4 5 6 
#
# 1 0.017009 -0.005007 -0.001905 0.000000 0.000000 0.000000
# 2 -0.005007 0.017361 -0.007643 0.000000 0.000000 0.000000
# 3 -0.001905 -0.007643 0.014090 0.000000 0.000000 0.000000
# 4 0.000000 0.000000 0.000000 0.028757 0.000000 0.000000
# 5 0.000000 0.000000 0.000000 0.000000 0.036827 0.000000
# 6 0.000000 0.000000 0.000000 0.000000 0.000000 0.042979
#
#
# Mechanical properties :
#
#
# Convention : Reuss Voigt Hill
#
# Bulk Modulus (GPa) = 51.67949 54.78359 53.23154
# Shear Modulus (GPa) = 25.96308 27.18527 26.57417
#
# Velocity S-wave (km/s) = 3.60429 3.68815 3.64646
# Velocity P-wave (km/s) = 6.57111 6.74893 6.66061
#
# Compressibility (1/GPa) = 0.01935004
#
# Stress axis : x y z
#
# Youngs Moduli (GPa) = 58.79367 57.60196 70.97399
#
# Poissons Ratio (x) = 0.28840 0.13520
# Poissons Ratio (y) = 0.29436 0.54244
# Poissons Ratio (z) = 0.11200 0.44024
#
# Static dielectric constant tensor:
#      x y z
#    x 3.378000 0.000000 0.000000 
#    y 0.000000 3.660060 0.000000 
#    z 0.000000 0.000000 4.008750 
# 
# 
# High freq. dielectric constant tensor:
#      x y z
#    x 1.759990 0.000000 0.000000 
#    y 0.000000 1.784910 0.000000 
#    z 0.000000 0.000000 1.774660 
# 
# From -- ./inp_files/12026.got.cif
#   From: 2010.03.12/outbox.cif.g09.slc.cpg/sg35_7_cif.got.tgz:12026.got - 2010.04.14 02:02:04.
