data_PCOD8173927
_publ_section_title
;
Structure prediction by ZEFSAII (Michael W. Deem and Ramdas Pophale) SiO2 
 PCOD8173927
Probable space group: C M M 2
;
_chemical_formula_sum "Si O2"
_cell_formula_units_Z 64
_cell_length_a 13.959554
_cell_length_b 24.249129
_cell_length_c 9.011861
_cell_angle_alpha 90.000000
_cell_angle_beta 90.000000
_cell_angle_gamma 90.000000
_cell_volume 3050.578263
_symmetry_space_group_name_H-M "C M M 2"
_symmetry_group_IT_number 35
_symmetry_cell_setting 'orthorhombic'
loop_
_space_group_symop_operation_xyz
x,y,z
-x,-y,z
-x,y,z
x,-y,z
1/2+x,1/2+y,z
1/2-x,1/2-y,z
1/2-x,1/2+y,z
1/2+x,1/2-y,z
loop_
_atom_site_type_symbol
_atom_site_label
_atom_site_fract_x
_atom_site_fract_y
_atom_site_fract_z
Si Si1 0.856422 0.263861 0.814050
Si Si2 0.395286 0.765791 0.482463
Si Si3 0.260175 0.064312 0.475293
Si Si4 0.810041 0.628601 0.974225
Si Si5 0.893566 0.563882 0.736280
Si Si6 0.112843 0.369045 0.295901
Si Si7 0.110950 0.153328 0.363891
Si Si8 0.895160 0.839316 0.013110
O O1 0.750000 0.250000 0.767211
O O2 0.911388 0.267934 0.658997
O O3 0.862489 0.323394 0.885037
O O4 0.897297 0.220473 0.934005
O O5 0.500000 0.762103 0.407665
O O6 0.350004 0.820603 0.407685
O O7 0.343110 0.708378 0.439515
O O8 0.308520 0.085930 0.629080
O O9 0.345262 0.073154 0.355991
O O10 0.168189 0.100432 0.426833
O O11 0.229807 0.000000 0.480014
O O12 0.835025 0.640781 0.142032
O O13 0.694472 0.625995 0.949302
O O14 0.858047 0.573934 0.905610
O O15 0.904152 0.500000 0.708858
O O16 0.000000 0.590229 0.705625
O O17 0.000000 0.374005 0.278060
O O18 0.120746 0.163968 0.188846
O O19 0.000000 0.143599 0.409200
O O20 0.000000 0.866961 0.980636
#
# Coordination Sequence:
#
# PCOD8173927 Si02
#       8
#     8   8   8   8   8   8   8   8
#     4  10  22  33  56  90 125 165 202 242 296 367
#     4  10  22  37  59  92 126 164 207 253 308 372
#     4  11  24  42  64  90 121 161 210 264 319 377
#     4  11  22  39  61  91 123 166 206 249 311 373
#     4  10  23  43  65  88 120 161 206 260 319 377
#     4  11  23  38  61  93 127 161 204 261 316 377
#     4  10  22  41  65  91 124 167 208 258 314 372
#     4  10  21  39  59  87 126 165 205 248 304 367
#
# _framework density 20.979628000000002
#
# number of rings (size 3 to 8) (size 9 to 14) (size 15 to 20)
#    0.000    1.625    1.250    2.625    5.250    5.500 
#    0.000    0.000    0.000    1.125    0.000    0.000 
#    0.000    0.000    0.000    0.000    0.000    0.000 
#
# Total GULP energy -396448.945149 kJ/mol
# GULP energy per Si atom -12389.029536 kJ/mol
# Density = 2.093188 g / cm^3
# Si number density = 20.979628 Si / 1000 Ang^3
#
#
#
# Elastic Constant Matrix: (Units=GPa)
#
#
# Indices 1 2 3 4 5 6 
#
# 1 117.3419 21.8776 38.1496 0.0000 0.0000 0.0000
# 2 21.8776 59.0476 45.1473 0.0000 0.0000 0.0000
# 3 38.1496 45.1473 125.5909 0.0000 0.0000 0.0000
# 4 0.0000 0.0000 0.0000 27.6717 0.0000 0.0000
# 5 0.0000 0.0000 0.0000 0.0000 28.3301 0.0000
# 6 0.0000 0.0000 0.0000 0.0000 0.0000 20.8693
#
#
#
# Elastic Compliance Matrix: (Units=1/GPa)
#
#
# Indices 1 2 3 4 5 6 
#
# 1 0.009597 -0.001830 -0.002257 0.000000 0.000000 0.000000
# 2 -0.001830 0.023704 -0.007965 0.000000 0.000000 0.000000
# 3 -0.002257 -0.007965 0.011511 0.000000 0.000000 0.000000
# 4 0.000000 0.000000 0.000000 0.036138 0.000000 0.000000
# 5 0.000000 0.000000 0.000000 0.000000 0.035298 0.000000
# 6 0.000000 0.000000 0.000000 0.000000 0.000000 0.047917
#
#
# Mechanical properties :
#
#
# Convention : Reuss Voigt Hill
#
# Bulk Modulus (GPa) = 48.29202 56.92549 52.60876
# Shear Modulus (GPa) = 25.61836 28.49463 27.05649
#
# Velocity S-wave (km/s) = 3.49822 3.68938 3.59507
# Velocity P-wave (km/s) = 6.27577 6.73360 6.50871
#
# Compressibility (1/GPa) = 0.02070735
#
# Stress axis : x y z
#
# Youngs Moduli (GPa) = 104.19711 42.18785 86.87046
#
# Poissons Ratio (x) = 0.07719 0.19611
# Poissons Ratio (y) = 0.19066 0.69193
# Poissons Ratio (z) = 0.23522 0.33603
#
# Static dielectric constant tensor:
#      x y z
#    x 4.330550 0.000000 0.000000 
#    y 0.000000 3.577890 0.000000 
#    z 0.000000 0.000000 3.864260 
# 
# 
# High freq. dielectric constant tensor:
#      x y z
#    x 1.839770 0.000000 0.000000 
#    y 0.000000 1.795680 0.000000 
#    z 0.000000 0.000000 1.828060 
# 
# From -- ./inp_files/7888.got.cif
#   From: 2010.03.12/outbox.cif.g09.slc.cpg/sg35_4_cif.got.tgz:7888.got - 2010.04.14 02:02:04.
