data_PCOD8173633
_publ_section_title
;
Structure prediction by ZEFSAII (Michael W. Deem and Ramdas Pophale) SiO2 
 PCOD8173633
Probable space group: C M M 2
;
_chemical_formula_sum "Si O2"
_cell_formula_units_Z 48
_cell_length_a 9.032333
_cell_length_b 15.569534
_cell_length_c 17.183761
_cell_angle_alpha 90.000000
_cell_angle_beta 90.000000
_cell_angle_gamma 90.000000
_cell_volume 2416.538833
_symmetry_space_group_name_H-M "C M M 2"
_symmetry_group_IT_number 35
_symmetry_cell_setting 'orthorhombic'
loop_
_space_group_symop_operation_xyz
x,y,z
-x,-y,z
-x,y,z
x,-y,z
1/2+x,1/2+y,z
1/2-x,1/2-y,z
1/2-x,1/2+y,z
1/2+x,1/2-y,z
loop_
_atom_site_type_symbol
_atom_site_label
_atom_site_fract_x
_atom_site_fract_y
_atom_site_fract_z
Si Si1 0.323523 0.162642 0.964790
Si Si2 0.165400 0.397379 0.295787
Si Si3 0.824485 0.163573 0.611224
Si Si4 0.173786 0.902473 0.446077
Si Si5 0.175234 0.595120 0.128099
Si Si6 0.826378 0.000000 0.703952
Si Si7 0.324036 0.500000 0.884660
O O1 0.500000 0.162989 0.951336
O O2 0.250000 0.250000 0.932878
O O3 0.251124 0.083997 0.919708
O O4 0.280931 0.155625 0.056188
O O5 0.168405 0.500000 0.295270
O O6 0.259570 0.360193 0.367738
O O7 0.232196 0.367322 0.211530
O O8 0.000000 0.362171 0.307260
O O9 0.750000 0.250000 0.643133
O O10 0.774833 0.149872 0.521774
O O11 0.000000 0.171581 0.619064
O O12 0.761497 0.085295 0.663163
O O13 0.000000 0.900681 0.437179
O O14 0.230534 0.000000 0.456250
O O15 0.242100 0.500000 0.112232
O O16 0.000000 0.586365 0.134885
O O17 0.785654 0.000000 0.793930
O O18 0.000000 0.000000 0.688735
O O19 0.500000 0.500000 0.900404
#
# Coordination Sequence:
#
# PCOD8173633 Si02
#       7
#     8   8   8   8   8   4   4
#     4  11  22  39  62  88 120 157 195 239 289 345
#     4   8  14  25  46  75 105 141 187 232 275 322
#     4  10  20  37  59  83 111 148 186 226 275 332
#     4   9  16  29  50  74 105 145 185 225 274 328
#     4   8  14  29  53  77 105 148 192 232 281 334
#     4   9  20  41  65  84 111 148 182 223 283 345
#     4  11  23  41  65  92 117 148 190 237 293 357
#
# _framework density 19.863121
#
# number of rings (size 3 to 8) (size 9 to 14) (size 15 to 20)
#    0.000    2.667    1.667    1.750    0.000    1.333 
#    0.000    6.250    0.000    4.000    0.000    0.000 
#    0.000    0.000    0.000    0.000    0.000    0.000 
#
# Total GULP energy -297464.733043 kJ/mol
# GULP energy per Si atom -12394.363877 kJ/mol
# Density = 1.981791 g / cm^3
# Si number density = 19.863121 Si / 1000 Ang^3
#
#
#
# Elastic Constant Matrix: (Units=GPa)
#
#
# Indices 1 2 3 4 5 6 
#
# 1 55.0449 42.2928 51.5758 0.0000 0.0000 0.0000
# 2 42.2928 130.3884 68.1007 0.0000 0.0000 0.0000
# 3 51.5758 68.1007 142.4317 0.0000 0.0000 0.0000
# 4 0.0000 0.0000 0.0000 2.1402 0.0000 0.0000
# 5 0.0000 0.0000 0.0000 0.0000 26.1271 0.0000
# 6 0.0000 0.0000 0.0000 0.0000 0.0000 26.9477
#
#
#
# Elastic Compliance Matrix: (Units=1/GPa)
#
#
# Indices 1 2 3 4 5 6 
#
# 1 0.030129 -0.005431 -0.008313 0.000000 0.000000 0.000000
# 2 -0.005431 0.011201 -0.003389 0.000000 0.000000 0.000000
# 3 -0.008313 -0.003389 0.011652 0.000000 0.000000 0.000000
# 4 0.000000 0.000000 0.000000 0.467241 0.000000 0.000000
# 5 0.000000 0.000000 0.000000 0.000000 0.038274 0.000000
# 6 0.000000 0.000000 0.000000 0.000000 0.000000 0.037109
#
#
# Mechanical properties :
#
#
# Convention : Reuss Voigt Hill
#
# Bulk Modulus (GPa) = 53.43181 72.42261 62.92721
# Shear Modulus (GPa) = 7.86027 22.10273 14.98150
#
# Velocity S-wave (km/s) = 1.99143 3.33941 2.74932
# Velocity P-wave (km/s) = 5.67857 7.17000 6.46742
#
# Compressibility (1/GPa) = 0.01871544
#
# Stress axis : x y z
#
# Youngs Moduli (GPa) = 33.19065 89.27845 85.82467
#
# Poissons Ratio (x) = 0.48484 0.71350
# Poissons Ratio (y) = 0.18025 0.29086
# Poissons Ratio (z) = 0.27593 0.30257
#
# Static dielectric constant tensor:
#      x y z
#    x 3.309910 0.000000 0.000000 
#    y 0.000000 3.456200 0.000000 
#    z 0.000000 0.000000 3.968500 
# 
# 
# High freq. dielectric constant tensor:
#      x y z
#    x 1.742100 0.000000 0.000000 
#    y 0.000000 1.761090 0.000000 
#    z 0.000000 0.000000 1.785060 
# 
# From -- ./inp_files/17844.got.cif
#   From: 2010.03.12/outbox.cif.g09.slc.cpg/sg35_9_cif.got.tgz:17844.got - 2010.04.14 02:02:04.
