data_PCOD8173401
_publ_section_title
;
Structure prediction by ZEFSAII (Michael W. Deem and Ramdas Pophale) SiO2 
 PCOD8173401
Probable space group: C M M 2
;
_chemical_formula_sum "Si O2"
_cell_formula_units_Z 64
_cell_length_a 28.397619
_cell_length_b 8.991186
_cell_length_c 12.644123
_cell_angle_alpha 90.000000
_cell_angle_beta 90.000000
_cell_angle_gamma 90.000000
_cell_volume 3228.402107
_symmetry_space_group_name_H-M "C M M 2"
_symmetry_group_IT_number 35
_symmetry_cell_setting 'orthorhombic'
loop_
_space_group_symop_operation_xyz
x,y,z
-x,-y,z
-x,y,z
x,-y,z
1/2+x,1/2+y,z
1/2-x,1/2-y,z
1/2-x,1/2+y,z
1/2+x,1/2-y,z
loop_
_atom_site_type_symbol
_atom_site_label
_atom_site_fract_x
_atom_site_fract_y
_atom_site_fract_z
Si Si1 0.052414 0.170244 0.128950
Si Si2 0.699134 0.323225 0.818716
Si Si3 0.145303 0.830072 0.028941
Si Si4 0.444473 0.834907 0.337368
Si Si5 0.701694 0.174552 0.204012
Si Si6 0.445671 0.674979 0.550995
Si Si7 0.797095 0.329091 0.441374
Si Si8 0.639734 0.173890 0.636759
O O1 0.088220 0.188336 0.029839
O O2 0.072750 0.263069 0.227998
O O3 0.000000 0.223576 0.094009
O O4 0.050384 0.000000 0.166907
O O5 0.704707 0.500000 0.806615
O O6 0.750000 0.250000 0.833813
O O7 0.673807 0.257224 0.717038
O O8 0.666572 0.277688 0.917920
O O9 0.162198 0.728045 0.124215
O O10 0.160022 0.000000 0.051105
O O11 0.500000 0.849443 0.333061
O O12 0.430054 0.733458 0.436046
O O13 0.421513 0.000000 0.349852
O O14 0.750000 0.250000 0.168587
O O15 0.687796 0.223385 0.323599
O O16 0.707935 0.000000 0.193684
O O17 0.500000 0.715033 0.576293
O O18 0.437067 0.500000 0.555547
O O19 0.412687 0.755362 0.638334
O O20 0.783384 0.500000 0.439840
O O21 0.750000 0.250000 0.481896
O O22 0.839763 0.296337 0.520100
O O23 0.637161 0.000000 0.665347
#
# Coordination Sequence:
#
# PCOD8173401 Si02
#       8
#     8   8   8   8   8   8   8   8
#     4   9  18  34  55  81 115 154 197 242 289 346
#     4  11  24  43  64  87 116 150 197 250 301 357
#     4  10  22  38  58  85 115 152 198 244 295 350
#     4   9  17  30  50  78 114 155 195 238 287 338
#     4  10  20  35  55  81 114 148 184 231 291 356
#     4  10  21  37  57  84 119 159 202 244 289 345
#     4   9  20  36  54  81 114 147 183 230 288 352
#     4  11  23  39  61  88 118 152 197 245 299 356
#
# _framework density 19.824048999999999
#
# number of rings (size 3 to 8) (size 9 to 14) (size 15 to 20)
#    0.000    2.125    0.000    2.625    1.750    7.250 
#    0.000    0.625    0.000    2.250    0.000    0.000 
#    0.000    0.000    0.000    0.000    0.000    0.000 
#
# Total GULP energy -396773.847111 kJ/mol
# GULP energy per Si atom -12399.182722 kJ/mol
# Density = 1.977893 g / cm^3
# Si number density = 19.824049 Si / 1000 Ang^3
#
#
#
# Elastic Constant Matrix: (Units=GPa)
#
#
# Indices 1 2 3 4 5 6 
#
# 1 109.1130 49.2432 49.6081 0.0000 0.0000 0.0000
# 2 49.2432 93.1158 38.8605 0.0000 0.0000 0.0000
# 3 49.6081 38.8605 71.8092 0.0000 0.0000 0.0000
# 4 0.0000 0.0000 0.0000 24.3527 0.0000 0.0000
# 5 0.0000 0.0000 0.0000 0.0000 35.2789 0.0000
# 6 0.0000 0.0000 0.0000 0.0000 0.0000 29.6042
#
#
#
# Elastic Compliance Matrix: (Units=1/GPa)
#
#
# Indices 1 2 3 4 5 6 
#
# 1 0.014731 -0.004577 -0.007700 0.000000 0.000000 0.000000
# 2 -0.004577 0.015294 -0.005115 0.000000 0.000000 0.000000
# 3 -0.007700 -0.005115 0.022013 0.000000 0.000000 0.000000
# 4 0.000000 0.000000 0.000000 0.041063 0.000000 0.000000
# 5 0.000000 0.000000 0.000000 0.000000 0.028346 0.000000
# 6 0.000000 0.000000 0.000000 0.000000 0.000000 0.033779
#
#
# Mechanical properties :
#
#
# Convention : Reuss Voigt Hill
#
# Bulk Modulus (GPa) = 57.95337 61.05130 59.50234
# Shear Modulus (GPa) = 25.54127 26.93556 26.23842
#
# Velocity S-wave (km/s) = 3.59332 3.69010 3.64203
# Velocity P-wave (km/s) = 6.82006 7.00137 6.91131
#
# Compressibility (1/GPa) = 0.01725525
#
# Stress axis : x y z
#
# Youngs Moduli (GPa) = 67.88330 65.38337 45.42756
#
# Poissons Ratio (x) = 0.29926 0.34979
# Poissons Ratio (y) = 0.31070 0.23235
# Poissons Ratio (z) = 0.52269 0.33443
#
# Static dielectric constant tensor:
#      x y z
#    x 3.758670 0.000000 0.000000 
#    y 0.000000 3.717050 0.000000 
#    z 0.000000 0.000000 3.507130 
# 
# 
# High freq. dielectric constant tensor:
#      x y z
#    x 1.781690 0.000000 0.000000 
#    y 0.000000 1.778560 0.000000 
#    z 0.000000 0.000000 1.751050 
# 
# From -- ./inp_files/11892.got.cif
#   From: 2010.03.12/outbox.cif.g09.slc.cpg/sg35_6_cif.got.tgz:11892.got - 2010.04.14 02:02:04.
