data_PCOD8173795
_publ_section_title
;
Structure prediction by ZEFSAII (Michael W. Deem and Ramdas Pophale) SiO2 
 PCOD8173795
Probable space group: C M M 2
;
_chemical_formula_sum "Si O2"
_cell_formula_units_Z 64
_cell_length_a 28.613759
_cell_length_b 9.143469
_cell_length_c 12.571224
_cell_angle_alpha 90.000000
_cell_angle_beta 90.000000
_cell_angle_gamma 90.000000
_cell_volume 3288.996995
_symmetry_space_group_name_H-M "C M M 2"
_symmetry_group_IT_number 35
_symmetry_cell_setting 'orthorhombic'
loop_
_space_group_symop_operation_xyz
x,y,z
-x,-y,z
-x,y,z
x,-y,z
1/2+x,1/2+y,z
1/2-x,1/2-y,z
1/2-x,1/2+y,z
1/2+x,1/2-y,z
loop_
_atom_site_type_symbol
_atom_site_label
_atom_site_fract_x
_atom_site_fract_y
_atom_site_fract_z
Si Si1 0.446688 0.173034 0.177270
Si Si2 0.054893 0.340691 0.415211
Si Si3 0.797525 0.668925 0.536720
Si Si4 0.641067 0.673149 0.121853
Si Si5 0.948496 0.168618 0.618010
Si Si6 0.645571 0.669608 0.708405
Si Si7 0.298223 0.170569 0.291344
Si Si8 0.299494 0.671589 0.916414
O O1 0.500000 0.215013 0.147498
O O2 0.434308 0.222030 0.298101
O O3 0.411309 0.264225 0.102285
O O4 0.439096 0.000000 0.163357
O O5 0.079255 0.500000 0.428740
O O6 0.072374 0.237439 0.509664
O O7 0.000000 0.361206 0.424939
O O8 0.790187 0.500000 0.563679
O O9 0.750000 0.750000 0.565492
O O10 0.837363 0.734925 0.610024
O O11 0.811770 0.692805 0.414259
O O12 0.639377 0.500000 0.139364
O O13 0.661021 0.754176 0.224991
O O14 0.672959 0.716601 0.022043
O O15 0.910868 0.194438 0.712598
O O16 0.000000 0.231769 0.650462
O O17 0.953660 0.000000 0.591589
O O18 0.657370 0.500000 0.687516
O O19 0.668780 0.723846 0.817541
O O20 0.250000 0.250000 0.262774
O O21 0.293361 0.000000 0.261642
O O22 0.290165 0.500000 0.912156
O O23 0.250000 0.750000 0.912693
#
# Coordination Sequence:
#
# PCOD8173795 Si02
#       8
#     8   8   8   8   8   8   8   8
#     4   9  19  36  56  80 114 154 192 232 282 335
#     4   8  15  29  49  73 105 145 183 221 266 316
#     4  10  21  36  55  81 112 144 180 224 280 343
#     4  11  23  37  57  84 113 147 192 238 284 338
#     4   9  18  32  51  78 111 147 186 226 270 322
#     4  10  21  37  57  81 112 147 187 232 281 334
#     4  10  21  37  56  81 114 148 183 228 286 348
#     4  10  23  42  61  83 110 143 186 237 288 338
#
# _framework density 19.458819999999999
#
# number of rings (size 3 to 8) (size 9 to 14) (size 15 to 20)
#    0.000    2.375    0.000    2.625    1.750    6.250 
#    0.000    1.875    0.000    2.250    0.000    1.750 
#    0.000    0.000    0.000    0.000    0.000    0.000 
#
# Total GULP energy -396715.314470 kJ/mol
# GULP energy per Si atom -12397.353577 kJ/mol
# Density = 1.941453 g / cm^3
# Si number density = 19.458820 Si / 1000 Ang^3
#
#
#
# Elastic Constant Matrix: (Units=GPa)
#
#
# Indices 1 2 3 4 5 6 
#
# 1 132.1418 56.1431 65.0088 0.0000 0.0000 0.0000
# 2 56.1431 77.4389 40.0608 0.0000 0.0000 0.0000
# 3 65.0088 40.0608 76.5800 0.0000 0.0000 0.0000
# 4 0.0000 0.0000 0.0000 20.6473 0.0000 0.0000
# 5 0.0000 0.0000 0.0000 0.0000 31.5339 0.0000
# 6 0.0000 0.0000 0.0000 0.0000 0.0000 30.6703
#
#
#
# Elastic Compliance Matrix: (Units=1/GPa)
#
#
# Indices 1 2 3 4 5 6 
#
# 1 0.014645 -0.005740 -0.009430 0.000000 0.000000 0.000000
# 2 -0.005740 0.019954 -0.005566 0.000000 0.000000 0.000000
# 3 -0.009430 -0.005566 0.023975 0.000000 0.000000 0.000000
# 4 0.000000 0.000000 0.000000 0.048432 0.000000 0.000000
# 5 0.000000 0.000000 0.000000 0.000000 0.031712 0.000000
# 6 0.000000 0.000000 0.000000 0.000000 0.000000 0.032605
#
#
# Mechanical properties :
#
#
# Convention : Reuss Voigt Hill
#
# Bulk Modulus (GPa) = 58.46844 67.62069 63.04457
# Shear Modulus (GPa) = 22.88371 24.90018 23.89194
#
# Velocity S-wave (km/s) = 3.43302 3.58108 3.50783
# Velocity P-wave (km/s) = 6.76954 7.20590 6.99112
#
# Compressibility (1/GPa) = 0.01710324
#
# Stress axis : x y z
#
# Youngs Moduli (GPa) = 68.28093 50.11509 41.70997
#
# Poissons Ratio (x) = 0.28764 0.39332
# Poissons Ratio (y) = 0.39190 0.23216
# Poissons Ratio (z) = 0.64389 0.27895
#
# Static dielectric constant tensor:
#      x y z
#    x 3.718750 0.000000 0.000000 
#    y 0.000000 3.620510 0.000000 
#    z 0.000000 0.000000 3.479920 
# 
# 
# High freq. dielectric constant tensor:
#      x y z
#    x 1.770480 0.000000 0.000000 
#    y 0.000000 1.754320 0.000000 
#    z 0.000000 0.000000 1.735490 
# 
# From -- ./inp_files/14538.got.cif
#   From: 2010.03.12/outbox.cif.g09.slc.cpg/sg35_8_cif.got.tgz:14538.got - 2010.04.14 02:02:04.
