data_PCOD8173177
_publ_section_title
;
Structure prediction by ZEFSAII (Michael W. Deem and Ramdas Pophale) SiO2 
 PCOD8173177
Probable space group: C M M 2
;
_chemical_formula_sum "Si O2"
_cell_formula_units_Z 48
_cell_length_a 18.700397
_cell_length_b 15.178631
_cell_length_c 9.362833
_cell_angle_alpha 90.000000
_cell_angle_beta 90.000000
_cell_angle_gamma 90.000000
_cell_volume 2657.606681
_symmetry_space_group_name_H-M "C M M 2"
_symmetry_group_IT_number 35
_symmetry_cell_setting 'orthorhombic'
loop_
_space_group_symop_operation_xyz
x,y,z
-x,-y,z
-x,y,z
x,-y,z
1/2+x,1/2+y,z
1/2-x,1/2-y,z
1/2-x,1/2+y,z
1/2+x,1/2-y,z
loop_
_atom_site_type_symbol
_atom_site_label
_atom_site_fract_x
_atom_site_fract_y
_atom_site_fract_z
Si Si1 0.341263 0.096093 0.257220
Si Si2 0.300476 0.335565 0.314216
Si Si3 0.918380 0.250108 0.758439
Si Si4 0.331252 0.753598 0.042206
Si Si5 0.418674 0.602307 0.534325
Si Si6 0.415526 0.898798 0.544389
O O1 0.257164 0.086502 0.298824
O O2 0.352352 0.154038 0.116190
O O3 0.383733 0.134687 0.393920
O O4 0.371877 0.000000 0.220641
O O5 0.250000 0.250000 0.349447
O O6 0.341363 0.321107 0.163637
O O7 0.360991 0.358150 0.426753
O O8 0.909606 0.157044 0.679083
O O9 0.886343 0.332351 0.666848
O O10 0.000000 0.271846 0.791430
O O11 0.880657 0.237579 0.908454
O O12 0.250000 0.750000 0.986792
O O13 0.500000 0.614163 0.474973
O O14 0.402603 0.500000 0.566000
O O15 0.500000 0.890195 0.532089
O O16 0.392152 0.000000 0.578373
#
# Coordination Sequence:
#
# PCOD8173177 Si02
#       6
#     8   8   8   8   8   8
#     4   9  17  31  51  74 100 130 167 212 259 308
#     4   9  18  34  54  76 103 133 170 216 263 311
#     4  10  20  34  51  72 103 138 171 211 257 308
#     4   9  20  34  48  70 101 134 166 207 258 308
#     4  10  21  37  57  80 105 137 179 224 267 312
#     4   9  18  32  51  77 106 135 170 212 257 307
#
# _framework density 18.061364000000001
#
# number of rings (size 3 to 8) (size 9 to 14) (size 15 to 20)
#    0.000    3.000    0.000    2.500    0.000    4.000 
#    0.000    4.167    0.000    2.000    0.000    0.000 
#    0.000    0.000    0.000    0.000    0.000    0.000 
#
# Total GULP energy -297372.808808 kJ/mol
# GULP energy per Si atom -12390.533700 kJ/mol
# Density = 1.802026 g / cm^3
# Si number density = 18.061364 Si / 1000 Ang^3
#
#
#
# Elastic Constant Matrix: (Units=GPa)
#
#
# Indices 1 2 3 4 5 6 
#
# 1 65.9964 36.5684 64.8415 0.0000 0.0000 0.0000
# 2 36.5684 96.2432 55.1222 0.0000 0.0000 0.0000
# 3 64.8415 55.1222 123.9675 0.0000 0.0000 0.0000
# 4 0.0000 0.0000 0.0000 15.2806 0.0000 0.0000
# 5 0.0000 0.0000 0.0000 0.0000 43.8350 0.0000
# 6 0.0000 0.0000 0.0000 0.0000 0.0000 18.7548
#
#
#
# Elastic Compliance Matrix: (Units=1/GPa)
#
#
# Indices 1 2 3 4 5 6 
#
# 1 0.032004 -0.003452 -0.015205 0.000000 0.000000 0.000000
# 2 -0.003452 0.014313 -0.004559 0.000000 0.000000 0.000000
# 3 -0.015205 -0.004559 0.018047 0.000000 0.000000 0.000000
# 4 0.000000 0.000000 0.000000 0.065442 0.000000 0.000000
# 5 0.000000 0.000000 0.000000 0.000000 0.022813 0.000000
# 6 0.000000 0.000000 0.000000 0.000000 0.000000 0.053320
#
#
# Mechanical properties :
#
#
# Convention : Reuss Voigt Hill
#
# Bulk Modulus (GPa) = 55.76459 66.58571 61.17515
# Shear Modulus (GPa) = 19.35391 24.21909 21.78650
#
# Velocity S-wave (km/s) = 3.27703 3.66585 3.47688
# Velocity P-wave (km/s) = 6.72760 7.40705 7.07549
#
# Compressibility (1/GPa) = 0.01793253
#
# Stress axis : x y z
#
# Youngs Moduli (GPa) = 31.24651 69.86730 55.41212
#
# Poissons Ratio (x) = 0.24116 0.84253
# Poissons Ratio (y) = 0.10785 0.25261
# Poissons Ratio (z) = 0.47510 0.31851
#
# Static dielectric constant tensor:
#      x y z
#    x 3.328120 0.000000 0.000000 
#    y 0.000000 3.514810 0.000000 
#    z 0.000000 0.000000 3.138810 
# 
# 
# High freq. dielectric constant tensor:
#      x y z
#    x 1.696570 0.000000 0.000000 
#    y 0.000000 1.705610 0.000000 
#    z 0.000000 0.000000 1.684030 
# 
# From -- ./inp_files/9178.got.cif
#   From: 2010.03.12/outbox.cif.g09.slc.cpg/sg35_5_cif.got.tgz:9178.got - 2010.04.14 02:02:04.
