data_PCOD8173594
_publ_section_title
;
Structure prediction by ZEFSAII (Michael W. Deem and Ramdas Pophale) SiO2 
 PCOD8173594
Probable space group: C M M 2
;
_chemical_formula_sum "Si O2"
_cell_formula_units_Z 32
_cell_length_a 8.783224
_cell_length_b 17.758375
_cell_length_c 10.324053
_cell_angle_alpha 90.000000
_cell_angle_beta 90.000000
_cell_angle_gamma 90.000000
_cell_volume 1610.302276
_symmetry_space_group_name_H-M "C M M 2"
_symmetry_group_IT_number 35
_symmetry_cell_setting 'orthorhombic'
loop_
_space_group_symop_operation_xyz
x,y,z
-x,-y,z
-x,y,z
x,-y,z
1/2+x,1/2+y,z
1/2-x,1/2-y,z
1/2-x,1/2+y,z
1/2+x,1/2-y,z
loop_
_atom_site_type_symbol
_atom_site_label
_atom_site_fract_x
_atom_site_fract_y
_atom_site_fract_z
Si Si1 0.171325 0.089439 0.718690
Si Si2 0.828435 0.589360 0.460051
Si Si3 0.820441 0.830831 0.224621
Si Si4 0.178501 0.412490 0.984126
O O1 0.254246 0.122202 0.591435
O O2 0.000000 0.121729 0.725978
O O3 0.168025 0.000000 0.711215
O O4 0.265466 0.115616 0.844036
O O5 0.830530 0.500000 0.464177
O O6 0.728661 0.613586 0.338502
O O7 0.000000 0.620982 0.447206
O O8 0.750000 0.750000 0.251879
O O9 0.764551 0.863109 0.088849
O O10 0.000000 0.824042 0.221178
O O11 0.218805 0.500000 0.006045
O O12 0.000000 0.398019 0.996085
#
# Coordination Sequence:
#
# PCOD8173594 Si02
#       4
#     8   8   8   8
#     4   9  17  31  54  85 116 145 182 227 273 323
#     4  10  20  36  59  86 115 147 184 227 276 329
#     4  12  25  40  57  79 111 149 189 232 279 330
#     4  10  20  36  59  86 115 147 184 227 276 329
#
# _framework density 19.872043999999999
#
# number of rings (size 3 to 8) (size 9 to 14) (size 15 to 20)
#    0.000    1.750    0.000    5.250    0.000    9.000 
#    0.000    1.250    0.000    0.000    0.000    0.000 
#    0.000    0.000    0.000    0.000    0.000    0.000 
#
# Total GULP energy -198461.127557 kJ/mol
# GULP energy per Si atom -12403.820472 kJ/mol
# Density = 1.982681 g / cm^3
# Si number density = 19.872044 Si / 1000 Ang^3
#
#
#
# Elastic Constant Matrix: (Units=GPa)
#
#
# Indices 1 2 3 4 5 6 
#
# 1 150.1060 23.4362 46.9884 0.0000 0.0000 0.0000
# 2 23.4362 21.7882 10.0385 0.0000 0.0000 0.0000
# 3 46.9884 10.0385 130.8102 0.0000 0.0000 0.0000
# 4 0.0000 0.0000 0.0000 -4.0352 0.0000 0.0000
# 5 0.0000 0.0000 0.0000 0.0000 38.4257 0.0000
# 6 0.0000 0.0000 0.0000 0.0000 0.0000 26.0062
#
#
#
# Elastic Compliance Matrix: (Units=1/GPa)
#
#
# Indices 1 2 3 4 5 6 
#
# 1 0.008732 -0.008239 -0.002504 0.000000 0.000000 0.000000
# 2 -0.008239 0.055352 -0.001288 0.000000 0.000000 0.000000
# 3 -0.002504 -0.001288 0.008643 0.000000 0.000000 0.000000
# 4 0.000000 0.000000 0.000000 -0.247819 0.000000 0.000000
# 5 0.000000 0.000000 0.000000 0.000000 0.026024 0.000000
# 6 0.000000 0.000000 0.000000 0.000000 0.000000 0.038452
#
#
# Mechanical properties :
#
#
# Convention : Reuss Voigt Hill
#
# Bulk Modulus (GPa) = 20.54902 51.51449 36.03176
# Shear Modulus (GPa) = -71.09305 26.89544 -22.09881
#
# Velocity S-wave (km/s) = -5.98774 3.68289 -3.33837
# Velocity P-wave (km/s) = 6.11890 6.63809 1.81980
#
# Compressibility (1/GPa) = 0.04866412
#
# Stress axis : x y z
#
# Youngs Moduli (GPa) = 114.51760 18.06625 115.69849
#
# Poissons Ratio (x) = 0.14885 0.28976
# Poissons Ratio (y) = 0.94349 0.14905
# Poissons Ratio (z) = 0.28681 0.02327
#
# Static dielectric constant tensor:
#      x y z
#    x 3.929230 0.000000 0.000000 
#    y 0.000000 3.323520 0.000000 
#    z 0.000000 0.000000 3.823380 
# 
# 
# High freq. dielectric constant tensor:
#      x y z
#    x 1.795850 0.000000 0.000000 
#    y 0.000000 1.736490 0.000000 
#    z 0.000000 0.000000 1.794620 
# 
# From -- ./inp_files/4580.got.cif
#   From: 2010.03.12/outbox.cif.g09.slc.cpg/sg35_3_cif.got.tgz:4580.got - 2010.04.14 02:02:04.
