data_PCOD8173934
_publ_section_title
;
Structure prediction by ZEFSAII (Michael W. Deem and Ramdas Pophale) SiO2 
 PCOD8173934
Probable space group: C M M 2
;
_chemical_formula_sum "Si O2"
_cell_formula_units_Z 64
_cell_length_a 30.800974
_cell_length_b 8.653119
_cell_length_c 11.851633
_cell_angle_alpha 90.000000
_cell_angle_beta 90.000000
_cell_angle_gamma 90.000000
_cell_volume 3158.750481
_symmetry_space_group_name_H-M "C M M 2"
_symmetry_group_IT_number 35
_symmetry_cell_setting 'orthorhombic'
loop_
_space_group_symop_operation_xyz
x,y,z
-x,-y,z
-x,y,z
x,-y,z
1/2+x,1/2+y,z
1/2-x,1/2-y,z
1/2-x,1/2+y,z
1/2+x,1/2-y,z
loop_
_atom_site_type_symbol
_atom_site_label
_atom_site_fract_x
_atom_site_fract_y
_atom_site_fract_z
Si Si1 0.373460 0.680491 0.876850
Si Si2 0.048310 0.176980 0.718891
Si Si3 0.573920 0.181055 0.491684
Si Si4 0.172466 0.683504 0.503302
Si Si5 0.450975 0.677316 0.264032
Si Si6 0.795350 0.682320 0.741874
Si Si7 0.705012 0.182672 0.265763
Si Si8 0.876960 0.319137 0.119241
O O1 0.364552 0.500000 0.863277
O O2 0.416938 0.732390 0.811441
O O3 0.332500 0.772016 0.829109
O O4 0.380301 0.720984 0.006433
O O5 0.050995 0.285062 0.609850
O O6 0.000000 0.194916 0.771076
O O7 0.057300 0.000000 0.683381
O O8 0.623192 0.241560 0.498297
O O9 0.549604 0.274891 0.394707
O O10 0.571273 0.000000 0.464234
O O11 0.173095 0.500000 0.505988
O O12 0.194423 0.750233 0.616918
O O13 0.197331 0.746758 0.392851
O O14 0.500000 0.698700 0.218640
O O15 0.436073 0.500000 0.251005
O O16 0.419252 0.787527 0.194084
O O17 0.791987 0.500000 0.738492
O O18 0.750000 0.750000 0.785522
O O19 0.750000 0.250000 0.218067
O O20 0.665765 0.237193 0.186253
O O21 0.707627 0.000000 0.266993
O O22 0.874550 0.500000 0.091175
#
# Coordination Sequence:
#
# PCOD8173934 Si02
#       8
#     8   8   8   8   8   8   8   8
#     4  11  24  42  63  88 120 161 209 255 308 366
#     4  10  22  40  61  88 123 160 199 247 303 363
#     4  11  20  36  62  92 125 160 198 246 303 361
#     4   9  18  35  59  88 123 156 190 242 302 357
#     4  11  24  41  62  91 126 162 202 250 305 365
#     4  11  22  39  63  91 124 160 202 252 307 366
#     4  10  21  39  61  89 121 155 193 241 298 356
#     4  11  24  43  65  88 120 160 207 258 306 359
#
# _framework density 20.261175999999999
#
# number of rings (size 3 to 8) (size 9 to 14) (size 15 to 20)
#    0.000    1.500    2.500    2.625    0.000    5.250 
#    0.000    3.125    0.000    0.000    0.000    0.000 
#    0.000    0.000    0.000    0.000    0.000    0.000 
#
# Total GULP energy -396943.704517 kJ/mol
# GULP energy per Si atom -12404.490766 kJ/mol
# Density = 2.021506 g / cm^3
# Si number density = 20.261176 Si / 1000 Ang^3
#
#
#
# Elastic Constant Matrix: (Units=GPa)
#
#
# Indices 1 2 3 4 5 6 
#
# 1 148.6136 28.3023 43.3823 0.0000 0.0000 0.0000
# 2 28.3023 46.6511 14.8618 0.0000 0.0000 0.0000
# 3 43.3823 14.8618 110.1905 0.0000 0.0000 0.0000
# 4 0.0000 0.0000 0.0000 32.3532 0.0000 0.0000
# 5 0.0000 0.0000 0.0000 0.0000 7.8245 0.0000
# 6 0.0000 0.0000 0.0000 0.0000 0.0000 29.9474
#
#
#
# Elastic Compliance Matrix: (Units=1/GPa)
#
#
# Indices 1 2 3 4 5 6 
#
# 1 0.008316 -0.004182 -0.002710 0.000000 0.000000 0.000000
# 2 -0.004182 0.024501 -0.001658 0.000000 0.000000 0.000000
# 3 -0.002710 -0.001658 0.010366 0.000000 0.000000 0.000000
# 4 0.000000 0.000000 0.000000 0.030909 0.000000 0.000000
# 5 0.000000 0.000000 0.000000 0.000000 0.127804 0.000000
# 6 0.000000 0.000000 0.000000 0.000000 0.000000 0.033392
#
#
# Mechanical properties :
#
#
# Convention : Reuss Voigt Hill
#
# Bulk Modulus (GPa) = 38.33939 53.17200 45.75570
# Shear Modulus (GPa) = 19.15102 28.61893 23.88498
#
# Velocity S-wave (km/s) = 3.07776 3.76240 3.43717
# Velocity P-wave (km/s) = 5.62084 6.72120 6.19549
#
# Compressibility (1/GPa) = 0.02608283
#
# Stress axis : x y z
#
# Youngs Moduli (GPa) = 120.24398 40.81449 96.47094
#
# Poissons Ratio (x) = 0.17069 0.26145
# Poissons Ratio (y) = 0.50286 0.15996
# Poissons Ratio (z) = 0.32588 0.06767
#
# Static dielectric constant tensor:
#      x y z
#    x 3.885360 0.000000 0.000000 
#    y 0.000000 3.482830 0.000000 
#    z 0.000000 0.000000 3.648760 
# 
# 
# High freq. dielectric constant tensor:
#      x y z
#    x 1.806160 0.000000 0.000000 
#    y 0.000000 1.781330 0.000000 
#    z 0.000000 0.000000 1.786440 
# 
# From -- ./inp_files/12030.got.cif
#   From: 2010.03.12/outbox.cif.g09.slc.cpg/sg35_7_cif.got.tgz:12030.got - 2010.04.14 02:02:04.
