data_PCOD8173475
_publ_section_title
;
Structure prediction by ZEFSAII (Michael W. Deem and Ramdas Pophale) SiO2 
 PCOD8173475
Probable space group: C M M 2
;
_chemical_formula_sum "Si O2"
_cell_formula_units_Z 48
_cell_length_a 28.000722
_cell_length_b 8.770050
_cell_length_c 10.327814
_cell_angle_alpha 90.000000
_cell_angle_beta 90.000000
_cell_angle_gamma 90.000000
_cell_volume 2536.177860
_symmetry_space_group_name_H-M "C M M 2"
_symmetry_group_IT_number 35
_symmetry_cell_setting 'orthorhombic'
loop_
_space_group_symop_operation_xyz
x,y,z
-x,-y,z
-x,y,z
x,-y,z
1/2+x,1/2+y,z
1/2-x,1/2-y,z
1/2-x,1/2+y,z
1/2+x,1/2-y,z
loop_
_atom_site_type_symbol
_atom_site_label
_atom_site_fract_x
_atom_site_fract_y
_atom_site_fract_z
Si Si1 0.106430 0.319522 0.595470
Si Si2 0.946293 0.319042 0.339442
Si Si3 0.556447 0.327210 0.836278
Si Si4 0.200122 0.177969 0.688263
Si Si5 0.394505 0.819033 0.079570
Si Si6 0.199803 0.178813 0.987982
O O1 0.111039 0.500000 0.595586
O O2 0.080625 0.257610 0.466616
O O3 0.075333 0.269088 0.716855
O O4 0.159148 0.249224 0.599591
O O5 0.948805 0.500000 0.343006
O O6 0.917218 0.263684 0.214305
O O7 0.000000 0.251309 0.335637
O O8 0.500000 0.325434 0.832996
O O9 0.576579 0.500000 0.827939
O O10 0.573362 0.251801 0.968062
O O11 0.250000 0.250000 0.644994
O O12 0.203078 0.000000 0.663150
O O13 0.188744 0.215874 0.837984
O O14 0.340693 0.757040 0.074396
O O15 0.394289 0.000000 0.065348
O O16 0.250000 0.250000 0.030535
O O17 0.201074 0.000000 0.014821
#
# Coordination Sequence:
#
# PCOD8173475 Si02
#       6
#     8   8   8   8   8   8
#     4  11  21  36  60  86 114 150 193 237 288 343
#     4   9  20  38  58  83 116 153 194 239 284 337
#     4  11  23  37  54  81 116 149 189 241 289 337
#     4  10  20  35  57  85 119 151 187 235 286 341
#     4  11  21  36  60  86 114 150 193 237 288 343
#     4  10  20  35  57  85 119 151 187 235 286 341
#
# _framework density 18.926117000000001
#
# number of rings (size 3 to 8) (size 9 to 14) (size 15 to 20)
#    0.000    1.667    1.667    3.500    0.000    4.000 
#    0.000    4.167    0.000    6.000    0.000    0.000 
#    0.000    0.000    0.000    0.000    0.000    0.000 
#
# Total GULP energy -297714.053100 kJ/mol
# GULP energy per Si atom -12404.752213 kJ/mol
# Density = 1.888304 g / cm^3
# Si number density = 18.926117 Si / 1000 Ang^3
#
#
#
# Elastic Constant Matrix: (Units=GPa)
#
#
# Indices 1 2 3 4 5 6 
#
# 1 161.2098 46.6815 66.2612 0.0000 0.0000 0.0000
# 2 46.6815 61.8168 12.7042 0.0000 0.0000 0.0000
# 3 66.2612 12.7042 102.2164 0.0000 0.0000 0.0000
# 4 0.0000 0.0000 0.0000 -23.7818 0.0000 0.0000
# 5 0.0000 0.0000 0.0000 0.0000 34.5554 0.0000
# 6 0.0000 0.0000 0.0000 0.0000 0.0000 35.4847
#
#
#
# Elastic Compliance Matrix: (Units=1/GPa)
#
#
# Indices 1 2 3 4 5 6 
#
# 1 0.010670 -0.006810 -0.006071 0.000000 0.000000 0.000000
# 2 -0.006810 0.020947 0.001811 0.000000 0.000000 0.000000
# 3 -0.006071 0.001811 0.013493 0.000000 0.000000 0.000000
# 4 0.000000 0.000000 0.000000 -0.042049 0.000000 0.000000
# 5 0.000000 0.000000 0.000000 0.000000 0.028939 0.000000
# 6 0.000000 0.000000 0.000000 0.000000 0.000000 0.028181
#
#
# Mechanical properties :
#
#
# Convention : Reuss Voigt Hill
#
# Bulk Modulus (GPa) = 43.53156 64.05965 53.79560
# Shear Modulus (GPa) = 55.56880 22.55805 39.06343
#
# Velocity S-wave (km/s) = 5.42445 3.45614 4.54805
# Velocity P-wave (km/s) = 7.89200 7.06026 7.48768
#
# Compressibility (1/GPa) = 0.02297184
#
# Stress axis : x y z
#
# Youngs Moduli (GPa) = 93.71847 47.73863 74.11119
#
# Poissons Ratio (x) = 0.32511 0.44989
# Poissons Ratio (y) = 0.63824 -0.13423
# Poissons Ratio (z) = 0.56892 -0.08646
#
# Static dielectric constant tensor:
#      x y z
#    x 3.678450 0.000000 0.000000 
#    y 0.000000 3.507170 0.000000 
#    z 0.000000 0.000000 3.470580 
# 
# 
# High freq. dielectric constant tensor:
#      x y z
#    x 1.756260 0.000000 0.000000 
#    y 0.000000 1.736100 0.000000 
#    z 0.000000 0.000000 1.720210 
# 
# From -- ./inp_files/5345.got.cif
#   From: 2010.03.12/outbox.cif.g09.slc.cpg/sg35_3_cif.got.tgz:5345.got - 2010.04.14 02:02:04.
