data_PCOD8173346
_publ_section_title
;
Structure prediction by ZEFSAII (Michael W. Deem and Ramdas Pophale) SiO2 
 PCOD8173346
Probable space group: C M M 2
;
_chemical_formula_sum "Si O2"
_cell_formula_units_Z 56
_cell_length_a 19.176113
_cell_length_b 14.660732
_cell_length_c 9.285776
_cell_angle_alpha 90.000000
_cell_angle_beta 90.000000
_cell_angle_gamma 90.000000
_cell_volume 2610.564561
_symmetry_space_group_name_H-M "C M M 2"
_symmetry_group_IT_number 35
_symmetry_cell_setting 'orthorhombic'
loop_
_space_group_symop_operation_xyz
x,y,z
-x,-y,z
-x,y,z
x,-y,z
1/2+x,1/2+y,z
1/2-x,1/2-y,z
1/2-x,1/2+y,z
1/2+x,1/2-y,z
loop_
_atom_site_type_symbol
_atom_site_label
_atom_site_fract_x
_atom_site_fract_y
_atom_site_fract_z
Si Si1 0.175979 0.229532 0.031880
Si Si2 0.723302 0.150711 0.505983
Si Si3 0.076752 0.605841 0.596105
Si Si4 0.187996 0.898485 0.765709
Si Si5 0.580628 0.894763 0.932385
Si Si6 0.075713 0.892672 0.545743
Si Si7 0.667366 0.395356 0.287317
O O1 0.250000 0.250000 0.105794
O O2 0.143201 0.160087 0.146411
O O3 0.198172 0.177748 0.885706
O O4 0.129022 0.320279 0.013119
O O5 0.750000 0.250000 0.536813
O O6 0.638822 0.150483 0.502343
O O7 0.751069 0.094483 0.644877
O O8 0.753779 0.114155 0.353003
O O9 0.077190 0.500000 0.561050
O O10 0.090381 0.623151 0.764042
O O11 0.000000 0.645678 0.553436
O O12 0.115070 0.869553 0.692924
O O13 0.183582 0.000000 0.834941
O O14 0.500000 0.879963 0.977565
O O15 0.602903 0.000000 0.969982
O O16 0.117468 0.853823 0.410201
O O17 0.000000 0.846192 0.554167
O O18 0.070148 0.000000 0.525656
O O19 0.653408 0.500000 0.249366
#
# Coordination Sequence:
#
# PCOD8173346 Si02
#       7
#     8   8   8   8   8   8   8
#     4  12  24  37  57  89 120 155 205 255 302 359
#     4  11  20  35  57  85 119 160 206 251 303 362
#     4   9  17  32  58  90 120 151 193 248 305 356
#     4  10  20  34  56  86 120 157 197 248 306 362
#     4   9  20  39  61  88 124 162 200 252 318 374
#     4   8  16  34  58  83 113 150 189 228 280 349
#     4  10  22  39  58  82 119 163 199 242 304 368
#
# _framework density 21.4513
#
# number of rings (size 3 to 8) (size 9 to 14) (size 15 to 20)
#    0.000    2.143    0.000    6.000    0.000    3.429 
#    0.000    4.286    0.000    6.857    0.000   11.000 
#    0.000    8.000    0.000    0.000    0.000    0.000 
#
# Total GULP energy -346938.858603 kJ/mol
# GULP energy per Si atom -12390.673522 kJ/mol
# Density = 2.140248 g / cm^3
# Si number density = 21.451300 Si / 1000 Ang^3
#
#
#
# Elastic Constant Matrix: (Units=GPa)
#
#
# Indices 1 2 3 4 5 6 
#
# 1 145.2699 31.1054 11.3766 0.0000 0.0000 0.0000
# 2 31.1054 109.3742 26.5492 0.0000 0.0000 0.0000
# 3 11.3766 26.5492 52.9847 0.0000 0.0000 0.0000
# 4 0.0000 0.0000 0.0000 27.1735 0.0000 0.0000
# 5 0.0000 0.0000 0.0000 0.0000 14.7512 0.0000
# 6 0.0000 0.0000 0.0000 0.0000 0.0000 29.0119
#
#
#
# Elastic Compliance Matrix: (Units=1/GPa)
#
#
# Indices 1 2 3 4 5 6 
#
# 1 0.007347 -0.001943 -0.000604 0.000000 0.000000 0.000000
# 2 -0.001943 0.010923 -0.005056 0.000000 0.000000 0.000000
# 3 -0.000604 -0.005056 0.021536 0.000000 0.000000 0.000000
# 4 0.000000 0.000000 0.000000 0.036801 0.000000 0.000000
# 5 0.000000 0.000000 0.000000 0.000000 0.067791 0.000000
# 6 0.000000 0.000000 0.000000 0.000000 0.000000 0.034469
#
#
# Mechanical properties :
#
#
# Convention : Reuss Voigt Hill
#
# Bulk Modulus (GPa) = 40.64930 49.52124 45.08527
# Shear Modulus (GPa) = 24.71914 30.09382 27.40648
#
# Velocity S-wave (km/s) = 3.39829 3.74958 3.57825
# Velocity P-wave (km/s) = 5.86418 6.47158 6.17535
#
# Compressibility (1/GPa) = 0.02460067
#
# Stress axis : x y z
#
# Youngs Moduli (GPa) = 136.10914 91.55230 46.43286
#
# Poissons Ratio (x) = 0.17787 0.02805
# Poissons Ratio (y) = 0.26444 0.23476
# Poissons Ratio (z) = 0.08221 0.46288
#
# Static dielectric constant tensor:
#      x y z
#    x 4.589860 0.000000 0.000000 
#    y 0.000000 3.851880 0.000000 
#    z 0.000000 0.000000 3.499010 
# 
# 
# High freq. dielectric constant tensor:
#      x y z
#    x 1.841310 0.000000 0.000000 
#    y 0.000000 1.851430 0.000000 
#    z 0.000000 0.000000 1.810850 
# 
# From -- ./inp_files/9287.got.cif
#   From: 2010.03.12/outbox.cif.g09.slc.cpg/sg35_5_cif.got.tgz:9287.got - 2010.04.14 02:02:04.
