data_PCOD8173528
_publ_section_title
;
Structure prediction by ZEFSAII (Michael W. Deem and Ramdas Pophale) SiO2 
 PCOD8173528
Probable space group: C M M 2
;
_chemical_formula_sum "Si O2"
_cell_formula_units_Z 48
_cell_length_a 7.844441
_cell_length_b 18.310704
_cell_length_c 17.336050
_cell_angle_alpha 90.000000
_cell_angle_beta 90.000000
_cell_angle_gamma 90.000000
_cell_volume 2490.102326
_symmetry_space_group_name_H-M "C M M 2"
_symmetry_group_IT_number 35
_symmetry_cell_setting 'orthorhombic'
loop_
_space_group_symop_operation_xyz
x,y,z
-x,-y,z
-x,y,z
x,-y,z
1/2+x,1/2+y,z
1/2-x,1/2-y,z
1/2-x,1/2+y,z
1/2+x,1/2-y,z
loop_
_atom_site_type_symbol
_atom_site_label
_atom_site_fract_x
_atom_site_fract_y
_atom_site_fract_z
Si Si1 0.309172 0.168402 0.000000
Si Si2 0.803755 0.913354 0.855074
Si Si3 0.500000 0.086681 0.245947
Si Si4 0.808460 0.087478 0.522714
Si Si5 0.201118 0.079556 0.689089
Si Si6 0.189863 0.915936 0.142165
Si Si7 0.000000 0.587138 0.418789
O O1 0.500000 0.167346 0.032681
O O2 0.250000 0.250000 0.984995
O O3 0.191865 0.129436 0.063297
O O4 0.307859 0.125727 0.919435
O O5 0.743638 0.882531 0.770137
O O6 0.000000 0.893581 0.871118
O O7 0.774847 0.000000 0.858653
O O8 0.670816 0.114335 0.202744
O O9 0.500000 0.119207 0.332290
O O10 0.500000 0.000000 0.250758
O O11 0.755211 0.119834 0.607812
O O12 0.670699 0.116425 0.461148
O O13 0.000000 0.113663 0.499374
O O14 0.806798 0.000000 0.527506
O O15 0.000000 0.068801 0.693374
O O16 0.289050 0.000000 0.686874
O O17 0.000000 0.908109 0.178311
O O18 0.230419 0.000000 0.121707
O O19 0.000000 0.500000 0.418508
#
# Coordination Sequence:
#
# PCOD8173528 Si02
#       7
#     8   8   4   8   8   8   4
#     4  12  24  37  52  73 102 134 170 219 260 309
#     4   9  17  31  51  74 101 136 175 211 254 304
#     4   9  18  32  48  71 101 133 170 209 252 305
#     4   8  13  22  36  57  90 131 167 197 239 292
#     4   7  11  22  40  61  90 130 170 204 237 285
#     4  10  20  36  57  77 101 136 174 211 256 311
#     4   9  16  24  38  63  95 129 163 203 248 293
#
# _framework density 19.276316000000001
#
# number of rings (size 3 to 8) (size 9 to 14) (size 15 to 20)
#    0.000    2.833    0.833    4.000    0.000    3.000 
#    1.500    3.333    0.000    0.000    0.000    0.000 
#    0.000    1.333    2.333    0.000    0.000    0.000 
#
# Total GULP energy -297340.524350 kJ/mol
# GULP energy per Si atom -12389.188515 kJ/mol
# Density = 1.923244 g / cm^3
# Si number density = 19.276316 Si / 1000 Ang^3
#
#
#
# Elastic Constant Matrix: (Units=GPa)
#
#
# Indices 1 2 3 4 5 6 
#
# 1 113.5865 16.5428 62.0400 0.0000 0.0000 0.0000
# 2 16.5428 30.3386 25.3863 0.0000 0.0000 0.0000
# 3 62.0400 25.3863 167.9425 0.0000 0.0000 0.0000
# 4 0.0000 0.0000 0.0000 -0.0004 0.0000 0.0000
# 5 0.0000 0.0000 0.0000 0.0000 30.4994 0.0000
# 6 0.0000 0.0000 0.0000 0.0000 0.0000 11.3378
#
#
#
# Elastic Compliance Matrix: (Units=1/GPa)
#
#
# Indices 1 2 3 4 5 6 
#
# 1 0.011270 -0.003047 -0.003703 0.000000 0.000000 0.000000
# 2 -0.003047 0.038558 -0.004703 0.000000 0.000000 0.000000
# 3 -0.003703 -0.004703 0.008033 0.000000 0.000000 0.000000
# 4 0.000000 0.000000 0.000000********** 0.000000 0.000000
# 5 0.000000 0.000000 0.000000 0.000000 0.032788 0.000000
# 6 0.000000 0.000000 0.000000 0.000000 0.000000 0.088201
#
#
# Mechanical properties :
#
#
# Convention : Reuss Voigt Hill
#
# Bulk Modulus (GPa) = 28.60733 57.75619 43.18176
# Shear Modulus (GPa) = -0.00196 22.22726 11.11265
#
# Velocity S-wave (km/s) = -0.03191 3.39940 2.40363
# Velocity P-wave (km/s) = 3.85636 6.74056 5.49121
#
# Compressibility (1/GPa) = 0.03495608
#
# Stress axis : x y z
#
# Youngs Moduli (GPa) = 88.73115 25.93498 124.48449
#
# Poissons Ratio (x) = 0.07902 0.46093
# Poissons Ratio (y) = 0.27036 0.58543
# Poissons Ratio (z) = 0.32854 0.12197
#
# Static dielectric constant tensor:
#      x y z
#    x 3.526900 0.000000 0.000000 
#    y 0.000000 2.834500 0.000000 
#    z 0.000000 0.000000 3.831190 
# 
# 
# High freq. dielectric constant tensor:
#      x y z
#    x 1.750930 0.000000 0.000000 
#    y 0.000000 1.670990 0.000000 
#    z 0.000000 0.000000 1.759060 
# 
# From -- ./inp_files/17853.got.cif
#   From: 2010.03.12/outbox.cif.g09.slc.cpg/sg35_9_cif.got.tgz:17853.got - 2010.04.14 02:02:04.
