data_PCOD8173171
_publ_section_title
;
Structure prediction by ZEFSAII (Michael W. Deem and Ramdas Pophale) SiO2 
 PCOD8173171
Probable space group: C M M 2
;
_chemical_formula_sum "Si O2"
_cell_formula_units_Z 56
_cell_length_a 30.118719
_cell_length_b 8.954746
_cell_length_c 12.663983
_cell_angle_alpha 90.000000
_cell_angle_beta 90.000000
_cell_angle_gamma 90.000000
_cell_volume 3415.545595
_symmetry_space_group_name_H-M "C M M 2"
_symmetry_group_IT_number 35
_symmetry_cell_setting 'orthorhombic'
loop_
_space_group_symop_operation_xyz
x,y,z
-x,-y,z
-x,y,z
x,-y,z
1/2+x,1/2+y,z
1/2-x,1/2-y,z
1/2-x,1/2+y,z
1/2+x,1/2-y,z
loop_
_atom_site_type_symbol
_atom_site_label
_atom_site_fract_x
_atom_site_fract_y
_atom_site_fract_z
Si Si1 0.612318 0.322294 0.568880
Si Si2 0.615137 0.822429 0.346667
Si Si3 0.206845 0.167235 0.335129
Si Si4 0.552727 0.832088 0.969655
Si Si5 0.051305 0.826536 0.760960
Si Si6 0.447594 0.673106 0.181049
Si Si7 0.791348 0.837028 0.585267
O O1 0.613385 0.500000 0.545898
O O2 0.600956 0.238062 0.461181
O O3 0.576224 0.276076 0.655122
O O4 0.660477 0.267450 0.612342
O O5 0.662242 0.757536 0.307210
O O6 0.576563 0.771341 0.268502
O O7 0.618446 0.000000 0.349627
O O8 0.250000 0.250000 0.285916
O O9 0.213020 0.156960 0.459815
O O10 0.203488 0.000000 0.287409
O O11 0.500000 0.831252 0.965022
O O12 0.571048 0.763432 0.860418
O O13 0.571142 0.000000 0.983316
O O14 0.568790 0.730559 0.066840
O O15 0.000000 0.789408 0.741837
O O16 0.058974 0.000000 0.784754
O O17 0.500000 0.697446 0.195275
O O18 0.434592 0.500000 0.192666
O O19 0.750000 0.750000 0.636195
O O20 0.788322 0.000000 0.635780
#
# Coordination Sequence:
#
# PCOD8173171 Si02
#       7
#     8   8   8   8   8   8   8
#     4   9  18  31  44  63  93 125 156 189 224 269
#     4  11  21  31  45  68  98 128 157 191 234 282
#     4   9  16  28  45  65  90 120 155 192 230 272
#     4   9  17  30  48  69  91 113 144 190 236 273
#     4   9  17  30  48  67  88 118 154 187 223 272
#     4  10  20  34  51  68  89 121 159 195 232 277
#     4   8  14  24  39  58  82 112 146 185 223 258
#
# _framework density 16.395623000000001
#
# number of rings (size 3 to 8) (size 9 to 14) (size 15 to 20)
#    0.000    2.714    0.000    3.429    0.000    7.143 
#    0.000    1.429    0.000    0.000    0.000    1.000 
#    0.000    2.286    0.000    0.000    0.000    0.000 
#
# Total GULP energy -347099.934561 kJ/mol
# GULP energy per Si atom -12396.426234 kJ/mol
# Density = 1.635831 g / cm^3
# Si number density = 16.395623 Si / 1000 Ang^3
#
#
#
# Elastic Constant Matrix: (Units=GPa)
#
#
# Indices 1 2 3 4 5 6 
#
# 1 74.3774 41.9400 48.3826 0.0000 0.0000 0.0000
# 2 41.9400 102.8672 48.0453 0.0000 0.0000 0.0000
# 3 48.3826 48.0453 84.0961 0.0000 0.0000 0.0000
# 4 0.0000 0.0000 0.0000 20.6368 0.0000 0.0000
# 5 0.0000 0.0000 0.0000 0.0000 0.6819 0.0000
# 6 0.0000 0.0000 0.0000 0.0000 0.0000 26.1697
#
#
#
# Elastic Compliance Matrix: (Units=1/GPa)
#
#
# Indices 1 2 3 4 5 6 
#
# 1 0.022815 -0.004325 -0.010655 0.000000 0.000000 0.000000
# 2 -0.004325 0.014079 -0.005555 0.000000 0.000000 0.000000
# 3 -0.010655 -0.005555 0.021195 0.000000 0.000000 0.000000
# 4 0.000000 0.000000 0.000000 0.048457 0.000000 0.000000
# 5 0.000000 0.000000 0.000000 0.000000 1.466545 0.000000
# 6 0.000000 0.000000 0.000000 0.000000 0.000000 0.038212
#
#
# Mechanical properties :
#
#
# Convention : Reuss Voigt Hill
#
# Bulk Modulus (GPa) = 58.76028 59.78628 59.27328
# Shear Modulus (GPa) = 3.01560 17.69586 10.35573
#
# Velocity S-wave (km/s) = 1.35767 3.28884 2.51592
# Velocity P-wave (km/s) = 6.19471 7.13904 6.68358
#
# Compressibility (1/GPa) = 0.01701830
#
# Stress axis : x y z
#
# Youngs Moduli (GPa) = 43.83086 71.02559 47.18108
#
# Poissons Ratio (x) = 0.30722 0.50271
# Poissons Ratio (y) = 0.18959 0.26210
# Poissons Ratio (z) = 0.46701 0.39456
#
# Static dielectric constant tensor:
#      x y z
#    x 3.129460 0.000000 0.000000 
#    y 0.000000 3.273230 0.000000 
#    z 0.000000 0.000000 2.867730 
# 
# 
# High freq. dielectric constant tensor:
#      x y z
#    x 1.620210 0.000000 0.000000 
#    y 0.000000 1.640240 0.000000 
#    z 0.000000 0.000000 1.594570 
# 
# From -- ./inp_files/17682.got.cif
#   From: 2010.03.12/outbox.cif.g09.slc.cpg/sg35_9_cif.got.tgz:17682.got - 2010.04.14 02:02:04.
