data_PCOD8173464
_publ_section_title
;
Structure prediction by ZEFSAII (Michael W. Deem and Ramdas Pophale) SiO2 
 PCOD8173464
Probable space group: C M M 2
;
_chemical_formula_sum "Si O2"
_cell_formula_units_Z 64
_cell_length_a 8.918780
_cell_length_b 18.058570
_cell_length_c 20.549292
_cell_angle_alpha 90.000000
_cell_angle_beta 90.000000
_cell_angle_gamma 90.000000
_cell_volume 3309.677455
_symmetry_space_group_name_H-M "C M M 2"
_symmetry_group_IT_number 35
_symmetry_cell_setting 'orthorhombic'
loop_
_space_group_symop_operation_xyz
x,y,z
-x,-y,z
-x,y,z
x,-y,z
1/2+x,1/2+y,z
1/2-x,1/2-y,z
1/2-x,1/2+y,z
1/2+x,1/2-y,z
loop_
_atom_site_type_symbol
_atom_site_label
_atom_site_fract_x
_atom_site_fract_y
_atom_site_fract_z
Si Si1 0.176763 0.670545 0.287290
Si Si2 0.173371 0.086759 0.403472
Si Si3 0.165200 0.587630 0.531435
Si Si4 0.177201 0.170947 0.791025
Si Si5 0.676282 0.670945 0.041696
Si Si6 0.324008 0.914690 0.675894
Si Si7 0.678251 0.582899 0.917178
Si Si8 0.827410 0.913362 0.172207
O O1 0.250000 0.750000 0.277186
O O2 0.228366 0.633904 0.354286
O O3 0.222111 0.617898 0.228216
O O4 0.000000 0.680384 0.288639
O O5 0.217158 0.112620 0.476384
O O6 0.000000 0.104579 0.391743
O O7 0.207669 0.000000 0.392995
O O8 0.153387 0.500000 0.534283
O O9 0.216750 0.614018 0.603089
O O10 0.000000 0.619899 0.514651
O O11 0.250000 0.250000 0.801029
O O12 0.228180 0.135279 0.723755
O O13 0.233027 0.119789 0.850314
O O14 0.000000 0.179966 0.790644
O O15 0.500000 0.682015 0.035524
O O16 0.750000 0.750000 0.049227
O O17 0.719186 0.622525 0.104102
O O18 0.741075 0.629735 0.978038
O O19 0.500000 0.904453 0.689372
O O20 0.276687 0.000000 0.685458
O O21 0.500000 0.579924 0.920522
O O22 0.744739 0.500000 0.920442
O O23 0.000000 0.895943 0.189939
O O24 0.799117 0.000000 0.166007
#
# Coordination Sequence:
#
# PCOD8173464 Si02
#       8
#     8   8   8   8   8   8   8   8
#     4  12  25  40  58  80 110 147 185 227 276 328
#     4  10  20  35  57  85 115 145 180 224 271 323
#     4   8  15  30  53  80 109 142 180 222 270 324
#     4  11  22  35  53  77 108 145 185 230 278 330
#     4  10  20  35  57  83 113 148 182 221 271 325
#     4   9  18  34  56  81 110 143 180 225 275 327
#     4   9  18  34  56  81 107 139 183 230 275 326
#     4  10  21  38  60  85 112 144 184 228 273 323
#
# _framework density 19.337232
#
# number of rings (size 3 to 8) (size 9 to 14) (size 15 to 20)
#    0.000    2.125    0.000    4.500    0.000    6.750 
#    0.000    2.500    0.000    5.625    0.000    0.000 
#    0.000    0.000    0.000    0.000    0.000    0.000 
#
# Total GULP energy -396852.104296 kJ/mol
# GULP energy per Si atom -12401.628259 kJ/mol
# Density = 1.929322 g / cm^3
# Si number density = 19.337232 Si / 1000 Ang^3
#
#
#
# Elastic Constant Matrix: (Units=GPa)
#
#
# Indices 1 2 3 4 5 6 
#
# 1 69.6929 47.1083 50.3809 0.0000 0.0000 0.0000
# 2 47.1083 119.4690 62.3295 0.0000 0.0000 0.0000
# 3 50.3809 62.3295 147.5644 0.0000 0.0000 0.0000
# 4 0.0000 0.0000 0.0000 203.4088 0.0000 0.0000
# 5 0.0000 0.0000 0.0000 0.0000 -35.2102 0.0000
# 6 0.0000 0.0000 0.0000 0.0000 0.0000 25.3826
#
#
#
# Elastic Compliance Matrix: (Units=1/GPa)
#
#
# Indices 1 2 3 4 5 6 
#
# 1 0.022060 -0.006117 -0.004948 0.000000 0.000000 0.000000
# 2 -0.006117 0.012433 -0.003163 0.000000 0.000000 0.000000
# 3 -0.004948 -0.003163 0.009802 0.000000 0.000000 0.000000
# 4 0.000000 0.000000 0.000000 0.004916 0.000000 0.000000
# 5 0.000000 0.000000 0.000000 0.000000 -0.028401 0.000000
# 6 0.000000 0.000000 0.000000 0.000000 0.000000 0.039397
#
#
# Mechanical properties :
#
#
# Convention : Reuss Voigt Hill
#
# Bulk Modulus (GPa) = 63.13580 72.92931 68.03255
# Shear Modulus (GPa) = 53.22369 50.51009 51.86689
#
# Velocity S-wave (km/s) = 5.25202 5.11638 5.18464
# Velocity P-wave (km/s) = 8.33661 8.52640 8.43204
#
# Compressibility (1/GPa) = 0.01583888
#
# Stress axis : x y z
#
# Youngs Moduli (GPa) = 45.33003 80.43350 102.02047
#
# Poissons Ratio (x) = 0.49204 0.50479
# Poissons Ratio (y) = 0.27730 0.32268
# Poissons Ratio (z) = 0.22429 0.25440
#
# Static dielectric constant tensor:
#      x y z
#    x 3.396580 0.000000 0.000000 
#    y 0.000000 3.495360 0.000000 
#    z 0.000000 0.000000 3.818270 
# 
# 
# High freq. dielectric constant tensor:
#      x y z
#    x 1.737280 0.000000 0.000000 
#    y 0.000000 1.746940 0.000000 
#    z 0.000000 0.000000 1.771660 
# 
# From -- ./inp_files/18403.got.cif
#   From: 2010.03.12/outbox.cif.g09.slc.cpg/sg35_10_cif.got.tgz:18403.got - 2010.04.14 02:02:04.
