data_PCOD8173367
_publ_section_title
;
Structure prediction by ZEFSAII (Michael W. Deem and Ramdas Pophale) SiO2 
 PCOD8173367
Probable space group: C M M 2
;
_chemical_formula_sum "Si O2"
_cell_formula_units_Z 40
_cell_length_a 8.735428
_cell_length_b 19.364828
_cell_length_c 12.788589
_cell_angle_alpha 90.000000
_cell_angle_beta 90.000000
_cell_angle_gamma 90.000000
_cell_volume 2163.318492
_symmetry_space_group_name_H-M "C M M 2"
_symmetry_group_IT_number 35
_symmetry_cell_setting 'orthorhombic'
loop_
_space_group_symop_operation_xyz
x,y,z
-x,-y,z
-x,y,z
x,-y,z
1/2+x,1/2+y,z
1/2-x,1/2-y,z
1/2-x,1/2+y,z
1/2+x,1/2-y,z
loop_
_atom_site_type_symbol
_atom_site_label
_atom_site_fract_x
_atom_site_fract_y
_atom_site_fract_z
Si Si1 0.328015 0.582012 0.258130
Si Si2 0.179498 0.578857 0.047016
Si Si3 0.681494 0.176811 0.859950
Si Si4 0.180567 0.176648 0.639383
Si Si5 0.823526 0.418723 0.470017
O O1 0.500000 0.609923 0.272544
O O2 0.323548 0.500000 0.253626
O O3 0.260173 0.610831 0.149599
O O4 0.226285 0.607753 0.355348
O O5 0.229768 0.500000 0.027473
O O6 0.000000 0.584633 0.066275
O O7 0.232442 0.621552 0.946310
O O8 0.500000 0.182563 0.849584
O O9 0.750000 0.250000 0.894012
O O10 0.749842 0.152347 0.749687
O O11 0.250000 0.250000 0.604503
O O12 0.219944 0.118917 0.554955
O O13 0.000000 0.184589 0.650509
O O14 0.794019 0.500000 0.481870
O O15 0.000000 0.399581 0.487535
#
# Coordination Sequence:
#
# PCOD8173367 Si02
#       5
#     8   8   8   8   8
#     4   9  17  30  50  77 107 136 168 210 260 309
#     4   9  18  33  53  76 102 134 172 212 255 306
#     4  10  20  35  54  75 102 137 174 212 258 311
#     4  11  22  37  56  77 105 139 176 217 263 315
#     4  10  20  35  56  80 107 139 175 215 260 311
#
# _framework density 18.490110999999999
#
# number of rings (size 3 to 8) (size 9 to 14) (size 15 to 20)
#    0.000    2.200    0.000    4.800    0.000    6.000 
#    0.000    3.000    0.000    2.400    0.000    0.000 
#    0.000    0.000    0.000    0.000    0.000    0.000 
#
# Total GULP energy -248040.424229 kJ/mol
# GULP energy per Si atom -12402.021211 kJ/mol
# Density = 1.844803 g / cm^3
# Si number density = 18.490111 Si / 1000 Ang^3
#
#
#
# Elastic Constant Matrix: (Units=GPa)
#
#
# Indices 1 2 3 4 5 6 
#
# 1 97.5121 33.4516 55.6848 0.0000 0.0000 0.0000
# 2 33.4516 58.4060 63.8438 0.0000 0.0000 0.0000
# 3 55.6848 63.8438 146.3943 0.0000 0.0000 0.0000
# 4 0.0000 0.0000 0.0000 3.8332 0.0000 0.0000
# 5 0.0000 0.0000 0.0000 0.0000 35.6817 0.0000
# 6 0.0000 0.0000 0.0000 0.0000 0.0000 26.1255
#
#
#
# Elastic Compliance Matrix: (Units=1/GPa)
#
#
# Indices 1 2 3 4 5 6 
#
# 1 0.013590 -0.004076 -0.003392 0.000000 0.000000 0.000000
# 2 -0.004076 0.033942 -0.013252 0.000000 0.000000 0.000000
# 3 -0.003392 -0.013252 0.013900 0.000000 0.000000 0.000000
# 4 0.000000 0.000000 0.000000 0.260882 0.000000 0.000000
# 5 0.000000 0.000000 0.000000 0.000000 0.028026 0.000000
# 6 0.000000 0.000000 0.000000 0.000000 0.000000 0.038277
#
#
# Mechanical properties :
#
#
# Convention : Reuss Voigt Hill
#
# Bulk Modulus (GPa) = 50.01808 67.58589 58.80199
# Shear Modulus (GPa) = 11.44897 23.08355 17.26626
#
# Velocity S-wave (km/s) = 2.49106 3.53714 3.05915
# Velocity P-wave (km/s) = 5.94843 7.30162 6.65948
#
# Compressibility (1/GPa) = 0.01999277
#
# Stress axis : x y z
#
# Youngs Moduli (GPa) = 73.58145 29.46223 71.94125
#
# Poissons Ratio (x) = 0.12010 0.24401
# Poissons Ratio (y) = 0.29994 0.95335
# Poissons Ratio (z) = 0.24957 0.39043
#
# Static dielectric constant tensor:
#      x y z
#    x 3.499690 0.000000 0.000000 
#    y 0.000000 3.179780 0.000000 
#    z 0.000000 0.000000 3.570400 
# 
# 
# High freq. dielectric constant tensor:
#      x y z
#    x 1.730590 0.000000 0.000000 
#    y 0.000000 1.688420 0.000000 
#    z 0.000000 0.000000 1.730100 
# 
# From -- ./inp_files/9644.got.cif
#   From: 2010.03.12/outbox.cif.g09.slc.cpg/sg35_5_cif.got.tgz:9644.got - 2010.04.14 02:02:04.
