data_PCOD8173885
_publ_section_title
;
Structure prediction by ZEFSAII (Michael W. Deem and Ramdas Pophale) SiO2 
 PCOD8173885
Probable space group: C M M 2
;
_chemical_formula_sum "Si O2"
_cell_formula_units_Z 48
_cell_length_a 9.859208
_cell_length_b 15.353531
_cell_length_c 16.910452
_cell_angle_alpha 90.000000
_cell_angle_beta 90.000000
_cell_angle_gamma 90.000000
_cell_volume 2559.796938
_symmetry_space_group_name_H-M "C M M 2"
_symmetry_group_IT_number 35
_symmetry_cell_setting 'orthorhombic'
loop_
_space_group_symop_operation_xyz
x,y,z
-x,-y,z
-x,y,z
x,-y,z
1/2+x,1/2+y,z
1/2-x,1/2-y,z
1/2-x,1/2+y,z
1/2+x,1/2-y,z
loop_
_atom_site_type_symbol
_atom_site_label
_atom_site_fract_x
_atom_site_fract_y
_atom_site_fract_z
Si Si1 0.841061 0.000000 0.375000
Si Si2 0.842289 0.670318 0.120227
Si Si3 0.656822 0.000000 0.222042
Si Si4 0.345698 0.671376 0.656086
Si Si5 0.852690 0.900567 0.818979
Si Si6 0.842524 0.166545 0.478683
Si Si7 0.653875 0.897284 0.949784
O O1 0.801509 0.086095 0.423840
O O2 0.753527 0.000000 0.296811
O O3 0.000000 0.000000 0.354092
O O4 0.750000 0.750000 0.151199
O O5 0.809428 0.585423 0.171576
O O6 0.000000 0.696132 0.128181
O O7 0.802413 0.650330 0.030007
O O8 0.500000 0.000000 0.248906
O O9 0.500000 0.704401 0.658765
O O10 0.250000 0.750000 0.677051
O O11 0.314816 0.602645 0.725758
O O12 0.314610 0.634049 0.568688
O O13 0.743003 0.857680 0.877712
O O14 0.000000 0.856035 0.833200
O O15 0.860903 0.000000 0.843479
O O16 0.750000 0.250000 0.457446
O O17 0.000000 0.192786 0.466852
O O18 0.500000 0.875650 0.927594
O O19 0.673046 0.000000 0.962714
#
# Coordination Sequence:
#
# PCOD8173885 Si02
#       7
#     4   8   4   8   8   8   8
#     4  10  22  38  60  87 110 140 180 221 272 328
#     4  10  21  38  60  84 109 144 184 221 268 325
#     4  10  22  42  62  81 112 146 176 217 272 332
#     4   9  18  32  50  71 101 140 177 217 263 310
#     4   9  18  30  47  74 104 136 178 222 263 306
#     4   9  19  36  57  81 111 145 182 224 269 320
#     4   9  17  33  54  73 102 143 182 220 265 316
#
# _framework density 18.751486
#
# number of rings (size 3 to 8) (size 9 to 14) (size 15 to 20)
#    0.000    2.667    0.833    0.000    1.167    4.000 
#    0.000    6.667    0.000    0.000    0.000    0.000 
#    0.000    0.000    0.000    0.000    0.000    0.000 
#
# Total GULP energy -297469.154521 kJ/mol
# GULP energy per Si atom -12394.548105 kJ/mol
# Density = 1.870881 g / cm^3
# Si number density = 18.751486 Si / 1000 Ang^3
#
#
#
# Elastic Constant Matrix: (Units=GPa)
#
#
# Indices 1 2 3 4 5 6 
#
# 1 91.0201 60.6413 78.3106 0.0000 0.0000 0.0000
# 2 60.6413 93.9738 63.4822 0.0000 0.0000 0.0000
# 3 78.3106 63.4822 135.1244 0.0000 0.0000 0.0000
# 4 0.0000 0.0000 0.0000 10.8467 0.0000 0.0000
# 5 0.0000 0.0000 0.0000 0.0000 36.2590 0.0000
# 6 0.0000 0.0000 0.0000 0.0000 0.0000 28.9585
#
#
#
# Elastic Compliance Matrix: (Units=1/GPa)
#
#
# Indices 1 2 3 4 5 6 
#
# 1 0.027197 -0.010112 -0.011012 0.000000 0.000000 0.000000
# 2 -0.010112 0.019348 -0.003230 0.000000 0.000000 0.000000
# 3 -0.011012 -0.003230 0.015300 0.000000 0.000000 0.000000
# 4 0.000000 0.000000 0.000000 0.092194 0.000000 0.000000
# 5 0.000000 0.000000 0.000000 0.000000 0.027579 0.000000
# 6 0.000000 0.000000 0.000000 0.000000 0.000000 0.034532
#
#
# Mechanical properties :
#
#
# Convention : Reuss Voigt Hill
#
# Bulk Modulus (GPa) = 76.10835 80.55404 78.33119
# Shear Modulus (GPa) = 18.57108 23.05847 20.81477
#
# Velocity S-wave (km/s) = 3.15044 3.51049 3.33533
# Velocity P-wave (km/s) = 7.34232 7.71255 7.52971
#
# Compressibility (1/GPa) = 0.01313916
#
# Stress axis : x y z
#
# Youngs Moduli (GPa) = 36.76814 51.68460 65.36159
#
# Poissons Ratio (x) = 0.52263 0.71973
# Poissons Ratio (y) = 0.37180 0.21109
# Poissons Ratio (z) = 0.40487 0.16692
#
# Static dielectric constant tensor:
#      x y z
#    x 3.616760 0.000000 0.000000 
#    y 0.000000 3.284470 0.000000 
#    z 0.000000 0.000000 3.512040 
# 
# 
# High freq. dielectric constant tensor:
#      x y z
#    x 1.728110 0.000000 0.000000 
#    y 0.000000 1.713840 0.000000 
#    z 0.000000 0.000000 1.732330 
# 
# From -- ./inp_files/15233.got.cif
#   From: 2010.03.12/outbox.cif.g09.slc.cpg/sg35_8_cif.got.tgz:15233.got - 2010.04.14 02:02:04.
