data_PCOD8173265
_publ_section_title
;
Structure prediction by ZEFSAII (Michael W. Deem and Ramdas Pophale) SiO2 
 PCOD8173265
Probable space group: C M M 2
;
_chemical_formula_sum "Si O2"
_cell_formula_units_Z 48
_cell_length_a 30.603495
_cell_length_b 8.829700
_cell_length_c 9.412521
_cell_angle_alpha 90.000000
_cell_angle_beta 90.000000
_cell_angle_gamma 90.000000
_cell_volume 2543.448411
_symmetry_space_group_name_H-M "C M M 2"
_symmetry_group_IT_number 35
_symmetry_cell_setting 'orthorhombic'
loop_
_space_group_symop_operation_xyz
x,y,z
-x,-y,z
-x,y,z
x,-y,z
1/2+x,1/2+y,z
1/2-x,1/2-y,z
1/2-x,1/2+y,z
1/2+x,1/2-y,z
loop_
_atom_site_type_symbol
_atom_site_label
_atom_site_fract_x
_atom_site_fract_y
_atom_site_fract_z
Si Si1 0.573010 0.165659 0.543470
Si Si2 0.500000 0.820716 0.116152
Si Si3 0.703642 0.672364 0.568102
Si Si4 0.863018 0.672344 0.784039
Si Si5 0.866609 0.830038 0.349519
Si Si6 0.000000 0.169393 0.413827
Si Si7 0.593499 0.324259 0.046252
O O1 0.590986 0.174771 0.701734
O O2 0.611135 0.192001 0.431149
O O3 0.540081 0.302553 0.518096
O O4 0.551995 0.000000 0.516272
O O5 0.500000 0.784633 0.283213
O O6 0.454610 0.754350 0.051590
O O7 0.500000 0.000000 0.090649
O O8 0.709933 0.500000 0.615260
O O9 0.750000 0.750000 0.561119
O O10 0.674165 0.747475 0.691037
O O11 0.683138 0.681290 0.407932
O O12 0.848223 0.500000 0.815386
O O13 0.874018 0.758395 0.928435
O O14 0.876193 0.799972 0.184920
O O15 0.884352 0.000000 0.387637
O O16 0.000000 0.000000 0.352470
O O17 0.584250 0.500000 0.017657
#
# Coordination Sequence:
#
# PCOD8173265 Si02
#       7
#     8   4   8   8   8   4   8
#     4  10  20  34  54  78 106 143 190 238 286 335
#     4  12  24  37  56  83 116 156 200 246 290 339
#     4  10  20  38  63  90 116 148 189 239 295 355
#     4  10  22  39  58  84 117 154 193 239 292 350
#     4   9  19  35  57  82 112 146 186 234 286 344
#     4  12  22  33  52  79 110 146 192 242 290 341
#     4  11  22  38  59  85 118 159 199 240 291 347
#
# _framework density 18.872017
#
# number of rings (size 3 to 8) (size 9 to 14) (size 15 to 20)
#    0.000    1.667    1.667    3.500    0.000    4.000 
#    0.000    1.667    0.000    2.000    0.000    0.000 
#    0.000    0.000    0.000    0.000    0.000    0.000 
#
# Total GULP energy -297313.603031 kJ/mol
# GULP energy per Si atom -12388.066793 kJ/mol
# Density = 1.882906 g / cm^3
# Si number density = 18.872017 Si / 1000 Ang^3
#
#
#
# Elastic Constant Matrix: (Units=GPa)
#
#
# Indices 1 2 3 4 5 6 
#
# 1 121.5444 54.4668 52.0563 0.0000 0.0000 0.0000
# 2 54.4668 131.2401 53.1252 0.0000 0.0000 0.0000
# 3 52.0563 53.1252 108.4451 0.0000 0.0000 0.0000
# 4 0.0000 0.0000 0.0000 27.7112 0.0000 0.0000
# 5 0.0000 0.0000 0.0000 0.0000 -536.2548 0.0000
# 6 0.0000 0.0000 0.0000 0.0000 0.0000 33.1083
#
#
#
# Elastic Compliance Matrix: (Units=1/GPa)
#
#
# Indices 1 2 3 4 5 6 
#
# 1 0.011289 -0.003108 -0.003897 0.000000 0.000000 0.000000
# 2 -0.003108 0.010360 -0.003583 0.000000 0.000000 0.000000
# 3 -0.003897 -0.003583 0.012847 0.000000 0.000000 0.000000
# 4 0.000000 0.000000 0.000000 0.036086 0.000000 0.000000
# 5 0.000000 0.000000 0.000000 0.000000 -0.001865 0.000000
# 6 0.000000 0.000000 0.000000 0.000000 0.000000 0.030204
#
#
# Mechanical properties :
#
#
# Convention : Reuss Voigt Hill
#
# Bulk Modulus (GPa) = 75.07123 75.61403 75.34263
# Shear Modulus (GPa) = 40.14868 -81.64832 -20.74982
#
# Velocity S-wave (km/s) = 4.61740 -6.58469 -3.31947
# Velocity P-wave (km/s) = 8.26394 4.20204 5.03167
#
# Compressibility (1/GPa) = 0.01332068
#
# Stress axis : x y z
#
# Youngs Moduli (GPa) = 88.58201 96.52590 77.83878
#
# Poissons Ratio (x) = 0.29999 0.30330
# Poissons Ratio (y) = 0.27530 0.27892
# Poissons Ratio (z) = 0.34516 0.34588
#
# Static dielectric constant tensor:
#      x y z
#    x 12.661850 0.000000 0.000000 
#    y 0.000000 3.666700 0.000000 
#    z 0.000000 0.000000 3.410960 
# 
# 
# High freq. dielectric constant tensor:
#      x y z
#    x 1.721160 0.000000 0.000000 
#    y 0.000000 1.752980 0.000000 
#    z 0.000000 0.000000 1.722920 
# 
# From -- ./inp_files/5430.got.cif
#   From: 2010.03.12/outbox.cif.g09.slc.cpg/sg35_3_cif.got.tgz:5430.got - 2010.04.14 02:02:04.
