data_PCOD8173684
_publ_section_title
;
Structure prediction by ZEFSAII (Michael W. Deem and Ramdas Pophale) SiO2 
 PCOD8173684
Probable space group: C M M 2
;
_chemical_formula_sum "Si O2"
_cell_formula_units_Z 64
_cell_length_a 23.083054
_cell_length_b 15.096857
_cell_length_c 9.319111
_cell_angle_alpha 90.000000
_cell_angle_beta 90.000000
_cell_angle_gamma 90.000000
_cell_volume 3247.538389
_symmetry_space_group_name_H-M "C M M 2"
_symmetry_group_IT_number 35
_symmetry_cell_setting 'orthorhombic'
loop_
_space_group_symop_operation_xyz
x,y,z
-x,-y,z
-x,y,z
x,-y,z
1/2+x,1/2+y,z
1/2-x,1/2-y,z
1/2-x,1/2+y,z
1/2+x,1/2-y,z
loop_
_atom_site_type_symbol
_atom_site_label
_atom_site_fract_x
_atom_site_fract_y
_atom_site_fract_z
Si Si1 0.148867 0.098769 0.423620
Si Si2 0.436175 0.901659 0.994830
Si Si3 0.884722 0.719847 0.785709
Si Si4 0.242694 0.646266 0.236626
Si Si5 0.834883 0.903089 0.750033
Si Si6 0.067461 0.255418 0.475078
Si Si7 0.770876 0.349045 0.914768
Si Si8 0.881304 0.600251 0.287446
O O1 0.199876 0.105051 0.306478
O O2 0.174692 0.115459 0.581804
O O3 0.097404 0.169665 0.400764
O O4 0.122151 0.000000 0.411218
O O5 0.500000 0.901098 0.064411
O O6 0.389466 0.881334 0.118205
O O7 0.423943 0.000000 0.927981
O O8 0.436552 0.822252 0.877850
O O9 0.872742 0.823989 0.822382
O O10 0.900039 0.714642 0.619329
O O11 0.832493 0.653783 0.833545
O O12 0.250000 0.750000 0.240067
O O13 0.185590 0.620572 0.328061
O O14 0.231569 0.609737 0.075207
O O15 0.771289 0.907028 0.817026
O O16 0.864704 0.000000 0.774904
O O17 0.073831 0.337795 0.370013
O O18 0.000000 0.233741 0.503319
O O19 0.750000 0.250000 0.926925
O O20 0.897190 0.500000 0.327897
#
# Coordination Sequence:
#
# PCOD8173684 Si02
#       8
#     8   8   8   8   8   8   8   8
#     4  10  22  39  60  87 119 156 199 245 296 353
#     4  10  21  38  59  82 112 153 199 246 297 356
#     4  10  20  38  59  83 117 152 199 245 293 352
#     4  11  20  36  61  89 120 152 191 243 300 360
#     4   9  20  35  55  84 119 153 188 236 296 353
#     4  11  24  40  61  87 118 161 205 248 297 349
#     4   9  19  33  54  84 116 149 186 231 291 348
#     4  11  23  39  59  85 118 154 196 245 300 358
#
# _framework density 19.707232000000001
#
# number of rings (size 3 to 8) (size 9 to 14) (size 15 to 20)
#    0.000    1.875    2.500    1.125    1.750    3.500 
#    0.000    0.000    0.000    1.125    0.000    0.000 
#    0.000    0.000    0.000    0.000    0.000    0.000 
#
# Total GULP energy -396581.839705 kJ/mol
# GULP energy per Si atom -12393.182491 kJ/mol
# Density = 1.966238 g / cm^3
# Si number density = 19.707232 Si / 1000 Ang^3
#
#
#
# Elastic Constant Matrix: (Units=GPa)
#
#
# Indices 1 2 3 4 5 6 
#
# 1 95.0912 39.1896 39.5271 0.0000 0.0000 0.0000
# 2 39.1896 132.8143 52.3762 0.0000 0.0000 0.0000
# 3 39.5271 52.3762 73.9541 0.0000 0.0000 0.0000
# 4 0.0000 0.0000 0.0000 25.5651 0.0000 0.0000
# 5 0.0000 0.0000 0.0000 0.0000 28.8667 0.0000
# 6 0.0000 0.0000 0.0000 0.0000 0.0000 22.9022
#
#
#
# Elastic Compliance Matrix: (Units=1/GPa)
#
#
# Indices 1 2 3 4 5 6 
#
# 1 0.013764 -0.001610 -0.006216 0.000000 0.000000 0.000000
# 2 -0.001610 0.010635 -0.006672 0.000000 0.000000 0.000000
# 3 -0.006216 -0.006672 0.021570 0.000000 0.000000 0.000000
# 4 0.000000 0.000000 0.000000 0.039116 0.000000 0.000000
# 5 0.000000 0.000000 0.000000 0.000000 0.034642 0.000000
# 6 0.000000 0.000000 0.000000 0.000000 0.000000 0.043664
#
#
# Mechanical properties :
#
#
# Convention : Reuss Voigt Hill
#
# Bulk Modulus (GPa) = 58.91818 62.67170 60.79494
# Shear Modulus (GPa) = 25.24693 26.85125 26.04909
#
# Velocity S-wave (km/s) = 3.58313 3.69522 3.63961
# Velocity P-wave (km/s) = 6.86149 7.07648 6.96982
#
# Compressibility (1/GPa) = 0.01697269
#
# Stress axis : x y z
#
# Youngs Moduli (GPa) = 72.65529 94.02554 46.36158
#
# Poissons Ratio (x) = 0.15136 0.28820
# Poissons Ratio (y) = 0.11696 0.30932
# Poissons Ratio (z) = 0.45165 0.62733
#
# Static dielectric constant tensor:
#      x y z
#    x 3.551470 0.000000 0.000000 
#    y 0.000000 3.672350 0.000000 
#    z 0.000000 0.000000 3.529470 
# 
# 
# High freq. dielectric constant tensor:
#      x y z
#    x 1.757230 0.000000 0.000000 
#    y 0.000000 1.775520 0.000000 
#    z 0.000000 0.000000 1.756220 
# 
# From -- ./inp_files/9924.got.cif
#   From: 2010.03.12/outbox.cif.g09.slc.cpg/sg35_5_cif.got.tgz:9924.got - 2010.04.14 02:02:04.
