data_PCOD8173159
_publ_section_title
;
Structure prediction by ZEFSAII (Michael W. Deem and Ramdas Pophale) SiO2 
 PCOD8173159
Probable space group: C M M 2
;
_chemical_formula_sum "Si O2"
_cell_formula_units_Z 56
_cell_length_a 8.503075
_cell_length_b 23.361422
_cell_length_c 15.395452
_cell_angle_alpha 90.000000
_cell_angle_beta 90.000000
_cell_angle_gamma 90.000000
_cell_volume 3058.212987
_symmetry_space_group_name_H-M "C M M 2"
_symmetry_group_IT_number 35
_symmetry_cell_setting 'orthorhombic'
loop_
_space_group_symop_operation_xyz
x,y,z
-x,-y,z
-x,y,z
x,-y,z
1/2+x,1/2+y,z
1/2-x,1/2-y,z
1/2-x,1/2+y,z
1/2+x,1/2-y,z
loop_
_atom_site_type_symbol
_atom_site_label
_atom_site_fract_x
_atom_site_fract_y
_atom_site_fract_z
Si Si1 0.184025 0.618630 0.000000
Si Si2 0.684335 0.500000 0.751414
Si Si3 0.683904 0.312472 0.843404
Si Si4 0.684505 0.116988 0.686748
Si Si5 0.688070 0.500000 0.949765
Si Si6 0.683819 0.686097 0.155908
Si Si7 0.818674 0.812414 0.347851
Si Si8 0.815613 0.313983 0.522133
O O1 0.288054 0.651552 0.929734
O O2 0.239688 0.553477 0.000319
O O3 0.000000 0.623944 0.977864
O O4 0.218466 0.644639 0.094115
O O5 0.500000 0.500000 0.757880
O O6 0.737199 0.444411 0.699137
O O7 0.750009 0.500000 0.850003
O O8 0.500000 0.310976 0.821793
O O9 0.750000 0.250000 0.860427
O O10 0.775941 0.340466 0.764408
O O11 0.500000 0.107221 0.682609
O O12 0.750564 0.145294 0.598258
O O13 0.500000 0.500000 0.955429
O O14 0.500000 0.687180 0.130880
O O15 0.750000 0.750000 0.147660
O O16 0.707146 0.659339 0.253105
O O17 0.750000 0.750000 0.339089
O O18 0.731751 0.842799 0.429236
O O19 0.000000 0.808810 0.372811
O O20 0.750000 0.250000 0.531821
O O21 0.000000 0.309789 0.530695
#
# Coordination Sequence:
#
# PCOD8173159 Si02
#       8
#     8   4   8   8   4   8   8   8
#     4  12  24  38  58  82 109 145 184 227 275 326
#     4  11  23  39  61  82 104 143 188 232 277 323
#     4  12  24  38  55  79 111 146 181 223 274 327
#     4  11  23  38  57  81 110 145 184 229 275 325
#     4  11  23  41  61  82 106 141 188 232 275 323
#     4  10  20  35  55  83 116 148 184 227 275 329
#     4   9  17  30  52  79 110 147 182 221 269 323
#     4  10  20  33  53  82 114 147 181 223 274 326
#
# _framework density 18.311347000000001
#
# number of rings (size 3 to 8) (size 9 to 14) (size 15 to 20)
#    0.000    1.286    1.429    6.429    0.000    5.714 
#    0.000    0.000    0.000    0.857    0.000    4.000 
#    0.000    0.000    0.000    0.000    0.000    0.000 
#
# Total GULP energy -347197.719432 kJ/mol
# GULP energy per Si atom -12399.918551 kJ/mol
# Density = 1.826967 g / cm^3
# Si number density = 18.311347 Si / 1000 Ang^3
#
#
#
# Elastic Constant Matrix: (Units=GPa)
#
#
# Indices 1 2 3 4 5 6 
#
# 1 56.8286 19.0439 18.5060 0.0000 0.0000 0.0000
# 2 19.0439 100.5955 46.4575 0.0000 0.0000 0.0000
# 3 18.5060 46.4575 127.3563 0.0000 0.0000 0.0000
# 4 0.0000 0.0000 0.0000 130.8723 0.0000 0.0000
# 5 0.0000 0.0000 0.0000 0.0000 31.1731 0.0000
# 6 0.0000 0.0000 0.0000 0.0000 0.0000 30.2608
#
#
#
# Elastic Compliance Matrix: (Units=1/GPa)
#
#
# Indices 1 2 3 4 5 6 
#
# 1 0.019108 -0.002808 -0.001752 0.000000 0.000000 0.000000
# 2 -0.002808 0.012367 -0.004103 0.000000 0.000000 0.000000
# 3 -0.001752 -0.004103 0.009603 0.000000 0.000000 0.000000
# 4 0.000000 0.000000 0.000000 0.007641 0.000000 0.000000
# 5 0.000000 0.000000 0.000000 0.000000 0.032079 0.000000
# 6 0.000000 0.000000 0.000000 0.000000 0.000000 0.033046
#
#
# Mechanical properties :
#
#
# Convention : Reuss Voigt Hill
#
# Bulk Modulus (GPa) = 42.10229 50.31057 46.20643
# Shear Modulus (GPa) = 35.94787 51.84611 43.89699
#
# Velocity S-wave (km/s) = 4.43555 5.32683 4.90149
# Velocity P-wave (km/s) = 7.01958 8.08506 7.57109
#
# Compressibility (1/GPa) = 0.02375168
#
# Stress axis : x y z
#
# Youngs Moduli (GPa) = 52.33284 80.85720 104.12930
#
# Poissons Ratio (x) = 0.22707 0.18246
# Poissons Ratio (y) = 0.14696 0.42728
# Poissons Ratio (z) = 0.09170 0.33179
#
# Static dielectric constant tensor:
#      x y z
#    x 3.529560 0.000000 0.000000 
#    y 0.000000 3.240810 0.000000 
#    z 0.000000 0.000000 3.968180 
# 
# 
# High freq. dielectric constant tensor:
#      x y z
#    x 1.728260 0.000000 0.000000 
#    y 0.000000 1.684810 0.000000 
#    z 0.000000 0.000000 1.721270 
# 
# From -- ./inp_files/15736.got.cif
#   From: 2010.03.12/outbox.cif.g09.slc.cpg/sg35_8_cif.got.tgz:15736.got - 2010.04.14 02:02:04.
