data_PCOD8173560
_publ_section_title
;
Structure prediction by ZEFSAII (Michael W. Deem and Ramdas Pophale) SiO2 
 PCOD8173560
Probable space group: C M M 2
;
_chemical_formula_sum "Si O2"
_cell_formula_units_Z 48
_cell_length_a 9.784538
_cell_length_b 15.278801
_cell_length_c 16.915257
_cell_angle_alpha 90.000000
_cell_angle_beta 90.000000
_cell_angle_gamma 90.000000
_cell_volume 2528.763412
_symmetry_space_group_name_H-M "C M M 2"
_symmetry_group_IT_number 35
_symmetry_cell_setting 'orthorhombic'
loop_
_space_group_symop_operation_xyz
x,y,z
-x,-y,z
-x,y,z
x,-y,z
1/2+x,1/2+y,z
1/2-x,1/2-y,z
1/2-x,1/2+y,z
1/2+x,1/2-y,z
loop_
_atom_site_type_symbol
_atom_site_label
_atom_site_fract_x
_atom_site_fract_y
_atom_site_fract_z
Si Si1 0.652824 0.104552 0.206720
Si Si2 0.158720 0.169754 0.897043
Si Si3 0.337953 0.096692 0.379023
Si Si4 0.656584 0.398068 0.068053
Si Si5 0.341121 0.828219 0.541696
Si Si6 0.840923 0.000000 0.796058
Si Si7 0.156498 0.500000 0.642932
O O1 0.500000 0.138677 0.188294
O O2 0.703742 0.137349 0.293464
O O3 0.752444 0.141368 0.139003
O O4 0.654537 0.000000 0.208236
O O5 0.250000 0.250000 0.865957
O O6 0.197780 0.084917 0.846695
O O7 0.000000 0.193751 0.886445
O O8 0.194558 0.152268 0.988286
O O9 0.500000 0.086712 0.382265
O O10 0.289953 0.157177 0.451416
O O11 0.272668 0.000000 0.389217
O O12 0.500000 0.383479 0.091786
O O13 0.687540 0.500000 0.053926
O O14 0.500000 0.801776 0.545870
O O15 0.250000 0.750000 0.577688
O O16 0.311964 0.915221 0.590889
O O17 0.754239 0.000000 0.717280
O O18 0.000000 0.000000 0.773676
O O19 0.000000 0.500000 0.671995
#
# Coordination Sequence:
#
# PCOD8173560 Si02
#       7
#     8   8   8   8   8   4   4
#     4   8  14  24  44  75 104 135 182 229 265 305
#     4  10  21  38  59  83 110 145 183 221 268 325
#     4   8  13  27  51  74 101 142 185 222 262 313
#     4   9  16  30  51  73 104 144 181 218 267 320
#     4  10  20  36  58  83 111 145 183 223 268 321
#     4  10  22  42  64  83 110 144 176 217 276 332
#     4  10  22  40  62  85 110 142 180 219 268 330
#
# _framework density 18.981608000000001
#
# number of rings (size 3 to 8) (size 9 to 14) (size 15 to 20)
#    0.000    2.833    1.667    1.000    0.000    2.667 
#    0.000    5.000    0.000    5.000    0.000    0.000 
#    0.000    0.000    0.000    0.000    0.000    0.000 
#
# Total GULP energy -297526.439021 kJ/mol
# GULP energy per Si atom -12396.934959 kJ/mol
# Density = 1.893841 g / cm^3
# Si number density = 18.981608 Si / 1000 Ang^3
#
#
#
# Elastic Constant Matrix: (Units=GPa)
#
#
# Indices 1 2 3 4 5 6 
#
# 1 80.2921 59.6349 68.0797 0.0000 0.0000 0.0000
# 2 59.6349 105.7329 51.7947 0.0000 0.0000 0.0000
# 3 68.0797 51.7947 126.5199 0.0000 0.0000 0.0000
# 4 0.0000 0.0000 0.0000 1.5089 0.0000 0.0000
# 5 0.0000 0.0000 0.0000 0.0000 34.2027 0.0000
# 6 0.0000 0.0000 0.0000 0.0000 0.0000 27.5519
#
#
#
# Elastic Compliance Matrix: (Units=1/GPa)
#
#
# Indices 1 2 3 4 5 6 
#
# 1 0.031524 -0.011846 -0.012113 0.000000 0.000000 0.000000
# 2 -0.011846 0.016282 -0.000291 0.000000 0.000000 0.000000
# 3 -0.012113 -0.000291 0.014541 0.000000 0.000000 0.000000
# 4 0.000000 0.000000 0.000000 0.662742 0.000000 0.000000
# 5 0.000000 0.000000 0.000000 0.000000 0.029237 0.000000
# 6 0.000000 0.000000 0.000000 0.000000 0.000000 0.036295
#
#
# Mechanical properties :
#
#
# Convention : Reuss Voigt Hill
#
# Bulk Modulus (GPa) = 72.22388 74.61817 73.42103
# Shear Modulus (GPa) = 5.92602 21.52174 13.72388
#
# Velocity S-wave (km/s) = 1.76883 3.37088 2.69180
# Velocity P-wave (km/s) = 6.50413 7.38556 6.95882
#
# Compressibility (1/GPa) = 0.01384584
#
# Stress axis : x y z
#
# Youngs Moduli (GPa) = 31.72233 61.41861 68.77055
#
# Poissons Ratio (x) = 0.72756 0.83303
# Poissons Ratio (y) = 0.37578 0.02002
# Poissons Ratio (z) = 0.38426 0.01788
#
# Static dielectric constant tensor:
#      x y z
#    x 3.285920 0.000000 0.000000 
#    y 0.000000 3.285210 0.000000 
#    z 0.000000 0.000000 3.686660 
# 
# 
# High freq. dielectric constant tensor:
#      x y z
#    x 1.714470 0.000000 0.000000 
#    y 0.000000 1.724950 0.000000 
#    z 0.000000 0.000000 1.742620 
# 
# From -- ./inp_files/16718.got.cif
#   From: 2010.03.12/outbox.cif.g09.slc.cpg/sg35_9_cif.got.tgz:16718.got - 2010.04.14 02:02:04.
