data_PCOD8173236
_publ_section_title
;
Structure prediction by ZEFSAII (Michael W. Deem and Ramdas Pophale) SiO2 
 PCOD8173236
Probable space group: C M M 2
;
_chemical_formula_sum "Si O2"
_cell_formula_units_Z 48
_cell_length_a 18.698206
_cell_length_b 9.187746
_cell_length_c 15.036070
_cell_angle_alpha 90.000000
_cell_angle_beta 90.000000
_cell_angle_gamma 90.000000
_cell_volume 2583.112134
_symmetry_space_group_name_H-M "C M M 2"
_symmetry_group_IT_number 35
_symmetry_cell_setting 'orthorhombic'
loop_
_space_group_symop_operation_xyz
x,y,z
-x,-y,z
-x,y,z
x,-y,z
1/2+x,1/2+y,z
1/2-x,1/2-y,z
1/2-x,1/2+y,z
1/2+x,1/2-y,z
loop_
_atom_site_type_symbol
_atom_site_label
_atom_site_fract_x
_atom_site_fract_y
_atom_site_fract_z
Si Si1 0.175333 0.170840 0.095890
Si Si2 0.920420 0.172663 0.255908
Si Si3 0.821102 0.331082 0.584677
Si Si4 0.677745 0.170094 0.790262
Si Si5 0.082814 0.831946 0.924105
Si Si6 0.415480 0.336936 0.453647
O O1 0.250000 0.250000 0.082861
O O2 0.135671 0.233040 0.183702
O O3 0.189929 0.000000 0.103938
O O4 0.124987 0.208241 0.013115
O O5 0.893017 0.215399 0.354548
O O6 0.000000 0.237532 0.238196
O O7 0.925748 0.000000 0.247782
O O8 0.809902 0.500000 0.567166
O O9 0.750000 0.250000 0.553029
O O10 0.838186 0.297874 0.687262
O O11 0.886354 0.274296 0.526186
O O12 0.750000 0.250000 0.821725
O O13 0.610791 0.232689 0.843896
O O14 0.687108 0.000000 0.809878
O O15 0.000000 0.796225 0.940478
O O16 0.094043 0.000000 0.897957
O O17 0.500000 0.336582 0.460950
O O18 0.386230 0.500000 0.472133
#
# Coordination Sequence:
#
# PCOD8173236 Si02
#       6
#     8   8   8   8   8   8
#     4  10  20  34  53  77 105 136 171 211 255 305
#     4   8  15  31  54  76 100 134 174 212 251 300
#     4  10  21  36  54  76 104 138 175 215 260 309
#     4  10  21  37  56  77 103 137 174 214 261 310
#     4  10  21  36  55  79 105 136 174 214 257 306
#     4   9  18  33  54  79 106 138 175 214 258 307
#
# _framework density 18.582236999999999
#
# number of rings (size 3 to 8) (size 9 to 14) (size 15 to 20)
#    0.000    2.500    0.000    3.000    0.000    8.000 
#    0.000    5.833    0.000    2.500    0.000    0.000 
#    0.000    0.000    0.000    0.000    0.000    0.000 
#
# Total GULP energy -297636.047977 kJ/mol
# GULP energy per Si atom -12401.501999 kJ/mol
# Density = 1.853994 g / cm^3
# Si number density = 18.582237 Si / 1000 Ang^3
#
#
#
# Elastic Constant Matrix: (Units=GPa)
#
#
# Indices 1 2 3 4 5 6 
#
# 1 114.7331 51.2885 69.0291 0.0000 0.0000 0.0000
# 2 51.2885 72.2703 56.8608 0.0000 0.0000 0.0000
# 3 69.0291 56.8608 110.5023 0.0000 0.0000 0.0000
# 4 0.0000 0.0000 0.0000 17.3469 0.0000 0.0000
# 5 0.0000 0.0000 0.0000 0.0000 35.9610 0.0000
# 6 0.0000 0.0000 0.0000 0.0000 0.0000 31.6731
#
#
#
# Elastic Compliance Matrix: (Units=1/GPa)
#
#
# Indices 1 2 3 4 5 6 
#
# 1 0.015190 -0.005569 -0.006624 0.000000 0.000000 0.000000
# 2 -0.005569 0.025291 -0.009535 0.000000 0.000000 0.000000
# 3 -0.006624 -0.009535 0.018094 0.000000 0.000000 0.000000
# 4 0.000000 0.000000 0.000000 0.057647 0.000000 0.000000
# 5 0.000000 0.000000 0.000000 0.000000 0.027808 0.000000
# 6 0.000000 0.000000 0.000000 0.000000 0.000000 0.031573
#
#
# Mechanical properties :
#
#
# Convention : Reuss Voigt Hill
#
# Bulk Modulus (GPa) = 66.13818 72.42917 69.28368
# Shear Modulus (GPa) = 22.31162 25.01801 23.66482
#
# Velocity S-wave (km/s) = 3.46887 3.67323 3.57251
# Velocity P-wave (km/s) = 7.19121 7.55331 7.37448
#
# Compressibility (1/GPa) = 0.01511986
#
# Stress axis : x y z
#
# Youngs Moduli (GPa) = 65.83082 39.53959 55.26768
#
# Poissons Ratio (x) = 0.22019 0.36607
# Poissons Ratio (y) = 0.36661 0.52698
# Poissons Ratio (z) = 0.43604 0.37702
#
# Static dielectric constant tensor:
#      x y z
#    x 3.438380 0.000000 0.000000 
#    y 0.000000 3.275040 0.000000 
#    z 0.000000 0.000000 3.597790 
# 
# 
# High freq. dielectric constant tensor:
#      x y z
#    x 1.720850 0.000000 0.000000 
#    y 0.000000 1.701620 0.000000 
#    z 0.000000 0.000000 1.731110 
# 
# From -- ./inp_files/15083.got.cif
#   From: 2010.03.12/outbox.cif.g09.slc.cpg/sg35_8_cif.got.tgz:15083.got - 2010.04.14 02:02:04.
