data_PCOD8173414
_publ_section_title
;
Structure prediction by ZEFSAII (Michael W. Deem and Ramdas Pophale) SiO2 
 PCOD8173414
Probable space group: C M M 2
;
_chemical_formula_sum "Si O2"
_cell_formula_units_Z 56
_cell_length_a 9.048323
_cell_length_b 18.233839
_cell_length_c 17.755335
_cell_angle_alpha 90.000000
_cell_angle_beta 90.000000
_cell_angle_gamma 90.000000
_cell_volume 2929.375749
_symmetry_space_group_name_H-M "C M M 2"
_symmetry_group_IT_number 35
_symmetry_cell_setting 'orthorhombic'
loop_
_space_group_symop_operation_xyz
x,y,z
-x,-y,z
-x,y,z
x,-y,z
1/2+x,1/2+y,z
1/2-x,1/2-y,z
1/2-x,1/2+y,z
1/2+x,1/2-y,z
loop_
_atom_site_type_symbol
_atom_site_label
_atom_site_fract_x
_atom_site_fract_y
_atom_site_fract_z
Si Si1 0.670401 0.322585 0.454110
Si Si2 0.324578 0.917747 0.037983
Si Si3 0.674668 0.171824 0.894318
Si Si4 0.674402 0.674759 0.624193
Si Si5 0.324733 0.171591 0.183534
Si Si6 0.170744 0.415239 0.746028
Si Si7 0.671471 0.584505 0.313269
O O1 0.500000 0.302123 0.455116
O O2 0.750000 0.250000 0.423644
O O3 0.722261 0.343533 0.538401
O O4 0.704155 0.390085 0.398715
O O5 0.500000 0.921860 0.035684
O O6 0.270570 0.875994 0.112537
O O7 0.258121 0.000000 0.038535
O O8 0.265213 0.874803 0.965027
O O9 0.500000 0.182426 0.899436
O O10 0.750000 0.250000 0.895158
O O11 0.721809 0.129643 0.819036
O O12 0.500000 0.682876 0.633621
O O13 0.750000 0.750000 0.651563
O O14 0.731702 0.608381 0.674989
O O15 0.500000 0.181547 0.185222
O O16 0.250000 0.250000 0.177705
O O17 0.274135 0.130922 0.258624
O O18 0.200138 0.500000 0.763185
O O19 0.000000 0.400248 0.727168
O O20 0.500000 0.597188 0.292447
O O21 0.716404 0.500000 0.306986
#
# Coordination Sequence:
#
# PCOD8173414 Si02
#       7
#     8   8   8   8   8   8   8
#     4   9  19  35  55  78 104 138 178 218 262 315
#     4   9  18  34  56  80 106 138 176 217 262 313
#     4  10  20  35  56  79 105 139 178 218 261 312
#     4  10  20  35  56  80 107 140 178 219 264 316
#     4  11  22  36  56  81 109 141 180 222 264 314
#     4  10  21  36  54  78 108 141 178 221 269 318
#     4  10  21  37  56  79 109 142 176 218 268 318
#
# _framework density 19.116700999999999
#
# number of rings (size 3 to 8) (size 9 to 14) (size 15 to 20)
#    0.000    2.143    0.000    3.000    0.000    7.429 
#    0.000    2.143    0.000    3.000    0.000    0.000 
#    0.000    0.000    0.000    0.000    0.000    0.000 
#
# Total GULP energy -347294.553428 kJ/mol
# GULP energy per Si atom -12403.376908 kJ/mol
# Density = 1.907319 g / cm^3
# Si number density = 19.116701 Si / 1000 Ang^3
#
#
#
# Elastic Constant Matrix: (Units=GPa)
#
#
# Indices 1 2 3 4 5 6 
#
# 1 52.0846 46.5473 41.6280 0.0000 0.0000 0.0000
# 2 46.5473 161.8618 76.1257 0.0000 0.0000 0.0000
# 3 41.6280 76.1257 127.4781 0.0000 0.0000 0.0000
# 4 0.0000 0.0000 0.0000 37.5820 0.0000 0.0000
# 5 0.0000 0.0000 0.0000 0.0000 17.2517 0.0000
# 6 0.0000 0.0000 0.0000 0.0000 0.0000 26.0018
#
#
#
# Elastic Compliance Matrix: (Units=1/GPa)
#
#
# Indices 1 2 3 4 5 6 
#
# 1 0.029028 -0.005409 -0.006249 0.000000 0.000000 0.000000
# 2 -0.005409 0.009599 -0.003966 0.000000 0.000000 0.000000
# 3 -0.006249 -0.003966 0.012253 0.000000 0.000000 0.000000
# 4 0.000000 0.000000 0.000000 0.026608 0.000000 0.000000
# 5 0.000000 0.000000 0.000000 0.000000 0.057965 0.000000
# 6 0.000000 0.000000 0.000000 0.000000 0.000000 0.038459
#
#
# Mechanical properties :
#
#
# Convention : Reuss Voigt Hill
#
# Bulk Modulus (GPa) = 50.93563 74.44738 62.69150
# Shear Modulus (GPa) = 23.61792 27.97534 25.79663
#
# Velocity S-wave (km/s) = 3.51872 3.82959 3.67744
# Velocity P-wave (km/s) = 6.57351 7.65392 7.13420
#
# Compressibility (1/GPa) = 0.01963262
#
# Stress axis : x y z
#
# Youngs Moduli (GPa) = 34.44989 104.18130 81.60983
#
# Poissons Ratio (x) = 0.56347 0.50999
# Poissons Ratio (y) = 0.18632 0.32365
# Poissons Ratio (z) = 0.21528 0.41317
#
# Static dielectric constant tensor:
#      x y z
#    x 3.337670 0.000000 0.000000 
#    y 0.000000 3.580920 0.000000 
#    z 0.000000 0.000000 3.712060 
# 
# 
# High freq. dielectric constant tensor:
#      x y z
#    x 1.725570 0.000000 0.000000 
#    y 0.000000 1.750960 0.000000 
#    z 0.000000 0.000000 1.757790 
# 
# From -- ./inp_files/15620.got.cif
#   From: 2010.03.12/outbox.cif.g09.slc.cpg/sg35_8_cif.got.tgz:15620.got - 2010.04.14 02:02:04.
