data_PCOD8173424
_publ_section_title
;
Structure prediction by ZEFSAII (Michael W. Deem and Ramdas Pophale) SiO2 
 PCOD8173424
Probable space group: C M M 2
;
_chemical_formula_sum "Si O2"
_cell_formula_units_Z 48
_cell_length_a 15.656574
_cell_length_b 8.964095
_cell_length_c 16.885534
_cell_angle_alpha 90.000000
_cell_angle_beta 90.000000
_cell_angle_gamma 90.000000
_cell_volume 2369.834322
_symmetry_space_group_name_H-M "C M M 2"
_symmetry_group_IT_number 35
_symmetry_cell_setting 'orthorhombic'
loop_
_space_group_symop_operation_xyz
x,y,z
-x,-y,z
-x,y,z
x,-y,z
1/2+x,1/2+y,z
1/2-x,1/2-y,z
1/2-x,1/2+y,z
1/2+x,1/2-y,z
loop_
_atom_site_type_symbol
_atom_site_label
_atom_site_fract_x
_atom_site_fract_y
_atom_site_fract_z
Si Si1 0.000000 0.823855 0.861260
Si Si2 0.662329 0.325366 0.756860
Si Si3 0.098498 0.171756 0.284741
Si Si4 0.162438 0.175758 0.578004
Si Si5 0.338404 0.676724 0.113718
Si Si6 0.000000 0.321952 0.029251
Si Si7 0.097013 0.337819 0.435674
O O1 0.083875 0.778565 0.811845
O O2 0.000000 0.721712 0.937669
O O3 0.000000 0.000000 0.881646
O O4 0.678739 0.500000 0.759603
O O5 0.750000 0.250000 0.786533
O O6 0.638933 0.274572 0.667329
O O7 0.151897 0.211319 0.206613
O O8 0.139985 0.259885 0.359114
O O9 0.000000 0.213598 0.267656
O O10 0.106498 0.000000 0.307185
O O11 0.250000 0.250000 0.550672
O O12 0.095423 0.238303 0.515026
O O13 0.167592 0.000000 0.571205
O O14 0.338898 0.500000 0.095986
O O15 0.250000 0.750000 0.083977
O O16 0.415636 0.752713 0.067384
O O17 0.000000 0.500000 0.039364
O O18 0.140239 0.500000 0.450459
O O19 0.000000 0.359799 0.411200
#
# Coordination Sequence:
#
# PCOD8173424 Si02
#       7
#     4   8   8   8   8   4   8
#     4  10  22  42  66  91 120 159 198 243 304 369
#     4   9  20  38  62  89 120 156 199 248 302 358
#     4   9  18  36  59  82 115 160 204 250 303 355
#     4  10  20  35  56  80 112 153 197 246 298 352
#     4  11  23  42  67  96 126 163 206 253 308 368
#     4  12  26  44  66  95 128 163 202 249 306 369
#     4  10  21  34  51  81 118 157 200 246 295 345
#
# _framework density 20.254581999999999
#
# number of rings (size 3 to 8) (size 9 to 14) (size 15 to 20)
#    0.000    2.000    0.833    2.250    1.167    5.000 
#    0.000    3.333    0.000    0.000    0.000    0.000 
#    0.000    0.000    0.000    0.000    0.000    0.000 
#
# Total GULP energy -297557.845054 kJ/mol
# GULP energy per Si atom -12398.243544 kJ/mol
# Density = 2.020848 g / cm^3
# Si number density = 20.254582 Si / 1000 Ang^3
#
#
#
# Elastic Constant Matrix: (Units=GPa)
#
#
# Indices 1 2 3 4 5 6 
#
# 1 120.7530 57.1308 61.7369 0.0000 0.0000 0.0000
# 2 57.1308 113.2110 64.6260 0.0000 0.0000 0.0000
# 3 61.7369 64.6260 120.5069 0.0000 0.0000 0.0000
# 4 0.0000 0.0000 0.0000 32.1171 0.0000 0.0000
# 5 0.0000 0.0000 0.0000 0.0000 -2.3633 0.0000
# 6 0.0000 0.0000 0.0000 0.0000 0.0000 31.3087
#
#
#
# Elastic Compliance Matrix: (Units=1/GPa)
#
#
# Indices 1 2 3 4 5 6 
#
# 1 0.012228 -0.003739 -0.004259 0.000000 0.000000 0.000000
# 2 -0.003739 0.013874 -0.005525 0.000000 0.000000 0.000000
# 3 -0.004259 -0.005525 0.013443 0.000000 0.000000 0.000000
# 4 0.000000 0.000000 0.000000 0.031136 0.000000 0.000000
# 5 0.000000 0.000000 0.000000 0.000000 -0.423129 0.000000
# 6 0.000000 0.000000 0.000000 0.000000 0.000000 0.031940
#
#
# Mechanical properties :
#
#
# Convention : Reuss Voigt Hill
#
# Bulk Modulus (GPa) = 80.00899 80.16203 80.08551
# Shear Modulus (GPa) = -17.28339 23.61097 3.16379
#
# Velocity S-wave (km/s) = -2.92431 3.41795 1.25116
# Velocity P-wave (km/s) = 5.30898 7.43234 6.45852
#
# Compressibility (1/GPa) = 0.01249860
#
# Stress axis : x y z
#
# Youngs Moduli (GPa) = 81.77835 72.07815 74.38801
#
# Poissons Ratio (x) = 0.26954 0.31683
# Poissons Ratio (y) = 0.30581 0.41096
# Poissons Ratio (z) = 0.34831 0.39820
#
# Static dielectric constant tensor:
#      x y z
#    x 3.546000 0.000000 0.000000 
#    y 0.000000 3.808160 0.000000 
#    z 0.000000 0.000000 3.729620 
# 
# 
# High freq. dielectric constant tensor:
#      x y z
#    x 1.784380 0.000000 0.000000 
#    y 0.000000 1.794260 0.000000 
#    z 0.000000 0.000000 1.793930 
# 
# From -- ./inp_files/17135.got.cif
#   From: 2010.03.12/outbox.cif.g09.slc.cpg/sg35_9_cif.got.tgz:17135.got - 2010.04.14 02:02:04.
