data_PCOD8173139
_publ_section_title
;
Structure prediction by ZEFSAII (Michael W. Deem and Ramdas Pophale) SiO2 
 PCOD8173139
Probable space group: C M M 2
;
_chemical_formula_sum "Si O2"
_cell_formula_units_Z 48
_cell_length_a 18.818685
_cell_length_b 9.077307
_cell_length_c 15.099200
_cell_angle_alpha 90.000000
_cell_angle_beta 90.000000
_cell_angle_gamma 90.000000
_cell_volume 2579.290356
_symmetry_space_group_name_H-M "C M M 2"
_symmetry_group_IT_number 35
_symmetry_cell_setting 'orthorhombic'
loop_
_space_group_symop_operation_xyz
x,y,z
-x,-y,z
-x,y,z
x,-y,z
1/2+x,1/2+y,z
1/2-x,1/2-y,z
1/2-x,1/2+y,z
1/2+x,1/2-y,z
loop_
_atom_site_type_symbol
_atom_site_label
_atom_site_fract_x
_atom_site_fract_y
_atom_site_fract_z
Si Si1 0.173706 0.675135 0.888790
Si Si2 0.920654 0.674633 0.724334
Si Si3 0.677659 0.173031 0.568020
Si Si4 0.583177 0.335984 0.235537
Si Si5 0.081991 0.171271 0.033015
Si Si6 0.821810 0.328027 0.367565
O O1 0.183307 0.500000 0.890076
O O2 0.250000 0.750000 0.882687
O O3 0.127117 0.730634 0.805669
O O4 0.133321 0.725350 0.976851
O O5 0.925676 0.500000 0.727111
O O6 0.885442 0.727357 0.632154
O O7 0.000000 0.742854 0.730976
O O8 0.750000 0.250000 0.598600
O O9 0.657288 0.217848 0.467775
O O10 0.690172 0.000000 0.577475
O O11 0.500000 0.331425 0.250863
O O12 0.612179 0.500000 0.256527
O O13 0.601135 0.294222 0.134673
O O14 0.616227 0.218419 0.301781
O O15 0.000000 0.211502 0.013157
O O16 0.095851 0.000000 0.011285
O O17 0.809347 0.500000 0.360179
O O18 0.750000 0.250000 0.336980
#
# Coordination Sequence:
#
# PCOD8173139 Si02
#       6
#     8   8   8   8   8   8
#     4  11  22  35  54  79 106 138 175 214 257 305
#     4   9  18  33  53  77 104 134 169 210 257 308
#     4   9  18  33  53  75 102 136 171 210 255 303
#     4   9  19  36  56  77 104 138 172 211 262 313
#     4   9  19  37  58  78 103 136 172 212 261 313
#     4  10  20  33  52  78 106 139 177 216 258 304
#
# _framework density 18.609770000000001
#
# number of rings (size 3 to 8) (size 9 to 14) (size 15 to 20)
#    0.000    2.500    0.000    3.000    0.000    4.000 
#    0.000    4.167    0.000    2.500    0.000    0.000 
#    0.000    0.000    0.000    0.000    0.000    0.000 
#
# Total GULP energy -297617.763484 kJ/mol
# GULP energy per Si atom -12400.740145 kJ/mol
# Density = 1.856741 g / cm^3
# Si number density = 18.609770 Si / 1000 Ang^3
#
#
#
# Elastic Constant Matrix: (Units=GPa)
#
#
# Indices 1 2 3 4 5 6 
#
# 1 129.3221 45.2897 80.0223 0.0000 0.0000 0.0000
# 2 45.2897 56.4603 41.1059 0.0000 0.0000 0.0000
# 3 80.0223 41.1059 115.9317 0.0000 0.0000 0.0000
# 4 0.0000 0.0000 0.0000 22.9023 0.0000 0.0000
# 5 0.0000 0.0000 0.0000 0.0000 36.7190 0.0000
# 6 0.0000 0.0000 0.0000 0.0000 0.0000 26.7152
#
#
#
# Elastic Compliance Matrix: (Units=1/GPa)
#
#
# Indices 1 2 3 4 5 6 
#
# 1 0.014869 -0.006005 -0.008134 0.000000 0.000000 0.000000
# 2 -0.006005 0.026300 -0.005180 0.000000 0.000000 0.000000
# 3 -0.008134 -0.005180 0.016077 0.000000 0.000000 0.000000
# 4 0.000000 0.000000 0.000000 0.043664 0.000000 0.000000
# 5 0.000000 0.000000 0.000000 0.000000 0.027234 0.000000
# 6 0.000000 0.000000 0.000000 0.000000 0.000000 0.037432
#
#
# Mechanical properties :
#
#
# Convention : Reuss Voigt Hill
#
# Bulk Modulus (GPa) = 53.74236 70.50555 62.12395
# Shear Modulus (GPa) = 23.76237 26.28702 25.02470
#
# Velocity S-wave (km/s) = 3.57722 3.76245 3.67100
# Velocity P-wave (km/s) = 6.78257 7.53945 7.17100
#
# Compressibility (1/GPa) = 0.01860730
#
# Stress axis : x y z
#
# Youngs Moduli (GPa) = 67.25450 38.02283 62.20035
#
# Poissons Ratio (x) = 0.22833 0.50594
# Poissons Ratio (y) = 0.40387 0.32221
# Poissons Ratio (z) = 0.54705 0.19696
#
# Static dielectric constant tensor:
#      x y z
#    x 3.478080 0.000000 0.000000 
#    y 0.000000 3.369810 0.000000 
#    z 0.000000 0.000000 3.548090 
# 
# 
# High freq. dielectric constant tensor:
#      x y z
#    x 1.723510 0.000000 0.000000 
#    y 0.000000 1.706570 0.000000 
#    z 0.000000 0.000000 1.732190 
# 
# From -- ./inp_files/15075.got.cif
#   From: 2010.03.12/outbox.cif.g09.slc.cpg/sg35_8_cif.got.tgz:15075.got - 2010.04.14 02:02:04.
