data_PCOD8173789
_publ_section_title
;
Structure prediction by ZEFSAII (Michael W. Deem and Ramdas Pophale) SiO2 
 PCOD8173789
Probable space group: C M M 2
;
_chemical_formula_sum "Si O2"
_cell_formula_units_Z 64
_cell_length_a 8.745178
_cell_length_b 19.765706
_cell_length_c 19.802954
_cell_angle_alpha 90.000000
_cell_angle_beta 90.000000
_cell_angle_gamma 90.000000
_cell_volume 3423.032034
_symmetry_space_group_name_H-M "C M M 2"
_symmetry_group_IT_number 35
_symmetry_cell_setting 'orthorhombic'
loop_
_space_group_symop_operation_xyz
x,y,z
-x,-y,z
-x,y,z
x,-y,z
1/2+x,1/2+y,z
1/2-x,1/2-y,z
1/2-x,1/2+y,z
1/2+x,1/2-y,z
loop_
_atom_site_type_symbol
_atom_site_label
_atom_site_fract_x
_atom_site_fract_y
_atom_site_fract_z
Si Si1 0.824962 0.421758 0.310840
Si Si2 0.679706 0.320465 0.566023
Si Si3 0.677641 0.578901 0.814939
Si Si4 0.180836 0.321318 0.709782
Si Si5 0.177678 0.818500 0.213568
Si Si6 0.677077 0.078691 0.956136
Si Si7 0.681407 0.679343 0.060143
Si Si8 0.675999 0.921493 0.465362
O O1 0.792738 0.500000 0.297136
O O2 0.717436 0.380797 0.261090
O O3 0.785690 0.403629 0.388009
O O4 0.000000 0.403604 0.295140
O O5 0.500000 0.311763 0.576092
O O6 0.750000 0.250000 0.539714
O O7 0.754102 0.341584 0.636865
O O8 0.712294 0.378347 0.511827
O O9 0.500000 0.596922 0.807286
O O10 0.709547 0.500000 0.802041
O O11 0.775343 0.619890 0.761059
O O12 0.732508 0.600309 0.889105
O O13 0.250000 0.250000 0.734568
O O14 0.000000 0.314340 0.705275
O O15 0.250000 0.750000 0.242955
O O16 0.234275 0.832622 0.137372
O O17 0.000000 0.806742 0.213712
O O18 0.500000 0.097019 0.946150
O O19 0.700545 0.000000 0.971930
O O20 0.746852 0.118297 0.018720
O O21 0.500000 0.679937 0.051414
O O22 0.750000 0.750000 0.033262
O O23 0.500000 0.903971 0.481558
O O24 0.708113 0.000000 0.479692
#
# Coordination Sequence:
#
# PCOD8173789 Si02
#       8
#     8   8   8   8   8   8   8   8
#     4   9  19  36  57  80 108 142 179 221 269 321
#     4  11  22  37  57  81 110 143 181 223 269 320
#     4  10  21  38  59  83 112 144 180 223 268 316
#     4  11  22  38  59  82 111 144 181 224 269 319
#     4  10  21  36  55  79 108 142 180 224 270 320
#     4  10  21  37  57  82 111 143 180 221 267 320
#     4  10  21  37  56  79 108 142 181 224 271 320
#     4   9  19  37  58  80 108 142 180 222 269 320
#
# _framework density 18.696874999999999
#
# number of rings (size 3 to 8) (size 9 to 14) (size 15 to 20)
#    0.000    2.000    0.000    5.250    0.000    6.000 
#    0.000    6.250    0.000    0.000    0.000    0.000 
#    0.000    0.000    0.000    0.000    0.000    0.000 
#
# Total GULP energy -396935.218667 kJ/mol
# GULP energy per Si atom -12404.225583 kJ/mol
# Density = 1.865432 g / cm^3
# Si number density = 18.696875 Si / 1000 Ang^3
#
#
#
# Elastic Constant Matrix: (Units=GPa)
#
#
# Indices 1 2 3 4 5 6 
#
# 1 113.0832 47.1407 46.7813 0.0000 0.0000 0.0000
# 2 47.1407 85.3536 64.6421 0.0000 0.0000 0.0000
# 3 46.7813 64.6421 95.3670 0.0000 0.0000 0.0000
# 4 0.0000 0.0000 0.0000 67.0754 0.0000 0.0000
# 5 0.0000 0.0000 0.0000 0.0000 34.9983 0.0000
# 6 0.0000 0.0000 0.0000 0.0000 0.0000 35.9530
#
#
#
# Elastic Compliance Matrix: (Units=1/GPa)
#
#
# Indices 1 2 3 4 5 6 
#
# 1 0.011848 -0.004402 -0.002828 0.000000 0.000000 0.000000
# 2 -0.004402 0.025710 -0.015268 0.000000 0.000000 0.000000
# 3 -0.002828 -0.015268 0.022222 0.000000 0.000000 0.000000
# 4 0.000000 0.000000 0.000000 0.014909 0.000000 0.000000
# 5 0.000000 0.000000 0.000000 0.000000 0.028573 0.000000
# 6 0.000000 0.000000 0.000000 0.000000 0.000000 0.027814
#
#
# Mechanical properties :
#
#
# Convention : Reuss Voigt Hill
#
# Bulk Modulus (GPa) = 67.63772 67.88135 67.75953
# Shear Modulus (GPa) = 27.62449 36.62131 32.12290
#
# Velocity S-wave (km/s) = 3.84799 4.43051 4.14948
# Velocity P-wave (km/s) = 7.48312 7.90934 7.69918
#
# Compressibility (1/GPa) = 0.01478465
#
# Stress axis : x y z
#
# Youngs Moduli (GPa) = 84.40241 38.89568 45.00031
#
# Poissons Ratio (x) = 0.17120 0.12728
# Poissons Ratio (y) = 0.37150 0.68705
# Poissons Ratio (z) = 0.23873 0.59384
#
# Static dielectric constant tensor:
#      x y z
#    x 3.487060 0.000000 0.000000 
#    y 0.000000 3.364560 0.000000 
#    z 0.000000 0.000000 3.427060 
# 
# 
# High freq. dielectric constant tensor:
#      x y z
#    x 1.737800 0.000000 0.000000 
#    y 0.000000 1.727680 0.000000 
#    z 0.000000 0.000000 1.727510 
# 
# From -- ./inp_files/18435.got.cif
#   From: 2010.03.12/outbox.cif.g09.slc.cpg/sg35_10_cif.got.tgz:18435.got - 2010.04.14 02:02:04.
