data_PCOD8173600
_publ_section_title
;
Structure prediction by ZEFSAII (Michael W. Deem and Ramdas Pophale) SiO2 
 PCOD8173600
Probable space group: C M M 2
;
_chemical_formula_sum "Si O2"
_cell_formula_units_Z 48
_cell_length_a 15.811426
_cell_length_b 8.768902
_cell_length_c 16.735396
_cell_angle_alpha 90.000000
_cell_angle_beta 90.000000
_cell_angle_gamma 90.000000
_cell_volume 2320.343327
_symmetry_space_group_name_H-M "C M M 2"
_symmetry_group_IT_number 35
_symmetry_cell_setting 'orthorhombic'
loop_
_space_group_symop_operation_xyz
x,y,z
-x,-y,z
-x,y,z
x,-y,z
1/2+x,1/2+y,z
1/2-x,1/2-y,z
1/2-x,1/2+y,z
1/2+x,1/2-y,z
loop_
_atom_site_type_symbol
_atom_site_label
_atom_site_fract_x
_atom_site_fract_y
_atom_site_fract_z
Si Si1 0.335650 0.178932 0.676440
Si Si2 0.596512 0.674297 0.184313
Si Si3 0.000000 0.180319 0.948484
Si Si4 0.403836 0.320723 0.522803
Si Si5 0.337850 0.179604 0.034189
Si Si6 0.000000 0.319845 0.776615
Si Si7 0.159666 0.820722 0.353424
O O1 0.250000 0.250000 0.713810
O O2 0.344424 0.235923 0.585615
O O3 0.416795 0.229472 0.727632
O O4 0.325517 0.000000 0.676227
O O5 0.500000 0.691210 0.156848
O O6 0.627536 0.500000 0.173414
O O7 0.653107 0.782007 0.128295
O O8 0.603847 0.725342 0.276583
O O9 0.000000 0.221179 0.855882
O O10 0.084376 0.248411 0.986800
O O11 0.000000 0.000000 0.961536
O O12 0.500000 0.278814 0.542635
O O13 0.387190 0.500000 0.529184
O O14 0.383312 0.258084 0.434136
O O15 0.250000 0.250000 0.001725
O O16 0.336964 0.000000 0.020259
O O17 0.000000 0.500000 0.795644
O O18 0.250000 0.750000 0.340573
O O19 0.168336 0.000000 0.360375
#
# Coordination Sequence:
#
# PCOD8173600 Si02
#       7
#     8   8   4   8   8   4   8
#     4  11  23  41  65  94 128 167 210 258 314 374
#     4  10  20  37  61  87 122 166 215 265 319 377
#     4  12  26  46  72 101 132 167 208 259 322 387
#     4  10  20  36  59  86 120 163 214 264 315 373
#     4  12  25  43  68  98 133 172 216 264 318 382
#     4  10  24  46  68  93 130 167 204 257 316 379
#     4  10  21  35  52  81 119 164 212 264 316 369
#
# _framework density 20.686592999999998
#
# number of rings (size 3 to 8) (size 9 to 14) (size 15 to 20)
#    0.000    1.333    1.667    4.250    0.000    8.000 
#    0.000    1.667    0.000    3.000    0.000    0.000 
#    0.000    0.000    0.000    0.000    0.000    0.000 
#
# Total GULP energy -297684.572504 kJ/mol
# GULP energy per Si atom -12403.523854 kJ/mol
# Density = 2.063951 g / cm^3
# Si number density = 20.686593 Si / 1000 Ang^3
#
#
#
# Elastic Constant Matrix: (Units=GPa)
#
#
# Indices 1 2 3 4 5 6 
#
# 1 157.6425 61.4394 54.7839 0.0000 0.0000 0.0000
# 2 61.4394 96.8440 50.6285 0.0000 0.0000 0.0000
# 3 54.7839 50.6285 116.0078 0.0000 0.0000 0.0000
# 4 0.0000 0.0000 0.0000 35.0749 0.0000 0.0000
# 5 0.0000 0.0000 0.0000 0.0000 17.6637 0.0000
# 6 0.0000 0.0000 0.0000 0.0000 0.0000 34.4658
#
#
#
# Elastic Compliance Matrix: (Units=1/GPa)
#
#
# Indices 1 2 3 4 5 6 
#
# 1 0.008855 -0.004446 -0.002241 0.000000 0.000000 0.000000
# 2 -0.004446 0.015611 -0.004713 0.000000 0.000000 0.000000
# 3 -0.002241 -0.004713 0.011736 0.000000 0.000000 0.000000
# 4 0.000000 0.000000 0.000000 0.028510 0.000000 0.000000
# 5 0.000000 0.000000 0.000000 0.000000 0.056613 0.000000
# 6 0.000000 0.000000 0.000000 0.000000 0.000000 0.029014
#
#
# Mechanical properties :
#
#
# Convention : Reuss Voigt Hill
#
# Bulk Modulus (GPa) = 74.62739 78.24419 76.43579
# Shear Modulus (GPa) = 28.15197 31.01703 29.58450
#
# Velocity S-wave (km/s) = 3.69301 3.87638 3.78581
# Velocity P-wave (km/s) = 7.37143 7.61189 7.49263
#
# Compressibility (1/GPa) = 0.01339991
#
# Stress axis : x y z
#
# Youngs Moduli (GPa) = 112.92749 64.05934 85.21124
#
# Poissons Ratio (x) = 0.28482 0.19100
# Poissons Ratio (y) = 0.50209 0.40161
# Poissons Ratio (z) = 0.25312 0.30192
#
# Static dielectric constant tensor:
#      x y z
#    x 3.922130 0.000000 0.000000 
#    y 0.000000 3.618060 0.000000 
#    z 0.000000 0.000000 3.933780 
# 
# 
# High freq. dielectric constant tensor:
#      x y z
#    x 1.824350 0.000000 0.000000 
#    y 0.000000 1.799610 0.000000 
#    z 0.000000 0.000000 1.813080 
# 
# From -- ./inp_files/18767.got.cif
#   From: 2010.03.12/outbox.cif.g09.slc.cpg/sg35_10_cif.got.tgz:18767.got - 2010.04.14 02:02:04.
