data_PCOD8173732
_publ_section_title
;
Structure prediction by ZEFSAII (Michael W. Deem and Ramdas Pophale) SiO2 
 PCOD8173732
Probable space group: C M M 2
;
_chemical_formula_sum "Si O2"
_cell_formula_units_Z 64
_cell_length_a 9.190949
_cell_length_b 19.231610
_cell_length_c 20.382023
_cell_angle_alpha 90.000000
_cell_angle_beta 90.000000
_cell_angle_gamma 90.000000
_cell_volume 3602.660077
_symmetry_space_group_name_H-M "C M M 2"
_symmetry_group_IT_number 35
_symmetry_cell_setting 'orthorhombic'
loop_
_space_group_symop_operation_xyz
x,y,z
-x,-y,z
-x,y,z
x,-y,z
1/2+x,1/2+y,z
1/2-x,1/2-y,z
1/2-x,1/2+y,z
1/2+x,1/2-y,z
loop_
_atom_site_type_symbol
_atom_site_label
_atom_site_fract_x
_atom_site_fract_y
_atom_site_fract_z
Si Si1 0.664976 0.582206 0.088490
Si Si2 0.168290 0.681231 0.996810
Si Si3 0.830025 0.320176 0.843850
Si Si4 0.172511 0.923187 0.234499
Si Si5 0.670925 0.580725 0.748876
Si Si6 0.170042 0.823174 0.630023
Si Si7 0.333285 0.320553 0.487802
Si Si8 0.329112 0.676796 0.346355
O O1 0.500000 0.606552 0.074162
O O2 0.677319 0.500000 0.081577
O O3 0.772663 0.615544 0.036205
O O4 0.712946 0.604928 0.161992
O O5 0.250000 0.750000 0.021290
O O6 0.000000 0.691330 0.012331
O O7 0.197194 0.667650 0.920462
O O8 0.750000 0.250000 0.819546
O O9 0.760831 0.386766 0.808675
O O10 0.000000 0.313429 0.826739
O O11 0.237222 0.872996 0.290415
O O12 0.000000 0.928010 0.240706
O O13 0.239366 0.000000 0.245201
O O14 0.500000 0.590107 0.762654
O O15 0.712682 0.500000 0.742073
O O16 0.720534 0.619677 0.682482
O O17 0.250000 0.750000 0.641861
O O18 0.206465 0.856924 0.557578
O O19 0.000000 0.807619 0.637622
O O20 0.500000 0.299596 0.489682
O O21 0.250000 0.250000 0.484571
O O22 0.300552 0.359793 0.418499
O O23 0.500000 0.689094 0.335066
O O24 0.250000 0.750000 0.340686
#
# Coordination Sequence:
#
# PCOD8173732 Si02
#       8
#     8   8   8   8   8   8   8   8
#     4   9  18  33  52  72  97 131 166 199 239 288
#     4  10  21  36  54  76 101 126 156 198 243 286
#     4  10  21  37  56  76  98 126 160 198 239 286
#     4   8  15  29  47  67  93 125 160 195 231 276
#     4  10  21  35  50  71 101 133 162 197 241 286
#     4   9  17  30  48  69  93 123 160 198 237 283
#     4   8  14  25  42  65  91 119 153 193 236 280
#     4   9  16  27  45  68  93 121 155 196 239 280
#
# _framework density 17.764652000000002
#
# number of rings (size 3 to 8) (size 9 to 14) (size 15 to 20)
#    0.000    2.875    0.000    1.875    0.000    4.500 
#    0.000    5.000    0.000    4.875    0.000    0.000 
#    0.000   10.000    0.000    0.000    0.000    0.000 
#
# Total GULP energy -396541.753784 kJ/mol
# GULP energy per Si atom -12391.929806 kJ/mol
# Density = 1.772422 g / cm^3
# Si number density = 17.764652 Si / 1000 Ang^3
#
#
#
# Elastic Constant Matrix: (Units=GPa)
#
#
# Indices 1 2 3 4 5 6 
#
# 1 57.4092 39.9926 50.3585 0.0000 0.0000 0.0000
# 2 39.9926 92.8111 67.1977 0.0000 0.0000 0.0000
# 3 50.3585 67.1977 118.3446 0.0000 0.0000 0.0000
# 4 0.0000 0.0000 0.0000 18.3766 0.0000 0.0000
# 5 0.0000 0.0000 0.0000 0.0000 23.4405 0.0000
# 6 0.0000 0.0000 0.0000 0.0000 0.0000 25.4369
#
#
#
# Elastic Compliance Matrix: (Units=1/GPa)
#
#
# Indices 1 2 3 4 5 6 
#
# 1 0.029759 -0.006206 -0.009139 0.000000 0.000000 0.000000
# 2 -0.006206 0.019591 -0.008483 0.000000 0.000000 0.000000
# 3 -0.009139 -0.008483 0.017156 0.000000 0.000000 0.000000
# 4 0.000000 0.000000 0.000000 0.054417 0.000000 0.000000
# 5 0.000000 0.000000 0.000000 0.000000 0.042661 0.000000
# 6 0.000000 0.000000 0.000000 0.000000 0.000000 0.039313
#
#
# Mechanical properties :
#
#
# Convention : Reuss Voigt Hill
#
# Bulk Modulus (GPa) = 53.05457 64.85139 58.95298
# Shear Modulus (GPa) = 19.46765 20.85187 20.15976
#
# Velocity S-wave (km/s) = 3.31398 3.42977 3.37237
# Velocity P-wave (km/s) = 6.67633 7.22977 6.95855
#
# Compressibility (1/GPa) = 0.01884852
#
# Stress axis : x y z
#
# Youngs Moduli (GPa) = 33.60330 51.04438 58.29001
#
# Poissons Ratio (x) = 0.31679 0.53272
# Poissons Ratio (y) = 0.20855 0.49447
# Poissons Ratio (z) = 0.30711 0.43301
#
# Static dielectric constant tensor:
#      x y z
#    x 3.139240 0.000000 0.000000 
#    y 0.000000 3.101400 0.000000 
#    z 0.000000 0.000000 3.857550 
# 
# 
# High freq. dielectric constant tensor:
#      x y z
#    x 1.673810 0.000000 0.000000 
#    y 0.000000 1.661330 0.000000 
#    z 0.000000 0.000000 1.707460 
# 
# From -- ./inp_files/18299.got.cif
#   From: 2010.03.12/outbox.cif.g09.slc.cpg/sg35_10_cif.got.tgz:18299.got - 2010.04.14 02:02:04.
