data_PCOD8173710
_publ_section_title
;
Structure prediction by ZEFSAII (Michael W. Deem and Ramdas Pophale) SiO2 
 PCOD8173710
Probable space group: C M M 2
;
_chemical_formula_sum "Si O2"
_cell_formula_units_Z 40
_cell_length_a 8.589135
_cell_length_b 15.658461
_cell_length_c 14.377779
_cell_angle_alpha 90.000000
_cell_angle_beta 90.000000
_cell_angle_gamma 90.000000
_cell_volume 1933.705389
_symmetry_space_group_name_H-M "C M M 2"
_symmetry_group_IT_number 35
_symmetry_cell_setting 'orthorhombic'
loop_
_space_group_symop_operation_xyz
x,y,z
-x,-y,z
-x,y,z
x,-y,z
1/2+x,1/2+y,z
1/2-x,1/2-y,z
1/2-x,1/2+y,z
1/2+x,1/2-y,z
loop_
_atom_site_type_symbol
_atom_site_label
_atom_site_fract_x
_atom_site_fract_y
_atom_site_fract_z
Si Si1 0.676239 0.596292 0.152420
Si Si2 0.684712 0.657370 0.531115
Si Si3 0.316476 0.161229 0.971211
Si Si4 0.315907 0.158483 0.332613
Si Si5 0.815391 0.000000 0.653372
Si Si6 0.815436 0.000000 0.864311
O O1 0.500000 0.630798 0.163260
O O2 0.675352 0.500000 0.113859
O O3 0.763635 0.594985 0.251247
O O4 0.767612 0.654306 0.079019
O O5 0.500000 0.663347 0.529309
O O6 0.750000 0.750000 0.560211
O O7 0.743439 0.628394 0.429876
O O8 0.746189 0.585880 0.602956
O O9 0.500000 0.160024 0.962171
O O10 0.250000 0.250000 0.930816
O O11 0.246563 0.084677 0.912239
O O12 0.500000 0.160970 0.342945
O O13 0.250000 0.250000 0.303564
O O14 0.754099 0.000000 0.758492
O O15 0.000000 0.000000 0.649519
O O16 0.000000 0.000000 0.870137
#
# Coordination Sequence:
#
# PCOD8173710 Si02
#       6
#     8   8   8   8   4   4
#     4  11  23  39  61  89 125 167 208 254 309 368
#     4  10  20  39  62  90 123 163 207 253 307 366
#     4  12  25  43  67  95 128 167 210 258 313 374
#     4  11  22  37  57  86 123 163 207 254 302 361
#     4   9  22  41  66  91 122 161 201 252 316 377
#     4  11  23  45  68  95 128 161 207 262 320 379
#
# _framework density 20.685673000000001
#
# number of rings (size 3 to 8) (size 9 to 14) (size 15 to 20)
#    0.000    1.200    1.000    6.900    1.400    2.000 
#    0.000    7.500    0.000    0.000    0.000    0.000 
#    0.000    0.000    0.000    0.000    0.000    0.000 
#
# Total GULP energy -248080.518514 kJ/mol
# GULP energy per Si atom -12404.025926 kJ/mol
# Density = 2.063859 g / cm^3
# Si number density = 20.685673 Si / 1000 Ang^3
#
#
#
# Elastic Constant Matrix: (Units=GPa)
#
#
# Indices 1 2 3 4 5 6 
#
# 1 144.1809 53.0105 49.1867 0.0000 0.0000 0.0000
# 2 53.0105 146.3915 78.7478 0.0000 0.0000 0.0000
# 3 49.1867 78.7478 142.5402 0.0000 0.0000 0.0000
# 4 0.0000 0.0000 0.0000 19.6603 0.0000 0.0000
# 5 0.0000 0.0000 0.0000 0.0000 24.5964 0.0000
# 6 0.0000 0.0000 0.0000 0.0000 0.0000 34.9037
#
#
#
# Elastic Compliance Matrix: (Units=1/GPa)
#
#
# Indices 1 2 3 4 5 6 
#
# 1 0.008284 -0.002080 -0.001709 0.000000 0.000000 0.000000
# 2 -0.002080 0.010242 -0.004940 0.000000 0.000000 0.000000
# 3 -0.001709 -0.004940 0.010335 0.000000 0.000000 0.000000
# 4 0.000000 0.000000 0.000000 0.050864 0.000000 0.000000
# 5 0.000000 0.000000 0.000000 0.000000 0.040656 0.000000
# 6 0.000000 0.000000 0.000000 0.000000 0.000000 0.028650
#
#
# Mechanical properties :
#
#
# Convention : Reuss Voigt Hill
#
# Bulk Modulus (GPa) = 87.71471 88.33360 88.02416
# Shear Modulus (GPa) = 29.36158 32.64325 31.00241
#
# Velocity S-wave (km/s) = 3.77160 3.97679 3.87555
# Velocity P-wave (km/s) = 7.83979 7.99262 7.91657
#
# Compressibility (1/GPa) = 0.01140060
#
# Stress axis : x y z
#
# Youngs Moduli (GPa) = 120.71978 97.63881 96.76094
#
# Poissons Ratio (x) = 0.20311 0.16539
# Poissons Ratio (y) = 0.25112 0.47804
# Poissons Ratio (z) = 0.20634 0.48237
#
# Static dielectric constant tensor:
#      x y z
#    x 3.759300 0.000000 0.000000 
#    y 0.000000 3.958840 0.000000 
#    z 0.000000 0.000000 3.844920 
# 
# 
# High freq. dielectric constant tensor:
#      x y z
#    x 1.815470 0.000000 0.000000 
#    y 0.000000 1.818600 0.000000 
#    z 0.000000 0.000000 1.807500 
# 
# From -- ./inp_files/14766.got.cif
#   From: 2010.03.12/outbox.cif.g09.slc.cpg/sg35_8_cif.got.tgz:14766.got - 2010.04.14 02:02:04.
