data_PCOD8173746
_publ_section_title
;
Structure prediction by ZEFSAII (Michael W. Deem and Ramdas Pophale) SiO2 
 PCOD8173746
Probable space group: C M M 2
;
_chemical_formula_sum "Si O2"
_cell_formula_units_Z 64
_cell_length_a 8.856138
_cell_length_b 18.918266
_cell_length_c 20.693552
_cell_angle_alpha 90.000000
_cell_angle_beta 90.000000
_cell_angle_gamma 90.000000
_cell_volume 3467.055115
_symmetry_space_group_name_H-M "C M M 2"
_symmetry_group_IT_number 35
_symmetry_cell_setting 'orthorhombic'
loop_
_space_group_symop_operation_xyz
x,y,z
-x,-y,z
-x,y,z
x,-y,z
1/2+x,1/2+y,z
1/2-x,1/2-y,z
1/2-x,1/2+y,z
1/2+x,1/2-y,z
loop_
_atom_site_type_symbol
_atom_site_label
_atom_site_fract_x
_atom_site_fract_y
_atom_site_fract_z
Si Si1 0.178364 0.827226 0.016060
Si Si2 0.326245 0.082476 0.125072
Si Si3 0.821411 0.919377 0.499877
Si Si4 0.676946 0.173658 0.889783
Si Si5 0.323498 0.174239 0.748309
Si Si6 0.821395 0.173223 0.380210
Si Si7 0.674750 0.581248 0.258431
Si Si8 0.321563 0.080303 0.631620
O O1 0.250000 0.750000 0.024932
O O2 0.221668 0.875340 0.076128
O O3 0.000000 0.820071 0.011640
O O4 0.242147 0.865116 0.950319
O O5 0.500000 0.104623 0.116032
O O6 0.275611 0.102171 0.197229
O O7 0.301255 0.000000 0.111854
O O8 0.761426 0.870297 0.442014
O O9 0.751104 0.889293 0.566127
O O10 0.000000 0.915856 0.505293
O O11 0.767603 0.000000 0.487305
O O12 0.500000 0.178792 0.904687
O O13 0.750000 0.250000 0.886252
O O14 0.707689 0.138839 0.819240
O O15 0.500000 0.185542 0.739041
O O16 0.250000 0.250000 0.740639
O O17 0.258126 0.123160 0.693089
O O18 0.750000 0.250000 0.379488
O O19 0.770615 0.130665 0.316719
O O20 0.000000 0.180594 0.382863
O O21 0.500000 0.594250 0.241070
O O22 0.700864 0.500000 0.279066
O O23 0.500000 0.086974 0.625801
O O24 0.269471 0.000000 0.641992
#
# Coordination Sequence:
#
# PCOD8173746 Si02
#       8
#     8   8   8   8   8   8   8   8
#     4  11  21  34  54  78 105 137 174 215 258 306
#     4  10  21  37  56  79 107 137 171 212 256 304
#     4   9  18  34  54  73  95 129 171 207 242 291
#     4   9  16  29  48  71  99 131 169 209 252 302
#     4   9  18  31  49  72  98 130 167 207 251 300
#     4  10  21  35  52  76 105 133 162 204 253 298
#     4   9  18  35  57  76  97 132 174 209 246 297
#     4   9  18  33  51  72  99 130 165 205 249 297
#
# _framework density 18.45947
#
# number of rings (size 3 to 8) (size 9 to 14) (size 15 to 20)
#    0.000    2.500    0.000    3.000    0.000    5.250 
#    0.000    4.375    0.000    6.000    0.000    0.000 
#    0.000    0.000    0.000    0.000    0.000    0.000 
#
# Total GULP energy -396715.208843 kJ/mol
# GULP energy per Si atom -12397.350276 kJ/mol
# Density = 1.841746 g / cm^3
# Si number density = 18.459470 Si / 1000 Ang^3
#
#
#
# Elastic Constant Matrix: (Units=GPa)
#
#
# Indices 1 2 3 4 5 6 
#
# 1 72.8602 33.2268 54.7873 0.0000 0.0000 0.0000
# 2 33.2268 79.6892 77.8451 0.0000 0.0000 0.0000
# 3 54.7873 77.8451 170.8679 0.0000 0.0000 0.0000
# 4 0.0000 0.0000 0.0000 32.6981 0.0000 0.0000
# 5 0.0000 0.0000 0.0000 0.0000 33.3781 0.0000
# 6 0.0000 0.0000 0.0000 0.0000 0.0000 25.8908
#
#
#
# Elastic Compliance Matrix: (Units=1/GPa)
#
#
# Indices 1 2 3 4 5 6 
#
# 1 0.018605 -0.003478 -0.004381 0.000000 0.000000 0.000000
# 2 -0.003478 0.023262 -0.009483 0.000000 0.000000 0.000000
# 3 -0.004381 -0.009483 0.011578 0.000000 0.000000 0.000000
# 4 0.000000 0.000000 0.000000 0.030583 0.000000 0.000000
# 5 0.000000 0.000000 0.000000 0.000000 0.029960 0.000000
# 6 0.000000 0.000000 0.000000 0.000000 0.000000 0.038624
#
#
# Mechanical properties :
#
#
# Convention : Reuss Voigt Hill
#
# Bulk Modulus (GPa) = 53.30075 72.79285 63.04680
# Shear Modulus (GPa) = 25.83327 28.89727 27.36527
#
# Velocity S-wave (km/s) = 3.74499 3.96086 3.85444
# Velocity P-wave (km/s) = 6.90196 7.77415 7.35100
#
# Compressibility (1/GPa) = 0.01876146
#
# Stress axis : x y z
#
# Youngs Moduli (GPa) = 53.74796 42.98821 86.37422
#
# Poissons Ratio (x) = 0.14950 0.37843
# Poissons Ratio (y) = 0.18692 0.81907
# Poissons Ratio (z) = 0.23548 0.40765
#
# Static dielectric constant tensor:
#      x y z
#    x 3.361070 0.000000 0.000000 
#    y 0.000000 3.242320 0.000000 
#    z 0.000000 0.000000 3.950610 
# 
# 
# High freq. dielectric constant tensor:
#      x y z
#    x 1.713990 0.000000 0.000000 
#    y 0.000000 1.690910 0.000000 
#    z 0.000000 0.000000 1.736580 
# 
# From -- ./inp_files/18437.got.cif
#   From: 2010.03.12/outbox.cif.g09.slc.cpg/sg35_10_cif.got.tgz:18437.got - 2010.04.14 02:02:04.
