data_PCOD8173405
_publ_section_title
;
Structure prediction by ZEFSAII (Michael W. Deem and Ramdas Pophale) SiO2 
 PCOD8173405
Probable space group: C M M 2
;
_chemical_formula_sum "Si O2"
_cell_formula_units_Z 48
_cell_length_a 15.621358
_cell_length_b 8.685906
_cell_length_c 17.180837
_cell_angle_alpha 90.000000
_cell_angle_beta 90.000000
_cell_angle_gamma 90.000000
_cell_volume 2331.192987
_symmetry_space_group_name_H-M "C M M 2"
_symmetry_group_IT_number 35
_symmetry_cell_setting 'orthorhombic'
loop_
_space_group_symop_operation_xyz
x,y,z
-x,-y,z
-x,y,z
x,-y,z
1/2+x,1/2+y,z
1/2-x,1/2-y,z
1/2-x,1/2+y,z
1/2+x,1/2-y,z
loop_
_atom_site_type_symbol
_atom_site_label
_atom_site_fract_x
_atom_site_fract_y
_atom_site_fract_z
Si Si1 0.156332 0.181825 0.496290
Si Si2 0.653925 0.182805 0.338714
Si Si3 0.500000 0.816896 0.073880
Si Si4 0.096346 0.822469 0.827421
Si Si5 0.000000 0.818139 0.242289
Si Si6 0.657310 0.319474 0.664158
Si Si7 0.336432 0.820355 0.975812
O O1 0.250000 0.250000 0.503342
O O2 0.113592 0.266234 0.422461
O O3 0.111990 0.219877 0.580307
O O4 0.158193 0.000000 0.479211
O O5 0.750000 0.250000 0.325896
O O6 0.587362 0.245297 0.275569
O O7 0.659268 0.000000 0.332803
O O8 0.500000 0.719054 0.151727
O O9 0.417044 0.763253 0.025577
O O10 0.500000 0.000000 0.090280
O O11 0.103252 0.761052 0.738323
O O12 0.000000 0.796999 0.855255
O O13 0.123825 0.000000 0.832222
O O14 0.156171 0.727921 0.885464
O O15 0.000000 0.000000 0.257422
O O16 0.668775 0.500000 0.667873
O O17 0.750000 0.250000 0.670855
O O18 0.250000 0.750000 0.012046
O O19 0.328248 0.000000 0.980350
#
# Coordination Sequence:
#
# PCOD8173405 Si02
#       7
#     8   8   4   8   4   8   8
#     4   9  16  30  52  80 114 156 205 253 304 357
#     4  11  22  40  65  93 128 166 208 255 307 366
#     4  10  24  46  66  89 126 159 192 247 304 363
#     4  10  20  35  55  81 118 160 205 253 302 355
#     4  12  26  44  68  97 126 161 202 247 308 373
#     4   9  18  31  49  77 111 153 202 252 302 352
#     4  11  23  41  65  92 122 159 201 245 301 360
#
# _framework density 20.590313999999999
#
# number of rings (size 3 to 8) (size 9 to 14) (size 15 to 20)
#    0.000    1.833    0.833    4.750    0.000    4.667 
#    1.500    1.667    0.000    0.000    0.000    0.000 
#    0.000    0.000    0.000    0.000    0.000    0.000 
#
# Total GULP energy -297428.978841 kJ/mol
# GULP energy per Si atom -12392.874118 kJ/mol
# Density = 2.054345 g / cm^3
# Si number density = 20.590314 Si / 1000 Ang^3
#
#
#
# Elastic Constant Matrix: (Units=GPa)
#
#
# Indices 1 2 3 4 5 6 
#
# 1 113.2279 45.5599 62.0081 0.0000 0.0000 0.0000
# 2 45.5599 96.9851 54.0213 0.0000 0.0000 0.0000
# 3 62.0081 54.0213 146.7572 0.0000 0.0000 0.0000
# 4 0.0000 0.0000 0.0000 34.4042 0.0000 0.0000
# 5 0.0000 0.0000 0.0000 0.0000 23.3007 0.0000
# 6 0.0000 0.0000 0.0000 0.0000 0.0000 28.0739
#
#
#
# Elastic Compliance Matrix: (Units=1/GPa)
#
#
# Indices 1 2 3 4 5 6 
#
# 1 0.012450 -0.003671 -0.003909 0.000000 0.000000 0.000000
# 2 -0.003671 0.014053 -0.003622 0.000000 0.000000 0.000000
# 3 -0.003909 -0.003622 0.009799 0.000000 0.000000 0.000000
# 4 0.000000 0.000000 0.000000 0.029066 0.000000 0.000000
# 5 0.000000 0.000000 0.000000 0.000000 0.042917 0.000000
# 6 0.000000 0.000000 0.000000 0.000000 0.000000 0.035620
#
#
# Mechanical properties :
#
#
# Convention : Reuss Voigt Hill
#
# Bulk Modulus (GPa) = 71.95447 75.57210 73.76329
# Shear Modulus (GPa) = 29.24997 30.18116 29.71556
#
# Velocity S-wave (km/s) = 3.77313 3.83272 3.80304
# Velocity P-wave (km/s) = 7.34872 7.50791 7.42874
#
# Compressibility (1/GPa) = 0.01389768
#
# Stress axis : x y z
#
# Youngs Moduli (GPa) = 80.32423 71.16074 102.05422
#
# Poissons Ratio (x) = 0.26123 0.39892
# Poissons Ratio (y) = 0.29487 0.36961
# Poissons Ratio (z) = 0.31398 0.25772
#
# Static dielectric constant tensor:
#      x y z
#    x 3.822060 0.000000 0.000000 
#    y 0.000000 3.719210 0.000000 
#    z 0.000000 0.000000 4.297330 
# 
# 
# High freq. dielectric constant tensor:
#      x y z
#    x 1.791930 0.000000 0.000000 
#    y 0.000000 1.803430 0.000000 
#    z 0.000000 0.000000 1.818650 
# 
# From -- ./inp_files/17840.got.cif
#   From: 2010.03.12/outbox.cif.g09.slc.cpg/sg35_9_cif.got.tgz:17840.got - 2010.04.14 02:02:04.
