data_PCOD8173304
_publ_section_title
;
Structure prediction by ZEFSAII (Michael W. Deem and Ramdas Pophale) SiO2 
 PCOD8173304
Probable space group: C M M 2
;
_chemical_formula_sum "Si O2"
_cell_formula_units_Z 56
_cell_length_a 18.474237
_cell_length_b 8.856931
_cell_length_c 18.075019
_cell_angle_alpha 90.000000
_cell_angle_beta 90.000000
_cell_angle_gamma 90.000000
_cell_volume 2957.525750
_symmetry_space_group_name_H-M "C M M 2"
_symmetry_group_IT_number 35
_symmetry_cell_setting 'orthorhombic'
loop_
_space_group_symop_operation_xyz
x,y,z
-x,-y,z
-x,y,z
x,-y,z
1/2+x,1/2+y,z
1/2-x,1/2-y,z
1/2-x,1/2+y,z
1/2+x,1/2-y,z
loop_
_atom_site_type_symbol
_atom_site_label
_atom_site_fract_x
_atom_site_fract_y
_atom_site_fract_z
Si Si1 0.171813 0.675442 0.949980
Si Si2 0.171689 0.821412 0.219535
Si Si3 0.583667 0.324703 0.362205
Si Si4 0.172392 0.675531 0.786275
Si Si5 0.916961 0.822211 0.077510
Si Si6 0.414831 0.827340 0.513515
Si Si7 0.170948 0.821771 0.642635
O O1 0.182836 0.500000 0.966491
O O2 0.250000 0.750000 0.960824
O O3 0.137873 0.700678 0.867496
O O4 0.113444 0.743453 0.004849
O O5 0.250000 0.750000 0.216849
O O6 0.130480 0.767335 0.293085
O O7 0.126662 0.764124 0.148899
O O8 0.178806 0.000000 0.218417
O O9 0.500000 0.295759 0.342735
O O10 0.597527 0.500000 0.379689
O O11 0.609005 0.227874 0.432477
O O12 0.178723 0.500000 0.766747
O O13 0.250000 0.750000 0.790723
O O14 0.131813 0.758338 0.717858
O O15 0.000000 0.774637 0.088034
O O16 0.908700 0.000000 0.067506
O O17 0.500000 0.808368 0.523546
O O18 0.377349 0.721854 0.573240
O O19 0.389997 0.000000 0.523762
O O20 0.250000 0.750000 0.633448
O O21 0.177852 0.000000 0.647566
#
# Coordination Sequence:
#
# PCOD8173304 Si02
#       7
#     8   8   8   8   8   8   8
#     4  10  20  34  55  81 108 140 178 221 268 318
#     4  10  21  36  55  80 108 138 174 218 267 317
#     4   9  18  35  57  77 101 137 179 219 262 316
#     4   9  17  31  51  76 106 139 176 219 268 318
#     4  10  21  37  56  78 107 143 181 221 267 318
#     4  10  21  37  56  79 109 143 179 220 267 318
#     4  11  21  34  55  81 109 141 180 223 267 317
#
# _framework density 18.934747999999999
#
# number of rings (size 3 to 8) (size 9 to 14) (size 15 to 20)
#    0.000    2.143    0.000    4.286    0.000    7.429 
#    0.000    2.143    0.000    3.429    0.000    0.000 
#    0.000    0.000    0.000    0.000    0.000    0.000 
#
# Total GULP energy -347168.462264 kJ/mol
# GULP energy per Si atom -12398.873652 kJ/mol
# Density = 1.889165 g / cm^3
# Si number density = 18.934748 Si / 1000 Ang^3
#
#
#
# Elastic Constant Matrix: (Units=GPa)
#
#
# Indices 1 2 3 4 5 6 
#
# 1 87.6248 43.7744 73.9245 0.0000 0.0000 0.0000
# 2 43.7744 99.5183 67.2368 0.0000 0.0000 0.0000
# 3 73.9245 67.2368 171.2907 0.0000 0.0000 0.0000
# 4 0.0000 0.0000 0.0000 34.5764 0.0000 0.0000
# 5 0.0000 0.0000 0.0000 0.0000 19.1584 0.0000
# 6 0.0000 0.0000 0.0000 0.0000 0.0000 29.0964
#
#
#
# Elastic Compliance Matrix: (Units=1/GPa)
#
#
# Indices 1 2 3 4 5 6 
#
# 1 0.018960 -0.003826 -0.006681 0.000000 0.000000 0.000000
# 2 -0.003826 0.014447 -0.004020 0.000000 0.000000 0.000000
# 3 -0.006681 -0.004020 0.010299 0.000000 0.000000 0.000000
# 4 0.000000 0.000000 0.000000 0.028921 0.000000 0.000000
# 5 0.000000 0.000000 0.000000 0.000000 0.052196 0.000000
# 6 0.000000 0.000000 0.000000 0.000000 0.000000 0.034369
#
#
# Mechanical properties :
#
#
# Convention : Reuss Voigt Hill
#
# Bulk Modulus (GPa) = 68.24498 80.92281 74.58389
# Shear Modulus (GPa) = 25.88932 28.13278 27.01105
#
# Velocity S-wave (km/s) = 3.70170 3.85876 3.78104
# Velocity P-wave (km/s) = 7.37500 7.91731 7.65096
#
# Compressibility (1/GPa) = 0.01465309
#
# Stress axis : x y z
#
# Youngs Moduli (GPa) = 52.74306 69.21770 97.09581
#
# Poissons Ratio (x) = 0.26483 0.64867
# Poissons Ratio (y) = 0.20180 0.39030
# Poissons Ratio (z) = 0.35236 0.27824
#
# Static dielectric constant tensor:
#      x y z
#    x 3.206860 0.000000 0.000000 
#    y 0.000000 3.571840 0.000000 
#    z 0.000000 0.000000 4.069560 
# 
# 
# High freq. dielectric constant tensor:
#      x y z
#    x 1.711010 0.000000 0.000000 
#    y 0.000000 1.740750 0.000000 
#    z 0.000000 0.000000 1.758540 
# 
# From -- ./inp_files/17400.got.cif
#   From: 2010.03.12/outbox.cif.g09.slc.cpg/sg35_9_cif.got.tgz:17400.got - 2010.04.14 02:02:04.
