data_PCOD8173606
_publ_section_title
;
Structure prediction by ZEFSAII (Michael W. Deem and Ramdas Pophale) SiO2 
 PCOD8173606
Probable space group: C M M 2
;
_chemical_formula_sum "Si O2"
_cell_formula_units_Z 40
_cell_length_a 8.683914
_cell_length_b 15.903919
_cell_length_c 14.509331
_cell_angle_alpha 90.000000
_cell_angle_beta 90.000000
_cell_angle_gamma 90.000000
_cell_volume 2003.858529
_symmetry_space_group_name_H-M "C M M 2"
_symmetry_group_IT_number 35
_symmetry_cell_setting 'orthorhombic'
loop_
_space_group_symop_operation_xyz
x,y,z
-x,-y,z
-x,y,z
x,-y,z
1/2+x,1/2+y,z
1/2-x,1/2-y,z
1/2-x,1/2+y,z
1/2+x,1/2-y,z
loop_
_atom_site_type_symbol
_atom_site_label
_atom_site_fract_x
_atom_site_fract_y
_atom_site_fract_z
Si Si1 0.182549 0.408148 0.868050
Si Si2 0.181698 0.663816 0.054045
Si Si3 0.317121 0.842570 0.474486
Si Si4 0.682538 0.000000 0.168272
Si Si5 0.318663 0.500000 0.367753
Si Si6 0.181699 0.660822 0.680050
O O1 0.234932 0.500000 0.899998
O O2 0.248698 0.393912 0.764792
O O3 0.000000 0.401539 0.863320
O O4 0.242998 0.345913 0.948212
O O5 0.250000 0.750000 0.095802
O O6 0.233834 0.583413 0.113238
O O7 0.000000 0.670414 0.056420
O O8 0.500000 0.837834 0.462273
O O9 0.250000 0.750000 0.450513
O O10 0.251092 0.914547 0.409334
O O11 0.268671 0.870686 0.578503
O O12 0.500000 0.000000 0.188101
O O13 0.779055 0.000000 0.261071
O O14 0.500000 0.500000 0.384202
O O15 0.250000 0.750000 0.700130
O O16 0.000000 0.665486 0.683753
#
# Coordination Sequence:
#
# PCOD8173606 Si02
#       6
#     8   8   8   4   4   8
#     4   9  16  29  52  82 115 152 194 229 267 333
#     4  10  20  36  60  86 114 151 190 233 284 340
#     4  10  21  39  62  90 122 158 199 243 293 350
#     4  10  22  42  61  82 112 148 193 240 293 358
#     4  12  26  42  63  88 116 152 195 250 307 358
#     4   9  18  31  53  81 114 152 191 232 275 332
#
# _framework density 19.961487999999999
#
# number of rings (size 3 to 8) (size 9 to 14) (size 15 to 20)
#    0.000    2.200    1.000    2.100    1.400    2.400 
#    0.000    2.000    0.000    1.200    0.000    0.000 
#    0.000    0.000    0.000    0.000    0.000    0.000 
#
# Total GULP energy -247821.905962 kJ/mol
# GULP energy per Si atom -12391.095298 kJ/mol
# Density = 1.991605 g / cm^3
# Si number density = 19.961488 Si / 1000 Ang^3
#
#
#
# Elastic Constant Matrix: (Units=GPa)
#
#
# Indices 1 2 3 4 5 6 
#
# 1 35.4819 34.6287 34.6471 0.0000 0.0000 0.0000
# 2 34.6287 153.7738 81.2100 0.0000 0.0000 0.0000
# 3 34.6471 81.2100 132.4040 0.0000 0.0000 0.0000
# 4 0.0000 0.0000 0.0000 24.7856 0.0000 0.0000
# 5 0.0000 0.0000 0.0000 0.0000 17.4024 0.0000
# 6 0.0000 0.0000 0.0000 0.0000 0.0000 31.9214
#
#
#
# Elastic Compliance Matrix: (Units=1/GPa)
#
#
# Indices 1 2 3 4 5 6 
#
# 1 0.040495 -0.005211 -0.007401 0.000000 0.000000 0.000000
# 2 -0.005211 0.010289 -0.004947 0.000000 0.000000 0.000000
# 3 -0.007401 -0.004947 0.012524 0.000000 0.000000 0.000000
# 4 0.000000 0.000000 0.000000 0.040346 0.000000 0.000000
# 5 0.000000 0.000000 0.000000 0.000000 0.057463 0.000000
# 6 0.000000 0.000000 0.000000 0.000000 0.000000 0.031327
#
#
# Mechanical properties :
#
#
# Convention : Reuss Voigt Hill
#
# Bulk Modulus (GPa) = 35.47276 69.18126 52.32701
# Shear Modulus (GPa) = 21.10068 26.23348 23.66708
#
# Velocity S-wave (km/s) = 3.25479 3.62913 3.44704
# Velocity P-wave (km/s) = 5.65102 7.23142 6.48951
#
# Compressibility (1/GPa) = 0.02819065
#
# Stress axis : x y z
#
# Youngs Moduli (GPa) = 24.69414 97.18850 79.84872
#
# Poissons Ratio (x) = 0.50644 0.59093
# Poissons Ratio (y) = 0.12868 0.39504
# Poissons Ratio (z) = 0.18275 0.48083
#
# Static dielectric constant tensor:
#      x y z
#    x 3.384080 0.000000 0.000000 
#    y 0.000000 3.781770 0.000000 
#    z 0.000000 0.000000 3.985030 
# 
# 
# High freq. dielectric constant tensor:
#      x y z
#    x 1.749420 0.000000 0.000000 
#    y 0.000000 1.786010 0.000000 
#    z 0.000000 0.000000 1.789550 
# 
# From -- ./inp_files/14747.got.cif
#   From: 2010.03.12/outbox.cif.g09.slc.cpg/sg35_8_cif.got.tgz:14747.got - 2010.04.14 02:02:04.
