data_PCOD8173728
_publ_section_title
;
Structure prediction by ZEFSAII (Michael W. Deem and Ramdas Pophale) SiO2 
 PCOD8173728
Probable space group: C M M 2
;
_chemical_formula_sum "Si O2"
_cell_formula_units_Z 48
_cell_length_a 30.226527
_cell_length_b 9.434721
_cell_length_c 10.019755
_cell_angle_alpha 90.000000
_cell_angle_beta 90.000000
_cell_angle_gamma 90.000000
_cell_volume 2857.422199
_symmetry_space_group_name_H-M "C M M 2"
_symmetry_group_IT_number 35
_symmetry_cell_setting 'orthorhombic'
loop_
_space_group_symop_operation_xyz
x,y,z
-x,-y,z
-x,y,z
x,-y,z
1/2+x,1/2+y,z
1/2-x,1/2-y,z
1/2-x,1/2+y,z
1/2+x,1/2-y,z
loop_
_atom_site_type_symbol
_atom_site_label
_atom_site_fract_x
_atom_site_fract_y
_atom_site_fract_z
Si Si1 0.614529 0.667981 0.592420
Si Si2 0.948807 0.836157 0.826088
Si Si3 0.448167 0.835058 0.087244
Si Si4 0.111223 0.831454 0.292049
Si Si5 0.210606 0.155765 0.287274
Si Si6 0.210701 0.156874 0.604192
O O1 0.618903 0.500000 0.586496
O O2 0.577741 0.718657 0.696889
O O3 0.601966 0.719162 0.443950
O O4 0.662810 0.725808 0.638434
O O5 0.000000 0.816527 0.791137
O O6 0.937821 0.000000 0.859796
O O7 0.934319 0.739023 0.949159
O O8 0.500000 0.814689 0.114217
O O9 0.422681 0.757168 0.204846
O O10 0.435076 0.000000 0.080921
O O11 0.161408 0.789253 0.250008
O O12 0.103447 0.000000 0.274569
O O13 0.250000 0.250000 0.224752
O O14 0.215089 0.149140 0.445617
O O15 0.217067 0.000000 0.226058
O O16 0.250000 0.250000 0.667362
O O17 0.215196 0.000000 0.666032
#
# Coordination Sequence:
#
# PCOD8173728 Si02
#       6
#     8   8   8   8   8   8
#     4   8  15  28  47  72  97 117 145 190 233 265
#     4   9  17  31  51  70  87 115 155 191 227 276
#     4  10  21  35  48  65  92 124 156 191 233 280
#     4   9  17  30  49  73  97 121 153 192 231 271
#     4   8  14  24  40  64  93 122 150 181 220 267
#     4   8  13  23  39  61  91 121 146 176 216 262
#
# _framework density 16.798358
#
# number of rings (size 3 to 8) (size 9 to 14) (size 15 to 20)
#    0.000    3.333    0.000    2.500    0.000    2.333 
#    0.000    5.833    0.000    3.000    0.000    2.333 
#    0.000    0.000    0.000    0.000    0.000    0.000 
#
# Total GULP energy -297439.690093 kJ/mol
# GULP energy per Si atom -12393.320421 kJ/mol
# Density = 1.676012 g / cm^3
# Si number density = 16.798358 Si / 1000 Ang^3
#
#
#
# Elastic Constant Matrix: (Units=GPa)
#
#
# Indices 1 2 3 4 5 6 
#
# 1 103.4733 54.3919 68.0407 0.0000 0.0000 0.0000
# 2 54.3919 75.2676 47.3165 0.0000 0.0000 0.0000
# 3 68.0407 47.3165 88.4611 0.0000 0.0000 0.0000
# 4 0.0000 0.0000 0.0000 13.2184 0.0000 0.0000
# 5 0.0000 0.0000 0.0000 0.0000 1.4794 0.0000
# 6 0.0000 0.0000 0.0000 0.0000 0.0000 29.7699
#
#
#
# Elastic Compliance Matrix: (Units=1/GPa)
#
#
# Indices 1 2 3 4 5 6 
#
# 1 0.022394 -0.008067 -0.012909 0.000000 0.000000 0.000000
# 2 -0.008067 0.022923 -0.006056 0.000000 0.000000 0.000000
# 3 -0.012909 -0.006056 0.024473 0.000000 0.000000 0.000000
# 4 0.000000 0.000000 0.000000 0.075652 0.000000 0.000000
# 5 0.000000 0.000000 0.000000 0.000000 0.675957 0.000000
# 6 0.000000 0.000000 0.000000 0.000000 0.000000 0.033591
#
#
# Mechanical properties :
#
#
# Convention : Reuss Voigt Hill
#
# Bulk Modulus (GPa) = 63.59587 67.41113 65.50350
# Shear Modulus (GPa) = 5.46869 15.39041 10.42955
#
# Velocity S-wave (km/s) = 1.80626 3.03014 2.49442
# Velocity P-wave (km/s) = 6.50313 7.24286 6.88294
#
# Compressibility (1/GPa) = 0.01572429
#
# Stress axis : x y z
#
# Youngs Moduli (GPa) = 44.65537 43.62451 40.86168
#
# Poissons Ratio (x) = 0.35194 0.52749
# Poissons Ratio (y) = 0.36026 0.24746
# Poissons Ratio (z) = 0.57646 0.26419
#
# Static dielectric constant tensor:
#      x y z
#    x 3.379550 0.000000 0.000000 
#    y 0.000000 3.186050 0.000000 
#    z 0.000000 0.000000 2.889530 
# 
# 
# High freq. dielectric constant tensor:
#      x y z
#    x 1.657570 0.000000 0.000000 
#    y 0.000000 1.629300 0.000000 
#    z 0.000000 0.000000 1.610470 
# 
# From -- ./inp_files/5342.got.cif
#   From: 2010.03.12/outbox.cif.g09.slc.cpg/sg35_3_cif.got.tgz:5342.got - 2010.04.14 02:02:04.
