data_PCOD8173937
_publ_section_title
;
Structure prediction by ZEFSAII (Michael W. Deem and Ramdas Pophale) SiO2 
 PCOD8173937
Probable space group: C M M 2
;
_chemical_formula_sum "Si O2"
_cell_formula_units_Z 64
_cell_length_a 19.143207
_cell_length_b 13.375485
_cell_length_c 11.943292
_cell_angle_alpha 90.000000
_cell_angle_beta 90.000000
_cell_angle_gamma 90.000000
_cell_volume 3058.076072
_symmetry_space_group_name_H-M "C M M 2"
_symmetry_group_IT_number 35
_symmetry_cell_setting 'orthorhombic'
loop_
_space_group_symop_operation_xyz
x,y,z
-x,-y,z
-x,y,z
x,-y,z
1/2+x,1/2+y,z
1/2-x,1/2-y,z
1/2-x,1/2+y,z
1/2+x,1/2-y,z
loop_
_atom_site_type_symbol
_atom_site_label
_atom_site_fract_x
_atom_site_fract_y
_atom_site_fract_z
Si Si1 0.769468 0.886322 0.317270
Si Si2 0.166051 0.117849 0.545701
Si Si3 0.421705 0.200351 0.550820
Si Si4 0.385473 0.120376 0.311804
Si Si5 0.164175 0.885755 0.079063
Si Si6 0.296204 0.117309 0.940507
Si Si7 0.422458 0.199983 0.076792
Si Si8 0.296712 0.117241 0.691759
O O1 0.810692 0.844540 0.423286
O O2 0.693757 0.835044 0.303072
O O3 0.815155 0.875519 0.207733
O O4 0.751664 0.000000 0.346179
O O5 0.096194 0.181818 0.566957
O O6 0.226119 0.155520 0.631229
O O7 0.149208 0.000000 0.554669
O O8 0.500000 0.184077 0.597494
O O9 0.420829 0.162523 0.423262
O O10 0.366561 0.137600 0.622385
O O11 0.425245 0.164840 0.205264
O O12 0.389645 0.000000 0.309577
O O13 0.096496 0.817144 0.062458
O O14 0.145314 0.000000 0.048219
O O15 0.227142 0.840864 0.003351
O O16 0.301282 0.164568 0.816198
O O17 0.285382 0.000000 0.934924
O O18 0.366932 0.135090 0.008653
O O19 0.500000 0.184977 0.026306
O O20 0.289227 0.000000 0.701459
#
# Coordination Sequence:
#
# PCOD8173937 Si02
#       8
#     8   8   8   8   8   8   8   8
#     4   9  17  33  60  87 109 143 191 238 283 329
#     4  10  21  39  62  87 116 151 196 245 286 335
#     4  12  25  37  57  89 122 159 193 228 289 355
#     4  11  22  38  59  88 123 153 191 241 291 345
#     4  10  21  39  62  87 116 151 196 245 286 335
#     4  10  22  41  64  88 113 147 195 247 294 340
#     4  12  25  37  57  89 122 159 193 228 289 355
#     4  10  22  41  64  88 113 147 195 247 294 340
#
# _framework density 20.928191999999999
#
# number of rings (size 3 to 8) (size 9 to 14) (size 15 to 20)
#    0.000    1.500    2.500    2.625    0.000    6.500 
#    0.000    1.250    0.000    3.750    0.000    5.250 
#    0.000    0.000    0.000    0.000    0.000    0.000 
#
# Total GULP energy -396768.684958 kJ/mol
# GULP energy per Si atom -12399.021405 kJ/mol
# Density = 2.088056 g / cm^3
# Si number density = 20.928192 Si / 1000 Ang^3
#
#
#
# Elastic Constant Matrix: (Units=GPa)
#
#
# Indices 1 2 3 4 5 6 
#
# 1 109.0895 10.9376 25.5521 0.0000 0.0000 0.0000
# 2 10.9376 59.2909 9.8380 0.0000 0.0000 0.0000
# 3 25.5521 9.8380 129.0897 0.0000 0.0000 0.0000
# 4 0.0000 0.0000 0.0000 15.6469 0.0000 0.0000
# 5 0.0000 0.0000 0.0000 0.0000 5.0184 0.0000
# 6 0.0000 0.0000 0.0000 0.0000 0.0000 22.8376
#
#
#
# Elastic Compliance Matrix: (Units=1/GPa)
#
#
# Indices 1 2 3 4 5 6 
#
# 1 0.009742 -0.001496 -0.001814 0.000000 0.000000 0.000000
# 2 -0.001496 0.017312 -0.001023 0.000000 0.000000 0.000000
# 3 -0.001814 -0.001023 0.008184 0.000000 0.000000 0.000000
# 4 0.000000 0.000000 0.000000 0.063911 0.000000 0.000000
# 5 0.000000 0.000000 0.000000 0.000000 0.199267 0.000000
# 6 0.000000 0.000000 0.000000 0.000000 0.000000 0.043787
#
#
# Mechanical properties :
#
#
# Convention : Reuss Voigt Hill
#
# Bulk Modulus (GPa) = 37.63635 43.34729 40.49182
# Shear Modulus (GPa) = 13.89949 25.44340 19.67145
#
# Velocity S-wave (km/s) = 2.57991 3.49054 3.06919
# Velocity P-wave (km/s) = 5.18625 6.08297 5.65242
#
# Compressibility (1/GPa) = 0.02657006
#
# Stress axis : x y z
#
# Youngs Moduli (GPa) = 102.65110 57.76424 122.19486
#
# Poissons Ratio (x) = 0.08642 0.22169
# Poissons Ratio (y) = 0.15357 0.12503
# Poissons Ratio (z) = 0.18624 0.05911
#
# Static dielectric constant tensor:
#      x y z
#    x 3.575140 0.000000 0.000000 
#    y 0.000000 3.863420 0.000000 
#    z 0.000000 0.000000 4.071380 
# 
# 
# High freq. dielectric constant tensor:
#      x y z
#    x 1.797750 0.000000 0.000000 
#    y 0.000000 1.837090 0.000000 
#    z 0.000000 0.000000 1.817430 
# 
# From -- ./inp_files/13205.got.cif
#   From: 2010.03.12/outbox.cif.g09.slc.cpg/sg35_7_cif.got.tgz:13205.got - 2010.04.14 02:02:04.
