data_PCOD8173223
_publ_section_title
;
Structure prediction by ZEFSAII (Michael W. Deem and Ramdas Pophale) SiO2 
 PCOD8173223
Probable space group: C M M 2
;
_chemical_formula_sum "Si O2"
_cell_formula_units_Z 64
_cell_length_a 9.202205
_cell_length_b 19.059533
_cell_length_c 20.150532
_cell_angle_alpha 90.000000
_cell_angle_beta 90.000000
_cell_angle_gamma 90.000000
_cell_volume 3534.196364
_symmetry_space_group_name_H-M "C M M 2"
_symmetry_group_IT_number 35
_symmetry_cell_setting 'orthorhombic'
loop_
_space_group_symop_operation_xyz
x,y,z
-x,-y,z
-x,y,z
x,-y,z
1/2+x,1/2+y,z
1/2-x,1/2-y,z
1/2-x,1/2+y,z
1/2+x,1/2-y,z
loop_
_atom_site_type_symbol
_atom_site_label
_atom_site_fract_x
_atom_site_fract_y
_atom_site_fract_z
Si Si1 0.337574 0.581741 0.208440
Si Si2 0.670101 0.820626 0.113981
Si Si3 0.168419 0.919315 0.361548
Si Si4 0.830729 0.680318 0.963683
Si Si5 0.163981 0.083455 0.719101
Si Si6 0.328124 0.175487 0.464605
Si Si7 0.669102 0.919328 0.846820
Si Si8 0.830961 0.580479 0.589805
O O1 0.500000 0.608655 0.191342
O O2 0.326494 0.500000 0.194279
O O3 0.219567 0.617851 0.162140
O O4 0.302371 0.597760 0.284829
O O5 0.500000 0.808720 0.122146
O O6 0.750000 0.750000 0.135902
O O7 0.712234 0.841395 0.038555
O O8 0.270840 0.866618 0.401221
O O9 0.000000 0.906246 0.379711
O O10 0.210201 0.000000 0.377472
O O11 0.750000 0.750000 0.940763
O O12 0.782617 0.618706 0.914293
O O13 0.000000 0.696054 0.958503
O O14 0.243770 0.113003 0.784519
O O15 0.244184 0.110184 0.653066
O O16 0.000000 0.111995 0.718357
O O17 0.170298 0.000000 0.720525
O O18 0.500000 0.187018 0.457351
O O19 0.250000 0.250000 0.470547
O O20 0.288042 0.129285 0.528535
O O21 0.500000 0.908987 0.831328
O O22 0.709416 0.000000 0.857792
O O23 0.787342 0.500000 0.572990
O O24 0.000000 0.585300 0.607081
#
# Coordination Sequence:
#
# PCOD8173223 Si02
#       8
#     8   8   8   8   8   8   8   8
#     4   9  19  36  56  79 107 136 168 210 259 308
#     4  10  20  34  53  76 103 137 176 216 257 306
#     4   9  19  37  59  80 104 136 172 210 255 308
#     4   9  19  34  51  72  99 133 171 209 251 300
#     4   9  17  29  48  76 104 128 161 206 251 297
#     4  11  23  37  54  78 108 139 173 214 257 303
#     4   9  17  31  51  73  99 131 165 204 251 300
#     4   9  18  34  55  76  99 131 169 207 251 304
#
# _framework density 18.108784
#
# number of rings (size 3 to 8) (size 9 to 14) (size 15 to 20)
#    0.000    2.625    0.000    2.250    0.000    6.000 
#    0.000    4.375    0.000    1.500    0.000    0.000 
#    0.000    0.000    0.000    0.000    0.000    0.000 
#
# Total GULP energy -396830.566109 kJ/mol
# GULP energy per Si atom -12400.955191 kJ/mol
# Density = 1.806757 g / cm^3
# Si number density = 18.108784 Si / 1000 Ang^3
#
#
#
# Elastic Constant Matrix: (Units=GPa)
#
#
# Indices 1 2 3 4 5 6 
#
# 1 83.3612 51.7712 63.1794 0.0000 0.0000 0.0000
# 2 51.7712 87.9126 69.4757 0.0000 0.0000 0.0000
# 3 63.1794 69.4757 121.1395 0.0000 0.0000 0.0000
# 4 0.0000 0.0000 0.0000 5.1239 0.0000 0.0000
# 5 0.0000 0.0000 0.0000 0.0000 29.3979 0.0000
# 6 0.0000 0.0000 0.0000 0.0000 0.0000 27.2263
#
#
#
# Elastic Compliance Matrix: (Units=1/GPa)
#
#
# Indices 1 2 3 4 5 6 
#
# 1 0.022032 -0.007121 -0.007406 0.000000 0.000000 0.000000
# 2 -0.007121 0.023106 -0.009538 0.000000 0.000000 0.000000
# 3 -0.007406 -0.009538 0.017588 0.000000 0.000000 0.000000
# 4 0.000000 0.000000 0.000000 0.195165 0.000000 0.000000
# 5 0.000000 0.000000 0.000000 0.000000 0.034016 0.000000
# 6 0.000000 0.000000 0.000000 0.000000 0.000000 0.036729
#
#
# Mechanical properties :
#
#
# Convention : Reuss Voigt Hill
#
# Bulk Modulus (GPa) = 68.51682 73.47397 70.99540
# Shear Modulus (GPa) = 13.10164 19.54875 16.32519
#
# Velocity S-wave (km/s) = 2.69271 3.28917 3.00577
# Velocity P-wave (km/s) = 6.89826 7.42203 7.16493
#
# Compressibility (1/GPa) = 0.01459496
#
# Stress axis : x y z
#
# Youngs Moduli (GPa) = 45.38856 43.27861 56.85791
#
# Poissons Ratio (x) = 0.30820 0.42111
# Poissons Ratio (y) = 0.32323 0.54229
# Poissons Ratio (z) = 0.33616 0.41278
#
# Static dielectric constant tensor:
#      x y z
#    x 3.376070 0.000000 0.000000 
#    y 0.000000 3.199920 0.000000 
#    z 0.000000 0.000000 3.451430 
# 
# 
# High freq. dielectric constant tensor:
#      x y z
#    x 1.704000 0.000000 0.000000 
#    y 0.000000 1.683090 0.000000 
#    z 0.000000 0.000000 1.710290 
# 
# From -- ./inp_files/18294.got.cif
#   From: 2010.03.12/outbox.cif.g09.slc.cpg/sg35_10_cif.got.tgz:18294.got - 2010.04.14 02:02:04.
