data_PCOD8173749
_publ_section_title
;
Structure prediction by ZEFSAII (Michael W. Deem and Ramdas Pophale) SiO2 
 PCOD8173749
Probable space group: C M M 2
;
_chemical_formula_sum "Si O2"
_cell_formula_units_Z 48
_cell_length_a 37.518610
_cell_length_b 13.833824
_cell_length_c 5.082130
_cell_angle_alpha 90.000000
_cell_angle_beta 90.000000
_cell_angle_gamma 90.000000
_cell_volume 2637.756830
_symmetry_space_group_name_H-M "C M M 2"
_symmetry_group_IT_number 35
_symmetry_cell_setting 'orthorhombic'
loop_
_space_group_symop_operation_xyz
x,y,z
-x,-y,z
-x,y,z
x,-y,z
1/2+x,1/2+y,z
1/2-x,1/2-y,z
1/2-x,1/2+y,z
1/2+x,1/2-y,z
loop_
_atom_site_type_symbol
_atom_site_label
_atom_site_fract_x
_atom_site_fract_y
_atom_site_fract_z
Si Si1 0.755981 0.104689 0.211380
Si Si2 0.039318 0.387486 0.154380
Si Si3 0.722893 0.173174 0.734857
Si Si4 0.662918 0.615816 0.200312
Si Si5 0.646964 0.734130 0.711505
Si Si6 0.915821 0.385978 0.644692
O O1 0.733955 0.160525 0.432951
O O2 0.762499 0.000000 0.335506
O O3 0.731792 0.089460 0.946845
O O4 0.795693 0.146917 0.164063
O O5 0.034754 0.500000 0.207093
O O6 0.055416 0.366931 0.870094
O O7 0.000000 0.338656 0.171678
O O8 0.066032 0.348436 0.376657
O O9 0.750000 0.250000 0.865982
O O10 0.682494 0.203848 0.741444
O O11 0.657135 0.500000 0.197856
O O12 0.641033 0.665246 0.962937
O O13 0.647576 0.661548 0.466415
O O14 0.617561 0.817190 0.691932
O O15 0.904247 0.500000 0.635357
#
# Coordination Sequence:
#
# PCOD8173749 Si02
#       6
#     8   8   8   8   8   8
#     4  11  22  36  53  73  95 130 187 241 274 323
#     4   9  17  33  57  81 111 151 184 213 249 306
#     4  12  21  36  53  73 100 136 185 224 283 337
#     4  11  22  38  56  77  99 136 189 243 282 313
#     4  12  23  36  57  77 113 146 174 230 286 327
#     4  10  21  35  52  83 121 149 179 212 261 330
#
# _framework density 18.197281
#
# number of rings (size 3 to 8) (size 9 to 14) (size 15 to 20)
#    0.000    1.167    3.333    4.000    0.000    6.000 
#    0.000    1.667    0.000    0.000    0.000    0.000 
#    0.000   46.667    0.000    0.000    0.000    0.000 
#
# Total GULP energy -297395.963909 kJ/mol
# GULP energy per Si atom -12391.498496 kJ/mol
# Density = 1.815586 g / cm^3
# Si number density = 18.197281 Si / 1000 Ang^3
#
#
#
# Elastic Constant Matrix: (Units=GPa)
#
#
# Indices 1 2 3 4 5 6 
#
# 1 93.4992 43.9702 17.3640 0.0000 0.0000 0.0000
# 2 43.9702 79.1800 27.4723 0.0000 0.0000 0.0000
# 3 17.3640 27.4723 110.7451 0.0000 0.0000 0.0000
# 4 0.0000 0.0000 0.0000 18.3457 0.0000 0.0000
# 5 0.0000 0.0000 0.0000 0.0000 13.9835 0.0000
# 6 0.0000 0.0000 0.0000 0.0000 0.0000 17.2801
#
#
#
# Elastic Compliance Matrix: (Units=1/GPa)
#
#
# Indices 1 2 3 4 5 6 
#
# 1 0.014485 -0.007939 -0.000302 0.000000 0.000000 0.000000
# 2 -0.007939 0.018170 -0.003263 0.000000 0.000000 0.000000
# 3 -0.000302 -0.003263 0.009886 0.000000 0.000000 0.000000
# 4 0.000000 0.000000 0.000000 0.054509 0.000000 0.000000
# 5 0.000000 0.000000 0.000000 0.000000 0.071513 0.000000
# 6 0.000000 0.000000 0.000000 0.000000 0.000000 0.057870
#
#
# Mechanical properties :
#
#
# Convention : Reuss Voigt Hill
#
# Bulk Modulus (GPa) = 51.19111 51.22636 51.20873
# Shear Modulus (GPa) = 19.53494 22.89636 21.21565
#
# Velocity S-wave (km/s) = 3.28000 3.55100 3.41819
# Velocity P-wave (km/s) = 6.52202 6.71003 6.61669
#
# Compressibility (1/GPa) = 0.01953464
#
# Stress axis : x y z
#
# Youngs Moduli (GPa) = 69.03770 55.03525 101.14901
#
# Poissons Ratio (x) = 0.43693 0.03052
# Poissons Ratio (y) = 0.54809 0.33001
# Poissons Ratio (z) = 0.02083 0.17956
#
# Static dielectric constant tensor:
#      x y z
#    x 3.266150 0.000000 0.000000 
#    y 0.000000 3.263720 0.000000 
#    z 0.000000 0.000000 3.513660 
# 
# 
# High freq. dielectric constant tensor:
#      x y z
#    x 1.681270 0.000000 0.000000 
#    y 0.000000 1.689340 0.000000 
#    z 0.000000 0.000000 1.730350 
# 
# From -- ./inp_files/3995.got.cif
#   From: 2010.03.12/outbox.cif.g09.slc.cpg/sg35_2_cif.got.tgz:3995.got - 2010.04.14 02:02:04.
