data_PCOD8173228
_publ_section_title
;
Structure prediction by ZEFSAII (Michael W. Deem and Ramdas Pophale) SiO2 
 PCOD8173228
Probable space group: C M M 2
;
_chemical_formula_sum "Si O2"
_cell_formula_units_Z 64
_cell_length_a 8.779538
_cell_length_b 19.975076
_cell_length_c 19.966856
_cell_angle_alpha 90.000000
_cell_angle_beta 90.000000
_cell_angle_gamma 90.000000
_cell_volume 3501.626248
_symmetry_space_group_name_H-M "C M M 2"
_symmetry_group_IT_number 35
_symmetry_cell_setting 'orthorhombic'
loop_
_space_group_symop_operation_xyz
x,y,z
-x,-y,z
-x,y,z
x,-y,z
1/2+x,1/2+y,z
1/2-x,1/2-y,z
1/2-x,1/2+y,z
1/2+x,1/2-y,z
loop_
_atom_site_type_symbol
_atom_site_label
_atom_site_fract_x
_atom_site_fract_y
_atom_site_fract_z
Si Si1 0.179066 0.819487 0.532780
Si Si2 0.819795 0.180860 0.380697
Si Si3 0.680430 0.680033 0.884195
Si Si4 0.319423 0.426404 0.276841
Si Si5 0.820331 0.320135 0.026592
Si Si6 0.323185 0.423445 0.770603
Si Si7 0.176081 0.078254 0.125926
Si Si8 0.177138 0.422514 0.632055
O O1 0.250000 0.750000 0.558859
O O2 0.231661 0.834371 0.456683
O O3 0.232686 0.880933 0.577200
O O4 0.000000 0.812308 0.538169
O O5 0.750000 0.250000 0.355243
O O6 0.751663 0.123935 0.332026
O O7 0.000000 0.185248 0.374826
O O8 0.500000 0.687125 0.891289
O O9 0.750000 0.750000 0.858645
O O10 0.727509 0.622561 0.832214
O O11 0.750121 0.659531 0.955294
O O12 0.500000 0.429836 0.282692
O O13 0.250999 0.500000 0.291498
O O14 0.276021 0.403533 0.201879
O O15 0.750000 0.250000 0.051963
O O16 0.783255 0.378745 0.078260
O O17 0.000000 0.311624 0.019348
O O18 0.500000 0.413855 0.753282
O O19 0.286548 0.500000 0.790302
O O20 0.228121 0.400575 0.706049
O O21 0.000000 0.096536 0.112735
O O22 0.204137 0.000000 0.111796
O O23 0.217499 0.500000 0.620039
O O24 0.000000 0.407743 0.624035
#
# Coordination Sequence:
#
# PCOD8173228 Si02
#       8
#     8   8   8   8   8   8   8   8
#     4  10  20  34  53  76 104 138 174 215 259 306
#     4   9  18  32  51  75 102 132 168 210 255 303
#     4  10  20  35  55  78 104 134 169 210 256 305
#     4   8  15  30  52  76 101 131 169 210 251 300
#     4  11  22  36  54  76 105 138 174 216 258 304
#     4   9  19  36  56  77 102 134 172 211 251 300
#     4   9  18  34  55  77 104 138 173 211 257 308
#     4  10  21  36  54  77 106 138 172 213 258 305
#
# _framework density 18.277222999999999
#
# number of rings (size 3 to 8) (size 9 to 14) (size 15 to 20)
#    0.000    2.500    0.000    3.750    0.000    4.500 
#    0.000    5.625    0.000    1.125    0.000    0.000 
#    0.000    0.000    0.000    0.000    0.000    0.000 
#
# Total GULP energy -396836.793372 kJ/mol
# GULP energy per Si atom -12401.149793 kJ/mol
# Density = 1.823562 g / cm^3
# Si number density = 18.277223 Si / 1000 Ang^3
#
#
#
# Elastic Constant Matrix: (Units=GPa)
#
#
# Indices 1 2 3 4 5 6 
#
# 1 67.7338 40.6373 41.1618 0.0000 0.0000 0.0000
# 2 40.6373 113.2268 86.6532 0.0000 0.0000 0.0000
# 3 41.1618 86.6532 115.0268 0.0000 0.0000 0.0000
# 4 0.0000 0.0000 0.0000 38.4621 0.0000 0.0000
# 5 0.0000 0.0000 0.0000 0.0000 22.6572 0.0000
# 6 0.0000 0.0000 0.0000 0.0000 0.0000 31.0792
#
#
#
# Elastic Compliance Matrix: (Units=1/GPa)
#
#
# Indices 1 2 3 4 5 6 
#
# 1 0.019581 -0.003932 -0.004045 0.000000 0.000000 0.000000
# 2 -0.003932 0.021645 -0.014899 0.000000 0.000000 0.000000
# 3 -0.004045 -0.014899 0.021365 0.000000 0.000000 0.000000
# 4 0.000000 0.000000 0.000000 0.026000 0.000000 0.000000
# 5 0.000000 0.000000 0.000000 0.000000 0.044136 0.000000
# 6 0.000000 0.000000 0.000000 0.000000 0.000000 0.032176
#
#
# Mechanical properties :
#
#
# Convention : Reuss Voigt Hill
#
# Bulk Modulus (GPa) = 59.38484 70.32133 64.85309
# Shear Modulus (GPa) = 23.11952 26.94204 25.03078
#
# Velocity S-wave (km/s) = 3.56045 3.84354 3.70470
# Velocity P-wave (km/s) = 7.03307 7.63252 7.33892
#
# Compressibility (1/GPa) = 0.01683931
#
# Stress axis : x y z
#
# Youngs Moduli (GPa) = 51.07062 46.19910 46.80576
#
# Poissons Ratio (x) = 0.18166 0.18931
# Poissons Ratio (y) = 0.20082 0.69736
# Poissons Ratio (z) = 0.20656 0.68832
#
# Static dielectric constant tensor:
#      x y z
#    x 3.245310 0.000000 0.000000 
#    y 0.000000 3.524080 0.000000 
#    z 0.000000 0.000000 3.451000 
# 
# 
# High freq. dielectric constant tensor:
#      x y z
#    x 1.700360 0.000000 0.000000 
#    y 0.000000 1.712010 0.000000 
#    z 0.000000 0.000000 1.711070 
# 
# From -- ./inp_files/18363.got.cif
#   From: 2010.03.12/outbox.cif.g09.slc.cpg/sg35_10_cif.got.tgz:18363.got - 2010.04.14 02:02:04.
