data_PCOD8173796
_publ_section_title
;
Structure prediction by ZEFSAII (Michael W. Deem and Ramdas Pophale) SiO2 
 PCOD8173796
Probable space group: C M M 2
;
_chemical_formula_sum "Si O2"
_cell_formula_units_Z 56
_cell_length_a 8.827567
_cell_length_b 17.845958
_cell_length_c 17.946257
_cell_angle_alpha 90.000000
_cell_angle_beta 90.000000
_cell_angle_gamma 90.000000
_cell_volume 2827.188540
_symmetry_space_group_name_H-M "C M M 2"
_symmetry_group_IT_number 35
_symmetry_cell_setting 'orthorhombic'
loop_
_space_group_symop_operation_xyz
x,y,z
-x,-y,z
-x,y,z
x,-y,z
1/2+x,1/2+y,z
1/2-x,1/2-y,z
1/2-x,1/2+y,z
1/2+x,1/2-y,z
loop_
_atom_site_type_symbol
_atom_site_label
_atom_site_fract_x
_atom_site_fract_y
_atom_site_fract_z
Si Si1 0.679621 0.415001 0.676260
Si Si2 0.323405 0.329124 0.819842
Si Si3 0.828192 0.088548 0.240484
Si Si4 0.679634 0.830822 0.376636
Si Si5 0.324247 0.586798 0.969426
Si Si6 0.321919 0.085595 0.524382
Si Si7 0.320912 0.168892 0.103826
O O1 0.500000 0.412760 0.674275
O O2 0.737789 0.500000 0.687790
O O3 0.743304 0.364514 0.743762
O O4 0.743074 0.382483 0.598700
O O5 0.500000 0.315374 0.810935
O O6 0.250000 0.250000 0.838184
O O7 0.288548 0.387078 0.885843
O O8 0.738430 0.115202 0.312544
O O9 0.743796 0.115094 0.166822
O O10 0.000000 0.119776 0.241690
O O11 0.827946 0.000000 0.239924
O O12 0.500000 0.825896 0.371654
O O13 0.750000 0.750000 0.364962
O O14 0.733766 0.864287 0.455500
O O15 0.500000 0.599973 0.989882
O O16 0.280451 0.500000 0.976391
O O17 0.220889 0.635308 0.023853
O O18 0.500000 0.091502 0.535465
O O19 0.271570 0.000000 0.509309
O O20 0.500000 0.175024 0.111404
O O21 0.250000 0.250000 0.114098
#
# Coordination Sequence:
#
# PCOD8173796 Si02
#       7
#     8   8   8   8   8   8   8
#     4   9  18  34  56  80 107 143 188 234 280 335
#     4  10  21  36  55  81 113 149 188 232 284 338
#     4  11  24  42  64  89 117 150 190 234 282 338
#     4  11  23  39  59  84 117 153 191 236 286 339
#     4  10  21  39  62  86 115 151 191 236 286 340
#     4   9  19  36  57  81 110 146 187 232 284 339
#     4  12  25  41  62  88 120 154 190 233 282 336
#
# _framework density 19.807665
#
# number of rings (size 3 to 8) (size 9 to 14) (size 15 to 20)
#    0.000    1.714    0.000    4.286    0.000    9.429 
#    0.000    4.286    0.000    2.571    0.000    0.000 
#    0.000    0.000    0.000    0.000    0.000    0.000 
#
# Total GULP energy -347332.993177 kJ/mol
# GULP energy per Si atom -12404.749756 kJ/mol
# Density = 1.976258 g / cm^3
# Si number density = 19.807665 Si / 1000 Ang^3
#
#
#
# Elastic Constant Matrix: (Units=GPa)
#
#
# Indices 1 2 3 4 5 6 
#
# 1 74.2685 29.5056 42.9490 0.0000 0.0000 0.0000
# 2 29.5056 78.2331 29.3092 0.0000 0.0000 0.0000
# 3 42.9490 29.3092 120.5098 0.0000 0.0000 0.0000
# 4 0.0000 0.0000 0.0000 23.4371 0.0000 0.0000
# 5 0.0000 0.0000 0.0000 0.0000 51.5841 0.0000
# 6 0.0000 0.0000 0.0000 0.0000 0.0000 25.0637
#
#
#
# Elastic Compliance Matrix: (Units=1/GPa)
#
#
# Indices 1 2 3 4 5 6 
#
# 1 0.018569 -0.004978 -0.005407 0.000000 0.000000 0.000000
# 2 -0.004978 0.015398 -0.001971 0.000000 0.000000 0.000000
# 3 -0.005407 -0.001971 0.010705 0.000000 0.000000 0.000000
# 4 0.000000 0.000000 0.000000 0.042667 0.000000 0.000000
# 5 0.000000 0.000000 0.000000 0.000000 0.019386 0.000000
# 6 0.000000 0.000000 0.000000 0.000000 0.000000 0.039898
#
#
# Mechanical properties :
#
#
# Convention : Reuss Voigt Hill
#
# Bulk Modulus (GPa) = 50.10019 52.94877 51.52448
# Shear Modulus (GPa) = 28.09172 31.43350 29.76261
#
# Velocity S-wave (km/s) = 3.77002 3.98796 3.88052
# Velocity P-wave (km/s) = 6.65575 6.92781 6.79314
#
# Compressibility (1/GPa) = 0.01996001
#
# Stress axis : x y z
#
# Youngs Moduli (GPa) = 53.85263 64.94350 93.41781
#
# Poissons Ratio (x) = 0.32326 0.50514
# Poissons Ratio (y) = 0.26805 0.18413
# Poissons Ratio (z) = 0.29120 0.12800
#
# Static dielectric constant tensor:
#      x y z
#    x 3.615030 0.000000 0.000000 
#    y 0.000000 3.659120 0.000000 
#    z 0.000000 0.000000 3.838410 
# 
# 
# High freq. dielectric constant tensor:
#      x y z
#    x 1.768290 0.000000 0.000000 
#    y 0.000000 1.778240 0.000000 
#    z 0.000000 0.000000 1.789910 
# 
# From -- ./inp_files/15630.got.cif
#   From: 2010.03.12/outbox.cif.g09.slc.cpg/sg35_8_cif.got.tgz:15630.got - 2010.04.14 02:02:04.
