data_PCOD8173617
_publ_section_title
;
Structure prediction by ZEFSAII (Michael W. Deem and Ramdas Pophale) SiO2 
 PCOD8173617
Probable space group: C M M 2
;
_chemical_formula_sum "Si O2"
_cell_formula_units_Z 48
_cell_length_a 14.934707
_cell_length_b 8.692031
_cell_length_c 18.967418
_cell_angle_alpha 90.000000
_cell_angle_beta 90.000000
_cell_angle_gamma 90.000000
_cell_volume 2462.216223
_symmetry_space_group_name_H-M "C M M 2"
_symmetry_group_IT_number 35
_symmetry_cell_setting 'orthorhombic'
loop_
_space_group_symop_operation_xyz
x,y,z
-x,-y,z
-x,y,z
x,-y,z
1/2+x,1/2+y,z
1/2-x,1/2-y,z
1/2-x,1/2+y,z
1/2+x,1/2-y,z
loop_
_atom_site_type_symbol
_atom_site_label
_atom_site_fract_x
_atom_site_fract_y
_atom_site_fract_z
Si Si1 0.500000 0.817094 0.625000
Si Si2 0.605103 0.325061 0.866144
Si Si3 0.339963 0.182375 0.721190
Si Si4 0.149321 0.317288 0.359397
Si Si5 0.843572 0.318712 0.012892
Si Si6 0.000000 0.822610 0.266058
Si Si7 0.500000 0.676748 0.099753
Si Si8 0.500000 0.181909 0.467899
O O1 0.584857 0.756484 0.668124
O O2 0.500000 0.745736 0.546301
O O3 0.500000 0.000000 0.620755
O O4 0.500000 0.316688 0.855712
O O5 0.638767 0.500000 0.874553
O O6 0.650569 0.249951 0.798931
O O7 0.633239 0.230328 0.934000
O O8 0.250000 0.250000 0.687693
O O9 0.339362 0.000000 0.726275
O O10 0.157361 0.500000 0.353766
O O11 0.250000 0.250000 0.362088
O O12 0.091739 0.256602 0.293097
O O13 0.091090 0.265612 0.427956
O O14 0.840580 0.500000 0.016162
O O15 0.750000 0.250000 0.037307
O O16 0.913574 0.258012 0.069019
O O17 0.000000 0.804685 0.182854
O O18 0.000000 0.000000 0.289811
O O19 0.500000 0.500000 0.075290
O O20 0.500000 0.000000 0.472131
#
# Coordination Sequence:
#
# PCOD8173617 Si02
#       8
#     4   8   8   8   8   4   4   4
#     4   9  19  36  57  80 115 155 192 237 290 348
#     4  11  22  38  61  84 113 149 193 249 298 349
#     4  11  22  37  57  82 112 150 196 243 295 352
#     4  10  20  36  62  91 122 156 195 239 285 343
#     4  12  25  41  63  88 118 155 197 244 295 352
#     4  10  22  40  63  89 121 156 194 240 288 342
#     4  11  24  43  63  88 121 155 194 241 292 348
#     4   8  17  35  57  85 117 154 194 238 288 338
#
# _framework density 19.494634000000001
#
# number of rings (size 3 to 8) (size 9 to 14) (size 15 to 20)
#    0.000    1.500    1.667    4.500    0.000    3.333 
#    0.000    0.000    0.000   11.000    0.000    0.000 
#    0.000    0.000    0.000    0.000    0.000    0.000 
#
# Total GULP energy -297618.487336 kJ/mol
# GULP energy per Si atom -12400.770306 kJ/mol
# Density = 1.945026 g / cm^3
# Si number density = 19.494634 Si / 1000 Ang^3
#
#
#
# Elastic Constant Matrix: (Units=GPa)
#
#
# Indices 1 2 3 4 5 6 
#
# 1 164.9529 56.7303 59.9131 0.0000 0.0000 0.0000
# 2 56.7303 125.5901 47.0060 0.0000 0.0000 0.0000
# 3 59.9131 47.0060 116.7445 0.0000 0.0000 0.0000
# 4 0.0000 0.0000 0.0000 26.6754 0.0000 0.0000
# 5 0.0000 0.0000 0.0000 0.0000 56.2931 0.0000
# 6 0.0000 0.0000 0.0000 0.0000 0.0000 34.5942
#
#
#
# Elastic Compliance Matrix: (Units=1/GPa)
#
#
# Indices 1 2 3 4 5 6 
#
# 1 0.008049 -0.002461 -0.003140 0.000000 0.000000 0.000000
# 2 -0.002461 0.010127 -0.002815 0.000000 0.000000 0.000000
# 3 -0.003140 -0.002815 0.011311 0.000000 0.000000 0.000000
# 4 0.000000 0.000000 0.000000 0.037488 0.000000 0.000000
# 5 0.000000 0.000000 0.000000 0.000000 0.017764 0.000000
# 6 0.000000 0.000000 0.000000 0.000000 0.000000 0.028907
#
#
# Mechanical properties :
#
#
# Convention : Reuss Voigt Hill
#
# Bulk Modulus (GPa) = 79.01411 81.62071 80.31741
# Shear Modulus (GPa) = 37.12079 39.75508 38.43794
#
# Velocity S-wave (km/s) = 4.36840 4.52074 4.44522
# Velocity P-wave (km/s) = 8.12792 8.31917 8.22410
#
# Compressibility (1/GPa) = 0.01265597
#
# Stress axis : x y z
#
# Youngs Moduli (GPa) = 124.23773 98.74140 88.41268
#
# Poissons Ratio (x) = 0.24296 0.27762
# Poissons Ratio (y) = 0.30570 0.24888
# Poissons Ratio (z) = 0.39011 0.27795
#
# Static dielectric constant tensor:
#      x y z
#    x 3.839110 0.000000 0.000000 
#    y 0.000000 3.615340 0.000000 
#    z 0.000000 0.000000 3.652490 
# 
# 
# High freq. dielectric constant tensor:
#      x y z
#    x 1.776770 0.000000 0.000000 
#    y 0.000000 1.761300 0.000000 
#    z 0.000000 0.000000 1.757680 
# 
# From -- ./inp_files/18840.got.cif
#   From: 2010.03.12/outbox.cif.g09.slc.cpg/sg35_10_cif.got.tgz:18840.got - 2010.04.14 02:02:04.
