data_PCOD8173117
_publ_section_title
;
Structure prediction by ZEFSAII (Michael W. Deem and Ramdas Pophale) SiO2 
 PCOD8173117
Probable space group: C M M 2
;
_chemical_formula_sum "Si O2"
_cell_formula_units_Z 64
_cell_length_a 9.147440
_cell_length_b 19.247721
_cell_length_c 19.859550
_cell_angle_alpha 90.000000
_cell_angle_beta 90.000000
_cell_angle_gamma 90.000000
_cell_volume 3496.618797
_symmetry_space_group_name_H-M "C M M 2"
_symmetry_group_IT_number 35
_symmetry_cell_setting 'orthorhombic'
loop_
_space_group_symop_operation_xyz
x,y,z
-x,-y,z
-x,y,z
x,-y,z
1/2+x,1/2+y,z
1/2-x,1/2-y,z
1/2-x,1/2+y,z
1/2+x,1/2-y,z
loop_
_atom_site_type_symbol
_atom_site_label
_atom_site_fract_x
_atom_site_fract_y
_atom_site_fract_z
Si Si1 0.668980 0.681691 0.027060
Si Si2 0.331324 0.581084 0.559239
Si Si3 0.162214 0.917487 0.409676
Si Si4 0.330432 0.180845 0.655559
Si Si5 0.827219 0.820648 0.180735
Si Si6 0.170739 0.679730 0.811746
Si Si7 0.329507 0.580173 0.909805
Si Si8 0.167279 0.582279 0.280866
O O1 0.500000 0.699919 0.022961
O O2 0.750000 0.750000 0.999891
O O3 0.714769 0.663817 0.103320
O O4 0.710040 0.616245 0.980744
O O5 0.500000 0.597779 0.575361
O O6 0.299809 0.500000 0.564948
O O7 0.291232 0.608553 0.484064
O O8 0.227748 0.616503 0.613308
O O9 0.276137 0.890974 0.353657
O O10 0.000000 0.889367 0.391611
O O11 0.157473 0.000000 0.411416
O O12 0.500000 0.191182 0.641430
O O13 0.250000 0.250000 0.630897
O O14 0.298003 0.165815 0.733546
O O15 0.750000 0.750000 0.205315
O O16 0.765392 0.884719 0.222809
O O17 0.000000 0.814093 0.191676
O O18 0.250000 0.750000 0.836242
O O19 0.235621 0.613964 0.850535
O O20 0.000000 0.687600 0.827493
O O21 0.500000 0.589018 0.892415
O O22 0.284855 0.500000 0.916138
O O23 0.184850 0.500000 0.274522
O O24 0.000000 0.605835 0.272953
#
# Coordination Sequence:
#
# PCOD8173117 Si02
#       8
#     8   8   8   8   8   8   8   8
#     4   9  19  35  55  77 101 134 174 212 253 306
#     4   9  18  33  54  79 106 136 171 212 257 307
#     4   8  15  30  51  74 101 135 174 212 253 305
#     4  10  21  36  54  76 104 137 173 215 259 306
#     4  10  20  35  55  77 104 137 172 213 259 307
#     4  10  21  37  56  77 102 136 177 215 255 307
#     4  10  21  36  54  79 110 139 169 210 257 303
#     4  10  20  33  51  77 107 137 172 215 259 305
#
# _framework density 18.303398000000001
#
# number of rings (size 3 to 8) (size 9 to 14) (size 15 to 20)
#    0.000    2.500    0.000    2.625    0.000    6.250 
#    0.000    5.625    0.000    3.000    0.000    0.000 
#    0.000    0.000    0.000    0.000    0.000    0.000 
#
# Total GULP energy -396848.683277 kJ/mol
# GULP energy per Si atom -12401.521352 kJ/mol
# Density = 1.826174 g / cm^3
# Si number density = 18.303398 Si / 1000 Ang^3
#
#
#
# Elastic Constant Matrix: (Units=GPa)
#
#
# Indices 1 2 3 4 5 6 
#
# 1 99.8619 55.5228 60.4093 0.0000 0.0000 0.0000
# 2 55.5228 93.8354 59.2854 0.0000 0.0000 0.0000
# 3 60.4093 59.2854 97.9498 0.0000 0.0000 0.0000
# 4 0.0000 0.0000 0.0000 22.0147 0.0000 0.0000
# 5 0.0000 0.0000 0.0000 0.0000 31.5105 0.0000
# 6 0.0000 0.0000 0.0000 0.0000 0.0000 33.1448
#
#
#
# Elastic Compliance Matrix: (Units=1/GPa)
#
#
# Indices 1 2 3 4 5 6 
#
# 1 0.017730 -0.005800 -0.007424 0.000000 0.000000 0.000000
# 2 -0.005800 0.019153 -0.008015 0.000000 0.000000 0.000000
# 3 -0.007424 -0.008015 0.019639 0.000000 0.000000 0.000000
# 4 0.000000 0.000000 0.000000 0.045424 0.000000 0.000000
# 5 0.000000 0.000000 0.000000 0.000000 0.031735 0.000000
# 6 0.000000 0.000000 0.000000 0.000000 0.000000 0.030171
#
#
# Mechanical properties :
#
#
# Convention : Reuss Voigt Hill
#
# Bulk Modulus (GPa) = 71.20993 71.34247 71.27620
# Shear Modulus (GPa) = 23.69525 25.09596 24.39561
#
# Velocity S-wave (km/s) = 3.60193 3.70687 3.65478
# Velocity P-wave (km/s) = 7.50256 7.57519 7.53896
#
# Compressibility (1/GPa) = 0.01404299
#
# Stress axis : x y z
#
# Youngs Moduli (GPa) = 56.40268 52.21051 50.91832
#
# Poissons Ratio (x) = 0.30284 0.37801
# Poissons Ratio (y) = 0.32715 0.40813
# Poissons Ratio (z) = 0.41872 0.41849
#
# Static dielectric constant tensor:
#      x y z
#    x 3.464260 0.000000 0.000000 
#    y 0.000000 3.200630 0.000000 
#    z 0.000000 0.000000 3.528670 
# 
# 
# High freq. dielectric constant tensor:
#      x y z
#    x 1.714530 0.000000 0.000000 
#    y 0.000000 1.691970 0.000000 
#    z 0.000000 0.000000 1.717100 
# 
# From -- ./inp_files/18360.got.cif
#   From: 2010.03.12/outbox.cif.g09.slc.cpg/sg35_10_cif.got.tgz:18360.got - 2010.04.14 02:02:04.
