data_PCOD8173506
_publ_section_title
;
Structure prediction by ZEFSAII (Michael W. Deem and Ramdas Pophale) SiO2 
 PCOD8173506
Probable space group: C M M 2
;
_chemical_formula_sum "Si O2"
_cell_formula_units_Z 48
_cell_length_a 15.582731
_cell_length_b 10.285732
_cell_length_c 15.310074
_cell_angle_alpha 90.000000
_cell_angle_beta 90.000000
_cell_angle_gamma 90.000000
_cell_volume 2453.895521
_symmetry_space_group_name_H-M "C M M 2"
_symmetry_group_IT_number 35
_symmetry_cell_setting 'orthorhombic'
loop_
_space_group_symop_operation_xyz
x,y,z
-x,-y,z
-x,y,z
x,-y,z
1/2+x,1/2+y,z
1/2-x,1/2-y,z
1/2-x,1/2+y,z
1/2+x,1/2-y,z
loop_
_atom_site_type_symbol
_atom_site_label
_atom_site_fract_x
_atom_site_fract_y
_atom_site_fract_z
Si Si1 0.152244 0.254944 0.276100
Si Si2 0.176626 0.648522 0.913181
Si Si3 0.903593 0.351744 0.732400
Si Si4 0.595961 0.000000 0.381983
Si Si5 0.901059 0.651583 0.097422
Si Si6 0.404420 0.500000 0.364327
Si Si7 0.750000 0.750000 0.624251
Si Si8 0.244037 0.000000 0.506386
O O1 0.250000 0.250000 0.308668
O O2 0.105143 0.374754 0.321288
O O3 0.149346 0.268935 0.171483
O O4 0.104858 0.124024 0.302456
O O5 0.212190 0.500000 0.919303
O O6 0.250000 0.750000 0.888949
O O7 0.106311 0.657744 0.836842
O O8 0.133843 0.693547 0.003302
O O9 0.889025 0.500000 0.701316
O O10 0.834576 0.262249 0.683752
O O11 0.000000 0.305506 0.708581
O O12 0.500000 0.000000 0.422523
O O13 0.663494 0.000000 0.460302
O O14 0.886185 0.500000 0.113603
O O15 0.000000 0.689483 0.102729
O O16 0.500000 0.500000 0.405788
O O17 0.333916 0.500000 0.439183
O O18 0.734925 0.626447 0.564523
#
# Coordination Sequence:
#
# PCOD8173506 Si02
#       8
#     8   8   8   4   8   4   4   4
#     4  12  22  41  65  92 128 168 210 262 312 367
#     4  10  20  37  63  91 128 169 205 253 307 361
#     4  10  21  41  69  98 128 169 212 252 308 380
#     4  12  24  44  70  91 119 168 217 260 310 379
#     4  10  20  35  59  93 124 164 219 256 290 360
#     4  12  26  44  64  91 129 166 205 260 328 379
#     4  12  24  42  70  92 130 160 204 270 322 374
#     4  12  26  44  66  94 126 160 208 270 324 376
#
# _framework density 19.560735000000001
#
# number of rings (size 3 to 8) (size 9 to 14) (size 15 to 20)
#    0.000    1.000    4.167    3.500    0.000    3.333 
#    1.500    0.000    0.000    1.000    0.000    0.000 
#    0.000    0.000    0.000    0.000    0.000    0.000 
#
# Total GULP energy -297693.688506 kJ/mol
# GULP energy per Si atom -12403.903688 kJ/mol
# Density = 1.951621 g / cm^3
# Si number density = 19.560735 Si / 1000 Ang^3
#
#
#
# Elastic Constant Matrix: (Units=GPa)
#
#
# Indices 1 2 3 4 5 6 
#
# 1 155.5204 47.1882 52.9624 0.0000 0.0000 0.0000
# 2 47.1882 119.2698 51.3802 0.0000 0.0000 0.0000
# 3 52.9624 51.3802 121.7127 0.0000 0.0000 0.0000
# 4 0.0000 0.0000 0.0000 23.7371 0.0000 0.0000
# 5 0.0000 0.0000 0.0000 0.0000 20.5396 0.0000
# 6 0.0000 0.0000 0.0000 0.0000 0.0000 37.9171
#
#
#
# Elastic Compliance Matrix: (Units=1/GPa)
#
#
# Indices 1 2 3 4 5 6 
#
# 1 0.007927 -0.002017 -0.002598 0.000000 0.000000 0.000000
# 2 -0.002017 0.010761 -0.003665 0.000000 0.000000 0.000000
# 3 -0.002598 -0.003665 0.010894 0.000000 0.000000 0.000000
# 4 0.000000 0.000000 0.000000 0.042128 0.000000 0.000000
# 5 0.000000 0.000000 0.000000 0.000000 0.048686 0.000000
# 6 0.000000 0.000000 0.000000 0.000000 0.000000 0.026373
#
#
# Mechanical properties :
#
#
# Convention : Reuss Voigt Hill
#
# Bulk Modulus (GPa) = 76.79416 77.72938 77.26177
# Shear Modulus (GPa) = 29.82049 32.77023 31.29536
#
# Velocity S-wave (km/s) = 3.90873 4.09749 4.00422
# Velocity P-wave (km/s) = 7.72758 7.88731 7.80785
#
# Compressibility (1/GPa) = 0.01302182
#
# Stress axis : x y z
#
# Youngs Moduli (GPa) = 126.15574 92.92589 91.79649
#
# Poissons Ratio (x) = 0.18744 0.23847
# Poissons Ratio (y) = 0.25446 0.33644
# Poissons Ratio (z) = 0.32772 0.34058
#
# Static dielectric constant tensor:
#      x y z
#    x 3.636340 0.000000 0.000000 
#    y 0.000000 3.566710 0.000000 
#    z 0.000000 0.000000 3.646110 
# 
# 
# High freq. dielectric constant tensor:
#      x y z
#    x 1.768440 0.000000 0.000000 
#    y 0.000000 1.757130 0.000000 
#    z 0.000000 0.000000 1.771350 
# 
# From -- ./inp_files/18815.got.cif
#   From: 2010.03.12/outbox.cif.g09.slc.cpg/sg35_10_cif.got.tgz:18815.got - 2010.04.14 02:02:04.
