data_PCOD8173513
_publ_section_title
;
Structure prediction by ZEFSAII (Michael W. Deem and Ramdas Pophale) SiO2 
 PCOD8173513
Probable space group: C M M 2
;
_chemical_formula_sum "Si O2"
_cell_formula_units_Z 60
_cell_length_a 24.057191
_cell_length_b 20.524456
_cell_length_c 6.737237
_cell_angle_alpha 90.000000
_cell_angle_beta 90.000000
_cell_angle_gamma 90.000000
_cell_volume 3326.583249
_symmetry_space_group_name_H-M "C M M 2"
_symmetry_group_IT_number 35
_symmetry_cell_setting 'orthorhombic'
loop_
_space_group_symop_operation_xyz
x,y,z
-x,-y,z
-x,y,z
x,-y,z
1/2+x,1/2+y,z
1/2-x,1/2-y,z
1/2-x,1/2+y,z
1/2+x,1/2-y,z
loop_
_atom_site_type_symbol
_atom_site_label
_atom_site_fract_x
_atom_site_fract_y
_atom_site_fract_z
Si Si1 0.388842 0.754372 0.314840
Si Si2 0.250000 0.250000 0.767187
Si Si3 0.063059 0.209821 0.715329
Si Si4 0.701844 0.848285 0.479256
Si Si5 0.846993 0.425951 0.818987
Si Si6 0.754478 0.075485 0.115269
Si Si7 0.657563 0.673503 0.974005
Si Si8 0.938003 0.665313 0.982099
O O1 0.425051 0.720972 0.485236
O O2 0.333617 0.789864 0.388857
O O3 0.371106 0.694809 0.176968
O O4 0.426851 0.806668 0.201055
O O5 0.256667 0.185242 0.635395
O O6 0.303232 0.265975 0.904185
O O7 0.071318 0.278894 0.820802
O O8 0.000000 0.183172 0.743906
O O9 0.108653 0.160504 0.811057
O O10 0.662203 0.897572 0.598909
O O11 0.737121 0.886726 0.314919
O O12 0.863767 0.500000 0.789336
O O13 0.897321 0.393381 0.935024
O O14 0.792725 0.417026 0.951790
O O15 0.809239 0.107161 0.017435
O O16 0.766432 0.000000 0.166435
O O17 0.000000 0.637217 0.974857
#
# Coordination Sequence:
#
# PCOD8173513 Si02
#       8
#     8   4   8   8   8   8   8   8
#     4  11  19  34  58  83 111 148 182 239 292 342
#     4  12  20  34  56  90 120 140 184 236 292 344
#     4  10  21  37  58  87 116 143 180 234 296 344
#     4  12  20  35  55  82 114 150 185 234 286 341
#     4  11  22  37  54  75 111 154 194 235 277 329
#     4  11  24  39  56  81 118 156 192 231 279 346
#     4  11  22  36  57  88 116 148 185 232 290 347
#     4  10  20  36  54  77 110 148 195 239 281 332
#
# _framework density 18.036525000000001
#
# number of rings (size 3 to 8) (size 9 to 14) (size 15 to 20)
#    0.000    1.067    5.333    3.200    0.000    0.800 
#    0.000    0.000    0.000    0.400    0.000    0.000 
#    0.000    0.000    0.000    0.000    0.000    0.000 
#
# Total GULP energy -372062.395985 kJ/mol
# GULP energy per Si atom -12402.079866 kJ/mol
# Density = 1.799547 g / cm^3
# Si number density = 18.036525 Si / 1000 Ang^3
#
#
#
# Elastic Constant Matrix: (Units=GPa)
#
#
# Indices 1 2 3 4 5 6 
#
# 1 110.9451 31.6977 27.9071 0.0000 0.0000 0.0000
# 2 31.6977 62.7791 15.3484 0.0000 0.0000 0.0000
# 3 27.9071 15.3484 88.4473 0.0000 0.0000 0.0000
# 4 0.0000 0.0000 0.0000 20.4371 0.0000 0.0000
# 5 0.0000 0.0000 0.0000 0.0000 27.1881 0.0000
# 6 0.0000 0.0000 0.0000 0.0000 0.0000 15.2935
#
#
#
# Elastic Compliance Matrix: (Units=1/GPa)
#
#
# Indices 1 2 3 4 5 6 
#
# 1 0.011093 -0.004956 -0.002640 0.000000 0.000000 0.000000
# 2 -0.004956 0.018848 -0.001707 0.000000 0.000000 0.000000
# 3 -0.002640 -0.001707 0.012435 0.000000 0.000000 0.000000
# 4 0.000000 0.000000 0.000000 0.048931 0.000000 0.000000
# 5 0.000000 0.000000 0.000000 0.000000 0.036781 0.000000
# 6 0.000000 0.000000 0.000000 0.000000 0.000000 0.065387
#
#
# Mechanical properties :
#
#
# Convention : Reuss Voigt Hill
#
# Bulk Modulus (GPa) = 42.06786 45.78642 43.92714
# Shear Modulus (GPa) = 22.72666 25.06497 23.89581
#
# Velocity S-wave (km/s) = 3.55355 3.73188 3.64381
# Velocity P-wave (km/s) = 6.34124 6.63399 6.48926
#
# Compressibility (1/GPa) = 0.02377112
#
# Stress axis : x y z
#
# Youngs Moduli (GPa) = 90.14308 53.05488 80.41508
#
# Poissons Ratio (x) = 0.26292 0.21232
# Poissons Ratio (y) = 0.44672 0.13728
# Poissons Ratio (z) = 0.23800 0.09057
#
# Static dielectric constant tensor:
#      x y z
#    x 3.417310 0.000000 0.000000 
#    y 0.000000 3.125160 0.000000 
#    z 0.000000 0.000000 3.547630 
# 
# 
# High freq. dielectric constant tensor:
#      x y z
#    x 1.698970 0.000000 0.000000 
#    y 0.000000 1.665150 0.000000 
#    z 0.000000 0.000000 1.716860 
# 
# From -- ./inp_files/3435.got.cif
#   From: 2010.03.12/outbox.cif.g09.slc.cpg/sg35_2_cif.got.tgz:3435.got - 2010.04.14 02:02:04.
