data_PCOD8173696
_publ_section_title
;
Structure prediction by ZEFSAII (Michael W. Deem and Ramdas Pophale) SiO2 
 PCOD8173696
Probable space group: C M M 2
;
_chemical_formula_sum "Si O2"
_cell_formula_units_Z 48
_cell_length_a 15.764495
_cell_length_b 8.850969
_cell_length_c 16.748060
_cell_angle_alpha 90.000000
_cell_angle_beta 90.000000
_cell_angle_gamma 90.000000
_cell_volume 2336.874507
_symmetry_space_group_name_H-M "C M M 2"
_symmetry_group_IT_number 35
_symmetry_cell_setting 'orthorhombic'
loop_
_space_group_symop_operation_xyz
x,y,z
-x,-y,z
-x,y,z
x,-y,z
1/2+x,1/2+y,z
1/2-x,1/2-y,z
1/2-x,1/2+y,z
1/2+x,1/2-y,z
loop_
_atom_site_type_symbol
_atom_site_label
_atom_site_fract_x
_atom_site_fract_y
_atom_site_fract_z
Si Si1 0.662785 0.822160 0.283050
Si Si2 0.335582 0.321708 0.650611
Si Si3 0.903828 0.327978 0.802722
Si Si4 0.000000 0.822286 0.549924
Si Si5 0.500000 0.820558 0.378143
Si Si6 0.341143 0.322108 0.955815
Si Si7 0.901711 0.671093 0.112288
O O1 0.750000 0.750000 0.314631
O O2 0.584224 0.757035 0.334475
O O3 0.650137 0.779138 0.190355
O O4 0.668726 0.000000 0.294313
O O5 0.325984 0.500000 0.654402
O O6 0.250000 0.250000 0.612973
O O7 0.345091 0.258929 0.740097
O O8 0.416175 0.272846 0.598053
O O9 0.871696 0.500000 0.810769
O O10 0.901291 0.246995 0.888247
O O11 0.000000 0.322100 0.771806
O O12 0.000000 0.732496 0.468384
O O13 0.000000 0.000000 0.533153
O O14 0.500000 0.000000 0.373838
O O15 0.335710 0.500000 0.945399
O O16 0.250000 0.250000 0.945320
O O17 0.379536 0.285303 0.041992
O O18 0.877701 0.500000 0.086381
O O19 0.000000 0.680968 0.134738
#
# Coordination Sequence:
#
# PCOD8173696 Si02
#       7
#     8   8   8   4   4   8   8
#     4  10  21  39  63  92 124 164 206 253 308 367
#     4  11  23  42  66  94 128 165 207 255 310 368
#     4  11  23  40  63  90 121 161 208 254 308 367
#     4  10  24  44  66  93 128 163 200 253 312 369
#     4  10  22  42  66  91 124 163 204 249 308 375
#     4  12  25  39  56  83 121 162 209 259 308 361
#     4  10  20  38  62  86 120 162 205 253 309 368
#
# _framework density 20.540254999999998
#
# number of rings (size 3 to 8) (size 9 to 14) (size 15 to 20)
#    0.000    1.333    1.667    4.000    0.000    8.000 
#    0.000    3.333    0.000    0.000    0.000    0.000 
#    0.000    0.000    0.000    0.000    0.000    0.000 
#
# Total GULP energy -297725.363314 kJ/mol
# GULP energy per Si atom -12405.223471 kJ/mol
# Density = 2.049350 g / cm^3
# Si number density = 20.540255 Si / 1000 Ang^3
#
#
#
# Elastic Constant Matrix: (Units=GPa)
#
#
# Indices 1 2 3 4 5 6 
#
# 1 151.2782 50.3517 57.2394 0.0000 0.0000 0.0000
# 2 50.3517 99.0344 48.7292 0.0000 0.0000 0.0000
# 3 57.2394 48.7292 109.0961 0.0000 0.0000 0.0000
# 4 0.0000 0.0000 0.0000 32.9762 0.0000 0.0000
# 5 0.0000 0.0000 0.0000 0.0000 21.7530 0.0000
# 6 0.0000 0.0000 0.0000 0.0000 0.0000 34.9230
#
#
#
# Elastic Compliance Matrix: (Units=1/GPa)
#
#
# Indices 1 2 3 4 5 6 
#
# 1 0.008826 -0.002831 -0.003366 0.000000 0.000000 0.000000
# 2 -0.002831 0.013850 -0.004701 0.000000 0.000000 0.000000
# 3 -0.003366 -0.004701 0.013032 0.000000 0.000000 0.000000
# 4 0.000000 0.000000 0.000000 0.030325 0.000000 0.000000
# 5 0.000000 0.000000 0.000000 0.000000 0.045971 0.000000
# 6 0.000000 0.000000 0.000000 0.000000 0.000000 0.028634
#
#
# Mechanical properties :
#
#
# Convention : Reuss Voigt Hill
#
# Bulk Modulus (GPa) = 71.88164 74.67217 73.27690
# Shear Modulus (GPa) = 29.92712 31.46966 30.69839
#
# Velocity S-wave (km/s) = 3.82121 3.91845 3.87013
# Velocity P-wave (km/s) = 7.38514 7.54356 7.46477
#
# Compressibility (1/GPa) = 0.01391176
#
# Stress axis : x y z
#
# Youngs Moduli (GPa) = 113.29630 72.20233 76.73334
#
# Poissons Ratio (x) = 0.20442 0.25831
# Poissons Ratio (y) = 0.32076 0.36071
# Poissons Ratio (z) = 0.38140 0.33941
#
# Static dielectric constant tensor:
#      x y z
#    x 3.978300 0.000000 0.000000 
#    y 0.000000 3.694030 0.000000 
#    z 0.000000 0.000000 3.651880 
# 
# 
# High freq. dielectric constant tensor:
#      x y z
#    x 1.820180 0.000000 0.000000 
#    y 0.000000 1.798840 0.000000 
#    z 0.000000 0.000000 1.798930 
# 
# From -- ./inp_files/15196.got.cif
#   From: 2010.03.12/outbox.cif.g09.slc.cpg/sg35_8_cif.got.tgz:15196.got - 2010.04.14 02:02:04.
