data_PCOD8173162
_publ_section_title
;
Structure prediction by ZEFSAII (Michael W. Deem and Ramdas Pophale) SiO2 
 PCOD8173162
Probable space group: C M M 2
;
_chemical_formula_sum "Si O2"
_cell_formula_units_Z 64
_cell_length_a 18.395405
_cell_length_b 13.186063
_cell_length_c 12.640806
_cell_angle_alpha 90.000000
_cell_angle_beta 90.000000
_cell_angle_gamma 90.000000
_cell_volume 3066.191437
_symmetry_space_group_name_H-M "C M M 2"
_symmetry_group_IT_number 35
_symmetry_cell_setting 'orthorhombic'
loop_
_space_group_symop_operation_xyz
x,y,z
-x,-y,z
-x,y,z
x,-y,z
1/2+x,1/2+y,z
1/2-x,1/2-y,z
1/2-x,1/2+y,z
1/2+x,1/2-y,z
loop_
_atom_site_type_symbol
_atom_site_label
_atom_site_fract_x
_atom_site_fract_y
_atom_site_fract_z
Si Si1 0.417803 0.189753 0.919820
Si Si2 0.865468 0.619002 0.142726
Si Si3 0.583458 0.879708 0.697833
Si Si4 0.832566 0.885213 0.414002
Si Si5 0.208905 0.114103 0.177501
Si Si6 0.581810 0.615226 0.032889
Si Si7 0.582094 0.803354 0.356570
Si Si8 0.812184 0.384204 0.516903
O O1 0.500000 0.156372 0.905247
O O2 0.381076 0.154394 0.810292
O O3 0.408676 0.311587 0.931740
O O4 0.392175 0.131031 0.023542
O O5 0.867501 0.500000 0.173232
O O6 0.784224 0.667644 0.144413
O O7 0.911552 0.682231 0.229613
O O8 0.500000 0.839046 0.680030
O O9 0.640008 0.833032 0.611109
O O10 0.582319 0.000000 0.689713
O O11 0.792525 0.883711 0.302448
O O12 0.900622 0.809735 0.402473
O O13 0.770901 0.842456 0.496571
O O14 0.859098 0.000000 0.441325
O O15 0.212191 0.000000 0.133910
O O16 0.136199 0.159491 0.122797
O O17 0.500000 0.624740 0.079456
O O18 0.597587 0.500000 0.997038
O O19 0.500000 0.828957 0.390857
O O20 0.639628 0.878668 0.410458
O O21 0.799144 0.500000 0.545513
#
# Coordination Sequence:
#
# PCOD8173162 Si02
#       8
#     8   8   8   8   8   8   8   8
#     4  10  20  33  53  83 118 154 187 227 287 351
#     4  11  22  35  53  83 122 157 188 232 289 353
#     4   9  18  34  57  84 114 147 184 232 291 353
#     4  10  21  38  58  80 111 152 195 239 285 333
#     4   9  18  33  53  76 108 151 189 226 278 334
#     4   9  18  33  54  80 112 152 197 240 279 334
#     4  12  24  35  56  88 118 153 191 231 285 350
#     4  10  20  37  61  86 110 144 191 242 292 342
#
# _framework density 20.872800000000002
#
# number of rings (size 3 to 8) (size 9 to 14) (size 15 to 20)
#    0.000    2.000    1.250    2.625    0.000    6.000 
#    0.000    1.250    5.500    0.750    0.000    1.750 
#    0.000    0.000    0.000    0.000    0.000    0.000 
#
# Total GULP energy -396456.941541 kJ/mol
# GULP energy per Si atom -12389.279423 kJ/mol
# Density = 2.082529 g / cm^3
# Si number density = 20.872800 Si / 1000 Ang^3
#
#
#
# Elastic Constant Matrix: (Units=GPa)
#
#
# Indices 1 2 3 4 5 6 
#
# 1 75.7966 9.1181 17.3592 0.0000 0.0000 0.0000
# 2 9.1181 49.5937 5.2349 0.0000 0.0000 0.0000
# 3 17.3592 5.2349 87.5340 0.0000 0.0000 0.0000
# 4 0.0000 0.0000 0.0000 25.5874 0.0000 0.0000
# 5 0.0000 0.0000 0.0000 0.0000 30.7259 0.0000
# 6 0.0000 0.0000 0.0000 0.0000 0.0000 11.2258
#
#
#
# Elastic Compliance Matrix: (Units=1/GPa)
#
#
# Indices 1 2 3 4 5 6 
#
# 1 0.014079 -0.002308 -0.002654 0.000000 0.000000 0.000000
# 2 -0.002308 0.020670 -0.000778 0.000000 0.000000 0.000000
# 3 -0.002654 -0.000778 0.011997 0.000000 0.000000 0.000000
# 4 0.000000 0.000000 0.000000 0.039082 0.000000 0.000000
# 5 0.000000 0.000000 0.000000 0.000000 0.032546 0.000000
# 6 0.000000 0.000000 0.000000 0.000000 0.000000 0.089080
#
#
# Mechanical properties :
#
#
# Convention : Reuss Voigt Hill
#
# Bulk Modulus (GPa) = 28.35692 30.70541 29.53116
# Shear Modulus (GPa) = 21.67409 25.58864 23.63136
#
# Velocity S-wave (km/s) = 3.22590 3.50513 3.36841
# Velocity P-wave (km/s) = 5.24312 5.57888 5.41360
#
# Compressibility (1/GPa) = 0.03526476
#
# Stress axis : x y z
#
# Youngs Moduli (GPa) = 71.02925 48.37835 83.35422
#
# Poissons Ratio (x) = 0.11167 0.22122
# Poissons Ratio (y) = 0.16396 0.06488
# Poissons Ratio (z) = 0.18851 0.03766
#
# Static dielectric constant tensor:
#      x y z
#    x 3.929780 0.000000 0.000000 
#    y 0.000000 3.961620 0.000000 
#    z 0.000000 0.000000 3.695400 
# 
# 
# High freq. dielectric constant tensor:
#      x y z
#    x 1.812610 0.000000 0.000000 
#    y 0.000000 1.823890 0.000000 
#    z 0.000000 0.000000 1.788560 
# 
# From -- ./inp_files/13572.got.cif
#   From: 2010.03.12/outbox.cif.g09.slc.cpg/sg35_7_cif.got.tgz:13572.got - 2010.04.14 02:02:04.
