data_PCOD8173244
_publ_section_title
;
Structure prediction by ZEFSAII (Michael W. Deem and Ramdas Pophale) SiO2 
 PCOD8173244
Probable space group: C M M 2
;
_chemical_formula_sum "Si O2"
_cell_formula_units_Z 56
_cell_length_a 18.610549
_cell_length_b 8.854209
_cell_length_c 17.905429
_cell_angle_alpha 90.000000
_cell_angle_beta 90.000000
_cell_angle_gamma 90.000000
_cell_volume 2950.486859
_symmetry_space_group_name_H-M "C M M 2"
_symmetry_group_IT_number 35
_symmetry_cell_setting 'orthorhombic'
loop_
_space_group_symop_operation_xyz
x,y,z
-x,-y,z
-x,y,z
x,-y,z
1/2+x,1/2+y,z
1/2-x,1/2-y,z
1/2-x,1/2+y,z
1/2+x,1/2-y,z
loop_
_atom_site_type_symbol
_atom_site_label
_atom_site_fract_x
_atom_site_fract_y
_atom_site_fract_z
Si Si1 0.419863 0.820565 0.809510
Si Si2 0.828243 0.679087 0.669299
Si Si3 0.585253 0.671311 0.236827
Si Si4 0.085272 0.669868 0.385542
Si Si5 0.325078 0.178214 0.112922
Si Si6 0.584199 0.324076 0.537535
Si Si7 0.175797 0.677541 0.943724
O O1 0.500000 0.751994 0.802409
O O2 0.371101 0.760582 0.741685
O O3 0.386542 0.765428 0.888166
O O4 0.423590 0.000000 0.806787
O O5 0.820928 0.500000 0.669478
O O6 0.750000 0.750000 0.669333
O O7 0.871885 0.728962 0.597028
O O8 0.500000 0.676796 0.235963
O O9 0.613571 0.500000 0.235742
O O10 0.616170 0.751699 0.311028
O O11 0.611817 0.759067 0.164123
O O12 0.116245 0.500000 0.391747
O O13 0.109905 0.767945 0.456373
O O14 0.000000 0.665645 0.381239
O O15 0.250000 0.250000 0.138434
O O16 0.319812 0.000000 0.121683
O O17 0.343839 0.226383 0.027999
O O18 0.500000 0.292196 0.549708
O O19 0.602436 0.500000 0.545122
O O20 0.185981 0.500000 0.937793
O O21 0.250000 0.750000 0.917087
#
# Coordination Sequence:
#
# PCOD8173244 Si02
#       7
#     8   8   8   8   8   8   8
#     4   9  18  33  54  80 107 136 174 219 265 314
#     4  11  22  36  55  78 107 143 181 220 265 317
#     4  10  20  34  53  78 109 143 179 221 268 316
#     4   9  17  31  53  80 108 139 177 218 262 315
#     4  10  20  34  53  77 106 142 182 222 267 319
#     4  10  20  35  56  81 109 140 176 219 266 316
#     4   9  18  33  54  77 103 137 175 217 264 316
#
# _framework density 18.979918000000001
#
# number of rings (size 3 to 8) (size 9 to 14) (size 15 to 20)
#    0.000    2.286    0.000    3.000    0.000    5.143 
#    0.000    2.857    0.000    2.143    0.000    0.000 
#    0.000    0.000    0.000    0.000    0.000    0.000 
#
# Total GULP energy -347245.942699 kJ/mol
# GULP energy per Si atom -12401.640811 kJ/mol
# Density = 1.893672 g / cm^3
# Si number density = 18.979918 Si / 1000 Ang^3
#
#
#
# Elastic Constant Matrix: (Units=GPa)
#
#
# Indices 1 2 3 4 5 6 
#
# 1 78.9315 33.8614 57.8496 0.0000 0.0000 0.0000
# 2 33.8614 78.9021 38.1669 0.0000 0.0000 0.0000
# 3 57.8496 38.1669 134.9606 0.0000 0.0000 0.0000
# 4 0.0000 0.0000 0.0000 24.0487 0.0000 0.0000
# 5 0.0000 0.0000 0.0000 0.0000 14.4365 0.0000
# 6 0.0000 0.0000 0.0000 0.0000 0.0000 24.5132
#
#
#
# Elastic Compliance Matrix: (Units=1/GPa)
#
#
# Indices 1 2 3 4 5 6 
#
# 1 0.020146 -0.005177 -0.007171 0.000000 0.000000 0.000000
# 2 -0.005177 0.016013 -0.002309 0.000000 0.000000 0.000000
# 3 -0.007171 -0.002309 0.011137 0.000000 0.000000 0.000000
# 4 0.000000 0.000000 0.000000 0.041582 0.000000 0.000000
# 5 0.000000 0.000000 0.000000 0.000000 0.069269 0.000000
# 6 0.000000 0.000000 0.000000 0.000000 0.000000 0.040794
#
#
# Mechanical properties :
#
#
# Convention : Reuss Voigt Hill
#
# Bulk Modulus (GPa) = 55.61696 61.39442 58.50569
# Shear Modulus (GPa) = 21.34475 23.46075 22.40275
#
# Velocity S-wave (km/s) = 3.35714 3.51961 3.43933
# Velocity P-wave (km/s) = 6.66287 6.99529 6.83111
#
# Compressibility (1/GPa) = 0.01798013
#
# Stress axis : x y z
#
# Youngs Moduli (GPa) = 49.63749 62.45031 89.79373
#
# Poissons Ratio (x) = 0.32329 0.64395
# Poissons Ratio (y) = 0.25696 0.20737
# Poissons Ratio (z) = 0.35597 0.14422
#
# Static dielectric constant tensor:
#      x y z
#    x 3.387930 0.000000 0.000000 
#    y 0.000000 3.490540 0.000000 
#    z 0.000000 0.000000 3.706500 
# 
# 
# High freq. dielectric constant tensor:
#      x y z
#    x 1.718300 0.000000 0.000000 
#    y 0.000000 1.735480 0.000000 
#    z 0.000000 0.000000 1.753030 
# 
# From -- ./inp_files/15583.got.cif
#   From: 2010.03.12/outbox.cif.g09.slc.cpg/sg35_8_cif.got.tgz:15583.got - 2010.04.14 02:02:04.
