data_PCOD8173024
_publ_section_title
;
Structure prediction by ZEFSAII (Michael W. Deem and Ramdas Pophale) SiO2 
 PCOD8173024
Probable space group: C M M 2
;
_chemical_formula_sum "Si O2"
_cell_formula_units_Z 64
_cell_length_a 9.244807
_cell_length_b 18.430187
_cell_length_c 20.311475
_cell_angle_alpha 90.000000
_cell_angle_beta 90.000000
_cell_angle_gamma 90.000000
_cell_volume 3460.740643
_symmetry_space_group_name_H-M "C M M 2"
_symmetry_group_IT_number 35
_symmetry_cell_setting 'orthorhombic'
loop_
_space_group_symop_operation_xyz
x,y,z
-x,-y,z
-x,y,z
x,-y,z
1/2+x,1/2+y,z
1/2-x,1/2-y,z
1/2-x,1/2+y,z
1/2+x,1/2-y,z
loop_
_atom_site_type_symbol
_atom_site_label
_atom_site_fract_x
_atom_site_fract_y
_atom_site_fract_z
Si Si1 0.666853 0.584038 0.759710
Si Si2 0.162996 0.413661 0.236439
Si Si3 0.670374 0.582888 0.506517
Si Si4 0.169941 0.174338 0.631244
Si Si5 0.668290 0.822813 0.012160
Si Si6 0.167797 0.677220 0.858920
Si Si7 0.836566 0.086105 0.112418
Si Si8 0.662579 0.913858 0.381195
O O1 0.500000 0.597695 0.778411
O O2 0.697306 0.500000 0.746218
O O3 0.711272 0.626985 0.694430
O O4 0.766267 0.609603 0.819909
O O5 0.164890 0.500000 0.235015
O O6 0.270123 0.382701 0.180630
O O7 0.214370 0.386199 0.308910
O O8 0.000000 0.386149 0.222144
O O9 0.500000 0.586415 0.499409
O O10 0.721676 0.500000 0.518186
O O11 0.725335 0.630864 0.567359
O O12 0.736553 0.616483 0.439423
O O13 0.250000 0.250000 0.636110
O O14 0.000000 0.188745 0.627299
O O15 0.500000 0.815431 0.029932
O O16 0.750000 0.750000 0.033596
O O17 0.739169 0.888839 0.051456
O O18 0.691512 0.839215 0.935491
O O19 0.250000 0.750000 0.836859
O O20 0.000000 0.687029 0.841273
O O21 0.000000 0.115536 0.105504
O O22 0.834010 0.000000 0.112348
O O23 0.500000 0.886758 0.394533
O O24 0.669258 0.000000 0.381279
#
# Coordination Sequence:
#
# PCOD8173024 Si02
#       8
#     8   8   8   8   8   8   8   8
#     4  10  21  37  57  80 107 138 170 209 257 305
#     4   8  14  26  44  67  98 134 168 205 254 308
#     4   9  17  30  49  72  98 128 163 206 254 303
#     4  10  21  36  53  74 101 135 173 208 248 301
#     4  10  21  37  56  76 102 137 174 212 256 307
#     4  10  21  37  57  80 105 135 172 212 254 305
#     4  10  20  32  49  76 107 137 173 217 259 303
#     4   8  14  25  43  69  99 129 163 205 253 303
#
# _framework density 18.493151999999998
#
# number of rings (size 3 to 8) (size 9 to 14) (size 15 to 20)
#    0.000    2.625    0.000    2.625    0.000    7.000 
#    0.000    5.000    0.000    3.000    0.000    1.750 
#    0.000    0.000    0.000    0.000    0.000    0.000 
#
# Total GULP energy -396778.473802 kJ/mol
# GULP energy per Si atom -12399.327306 kJ/mol
# Density = 1.845106 g / cm^3
# Si number density = 18.493152 Si / 1000 Ang^3
#
#
#
# Elastic Constant Matrix: (Units=GPa)
#
#
# Indices 1 2 3 4 5 6 
#
# 1 98.7354 43.8933 68.4663 0.0000 0.0000 0.0000
# 2 43.8933 71.7075 51.9689 0.0000 0.0000 0.0000
# 3 68.4663 51.9689 121.9143 0.0000 0.0000 0.0000
# 4 0.0000 0.0000 0.0000 11.0957 0.0000 0.0000
# 5 0.0000 0.0000 0.0000 0.0000 35.5424 0.0000
# 6 0.0000 0.0000 0.0000 0.0000 0.0000 27.5512
#
#
#
# Elastic Compliance Matrix: (Units=1/GPa)
#
#
# Indices 1 2 3 4 5 6 
#
# 1 0.017883 -0.005308 -0.007780 0.000000 0.000000 0.000000
# 2 -0.005308 0.021755 -0.006293 0.000000 0.000000 0.000000
# 3 -0.007780 -0.006293 0.015254 0.000000 0.000000 0.000000
# 4 0.000000 0.000000 0.000000 0.090125 0.000000 0.000000
# 5 0.000000 0.000000 0.000000 0.000000 0.028135 0.000000
# 6 0.000000 0.000000 0.000000 0.000000 0.000000 0.036296
#
#
# Mechanical properties :
#
#
# Convention : Reuss Voigt Hill
#
# Bulk Modulus (GPa) = 61.99442 69.00159 65.49800
# Shear Modulus (GPa) = 19.71709 23.37311 21.54510
#
# Velocity S-wave (km/s) = 3.26879 3.55896 3.41696
# Velocity P-wave (km/s) = 6.91681 7.36758 7.14575
#
# Compressibility (1/GPa) = 0.01613048
#
# Stress axis : x y z
#
# Youngs Moduli (GPa) = 55.91983 45.96626 65.55502
#
# Poissons Ratio (x) = 0.24397 0.51004
# Poissons Ratio (y) = 0.29680 0.41253
# Poissons Ratio (z) = 0.43508 0.28926
#
# Static dielectric constant tensor:
#      x y z
#    x 3.491990 0.000000 0.000000 
#    y 0.000000 3.087210 0.000000 
#    z 0.000000 0.000000 3.694030 
# 
# 
# High freq. dielectric constant tensor:
#      x y z
#    x 1.717760 0.000000 0.000000 
#    y 0.000000 1.684190 0.000000 
#    z 0.000000 0.000000 1.731640 
# 
# From -- ./inp_files/18328.got.cif
#   From: 2010.03.12/outbox.cif.g09.slc.cpg/sg35_10_cif.got.tgz:18328.got - 2010.04.14 02:02:04.
