data_PCOD8173631
_publ_section_title
;
Structure prediction by ZEFSAII (Michael W. Deem and Ramdas Pophale) SiO2 
 PCOD8173631
Probable space group: C M M 2
;
_chemical_formula_sum "Si O2"
_cell_formula_units_Z 48
_cell_length_a 8.624366
_cell_length_b 15.437355
_cell_length_c 18.684908
_cell_angle_alpha 90.000000
_cell_angle_beta 90.000000
_cell_angle_gamma 90.000000
_cell_volume 2487.660063
_symmetry_space_group_name_H-M "C M M 2"
_symmetry_group_IT_number 35
_symmetry_cell_setting 'orthorhombic'
loop_
_space_group_symop_operation_xyz
x,y,z
-x,-y,z
-x,y,z
x,-y,z
1/2+x,1/2+y,z
1/2-x,1/2-y,z
1/2-x,1/2+y,z
1/2+x,1/2-y,z
loop_
_atom_site_type_symbol
_atom_site_label
_atom_site_fract_x
_atom_site_fract_y
_atom_site_fract_z
Si Si1 0.816007 0.342719 0.389560
Si Si2 0.182388 0.000000 0.477048
Si Si3 0.683156 0.658871 0.235191
Si Si4 0.816090 0.340078 0.889788
Si Si5 0.317345 0.160393 0.728111
Si Si6 0.183985 0.500000 0.632340
Si Si7 0.817136 0.500000 0.979860
Si Si8 0.680771 0.500000 0.134965
O O1 0.750000 0.250000 0.414070
O O2 0.756909 0.414474 0.443927
O O3 0.759146 0.366811 0.310349
O O4 0.000000 0.339262 0.390839
O O5 0.218475 0.000000 0.560467
O O6 0.000000 0.000000 0.462673
O O7 0.500000 0.666488 0.246390
O O8 0.750000 0.750000 0.206648
O O9 0.728288 0.585213 0.178864
O O10 0.750000 0.250000 0.919609
O O11 0.756699 0.356877 0.808801
O O12 0.748579 0.415371 0.940532
O O13 0.000000 0.337112 0.892582
O O14 0.500000 0.167147 0.728642
O O15 0.250000 0.250000 0.697525
O O16 0.262406 0.083396 0.677149
O O17 0.000000 0.500000 0.616883
O O18 0.000000 0.500000 0.971282
O O19 0.775136 0.500000 0.062409
O O20 0.500000 0.500000 0.117230
#
# Coordination Sequence:
#
# PCOD8173631 Si02
#       8
#     8   4   8   8   8   4   4   4
#     4  11  22  39  63  89 114 145 186 232 279 332
#     4  12  25  40  57  82 117 154 189 230 276 330
#     4  10  20  37  59  83 110 143 182 227 274 325
#     4   9  18  34  55  80 105 137 178 223 271 322
#     4   9  18  34  57  80 106 138 178 224 272 324
#     4  10  21  37  55  78 109 147 183 222 274 332
#     4  10  21  35  53  76 107 143 181 220 266 324
#     4  10  23  38  53  76 111 148 181 220 272 324
#
# _framework density 19.295241000000001
#
# number of rings (size 3 to 8) (size 9 to 14) (size 15 to 20)
#    0.000    2.000    0.000    4.750    0.000    6.667 
#    0.000    5.000    0.000    5.000    0.000    0.000 
#    0.000    0.000    0.000    0.000    0.000    0.000 
#
# Total GULP energy -297666.874898 kJ/mol
# GULP energy per Si atom -12402.786454 kJ/mol
# Density = 1.925132 g / cm^3
# Si number density = 19.295241 Si / 1000 Ang^3
#
#
#
# Elastic Constant Matrix: (Units=GPa)
#
#
# Indices 1 2 3 4 5 6 
#
# 1 81.8341 50.0611 41.5291 0.0000 0.0000 0.0000
# 2 50.0611 183.1607 98.2269 0.0000 0.0000 0.0000
# 3 41.5291 98.2269 118.6775 0.0000 0.0000 0.0000
# 4 0.0000 0.0000 0.0000 -1.8855 0.0000 0.0000
# 5 0.0000 0.0000 0.0000 0.0000 30.5048 0.0000
# 6 0.0000 0.0000 0.0000 0.0000 0.0000 30.2553
#
#
#
# Elastic Compliance Matrix: (Units=1/GPa)
#
#
# Indices 1 2 3 4 5 6 
#
# 1 0.015412 -0.002374 -0.003428 0.000000 0.000000 0.000000
# 2 -0.002374 0.010183 -0.007598 0.000000 0.000000 0.000000
# 3 -0.003428 -0.007598 0.015914 0.000000 0.000000 0.000000
# 4 0.000000 0.000000 0.000000 -0.530373 0.000000 0.000000
# 5 0.000000 0.000000 0.000000 0.000000 0.032782 0.000000
# 6 0.000000 0.000000 0.000000 0.000000 0.000000 0.033052
#
#
# Mechanical properties :
#
#
# Convention : Reuss Voigt Hill
#
# Bulk Modulus (GPa) = 67.98278 84.81181 76.39730
# Shear Modulus (GPa) = -12.77701 24.69861 5.96080
#
# Velocity S-wave (km/s) = -2.57609 3.58164 1.75954
# Velocity P-wave (km/s) = 5.14404 7.82013 6.61874
#
# Compressibility (1/GPa) = 0.01470961
#
# Stress axis : x y z
#
# Youngs Moduli (GPa) = 64.88545 98.20328 62.83664
#
# Poissons Ratio (x) = 0.23310 0.21543
# Poissons Ratio (y) = 0.15402 0.47741
# Poissons Ratio (z) = 0.22245 0.74611
#
# Static dielectric constant tensor:
#      x y z
#    x 3.442910 0.000000 0.000000 
#    y 0.000000 3.892820 0.000000 
#    z 0.000000 0.000000 3.496420 
# 
# 
# High freq. dielectric constant tensor:
#      x y z
#    x 1.747750 0.000000 0.000000 
#    y 0.000000 1.768880 0.000000 
#    z 0.000000 0.000000 1.745640 
# 
# From -- ./inp_files/17970.got.cif
#   From: 2010.03.12/outbox.cif.g09.slc.cpg/sg35_9_cif.got.tgz:17970.got - 2010.04.14 02:02:04.
