data_PCOD8173421
_publ_section_title
;
Structure prediction by ZEFSAII (Michael W. Deem and Ramdas Pophale) SiO2 
 PCOD8173421
Probable space group: C M M 2
;
_chemical_formula_sum "Si O2"
_cell_formula_units_Z 48
_cell_length_a 19.327635
_cell_length_b 17.946111
_cell_length_c 7.487648
_cell_angle_alpha 90.000000
_cell_angle_beta 90.000000
_cell_angle_gamma 90.000000
_cell_volume 2597.134759
_symmetry_space_group_name_H-M "C M M 2"
_symmetry_group_IT_number 35
_symmetry_cell_setting 'orthorhombic'
loop_
_space_group_symop_operation_xyz
x,y,z
-x,-y,z
-x,y,z
x,-y,z
1/2+x,1/2+y,z
1/2-x,1/2-y,z
1/2-x,1/2+y,z
1/2+x,1/2-y,z
loop_
_atom_site_type_symbol
_atom_site_label
_atom_site_fract_x
_atom_site_fract_y
_atom_site_fract_z
Si Si1 0.280615 0.330662 0.310490
Si Si2 0.805856 0.914034 0.660532
Si Si3 0.422203 0.829217 0.995292
Si Si4 0.421588 0.295371 0.715608
Si Si5 0.423788 0.728905 0.317173
Si Si6 0.290133 0.915779 0.994699
O O1 0.250000 0.250000 0.361681
O O2 0.271220 0.385010 0.478343
O O3 0.362418 0.327176 0.260867
O O4 0.240376 0.360783 0.141046
O O5 0.874004 0.868342 0.715142
O O6 0.748030 0.902844 0.809369
O O7 0.827619 0.000000 0.639005
O O8 0.500000 0.854519 0.944271
O O9 0.397992 0.760157 0.871933
O O10 0.371035 0.898024 0.964932
O O11 0.418142 0.804409 0.202549
O O12 0.500000 0.322426 0.749601
O O13 0.415237 0.251608 0.526829
O O14 0.500000 0.691956 0.282597
O O15 0.282226 0.000000 0.062320
#
# Coordination Sequence:
#
# PCOD8173421 Si02
#       6
#     8   8   8   8   8   8
#     4  11  21  35  60  85 106 149 188 227 273 328
#     4  10  23  37  54  83 118 147 178 226 280 334
#     4  10  20  35  56  80 107 142 187 232 271 324
#     4   9  19  34  56  82 109 143 185 226 265 323
#     4   9  18  33  53  83 110 134 178 227 269 316
#     4  11  24  38  54  81 116 147 181 232 284 332
#
# _framework density 18.481905999999999
#
# number of rings (size 3 to 8) (size 9 to 14) (size 15 to 20)
#    0.000    2.000    1.667    1.500    4.667    0.667 
#    0.000    0.000    0.000    2.500    0.000   11.667 
#    0.000    0.000    0.000    0.000    0.000    0.000 
#
# Total GULP energy -297576.229868 kJ/mol
# GULP energy per Si atom -12399.009578 kJ/mol
# Density = 1.843984 g / cm^3
# Si number density = 18.481906 Si / 1000 Ang^3
#
#
#
# Elastic Constant Matrix: (Units=GPa)
#
#
# Indices 1 2 3 4 5 6 
#
# 1 115.4693 43.0600 34.6696 0.0000 0.0000 0.0000
# 2 43.0600 66.8071 32.8670 0.0000 0.0000 0.0000
# 3 34.6696 32.8670 75.6414 0.0000 0.0000 0.0000
# 4 0.0000 0.0000 0.0000 27.7370 0.0000 0.0000
# 5 0.0000 0.0000 0.0000 0.0000 24.0498 0.0000
# 6 0.0000 0.0000 0.0000 0.0000 0.0000 22.1103
#
#
#
# Elastic Compliance Matrix: (Units=1/GPa)
#
#
# Indices 1 2 3 4 5 6 
#
# 1 0.011812 -0.006296 -0.002678 0.000000 0.000000 0.000000
# 2 -0.006296 0.022394 -0.006845 0.000000 0.000000 0.000000
# 3 -0.002678 -0.006845 0.017422 0.000000 0.000000 0.000000
# 4 0.000000 0.000000 0.000000 0.036053 0.000000 0.000000
# 5 0.000000 0.000000 0.000000 0.000000 0.041580 0.000000
# 6 0.000000 0.000000 0.000000 0.000000 0.000000 0.045228
#
#
# Mechanical properties :
#
#
# Convention : Reuss Voigt Hill
#
# Bulk Modulus (GPa) = 50.02470 53.23455 51.62963
# Shear Modulus (GPa) = 23.49731 24.60086 24.04908
#
# Velocity S-wave (km/s) = 3.56949 3.65235 3.61116
# Velocity P-wave (km/s) = 6.64184 6.83025 6.73670
#
# Compressibility (1/GPa) = 0.01999013
#
# Stress axis : x y z
#
# Youngs Moduli (GPa) = 84.65745 44.65529 57.39863
#
# Poissons Ratio (x) = 0.28114 0.15374
# Poissons Ratio (y) = 0.53299 0.39288
# Poissons Ratio (z) = 0.22675 0.30565
#
# Static dielectric constant tensor:
#      x y z
#    x 3.675570 0.000000 0.000000 
#    y 0.000000 3.175880 0.000000 
#    z 0.000000 0.000000 3.533570 
# 
# 
# High freq. dielectric constant tensor:
#      x y z
#    x 1.733750 0.000000 0.000000 
#    y 0.000000 1.682100 0.000000 
#    z 0.000000 0.000000 1.730500 
# 
# From -- ./inp_files/7335.got.cif
#   From: 2010.03.12/outbox.cif.g09.slc.cpg/sg35_4_cif.got.tgz:7335.got - 2010.04.14 02:02:04.
