data_PCOD8173976
_publ_section_title
;
Structure prediction by ZEFSAII (Michael W. Deem and Ramdas Pophale) SiO2 
 PCOD8173976
Probable space group: C M M 2
;
_chemical_formula_sum "Si O2"
_cell_formula_units_Z 48
_cell_length_a 15.690157
_cell_length_b 8.609394
_cell_length_c 17.108656
_cell_angle_alpha 90.000000
_cell_angle_beta 90.000000
_cell_angle_gamma 90.000000
_cell_volume 2311.084191
_symmetry_space_group_name_H-M "C M M 2"
_symmetry_group_IT_number 35
_symmetry_cell_setting 'orthorhombic'
loop_
_space_group_symop_operation_xyz
x,y,z
-x,-y,z
-x,y,z
x,-y,z
1/2+x,1/2+y,z
1/2-x,1/2-y,z
1/2-x,1/2+y,z
1/2+x,1/2-y,z
loop_
_atom_site_type_symbol
_atom_site_label
_atom_site_fract_x
_atom_site_fract_y
_atom_site_fract_z
Si Si1 0.404311 0.668681 0.818000
Si Si2 0.845825 0.815864 0.129779
Si Si3 0.841492 0.316403 0.667441
Si Si4 0.000000 0.317945 0.225316
Si Si5 0.341595 0.682142 0.501878
Si Si6 0.000000 0.181226 0.392130
Si Si7 0.658125 0.817644 0.972895
O O1 0.500000 0.632915 0.839001
O O2 0.356076 0.500000 0.815027
O O3 0.402583 0.757778 0.735916
O O4 0.371524 0.776967 0.886733
O O5 0.750000 0.750000 0.145416
O O6 0.912628 0.758641 0.194568
O O7 0.839555 0.000000 0.132124
O O8 0.888985 0.760450 0.047111
O O9 0.840292 0.500000 0.664555
O O10 0.750000 0.250000 0.689784
O O11 0.872338 0.253137 0.584155
O O12 0.000000 0.500000 0.206248
O O13 0.000000 0.291148 0.317854
O O14 0.329963 0.500000 0.513784
O O15 0.250000 0.750000 0.475052
O O16 0.414671 0.722633 0.440221
O O17 0.000000 0.000000 0.368854
O O18 0.750000 0.750000 0.984042
O O19 0.654301 0.000000 0.983610
#
# Coordination Sequence:
#
# PCOD8173976 Si02
#       7
#     8   8   8   4   8   4   8
#     4  11  24  39  56  82 119 161 206 253 308 363
#     4  11  23  43  69  97 131 170 215 263 319 380
#     4  11  22  38  60  86 118 157 204 253 306 363
#     4  12  26  44  68  99 132 169 212 260 318 383
#     4  10  21  40  65  93 125 165 209 256 313 373
#     4  10  24  44  66  93 128 167 206 254 316 381
#     4  11  22  39  62  88 121 159 206 255 307 366
#
# _framework density 20.769472
#
# number of rings (size 3 to 8) (size 9 to 14) (size 15 to 20)
#    0.000    1.167    0.000    8.750    2.333    3.333 
#    0.000    1.667    0.000    0.000    0.000    0.000 
#    0.000    0.000    0.000    0.000    0.000    0.000 
#
# Total GULP energy -297503.468036 kJ/mol
# GULP energy per Si atom -12395.977835 kJ/mol
# Density = 2.072220 g / cm^3
# Si number density = 20.769472 Si / 1000 Ang^3
#
#
#
# Elastic Constant Matrix: (Units=GPa)
#
#
# Indices 1 2 3 4 5 6 
#
# 1 -30.6289 65.3892 20.6189 0.0000 0.0000 0.0000
# 2 65.3892 192.7184 68.2511 0.0000 0.0000 0.0000
# 3 20.6189 68.2511 122.6393 0.0000 0.0000 0.0000
# 4 0.0000 0.0000 0.0000 39.4586 0.0000 0.0000
# 5 0.0000 0.0000 0.0000 0.0000 31.7769 0.0000
# 6 0.0000 0.0000 0.0000 0.0000 0.0000 7.8738
#
#
#
# Elastic Compliance Matrix: (Units=1/GPa)
#
#
# Indices 1 2 3 4 5 6 
#
# 1 -0.018910 0.006589 -0.000488 0.000000 0.000000 0.000000
# 2 0.006589 0.004167 -0.003427 0.000000 0.000000 0.000000
# 3 -0.000488 -0.003427 0.010143 0.000000 0.000000 0.000000
# 4 0.000000 0.000000 0.000000 0.025343 0.000000 0.000000
# 5 0.000000 0.000000 0.000000 0.000000 0.031469 0.000000
# 6 0.000000 0.000000 0.000000 0.000000 0.000000 0.127004
#
#
# Mechanical properties :
#
#
# Convention : Reuss Voigt Hill
#
# Bulk Modulus (GPa) = 1335.41769 65.91637 700.66703
# Shear Modulus (GPa) = 28.71655 24.51983 26.61819
#
# Velocity S-wave (km/s) = 3.72241 3.43967 3.58383
# Velocity P-wave (km/s) = 25.74572 6.89791 18.84706
#
# Compressibility (1/GPa) = 0.00074883
#
# Stress axis : x y z
#
# Youngs Moduli (GPa) = -52.88082 239.98906 98.59029
#
# Poissons Ratio (x) = -1.58128 0.04807
# Poissons Ratio (y) = 0.34843 0.33784
# Poissons Ratio (z) = -0.02578 0.82237
#
# Static dielectric constant tensor:
#      x y z
#    x 2.774400 0.000000 0.000000 
#    y 0.000000 3.798270 0.000000 
#    z 0.000000 0.000000 5.605220 
# 
# 
# High freq. dielectric constant tensor:
#      x y z
#    x 1.809730 0.000000 0.000000 
#    y 0.000000 1.833250 0.000000 
#    z 0.000000 0.000000 1.819620 
# 
# From -- ./inp_files/18801.got.cif
#   From: 2010.03.12/outbox.cif.g09.slc.cpg/sg35_10_cif.got.tgz:18801.got - 2010.04.14 02:02:04.
