data_PCOD8173260
_publ_section_title
;
Structure prediction by ZEFSAII (Michael W. Deem and Ramdas Pophale) SiO2 
 PCOD8173260
Probable space group: C M M 2
;
_chemical_formula_sum "Si O2"
_cell_formula_units_Z 32
_cell_length_a 26.542184
_cell_length_b 8.990955
_cell_length_c 7.798296
_cell_angle_alpha 90.000000
_cell_angle_beta 90.000000
_cell_angle_gamma 90.000000
_cell_volume 1860.982097
_symmetry_space_group_name_H-M "C M M 2"
_symmetry_group_IT_number 35
_symmetry_cell_setting 'orthorhombic'
loop_
_space_group_symop_operation_xyz
x,y,z
-x,-y,z
-x,y,z
x,-y,z
1/2+x,1/2+y,z
1/2-x,1/2-y,z
1/2-x,1/2+y,z
1/2+x,1/2-y,z
loop_
_atom_site_type_symbol
_atom_site_label
_atom_site_fract_x
_atom_site_fract_y
_atom_site_fract_z
Si Si1 0.603693 0.832091 0.444290
Si Si2 0.941139 0.328850 0.090415
Si Si3 0.698192 0.167961 0.639026
Si Si4 0.891487 0.175488 0.775254
O O1 0.587596 0.769531 0.259869
O O2 0.664937 0.830793 0.463125
O O3 0.581071 0.731457 0.599368
O O4 0.582584 0.000000 0.465869
O O5 0.926986 0.500000 0.050813
O O6 0.000000 0.309460 0.122797
O O7 0.924600 0.226121 0.934664
O O8 0.750000 0.250000 0.602493
O O9 0.664801 0.251888 0.785112
O O10 0.709008 0.000000 0.700627
O O11 0.886515 0.000000 0.774079
#
# Coordination Sequence:
#
# PCOD8173260 Si02
#       4
#     8   8   8   8
#     4   8  18  35  54  77 106 139 179 224 263 312
#     4  10  20  36  57  78 104 142 185 224 264 313
#     4   9  17  33  56  80 106 139 179 219 266 316
#     4  10  20  34  53  79 112 143 174 217 269 319
#
# _framework density 17.195221
#
# number of rings (size 3 to 8) (size 9 to 14) (size 15 to 20)
#    1.500    1.250    0.000    2.250    0.000    2.500 
#    0.000    3.750    0.000    3.000    0.000    0.000 
#    0.000    0.000    0.000    0.000    0.000    0.000 
#
# Total GULP energy -198228.750664 kJ/mol
# GULP energy per Si atom -12389.296916 kJ/mol
# Density = 1.715608 g / cm^3
# Si number density = 17.195221 Si / 1000 Ang^3
#
#
#
# Elastic Constant Matrix: (Units=GPa)
#
#
# Indices 1 2 3 4 5 6 
#
# 1 69.3924 34.7264 27.6571 0.0000 0.0000 0.0000
# 2 34.7264 124.4919 50.7495 0.0000 0.0000 0.0000
# 3 27.6571 50.7495 98.3439 0.0000 0.0000 0.0000
# 4 0.0000 0.0000 0.0000 8.4945 0.0000 0.0000
# 5 0.0000 0.0000 0.0000 0.0000 25.8843 0.0000
# 6 0.0000 0.0000 0.0000 0.0000 0.0000 26.9644
#
#
#
# Elastic Compliance Matrix: (Units=1/GPa)
#
#
# Indices 1 2 3 4 5 6 
#
# 1 0.017434 -0.003628 -0.003031 0.000000 0.000000 0.000000
# 2 -0.003628 0.010927 -0.004619 0.000000 0.000000 0.000000
# 3 -0.003031 -0.004619 0.013404 0.000000 0.000000 0.000000
# 4 0.000000 0.000000 0.000000 0.117723 0.000000 0.000000
# 5 0.000000 0.000000 0.000000 0.000000 0.038633 0.000000
# 6 0.000000 0.000000 0.000000 0.000000 0.000000 0.037086
#
#
# Mechanical properties :
#
#
# Convention : Reuss Voigt Hill
#
# Bulk Modulus (GPa) = 52.05324 57.61049 54.83187
# Shear Modulus (GPa) = 18.92742 24.20832 21.56787
#
# Velocity S-wave (km/s) = 3.32134 3.75621 3.54544
# Velocity P-wave (km/s) = 6.71163 7.23800 6.97978
#
# Compressibility (1/GPa) = 0.01921110
#
# Stress axis : x y z
#
# Youngs Moduli (GPa) = 57.35842 91.51285 74.60287
#
# Poissons Ratio (x) = 0.33197 0.22612
# Poissons Ratio (y) = 0.20807 0.34458
# Poissons Ratio (z) = 0.17385 0.42268
#
# Static dielectric constant tensor:
#      x y z
#    x 3.038800 0.000000 0.000000 
#    y 0.000000 3.178520 0.000000 
#    z 0.000000 0.000000 3.036360 
# 
# 
# High freq. dielectric constant tensor:
#      x y z
#    x 1.649240 0.000000 0.000000 
#    y 0.000000 1.666340 0.000000 
#    z 0.000000 0.000000 1.644000 
# 
# From -- ./inp_files/535.got.cif
#   From: 2010.03.12/outbox.cif.g09.slc.cpg/sg35_1_cif.got.tgz:535.got - 2010.04.14 02:02:04.
