data_PCOD8173923
_publ_section_title
;
Structure prediction by ZEFSAII (Michael W. Deem and Ramdas Pophale) SiO2 
 PCOD8173923
Probable space group: C M M 2
;
_chemical_formula_sum "Si O2"
_cell_formula_units_Z 56
_cell_length_a 20.114033
_cell_length_b 13.919490
_cell_length_c 9.420778
_cell_angle_alpha 90.000000
_cell_angle_beta 90.000000
_cell_angle_gamma 90.000000
_cell_volume 2637.601927
_symmetry_space_group_name_H-M "C M M 2"
_symmetry_group_IT_number 35
_symmetry_cell_setting 'orthorhombic'
loop_
_space_group_symop_operation_xyz
x,y,z
-x,-y,z
-x,y,z
x,-y,z
1/2+x,1/2+y,z
1/2-x,1/2-y,z
1/2-x,1/2+y,z
1/2+x,1/2-y,z
loop_
_atom_site_type_symbol
_atom_site_label
_atom_site_fract_x
_atom_site_fract_y
_atom_site_fract_z
Si Si1 0.923955 0.111551 0.469300
Si Si2 0.785549 0.612567 0.161772
Si Si3 0.624690 0.224619 0.951926
Si Si4 0.138698 0.610925 0.432614
Si Si5 0.869855 0.889757 0.158141
Si Si6 0.000000 0.611848 0.513857
Si Si7 0.172588 0.246361 0.647346
Si Si8 0.500000 0.115026 0.835190
O O1 0.907676 0.127186 0.304729
O O2 0.868559 0.166341 0.560469
O O3 0.000000 0.148602 0.498381
O O4 0.918414 0.000000 0.510083
O O5 0.800408 0.500000 0.148335
O O6 0.820070 0.656915 0.303408
O O7 0.708012 0.634908 0.173490
O O8 0.817194 0.664506 0.027238
O O9 0.656868 0.268288 0.810856
O O10 0.563966 0.154572 0.917803
O O11 0.599714 0.316183 0.043370
O O12 0.154556 0.500000 0.437688
O O13 0.153449 0.648845 0.589947
O O14 0.061454 0.639042 0.412446
O O15 0.879582 0.000000 0.106653
O O16 0.000000 0.657430 0.673277
O O17 0.000000 0.500000 0.548035
O O18 0.250000 0.250000 0.616200
O O19 0.500000 0.000000 0.843905
#
# Coordination Sequence:
#
# PCOD8173923 Si02
#       8
#     8   8   8   8   8   4   8   4
#     4  10  24  46  71  95 129 174 224 277 328 387
#     4  10  21  39  64  95 131 169 214 268 322 385
#     4  12  25  41  64  93 133 175 214 265 326 391
#     4  10  21  38  64  93 126 168 210 261 320 379
#     4  10  22  43  68  94 127 168 217 270 326 383
#     4   9  18  37  61  90 125 163 206 254 309 374
#     4  12  25  39  65  98 131 171 219 270 327 392
#     4  11  24  43  64  94 131 173 211 256 322 392
#
# _framework density 21.231407999999998
#
# number of rings (size 3 to 8) (size 9 to 14) (size 15 to 20)
#    0.000    1.429    1.429    3.429    3.000    3.429 
#    0.000    1.429    0.000    0.000    0.000    0.000 
#    0.000    0.000    0.000    0.000    0.000    0.000 
#
# Total GULP energy -347091.551897 kJ/mol
# GULP energy per Si atom -12396.126853 kJ/mol
# Density = 2.118308 g / cm^3
# Si number density = 21.231408 Si / 1000 Ang^3
#
#
#
# Elastic Constant Matrix: (Units=GPa)
#
#
# Indices 1 2 3 4 5 6 
#
# 1 120.8861 57.0495 35.3099 0.0000 0.0000 0.0000
# 2 57.0495 77.2403 53.8288 0.0000 0.0000 0.0000
# 3 35.3099 53.8288 114.1520 0.0000 0.0000 0.0000
# 4 0.0000 0.0000 0.0000 29.8963 0.0000 0.0000
# 5 0.0000 0.0000 0.0000 0.0000 17.4173 0.0000
# 6 0.0000 0.0000 0.0000 0.0000 0.0000 32.6099
#
#
#
# Elastic Compliance Matrix: (Units=1/GPa)
#
#
# Indices 1 2 3 4 5 6 
#
# 1 0.012740 -0.009925 0.000739 0.000000 0.000000 0.000000
# 2 -0.009925 0.027016 -0.009669 0.000000 0.000000 0.000000
# 3 0.000739 -0.009669 0.013091 0.000000 0.000000 0.000000
# 4 0.000000 0.000000 0.000000 0.033449 0.000000 0.000000
# 5 0.000000 0.000000 0.000000 0.000000 0.057414 0.000000
# 6 0.000000 0.000000 0.000000 0.000000 0.000000 0.030666
#
#
# Mechanical properties :
#
#
# Convention : Reuss Voigt Hill
#
# Bulk Modulus (GPa) = 66.06325 67.18387 66.62356
# Shear Modulus (GPa) = 23.02745 27.05737 25.04241
#
# Velocity S-wave (km/s) = 3.29689 3.57375 3.43811
# Velocity P-wave (km/s) = 6.75840 6.98149 6.87085
#
# Compressibility (1/GPa) = 0.01513701
#
# Stress axis : x y z
#
# Youngs Moduli (GPa) = 78.49142 37.01522 76.38743
#
# Poissons Ratio (x) = 0.36738 -0.05648
# Poissons Ratio (y) = 0.77904 0.73862
# Poissons Ratio (z) = -0.05804 0.35791
#
# Static dielectric constant tensor:
#      x y z
#    x 3.869530 0.000000 0.000000 
#    y 0.000000 3.992420 0.000000 
#    z 0.000000 0.000000 3.878230 
# 
# 
# High freq. dielectric constant tensor:
#      x y z
#    x 1.846010 0.000000 0.000000 
#    y 0.000000 1.842360 0.000000 
#    z 0.000000 0.000000 1.827530 
# 
# From -- ./inp_files/9313.got.cif
#   From: 2010.03.12/outbox.cif.g09.slc.cpg/sg35_5_cif.got.tgz:9313.got - 2010.04.14 02:02:04.
