data_PCOD8173587
_publ_section_title
;
Structure prediction by ZEFSAII (Michael W. Deem and Ramdas Pophale) SiO2 
 PCOD8173587
Probable space group: C M M 2
;
_chemical_formula_sum "Si O2"
_cell_formula_units_Z 48
_cell_length_a 8.875949
_cell_length_b 18.023221
_cell_length_c 15.476003
_cell_angle_alpha 90.000000
_cell_angle_beta 90.000000
_cell_angle_gamma 90.000000
_cell_volume 2475.745575
_symmetry_space_group_name_H-M "C M M 2"
_symmetry_group_IT_number 35
_symmetry_cell_setting 'orthorhombic'
loop_
_space_group_symop_operation_xyz
x,y,z
-x,-y,z
-x,y,z
x,-y,z
1/2+x,1/2+y,z
1/2-x,1/2-y,z
1/2-x,1/2+y,z
1/2+x,1/2-y,z
loop_
_atom_site_type_symbol
_atom_site_label
_atom_site_fract_x
_atom_site_fract_y
_atom_site_fract_z
Si Si1 0.322254 0.670271 0.091130
Si Si2 0.677440 0.829405 0.417438
Si Si3 0.669337 0.588078 0.759140
Si Si4 0.676172 0.913328 0.933802
Si Si5 0.323004 0.914337 0.586265
Si Si6 0.173440 0.412964 0.245054
O O1 0.500000 0.679154 0.086392
O O2 0.250000 0.750000 0.106136
O O3 0.279111 0.617747 0.170274
O O4 0.265112 0.634229 0.003142
O O5 0.500000 0.820336 0.422307
O O6 0.750000 0.750000 0.407172
O O7 0.737445 0.869195 0.503847
O O8 0.725082 0.878443 0.335663
O O9 0.500000 0.619019 0.769042
O O10 0.670270 0.500000 0.755241
O O11 0.769082 0.614453 0.840066
O O12 0.741311 0.619002 0.670786
O O13 0.500000 0.897447 0.942866
O O14 0.712795 0.000000 0.948081
O O15 0.500000 0.904673 0.599986
O O16 0.280994 0.000000 0.571120
O O17 0.197631 0.500000 0.251961
O O18 0.000000 0.393285 0.223578
#
# Coordination Sequence:
#
# PCOD8173587 Si02
#       6
#     8   8   8   8   8   8
#     4  12  25  40  58  82 114 149 185 227 277 332
#     4  10  21  36  55  80 111 147 184 225 274 328
#     4   9  17  30  51  81 113 143 180 229 280 326
#     4  10  20  36  59  85 113 147 187 230 277 330
#     4   9  17  32  54  78 105 141 186 231 275 326
#     4  10  21  39  62  86 112 144 184 229 277 330
#
# _framework density 19.388096999999998
#
# number of rings (size 3 to 8) (size 9 to 14) (size 15 to 20)
#    0.000    2.000    0.000    4.000    0.000   10.000 
#    0.000    0.833    0.000    5.000    0.000    0.000 
#    0.000    0.000    0.000    0.000    0.000    0.000 
#
# Total GULP energy -297681.273360 kJ/mol
# GULP energy per Si atom -12403.386390 kJ/mol
# Density = 1.934397 g / cm^3
# Si number density = 19.388097 Si / 1000 Ang^3
#
#
#
# Elastic Constant Matrix: (Units=GPa)
#
#
# Indices 1 2 3 4 5 6 
#
# 1 82.2127 36.6040 49.9928 0.0000 0.0000 0.0000
# 2 36.6040 85.5369 53.8507 0.0000 0.0000 0.0000
# 3 49.9928 53.8507 158.2671 0.0000 0.0000 0.0000
# 4 0.0000 0.0000 0.0000 13.5128 0.0000 0.0000
# 5 0.0000 0.0000 0.0000 0.0000 130.8211 0.0000
# 6 0.0000 0.0000 0.0000 0.0000 0.0000 28.4297
#
#
#
# Elastic Compliance Matrix: (Units=1/GPa)
#
#
# Indices 1 2 3 4 5 6 
#
# 1 0.016472 -0.004802 -0.003569 0.000000 0.000000 0.000000
# 2 -0.004802 0.016278 -0.004022 0.000000 0.000000 0.000000
# 3 -0.003569 -0.004022 0.008814 0.000000 0.000000 0.000000
# 4 0.000000 0.000000 0.000000 0.074004 0.000000 0.000000
# 5 0.000000 0.000000 0.000000 0.000000 0.007644 0.000000
# 6 0.000000 0.000000 0.000000 0.000000 0.000000 0.035174
#
#
# Mechanical properties :
#
#
# Convention : Reuss Voigt Hill
#
# Bulk Modulus (GPa) = 59.60096 67.43465 63.51781
# Shear Modulus (GPa) = 26.48803 46.92401 36.70602
#
# Velocity S-wave (km/s) = 3.70023 4.92494 4.35584
# Velocity P-wave (km/s) = 7.00452 8.19738 7.62431
#
# Compressibility (1/GPa) = 0.01677825
#
# Stress axis : x y z
#
# Youngs Moduli (GPa) = 60.70931 61.43404 113.45230
#
# Poissons Ratio (x) = 0.29499 0.40494
# Poissons Ratio (y) = 0.29151 0.45627
# Poissons Ratio (z) = 0.21669 0.24707
#
# Static dielectric constant tensor:
#      x y z
#    x 3.529630 0.000000 0.000000 
#    y 0.000000 3.416880 0.000000 
#    z 0.000000 0.000000 3.830580 
# 
# 
# High freq. dielectric constant tensor:
#      x y z
#    x 1.753860 0.000000 0.000000 
#    y 0.000000 1.738250 0.000000 
#    z 0.000000 0.000000 1.775030 
# 
# From -- ./inp_files/15107.got.cif
#   From: 2010.03.12/outbox.cif.g09.slc.cpg/sg35_8_cif.got.tgz:15107.got - 2010.04.14 02:02:04.
