data_PCOD8173545
_publ_section_title
;
Structure prediction by ZEFSAII (Michael W. Deem and Ramdas Pophale) SiO2 
 PCOD8173545
Probable space group: C M M 2
;
_chemical_formula_sum "Si O2"
_cell_formula_units_Z 64
_cell_length_a 8.792868
_cell_length_b 28.472689
_cell_length_c 12.700127
_cell_angle_alpha 90.000000
_cell_angle_beta 90.000000
_cell_angle_gamma 90.000000
_cell_volume 3179.560564
_symmetry_space_group_name_H-M "C M M 2"
_symmetry_group_IT_number 35
_symmetry_cell_setting 'orthorhombic'
loop_
_space_group_symop_operation_xyz
x,y,z
-x,-y,z
-x,y,z
x,-y,z
1/2+x,1/2+y,z
1/2-x,1/2-y,z
1/2-x,1/2+y,z
1/2+x,1/2-y,z
loop_
_atom_site_type_symbol
_atom_site_label
_atom_site_fract_x
_atom_site_fract_y
_atom_site_fract_z
Si Si1 0.177502 0.799001 0.426310
Si Si2 0.680611 0.698465 0.037311
Si Si3 0.180121 0.199660 0.665040
Si Si4 0.832425 0.555340 0.556992
Si Si5 0.679517 0.857899 0.845965
Si Si6 0.677474 0.553996 0.769318
Si Si7 0.319880 0.947417 0.325414
Si Si8 0.179372 0.861403 0.236741
O O1 0.250000 0.750000 0.395530
O O2 0.219324 0.814297 0.544893
O O3 0.238947 0.836849 0.343425
O O4 0.000000 0.792059 0.413115
O O5 0.500000 0.702976 0.032902
O O6 0.750000 0.750000 0.044909
O O7 0.737095 0.668226 0.136991
O O8 0.738261 0.672355 0.934195
O O9 0.250000 0.250000 0.693840
O O10 0.264535 0.160949 0.733697
O O11 0.000000 0.200381 0.687181
O O12 0.851775 0.500000 0.550348
O O13 0.715812 0.569085 0.649249
O O14 0.769662 0.571042 0.442211
O O15 0.000000 0.577239 0.581163
O O16 0.500000 0.853532 0.859459
O O17 0.730616 0.912665 0.850393
O O18 0.500000 0.561764 0.787581
O O19 0.725230 0.500000 0.791099
O O20 0.500000 0.946847 0.317752
O O21 0.250505 0.913481 0.236236
O O22 0.257826 0.000000 0.303966
O O23 0.000000 0.866401 0.233573
#
# Coordination Sequence:
#
# PCOD8173545 Si02
#       8
#     8   8   8   8   8   8   8   8
#     4   9  19  35  55  83 117 150 186 231 287 351
#     4  11  24  44  67  90 118 151 197 251 302 357
#     4  10  20  36  57  84 120 155 191 237 293 356
#     4   8  15  30  51  78 115 157 198 239 284 338
#     4  12  25  40  61  87 117 154 201 246 298 358
#     4  10  21  37  58  86 120 157 198 245 297 352
#     4   9  19  35  55  83 120 160 202 245 288 342
#     4  10  22  38  59  88 118 152 196 244 296 353
#
# _framework density 20.128567
#
# number of rings (size 3 to 8) (size 9 to 14) (size 15 to 20)
#    0.000    2.125    0.000    3.750    1.750    3.500 
#    0.000    1.875    0.000    0.750    0.000    0.000 
#    0.000    0.000    0.000    0.000    0.000    0.000 
#
# Total GULP energy -396781.598061 kJ/mol
# GULP energy per Si atom -12399.424939 kJ/mol
# Density = 2.008275 g / cm^3
# Si number density = 20.128567 Si / 1000 Ang^3
#
#
#
# Elastic Constant Matrix: (Units=GPa)
#
#
# Indices 1 2 3 4 5 6 
#
# 1 60.9269 35.8174 29.1068 0.0000 0.0000 0.0000
# 2 35.8174 122.7412 61.7594 0.0000 0.0000 0.0000
# 3 29.1068 61.7594 82.0895 0.0000 0.0000 0.0000
# 4 0.0000 0.0000 0.0000 31.8792 0.0000 0.0000
# 5 0.0000 0.0000 0.0000 0.0000 22.1269 0.0000
# 6 0.0000 0.0000 0.0000 0.0000 0.0000 35.1417
#
#
#
# Elastic Compliance Matrix: (Units=1/GPa)
#
#
# Indices 1 2 3 4 5 6 
#
# 1 0.020805 -0.003796 -0.004521 0.000000 0.000000 0.000000
# 2 -0.003796 0.013803 -0.009038 0.000000 0.000000 0.000000
# 3 -0.004521 -0.009038 0.020585 0.000000 0.000000 0.000000
# 4 0.000000 0.000000 0.000000 0.031368 0.000000 0.000000
# 5 0.000000 0.000000 0.000000 0.000000 0.045194 0.000000
# 6 0.000000 0.000000 0.000000 0.000000 0.000000 0.028456
#
#
# Mechanical properties :
#
#
# Convention : Reuss Voigt Hill
#
# Bulk Modulus (GPa) = 48.82479 57.68052 53.25266
# Shear Modulus (GPa) = 24.78334 27.10116 25.94225
#
# Velocity S-wave (km/s) = 3.51273 3.67332 3.59392
# Velocity P-wave (km/s) = 6.38447 6.83442 6.61327
#
# Compressibility (1/GPa) = 0.02048140
#
# Stress axis : x y z
#
# Youngs Moduli (GPa) = 48.06640 72.44851 48.57987
#
# Poissons Ratio (x) = 0.27505 0.21961
# Poissons Ratio (y) = 0.18248 0.43908
# Poissons Ratio (z) = 0.21728 0.65482
#
# Static dielectric constant tensor:
#      x y z
#    x 3.548310 0.000000 0.000000 
#    y 0.000000 3.755340 0.000000 
#    z 0.000000 0.000000 3.742390 
# 
# 
# High freq. dielectric constant tensor:
#      x y z
#    x 1.782520 0.000000 0.000000 
#    y 0.000000 1.794000 0.000000 
#    z 0.000000 0.000000 1.771790 
# 
# From -- ./inp_files/11906.got.cif
#   From: 2010.03.12/outbox.cif.g09.slc.cpg/sg35_6_cif.got.tgz:11906.got - 2010.04.14 02:02:04.
