data_PCOD8173365
_publ_section_title
;
Structure prediction by ZEFSAII (Michael W. Deem and Ramdas Pophale) SiO2 
 PCOD8173365
Probable space group: C M M 2
;
_chemical_formula_sum "Si O2"
_cell_formula_units_Z 56
_cell_length_a 9.331479
_cell_length_b 21.655747
_cell_length_c 14.686514
_cell_angle_alpha 90.000000
_cell_angle_beta 90.000000
_cell_angle_gamma 90.000000
_cell_volume 2967.852928
_symmetry_space_group_name_H-M "C M M 2"
_symmetry_group_IT_number 35
_symmetry_cell_setting 'orthorhombic'
loop_
_space_group_symop_operation_xyz
x,y,z
-x,-y,z
-x,y,z
x,-y,z
1/2+x,1/2+y,z
1/2-x,1/2-y,z
1/2-x,1/2+y,z
1/2+x,1/2-y,z
loop_
_atom_site_type_symbol
_atom_site_label
_atom_site_fract_x
_atom_site_fract_y
_atom_site_fract_z
Si Si1 0.665472 0.000000 0.110830
Si Si2 0.661404 0.570876 0.601577
Si Si3 0.169371 0.500000 0.312003
Si Si4 0.161549 0.896113 0.406094
Si Si5 0.330527 0.929713 0.780136
Si Si6 0.331558 0.187979 0.897777
Si Si7 0.836387 0.188585 0.244535
Si Si8 0.166534 0.632444 0.086373
O O1 0.701215 0.061894 0.053627
O O2 0.500000 0.000000 0.134532
O O3 0.738573 0.000000 0.210805
O O4 0.500000 0.581914 0.637306
O O5 0.682508 0.500000 0.570467
O O6 0.694084 0.613863 0.513476
O O7 0.769163 0.588441 0.681737
O O8 0.221180 0.559607 0.364893
O O9 0.000000 0.500000 0.313198
O O10 0.173805 0.832669 0.349528
O O11 0.000000 0.923363 0.395828
O O12 0.500000 0.929444 0.773750
O O13 0.278823 0.874985 0.847708
O O14 0.279342 0.000000 0.808552
O O15 0.500000 0.198045 0.881243
O O16 0.250000 0.250000 0.863801
O O17 0.295777 0.178646 0.004438
O O18 0.750000 0.250000 0.232099
O O19 0.765148 0.140976 0.174404
O O20 0.000000 0.199104 0.214895
O O21 0.000000 0.639488 0.114158
#
# Coordination Sequence:
#
# PCOD8173365 Si02
#       8
#     4   8   4   8   8   8   8   8
#     4   9  18  31  51  82 113 140 176 223 269 317
#     4   9  17  32  55  80 108 143 176 212 268 331
#     4  11  19  29  51  82 109 138 176 219 261 305
#     4  10  20  35  53  76 109 146 179 216 266 324
#     4   9  19  36  57  84 112 138 178 230 281 330
#     4  10  22  38  59  82 109 147 185 227 277 333
#     4  11  23  37  54  74 104 146 188 229 271 316
#     4  10  20  36  57  81 111 145 182 222 271 328
#
# _framework density 18.868860000000002
#
# number of rings (size 3 to 8) (size 9 to 14) (size 15 to 20)
#    0.000    2.143    2.143    1.071    1.000    3.429 
#    0.000    1.071    0.000    3.429    0.000    0.000 
#    0.000    0.000    0.000    0.000    0.000    0.000 
#
# Total GULP energy -346991.733485 kJ/mol
# GULP energy per Si atom -12392.561910 kJ/mol
# Density = 1.882591 g / cm^3
# Si number density = 18.868860 Si / 1000 Ang^3
#
#
#
# Elastic Constant Matrix: (Units=GPa)
#
#
# Indices 1 2 3 4 5 6 
#
# 1 58.3706 38.9110 28.9010 0.0000 0.0000 0.0000
# 2 38.9110 109.2031 41.1882 0.0000 0.0000 0.0000
# 3 28.9010 41.1882 85.2769 0.0000 0.0000 0.0000
# 4 0.0000 0.0000 0.0000 24.4581 0.0000 0.0000
# 5 0.0000 0.0000 0.0000 0.0000 28.3571 0.0000
# 6 0.0000 0.0000 0.0000 0.0000 0.0000 20.1175
#
#
#
# Elastic Compliance Matrix: (Units=1/GPa)
#
#
# Indices 1 2 3 4 5 6 
#
# 1 0.024036 -0.006715 -0.004902 0.000000 0.000000 0.000000
# 2 -0.006715 0.013073 -0.004038 0.000000 0.000000 0.000000
# 3 -0.004902 -0.004038 0.015339 0.000000 0.000000 0.000000
# 4 0.000000 0.000000 0.000000 0.040886 0.000000 0.000000
# 5 0.000000 0.000000 0.000000 0.000000 0.035265 0.000000
# 6 0.000000 0.000000 0.000000 0.000000 0.000000 0.049708
#
#
# Mechanical properties :
#
#
# Convention : Reuss Voigt Hill
#
# Bulk Modulus (GPa) = 47.31452 52.31678 49.81565
# Shear Modulus (GPa) = 23.07724 24.17657 23.62690
#
# Velocity S-wave (km/s) = 3.50098 3.58340 3.54243
# Velocity P-wave (km/s) = 6.43991 6.70132 6.57191
#
# Compressibility (1/GPa) = 0.02113516
#
# Stress axis : x y z
#
# Youngs Moduli (GPa) = 41.60456 76.49239 65.19537
#
# Poissons Ratio (x) = 0.51367 0.31962
# Poissons Ratio (y) = 0.27939 0.26328
# Poissons Ratio (z) = 0.20397 0.30891
#
# Static dielectric constant tensor:
#      x y z
#    x 3.384730 0.000000 0.000000 
#    y 0.000000 3.605720 0.000000 
#    z 0.000000 0.000000 3.441920 
# 
# 
# High freq. dielectric constant tensor:
#      x y z
#    x 1.721830 0.000000 0.000000 
#    y 0.000000 1.724610 0.000000 
#    z 0.000000 0.000000 1.727550 
# 
# From -- ./inp_files/15685.got.cif
#   From: 2010.03.12/outbox.cif.g09.slc.cpg/sg35_8_cif.got.tgz:15685.got - 2010.04.14 02:02:04.
