data_PCOD8173848
_publ_section_title
;
Structure prediction by ZEFSAII (Michael W. Deem and Ramdas Pophale) SiO2 
 PCOD8173848
Probable space group: C M M 2
;
_chemical_formula_sum "Si O2"
_cell_formula_units_Z 40
_cell_length_a 8.769038
_cell_length_b 15.654371
_cell_length_c 14.065022
_cell_angle_alpha 90.000000
_cell_angle_beta 90.000000
_cell_angle_gamma 90.000000
_cell_volume 1930.758654
_symmetry_space_group_name_H-M "C M M 2"
_symmetry_group_IT_number 35
_symmetry_cell_setting 'orthorhombic'
loop_
_space_group_symop_operation_xyz
x,y,z
-x,-y,z
-x,y,z
x,-y,z
1/2+x,1/2+y,z
1/2-x,1/2-y,z
1/2-x,1/2+y,z
1/2+x,1/2-y,z
loop_
_atom_site_type_symbol
_atom_site_label
_atom_site_fract_x
_atom_site_fract_y
_atom_site_fract_z
Si Si1 0.679525 0.341158 0.694550
Si Si2 0.325408 0.000000 0.021772
Si Si3 0.173889 0.500000 0.796943
Si Si4 0.180236 0.837810 0.119765
Si Si5 0.679262 0.340154 0.477994
Si Si6 0.672190 0.096047 0.300562
O O1 0.500000 0.334755 0.709457
O O2 0.750000 0.250000 0.723521
O O3 0.744686 0.414969 0.760323
O O4 0.721455 0.364999 0.585855
O O5 0.243197 0.084470 0.058394
O O6 0.500000 0.000000 0.057334
O O7 0.314822 0.000000 0.909210
O O8 0.000000 0.500000 0.761333
O O9 0.250000 0.750000 0.078591
O O10 0.228552 0.846220 0.229968
O O11 0.000000 0.835039 0.111147
O O12 0.500000 0.338084 0.462892
O O13 0.750000 0.250000 0.450148
O O14 0.754445 0.406919 0.405626
O O15 0.500000 0.131910 0.304864
O O16 0.673059 0.000000 0.260252
#
# Coordination Sequence:
#
# PCOD8173848 Si02
#       6
#     8   4   4   8   8   8
#     4  10  22  41  65  94 129 168 212 262 312 371
#     4  11  25  47  68  95 128 159 207 264 318 379
#     4  11  25  43  68  95 126 165 205 260 322 379
#     4  12  25  43  69  96 127 168 209 257 314 374
#     4  10  21  37  58  86 123 164 210 257 305 364
#     4  11  23  38  59  89 128 169 210 258 308 367
#
# _framework density 20.717245999999999
#
# number of rings (size 3 to 8) (size 9 to 14) (size 15 to 20)
#    0.000    1.200    1.000    4.800    1.400    6.000 
#    0.000    0.000    0.000    0.000    0.000    0.000 
#    0.000    0.000    0.000    0.000    0.000    0.000 
#
# Total GULP energy -248094.820697 kJ/mol
# GULP energy per Si atom -12404.741035 kJ/mol
# Density = 2.067009 g / cm^3
# Si number density = 20.717246 Si / 1000 Ang^3
#
#
#
# Elastic Constant Matrix: (Units=GPa)
#
#
# Indices 1 2 3 4 5 6 
#
# 1 163.6725 73.2140 52.3994 0.0000 0.0000 0.0000
# 2 73.2140 146.8070 50.1549 0.0000 0.0000 0.0000
# 3 52.3994 50.1549 81.6269 0.0000 0.0000 0.0000
# 4 0.0000 0.0000 0.0000 35.2964 0.0000 0.0000
# 5 0.0000 0.0000 0.0000 0.0000 33.8101 0.0000
# 6 0.0000 0.0000 0.0000 0.0000 0.0000 37.1576
#
#
#
# Elastic Compliance Matrix: (Units=1/GPa)
#
#
# Indices 1 2 3 4 5 6 
#
# 1 0.008656 -0.003061 -0.003676 0.000000 0.000000 0.000000
# 2 -0.003061 0.009704 -0.003998 0.000000 0.000000 0.000000
# 3 -0.003676 -0.003998 0.017067 0.000000 0.000000 0.000000
# 4 0.000000 0.000000 0.000000 0.028332 0.000000 0.000000
# 5 0.000000 0.000000 0.000000 0.000000 0.029577 0.000000
# 6 0.000000 0.000000 0.000000 0.000000 0.000000 0.026912
#
#
# Mechanical properties :
#
#
# Convention : Reuss Voigt Hill
#
# Bulk Modulus (GPa) = 71.64353 82.62699 77.13526
# Shear Modulus (GPa) = 34.16043 35.67536 34.91790
#
# Velocity S-wave (km/s) = 4.06506 4.15422 4.10988
# Velocity P-wave (km/s) = 7.52925 7.93598 7.73529
#
# Compressibility (1/GPa) = 0.01395799
#
# Stress axis : x y z
#
# Youngs Moduli (GPa) = 115.53014 103.05144 58.59371
#
# Poissons Ratio (x) = 0.31543 0.21537
# Poissons Ratio (y) = 0.35363 0.23423
# Poissons Ratio (z) = 0.42465 0.41195
#
# Static dielectric constant tensor:
#      x y z
#    x 3.900670 0.000000 0.000000 
#    y 0.000000 3.728420 0.000000 
#    z 0.000000 0.000000 3.730210 
# 
# 
# High freq. dielectric constant tensor:
#      x y z
#    x 1.827740 0.000000 0.000000 
#    y 0.000000 1.818410 0.000000 
#    z 0.000000 0.000000 1.809270 
# 
# From -- ./inp_files/14759.got.cif
#   From: 2010.03.12/outbox.cif.g09.slc.cpg/sg35_8_cif.got.tgz:14759.got - 2010.04.14 02:02:04.
