data_PCOD8173331
_publ_section_title
;
Structure prediction by ZEFSAII (Michael W. Deem and Ramdas Pophale) SiO2 
 PCOD8173331
Probable space group: C M M 2
;
_chemical_formula_sum "Si O2"
_cell_formula_units_Z 40
_cell_length_a 8.838972
_cell_length_b 28.655102
_cell_length_c 7.732410
_cell_angle_alpha 90.000000
_cell_angle_beta 90.000000
_cell_angle_gamma 90.000000
_cell_volume 1958.477519
_symmetry_space_group_name_H-M "C M M 2"
_symmetry_group_IT_number 35
_symmetry_cell_setting 'orthorhombic'
loop_
_space_group_symop_operation_xyz
x,y,z
-x,-y,z
-x,y,z
x,-y,z
1/2+x,1/2+y,z
1/2-x,1/2-y,z
1/2-x,1/2+y,z
1/2+x,1/2-y,z
loop_
_atom_site_type_symbol
_atom_site_label
_atom_site_fract_x
_atom_site_fract_y
_atom_site_fract_z
Si Si1 0.827485 0.551375 0.548930
Si Si2 0.326766 0.851902 0.399629
Si Si3 0.322363 0.300172 0.709973
Si Si4 0.175314 0.358145 0.012906
Si Si5 0.324623 0.552548 0.908351
O O1 0.799104 0.500000 0.464402
O O2 0.794394 0.592460 0.412540
O O3 0.714745 0.558922 0.707474
O O4 0.000000 0.554799 0.617617
O O5 0.500000 0.841054 0.449491
O O6 0.221675 0.822706 0.527051
O O7 0.293654 0.836434 0.202563
O O8 0.500000 0.294383 0.715896
O O9 0.250000 0.250000 0.731510
O O10 0.272240 0.331938 0.869556
O O11 0.224145 0.412237 0.020673
O O12 0.000000 0.354338 0.962912
O O13 0.500000 0.564642 0.933453
O O14 0.287688 0.500000 0.970019
#
# Coordination Sequence:
#
# PCOD8173331 Si02
#       5
#     8   8   8   8   8
#     4   9  17  32  57  87 121 163 207 250 297 355
#     4  10  22  40  64  94 127 162 205 254 304 364
#     4  12  26  45  69  92 121 159 201 255 314 372
#     4  11  23  40  64  94 128 164 206 253 305 368
#     4  10  20  34  55  87 126 168 211 253 302 358
#
# _framework density 20.424028
#
# number of rings (size 3 to 8) (size 9 to 14) (size 15 to 20)
#    0.000    1.600    2.000    3.000    0.000    4.400 
#    0.000    2.000    0.000    2.400    0.000    0.000 
#    0.000    0.000    0.000    0.000    0.000    0.000 
#
# Total GULP energy -248005.147816 kJ/mol
# GULP energy per Si atom -12400.257391 kJ/mol
# Density = 2.037754 g / cm^3
# Si number density = 20.424028 Si / 1000 Ang^3
#
#
#
# Elastic Constant Matrix: (Units=GPa)
#
#
# Indices 1 2 3 4 5 6 
#
# 1 116.6245 47.2609 47.5639 0.0000 0.0000 0.0000
# 2 47.2609 101.9628 36.3569 0.0000 0.0000 0.0000
# 3 47.5639 36.3569 94.8969 0.0000 0.0000 0.0000
# 4 0.0000 0.0000 0.0000 9.1221 0.0000 0.0000
# 5 0.0000 0.0000 0.0000 0.0000 16.0711 0.0000
# 6 0.0000 0.0000 0.0000 0.0000 0.0000 32.9390
#
#
#
# Elastic Compliance Matrix: (Units=1/GPa)
#
#
# Indices 1 2 3 4 5 6 
#
# 1 0.012018 -0.003964 -0.004505 0.000000 0.000000 0.000000
# 2 -0.003964 0.012667 -0.002866 0.000000 0.000000 0.000000
# 3 -0.004505 -0.002866 0.013894 0.000000 0.000000 0.000000
# 4 0.000000 0.000000 0.000000 0.109624 0.000000 0.000000
# 5 0.000000 0.000000 0.000000 0.000000 0.062223 0.000000
# 6 0.000000 0.000000 0.000000 0.000000 0.000000 0.030359
#
#
# Mechanical properties :
#
#
# Convention : Reuss Voigt Hill
#
# Bulk Modulus (GPa) = 62.85957 63.98304 63.42131
# Shear Modulus (GPa) = 18.60403 23.77994 21.19199
#
# Velocity S-wave (km/s) = 3.02137 3.41590 3.22468
# Velocity P-wave (km/s) = 6.55863 6.85224 6.70704
#
# Compressibility (1/GPa) = 0.01590848
#
# Stress axis : x y z
#
# Youngs Moduli (GPa) = 83.20639 78.94583 71.97487
#
# Poissons Ratio (x) = 0.31296 0.32425
# Poissons Ratio (y) = 0.32985 0.20628
# Poissons Ratio (z) = 0.37484 0.22626
#
# Static dielectric constant tensor:
#      x y z
#    x 3.695100 0.000000 0.000000 
#    y 0.000000 3.938580 0.000000 
#    z 0.000000 0.000000 3.480540 
# 
# 
# High freq. dielectric constant tensor:
#      x y z
#    x 1.800160 0.000000 0.000000 
#    y 0.000000 1.804610 0.000000 
#    z 0.000000 0.000000 1.784690 
# 
# From -- ./inp_files/4971.got.cif
#   From: 2010.03.12/outbox.cif.g09.slc.cpg/sg35_3_cif.got.tgz:4971.got - 2010.04.14 02:02:04.
