data_PCOD8173232
_publ_section_title
;
Structure prediction by ZEFSAII (Michael W. Deem and Ramdas Pophale) SiO2 
 PCOD8173232
Probable space group: C M M 2
;
_chemical_formula_sum "Si O2"
_cell_formula_units_Z 48
_cell_length_a 18.261083
_cell_length_b 8.791853
_cell_length_c 15.812402
_cell_angle_alpha 90.000000
_cell_angle_beta 90.000000
_cell_angle_gamma 90.000000
_cell_volume 2538.661492
_symmetry_space_group_name_H-M "C M M 2"
_symmetry_group_IT_number 35
_symmetry_cell_setting 'orthorhombic'
loop_
_space_group_symop_operation_xyz
x,y,z
-x,-y,z
-x,y,z
x,-y,z
1/2+x,1/2+y,z
1/2-x,1/2-y,z
1/2-x,1/2+y,z
1/2+x,1/2-y,z
loop_
_atom_site_type_symbol
_atom_site_label
_atom_site_fract_x
_atom_site_fract_y
_atom_site_fract_z
Si Si1 0.329706 0.678511 0.335050
Si Si2 0.170018 0.822574 0.151914
Si Si3 0.171128 0.324607 0.991199
Si Si4 0.413701 0.325170 0.654014
Si Si5 0.169975 0.322042 0.804029
Si Si6 0.330269 0.179551 0.501642
O O1 0.323974 0.500000 0.353121
O O2 0.250000 0.750000 0.330463
O O3 0.368846 0.709243 0.243525
O O4 0.369210 0.758208 0.415098
O O5 0.250000 0.750000 0.154112
O O6 0.177789 0.000000 0.136920
O O7 0.126670 0.751496 0.070593
O O8 0.179302 0.500000 0.012279
O O9 0.250000 0.250000 0.986911
O O10 0.135920 0.298915 0.898568
O O11 0.500000 0.306364 0.651665
O O12 0.389607 0.500000 0.643404
O O13 0.385832 0.262134 0.742972
O O14 0.380462 0.225556 0.579367
O O15 0.175901 0.500000 0.781559
O O16 0.250000 0.250000 0.794290
O O17 0.250000 0.250000 0.513806
O O18 0.323255 0.000000 0.497164
#
# Coordination Sequence:
#
# PCOD8173232 Si02
#       6
#     8   8   8   8   8   8
#     4   9  16  26  41  65  97 130 165 202 243 289
#     4   9  15  22  36  60  93 130 162 197 239 284
#     4   9  16  25  40  64  95 129 162 198 240 286
#     4  11  24  40  56  74  98 129 165 207 255 305
#     4  10  20  34  53  77 104 134 169 208 249 295
#     4  11  21  34  54  77 103 134 168 207 249 296
#
# _framework density 18.907603000000002
#
# number of rings (size 3 to 8) (size 9 to 14) (size 15 to 20)
#    0.000    2.167    0.000    6.500    0.000    5.333 
#    0.000    0.000    0.000    0.000    0.000    1.167 
#    0.000    6.667    0.000    0.000    0.000    0.000 
#
# Total GULP energy -297325.417412 kJ/mol
# GULP energy per Si atom -12388.559059 kJ/mol
# Density = 1.886457 g / cm^3
# Si number density = 18.907603 Si / 1000 Ang^3
#
#
#
# Elastic Constant Matrix: (Units=GPa)
#
#
# Indices 1 2 3 4 5 6 
#
# 1 31.6772 28.9092 32.2346 0.0000 0.0000 0.0000
# 2 28.9092 148.7658 76.7393 0.0000 0.0000 0.0000
# 3 32.2346 76.7393 182.6570 0.0000 0.0000 0.0000
# 4 0.0000 0.0000 0.0000 45.2719 0.0000 0.0000
# 5 0.0000 0.0000 0.0000 0.0000 -1.7431 0.0000
# 6 0.0000 0.0000 0.0000 0.0000 0.0000 16.0882
#
#
#
# Elastic Compliance Matrix: (Units=1/GPa)
#
#
# Indices 1 2 3 4 5 6 
#
# 1 0.041733 -0.005503 -0.005053 0.000000 0.000000 0.000000
# 2 -0.005503 0.009308 -0.002939 0.000000 0.000000 0.000000
# 3 -0.005053 -0.002939 0.007601 0.000000 0.000000 0.000000
# 4 0.000000 0.000000 0.000000 0.022089 0.000000 0.000000
# 5 0.000000 0.000000 0.000000 0.000000 -0.573694 0.000000
# 6 0.000000 0.000000 0.000000 0.000000 0.000000 0.062157
#
#
# Mechanical properties :
#
#
# Convention : Reuss Voigt Hill
#
# Bulk Modulus (GPa) = 31.59464 70.98514 51.28989
# Shear Modulus (GPa) = -12.71405 26.93785 7.11190
#
# Velocity S-wave (km/s) = -2.59594 3.77863 1.94154
# Velocity P-wave (km/s) = 2.78587 7.52742 5.67552
#
# Compressibility (1/GPa) = 0.03165094
#
# Stress axis : x y z
#
# Youngs Moduli (GPa) = 23.96209 107.43951 131.55752
#
# Poissons Ratio (x) = 0.59128 0.66472
# Poissons Ratio (y) = 0.13187 0.38667
# Poissons Ratio (z) = 0.12107 0.31578
#
# Static dielectric constant tensor:
#      x y z
#    x 2.775120 0.000000 0.000000 
#    y 0.000000 3.705050 0.000000 
#    z 0.000000 0.000000 5.024830 
# 
# 
# High freq. dielectric constant tensor:
#      x y z
#    x 1.647150 0.000000 0.000000 
#    y 0.000000 1.757320 0.000000 
#    z 0.000000 0.000000 1.776040 
# 
# From -- ./inp_files/18747.got.cif
#   From: 2010.03.12/outbox.cif.g09.slc.cpg/sg35_10_cif.got.tgz:18747.got - 2010.04.14 02:02:04.
