data_PCOD8173798
_publ_section_title
;
Structure prediction by ZEFSAII (Michael W. Deem and Ramdas Pophale) SiO2 
 PCOD8173798
Probable space group: C M M 2
;
_chemical_formula_sum "Si O2"
_cell_formula_units_Z 64
_cell_length_a 9.055774
_cell_length_b 28.898653
_cell_length_c 12.262189
_cell_angle_alpha 90.000000
_cell_angle_beta 90.000000
_cell_angle_gamma 90.000000
_cell_volume 3209.010821
_symmetry_space_group_name_H-M "C M M 2"
_symmetry_group_IT_number 35
_symmetry_cell_setting 'orthorhombic'
loop_
_space_group_symop_operation_xyz
x,y,z
-x,-y,z
-x,y,z
x,-y,z
1/2+x,1/2+y,z
1/2-x,1/2-y,z
1/2-x,1/2+y,z
1/2+x,1/2-y,z
loop_
_atom_site_type_symbol
_atom_site_label
_atom_site_fract_x
_atom_site_fract_y
_atom_site_fract_z
Si Si1 0.335911 0.568795 0.223260
Si Si2 0.664284 0.670006 0.304089
Si Si3 0.330432 0.947599 0.003387
Si Si4 0.172879 0.050808 0.464317
Si Si5 0.670330 0.293268 0.084266
Si Si6 0.171440 0.642433 0.513509
Si Si7 0.173604 0.135590 0.904708
Si Si8 0.674460 0.800150 0.727447
O O1 0.500000 0.549290 0.196959
O O2 0.344310 0.623366 0.235002
O O3 0.275746 0.548750 0.338169
O O4 0.227550 0.554236 0.127106
O O5 0.500000 0.682672 0.347695
O O6 0.721434 0.705090 0.211187
O O7 0.775005 0.668355 0.404697
O O8 0.500000 0.931140 0.003439
O O9 0.238500 0.915941 0.918721
O O10 0.315884 0.000000 0.960180
O O11 0.252804 0.092096 0.529864
O O12 0.000000 0.062701 0.468159
O O13 0.206442 0.000000 0.516516
O O14 0.500000 0.282271 0.076200
O O15 0.750000 0.250000 0.026858
O O16 0.707116 0.339933 0.019727
O O17 0.208753 0.677337 0.610506
O O18 0.000000 0.632368 0.503441
O O19 0.256993 0.164080 0.812337
O O20 0.000000 0.132925 0.877022
O O21 0.500000 0.794523 0.748093
O O22 0.750000 0.750000 0.735519
#
# Coordination Sequence:
#
# PCOD8173798 Si02
#       8
#     8   8   8   8   8   8   8   8
#     4   9  16  31  53  78 114 159 202 243 285 340
#     4   9  18  35  55  79 118 159 195 237 288 347
#     4  11  23  36  54  85 123 160 198 243 296 353
#     4   9  18  33  55  84 119 160 203 243 287 346
#     4  10  21  36  55  84 117 150 188 234 290 351
#     4  10  22  38  58  87 120 152 194 246 297 348
#     4  11  23  42  65  87 116 153 199 249 299 355
#     4  11  25  45  67  91 117 150 197 250 303 357
#
# _framework density 19.943840999999999
#
# number of rings (size 3 to 8) (size 9 to 14) (size 15 to 20)
#    0.000    2.000    1.250    3.000    0.000    8.750 
#    0.000    3.125    0.000    0.750    0.000    0.000 
#    0.000    0.000    0.000    0.000    0.000    0.000 
#
# Total GULP energy -396657.575928 kJ/mol
# GULP energy per Si atom -12395.549248 kJ/mol
# Density = 1.989845 g / cm^3
# Si number density = 19.943841 Si / 1000 Ang^3
#
#
#
# Elastic Constant Matrix: (Units=GPa)
#
#
# Indices 1 2 3 4 5 6 
#
# 1 96.8316 56.9709 53.4879 0.0000 0.0000 0.0000
# 2 56.9709 108.8776 41.9269 0.0000 0.0000 0.0000
# 3 53.4879 41.9269 81.8043 0.0000 0.0000 0.0000
# 4 0.0000 0.0000 0.0000 228.8941 0.0000 0.0000
# 5 0.0000 0.0000 0.0000 0.0000 29.3758 0.0000
# 6 0.0000 0.0000 0.0000 0.0000 0.0000 30.0234
#
#
#
# Elastic Compliance Matrix: (Units=1/GPa)
#
#
# Indices 1 2 3 4 5 6 
#
# 1 0.019282 -0.006522 -0.009265 0.000000 0.000000 0.000000
# 2 -0.006522 0.013649 -0.002731 0.000000 0.000000 0.000000
# 3 -0.009265 -0.002731 0.019682 0.000000 0.000000 0.000000
# 4 0.000000 0.000000 0.000000 0.004369 0.000000 0.000000
# 5 0.000000 0.000000 0.000000 0.000000 0.034042 0.000000
# 6 0.000000 0.000000 0.000000 0.000000 0.000000 0.033307
#
#
# Mechanical properties :
#
#
# Convention : Reuss Voigt Hill
#
# Bulk Modulus (GPa) = 64.19669 65.80944 65.00307
# Shear Modulus (GPa) = 30.01937 66.66718 48.34328
#
# Velocity S-wave (km/s) = 3.88389 5.78792 4.92872
# Velocity P-wave (km/s) = 7.23681 8.81679 8.06558
#
# Compressibility (1/GPa) = 0.01557713
#
# Stress axis : x y z
#
# Youngs Moduli (GPa) = 51.86167 73.26620 50.80753
#
# Poissons Ratio (x) = 0.47781 0.47074
# Poissons Ratio (y) = 0.33822 0.13877
# Poissons Ratio (z) = 0.48050 0.20011
#
# Static dielectric constant tensor:
#      x y z
#    x 3.650250 0.000000 0.000000 
#    y 0.000000 3.002980 0.000000 
#    z 0.000000 0.000000 3.572450 
# 
# 
# High freq. dielectric constant tensor:
#      x y z
#    x 1.776110 0.000000 0.000000 
#    y 0.000000 1.789410 0.000000 
#    z 0.000000 0.000000 1.758730 
# 
# From -- ./inp_files/11929.got.cif
#   From: 2010.03.12/outbox.cif.g09.slc.cpg/sg35_6_cif.got.tgz:11929.got - 2010.04.14 02:02:04.
