data_PCOD8173838
_publ_section_title
;
Structure prediction by ZEFSAII (Michael W. Deem and Ramdas Pophale) SiO2 
 PCOD8173838
Probable space group: C M M 2
;
_chemical_formula_sum "Si O2"
_cell_formula_units_Z 56
_cell_length_a 8.730362
_cell_length_b 18.099663
_cell_length_c 17.859439
_cell_angle_alpha 90.000000
_cell_angle_beta 90.000000
_cell_angle_gamma 90.000000
_cell_volume 2822.088008
_symmetry_space_group_name_H-M "C M M 2"
_symmetry_group_IT_number 35
_symmetry_cell_setting 'orthorhombic'
loop_
_space_group_symop_operation_xyz
x,y,z
-x,-y,z
-x,y,z
x,-y,z
1/2+x,1/2+y,z
1/2-x,1/2-y,z
1/2-x,1/2+y,z
1/2+x,1/2-y,z
loop_
_atom_site_type_symbol
_atom_site_label
_atom_site_fract_x
_atom_site_fract_y
_atom_site_fract_z
Si Si1 0.821622 0.586051 0.753190
Si Si2 0.681067 0.169506 0.605312
Si Si3 0.680110 0.669697 0.889790
Si Si4 0.680862 0.828080 0.168248
Si Si5 0.677178 0.914036 0.457791
Si Si6 0.180710 0.172085 0.327240
Si Si7 0.321714 0.585479 0.037424
O O1 0.786968 0.500000 0.745648
O O2 0.762234 0.624287 0.677404
O O3 0.727441 0.617735 0.821975
O O4 0.000000 0.602048 0.766826
O O5 0.500000 0.174803 0.604809
O O6 0.750000 0.250000 0.608429
O O7 0.738832 0.128376 0.530837
O O8 0.500000 0.677840 0.889960
O O9 0.750000 0.750000 0.880221
O O10 0.737138 0.632363 0.966599
O O11 0.500000 0.820276 0.175349
O O12 0.750000 0.750000 0.141414
O O13 0.749135 0.851934 0.247957
O O14 0.723764 0.890864 0.109093
O O15 0.500000 0.895401 0.441597
O O16 0.778036 0.890234 0.387122
O O17 0.701591 0.000000 0.472575
O O18 0.250000 0.250000 0.354342
O O19 0.000000 0.180004 0.318856
O O20 0.500000 0.600059 0.053830
O O21 0.289719 0.500000 0.020351
#
# Coordination Sequence:
#
# PCOD8173838 Si02
#       7
#     8   8   8   8   8   8   8
#     4  10  21  38  60  86 117 152 191 236 286 339
#     4  10  21  37  58  84 114 151 192 235 284 337
#     4  11  23  39  60  86 116 152 193 236 284 338
#     4  11  22  38  61  87 115 149 191 235 282 338
#     4  10  21  38  59  83 114 151 191 236 286 339
#     4  11  22  38  60  85 115 150 190 235 284 339
#     4  10  22  40  60  84 116 151 188 234 287 339
#
# _framework density 19.843463
#
# number of rings (size 3 to 8) (size 9 to 14) (size 15 to 20)
#    0.000    1.571    0.000    6.000    0.000    9.429 
#    0.000    0.000    0.000    2.571    0.000    0.000 
#    0.000    0.000    0.000    0.000    0.000    0.000 
#
# Total GULP energy -347369.412899 kJ/mol
# GULP energy per Si atom -12406.050461 kJ/mol
# Density = 1.979830 g / cm^3
# Si number density = 19.843463 Si / 1000 Ang^3
#
#
#
# Elastic Constant Matrix: (Units=GPa)
#
#
# Indices 1 2 3 4 5 6 
#
# 1 88.9632 34.0992 44.4458 0.0000 0.0000 0.0000
# 2 34.0992 109.1963 59.5424 0.0000 0.0000 0.0000
# 3 44.4458 59.5424 134.8422 0.0000 0.0000 0.0000
# 4 0.0000 0.0000 0.0000 35.8708 0.0000 0.0000
# 5 0.0000 0.0000 0.0000 0.0000 20.2230 0.0000
# 6 0.0000 0.0000 0.0000 0.0000 0.0000 28.1990
#
#
#
# Elastic Compliance Matrix: (Units=1/GPa)
#
#
# Indices 1 2 3 4 5 6 
#
# 1 0.013930 -0.002432 -0.003518 0.000000 0.000000 0.000000
# 2 -0.002432 0.012487 -0.004712 0.000000 0.000000 0.000000
# 3 -0.003518 -0.004712 0.010656 0.000000 0.000000 0.000000
# 4 0.000000 0.000000 0.000000 0.027878 0.000000 0.000000
# 5 0.000000 0.000000 0.000000 0.000000 0.049449 0.000000
# 6 0.000000 0.000000 0.000000 0.000000 0.000000 0.035462
#
#
# Mechanical properties :
#
#
# Convention : Reuss Voigt Hill
#
# Bulk Modulus (GPa) = 63.49368 67.68631 65.59000
# Shear Modulus (GPa) = 28.33898 29.85283 29.09590
#
# Velocity S-wave (km/s) = 3.78316 3.88289 3.83335
# Velocity P-wave (km/s) = 7.15191 7.36795 7.26073
#
# Compressibility (1/GPa) = 0.01574960
#
# Stress axis : x y z
#
# Youngs Moduli (GPa) = 71.78659 80.08528 93.84101
#
# Poissons Ratio (x) = 0.19476 0.33011
# Poissons Ratio (y) = 0.17458 0.44220
# Poissons Ratio (z) = 0.25252 0.37738
#
# Static dielectric constant tensor:
#      x y z
#    x 3.594640 0.000000 0.000000 
#    y 0.000000 3.608250 0.000000 
#    z 0.000000 0.000000 3.765950 
# 
# 
# High freq. dielectric constant tensor:
#      x y z
#    x 1.770220 0.000000 0.000000 
#    y 0.000000 1.781460 0.000000 
#    z 0.000000 0.000000 1.789600 
# 
# From -- ./inp_files/15598.got.cif
#   From: 2010.03.12/outbox.cif.g09.slc.cpg/sg35_8_cif.got.tgz:15598.got - 2010.04.14 02:02:04.
