data_PCOD8173837
_publ_section_title
;
Structure prediction by ZEFSAII (Michael W. Deem and Ramdas Pophale) SiO2 
 PCOD8173837
Probable space group: C M M 2
;
_chemical_formula_sum "Si O2"
_cell_formula_units_Z 64
_cell_length_a 9.087681
_cell_length_b 18.540443
_cell_length_c 19.814411
_cell_angle_alpha 90.000000
_cell_angle_beta 90.000000
_cell_angle_gamma 90.000000
_cell_volume 3338.522809
_symmetry_space_group_name_H-M "C M M 2"
_symmetry_group_IT_number 35
_symmetry_cell_setting 'orthorhombic'
loop_
_space_group_symop_operation_xyz
x,y,z
-x,-y,z
-x,y,z
x,-y,z
1/2+x,1/2+y,z
1/2-x,1/2-y,z
1/2-x,1/2+y,z
1/2+x,1/2-y,z
loop_
_atom_site_type_symbol
_atom_site_label
_atom_site_fract_x
_atom_site_fract_y
_atom_site_fract_z
Si Si1 0.672893 0.825949 0.137660
Si Si2 0.670313 0.916795 0.268235
Si Si3 0.668965 0.417501 0.028960
Si Si4 0.671463 0.322952 0.528765
Si Si5 0.672893 0.174051 0.763653
Si Si6 0.170313 0.416795 0.633078
Si Si7 0.328537 0.322952 0.372548
Si Si8 0.331035 0.582499 0.872353
O O1 0.500000 0.813698 0.132095
O O2 0.750000 0.750000 0.147411
O O3 0.716930 0.875009 0.201011
O O4 0.726559 0.864445 0.069903
O O5 0.500000 0.904302 0.285802
O O6 0.766250 0.890026 0.331053
O O7 0.706670 0.000000 0.255819
O O8 0.500000 0.404157 0.049674
O O9 0.713479 0.500000 0.044161
O O10 0.692339 0.399811 0.950657
O O11 0.500000 0.313760 0.543104
O O12 0.750000 0.250000 0.553397
O O13 0.733749 0.390026 0.570260
O O14 0.705145 0.338429 0.450657
O O15 0.500000 0.186302 0.769218
O O16 0.750000 0.250000 0.753903
O O17 0.716930 0.124991 0.700302
O O18 0.726559 0.135555 0.831410
O O19 0.206670 0.500000 0.645494
O O20 0.000000 0.404302 0.615511
O O21 0.500000 0.313760 0.358209
O O22 0.250000 0.250000 0.347916
O O23 0.500000 0.595843 0.851639
O O24 0.286522 0.500000 0.857152
#
# Coordination Sequence:
#
# PCOD8173837 Si02
#       8
#     8   8   8   8   8   8   8   8
#     4  11  23  38  57  82 112 146 186 230 275 326
#     4  10  22  39  58  82 112 145 183 228 277 329
#     4   9  19  37  60  85 113 145 182 225 274 328
#     4  10  21  37  58  84 113 146 185 227 272 325
#     4  11  23  38  57  82 112 146 186 230 275 326
#     4  10  22  39  58  82 112 145 183 228 277 329
#     4  10  21  37  58  84 113 146 185 227 272 325
#     4   9  19  37  60  85 113 145 182 225 274 328
#
# _framework density 19.170155000000001
#
# number of rings (size 3 to 8) (size 9 to 14) (size 15 to 20)
#    0.000    2.000    0.000    3.750    0.000    9.000 
#    0.000    3.750    0.000    0.000    0.000    0.000 
#    0.000    0.000    0.000    0.000    0.000    0.000 
#
# Total GULP energy -396990.637228 kJ/mol
# GULP energy per Si atom -12405.957413 kJ/mol
# Density = 1.912652 g / cm^3
# Si number density = 19.170155 Si / 1000 Ang^3
#
#
#
# Elastic Constant Matrix: (Units=GPa)
#
#
# Indices 1 2 3 4 5 6 
#
# 1 95.8771 72.3371 62.1292 0.0000 0.0000 0.0000
# 2 72.3371 150.3779 75.1707 0.0000 0.0000 0.0000
# 3 62.1292 75.1707 98.1264 0.0000 0.0000 0.0000
# 4 0.0000 0.0000 0.0000 40.8518 0.0000 0.0000
# 5 0.0000 0.0000 0.0000 0.0000 35.3588 0.0000
# 6 0.0000 0.0000 0.0000 0.0000 0.0000 26.9449
#
#
#
# Elastic Compliance Matrix: (Units=1/GPa)
#
#
# Indices 1 2 3 4 5 6 
#
# 1 0.020023 -0.005339 -0.008588 0.000000 0.000000 0.000000
# 2 -0.005339 0.012200 -0.005966 0.000000 0.000000 0.000000
# 3 -0.008588 -0.005966 0.020198 0.000000 0.000000 0.000000
# 4 0.000000 0.000000 0.000000 0.024479 0.000000 0.000000
# 5 0.000000 0.000000 0.000000 0.000000 0.028282 0.000000
# 6 0.000000 0.000000 0.000000 0.000000 0.000000 0.037113
#
#
# Mechanical properties :
#
#
# Convention : Reuss Voigt Hill
#
# Bulk Modulus (GPa) = 79.13353 84.85061 81.99207
# Shear Modulus (GPa) = 26.83958 29.61406 28.22682
#
# Velocity S-wave (km/s) = 3.74581 3.93466 3.84140
# Velocity P-wave (km/s) = 7.75095 8.06226 7.90814
#
# Compressibility (1/GPa) = 0.01263687
#
# Stress axis : x y z
#
# Youngs Moduli (GPa) = 49.94232 81.96513 49.50888
#
# Poissons Ratio (x) = 0.43761 0.42517
# Poissons Ratio (y) = 0.26664 0.29536
# Poissons Ratio (z) = 0.42889 0.48898
#
# Static dielectric constant tensor:
#      x y z
#    x 3.497160 0.000000 0.000000 
#    y 0.000000 3.518050 0.000000 
#    z 0.000000 0.000000 3.497760 
# 
# 
# High freq. dielectric constant tensor:
#      x y z
#    x 1.749230 0.000000 0.000000 
#    y 0.000000 1.751060 0.000000 
#    z 0.000000 0.000000 1.752480 
# 
# From -- ./inp_files/18377.got.cif
#   From: 2010.03.12/outbox.cif.g09.slc.cpg/sg35_10_cif.got.tgz:18377.got - 2010.04.14 02:02:04.
