data_PCOD8173844
_publ_section_title
;
Structure prediction by ZEFSAII (Michael W. Deem and Ramdas Pophale) SiO2 
 PCOD8173844
Probable space group: C M M 2
;
_chemical_formula_sum "Si O2"
_cell_formula_units_Z 64
_cell_length_a 22.027453
_cell_length_b 22.169284
_cell_length_c 6.296592
_cell_angle_alpha 90.000000
_cell_angle_beta 90.000000
_cell_angle_gamma 90.000000
_cell_volume 3074.832788
_symmetry_space_group_name_H-M "C M M 2"
_symmetry_group_IT_number 35
_symmetry_cell_setting 'orthorhombic'
loop_
_space_group_symop_operation_xyz
x,y,z
-x,-y,z
-x,y,z
x,-y,z
1/2+x,1/2+y,z
1/2-x,1/2-y,z
1/2-x,1/2+y,z
1/2+x,1/2-y,z
loop_
_atom_site_type_symbol
_atom_site_label
_atom_site_fract_x
_atom_site_fract_y
_atom_site_fract_z
Si Si1 0.570803 0.731797 0.898690
Si Si2 0.068533 0.879544 0.594054
Si Si3 0.644705 0.346168 0.212296
Si Si4 0.671260 0.431718 0.834700
Si Si5 0.251236 0.868257 0.484790
Si Si6 0.170087 0.568870 0.144658
Si Si7 0.067635 0.431151 0.462829
Si Si8 0.357596 0.150829 0.762041
O O1 0.500000 0.741217 0.965022
O O2 0.575004 0.686318 0.701347
O O3 0.602499 0.793220 0.833151
O O4 0.610958 0.709066 0.097819
O O5 0.094084 0.878538 0.355918
O O6 0.103938 0.928143 0.735764
O O7 0.000000 0.901824 0.583838
O O8 0.701495 0.325838 0.363831
O O9 0.673643 0.393426 0.049329
O O10 0.687605 0.500000 0.893233
O O11 0.718996 0.406921 0.666358
O O12 0.280118 0.915969 0.322293
O O13 0.304440 0.828586 0.596602
O O14 0.180638 0.500000 0.066879
O O15 0.103198 0.576866 0.242814
O O16 0.175886 0.616333 0.953928
O O17 0.068103 0.500000 0.538523
O O18 0.096224 0.394857 0.655038
O O19 0.000000 0.407191 0.419603
#
# Coordination Sequence:
#
# PCOD8173844 Si02
#       8
#     8   8   8   8   8   8   8   8
#     4  10  22  41  63  86 114 152 201 250 295 347
#     4   9  20  40  61  83 116 153 187 232 293 352
#     4  10  21  39  61  86 114 153 194 236 293 350
#     4  10  21  38  61  88 117 151 192 236 285 348
#     4  10  22  39  57  82 119 158 194 234 289 356
#     4  10  21  37  58  85 118 156 195 238 291 348
#     4   9  19  35  54  81 119 157 192 236 292 350
#     4  11  22  37  58  88 115 149 198 247 294 343
#
# _framework density 20.814139999999998
#
# number of rings (size 3 to 8) (size 9 to 14) (size 15 to 20)
#    0.000    2.125    0.000    2.250    0.000    8.750 
#    0.000   16.250    0.000    0.000    0.000    0.000 
#    0.000    0.000    0.000    0.000    0.000    0.000 
#
# Total GULP energy -396714.090446 kJ/mol
# GULP energy per Si atom -12397.315326 kJ/mol
# Density = 2.076677 g / cm^3
# Si number density = 20.814140 Si / 1000 Ang^3
#
#
#
# Elastic Constant Matrix: (Units=GPa)
#
#
# Indices 1 2 3 4 5 6 
#
# 1 164.8635 38.1035 62.4140 0.0000 0.0000 0.0000
# 2 38.1035 72.5143 34.6239 0.0000 0.0000 0.0000
# 3 62.4140 34.6239 105.3012 0.0000 0.0000 0.0000
# 4 0.0000 0.0000 0.0000 21.9330 0.0000 0.0000
# 5 0.0000 0.0000 0.0000 0.0000 35.4320 0.0000
# 6 0.0000 0.0000 0.0000 0.0000 0.0000 20.2052
#
#
#
# Elastic Compliance Matrix: (Units=1/GPa)
#
#
# Indices 1 2 3 4 5 6 
#
# 1 0.008142 -0.002342 -0.004056 0.000000 0.000000 0.000000
# 2 -0.002342 0.017032 -0.004212 0.000000 0.000000 0.000000
# 3 -0.004056 -0.004212 0.013286 0.000000 0.000000 0.000000
# 4 0.000000 0.000000 0.000000 0.045593 0.000000 0.000000
# 5 0.000000 0.000000 0.000000 0.000000 0.028223 0.000000
# 6 0.000000 0.000000 0.000000 0.000000 0.000000 0.049492
#
#
# Mechanical properties :
#
#
# Convention : Reuss Voigt Hill
#
# Bulk Modulus (GPa) = 58.00513 68.10685 63.05599
# Shear Modulus (GPa) = 26.49198 29.34988 27.92093
#
# Velocity S-wave (km/s) = 3.57149 3.75919 3.66654
# Velocity P-wave (km/s) = 6.70343 7.18572 6.94876
#
# Compressibility (1/GPa) = 0.01723985
#
# Stress axis : x y z
#
# Youngs Moduli (GPa) = 122.81315 58.71240 75.26849
#
# Poissons Ratio (x) = 0.13749 0.30530
# Poissons Ratio (y) = 0.28761 0.31705
# Poissons Ratio (z) = 0.49815 0.24731
#
# Static dielectric constant tensor:
#      x y z
#    x 4.158870 0.000000 0.000000 
#    y 0.000000 3.465070 0.000000 
#    z 0.000000 0.000000 3.900460 
# 
# 
# High freq. dielectric constant tensor:
#      x y z
#    x 1.839780 0.000000 0.000000 
#    y 0.000000 1.783620 0.000000 
#    z 0.000000 0.000000 1.824180 
# 
# From -- ./inp_files/3505.got.cif
#   From: 2010.03.12/outbox.cif.g09.slc.cpg/sg35_2_cif.got.tgz:3505.got - 2010.04.14 02:02:04.
