data_PCOD8173860
_publ_section_title
;
Structure prediction by ZEFSAII (Michael W. Deem and Ramdas Pophale) SiO2 
 PCOD8173860
Probable space group: C M M 2
;
_chemical_formula_sum "Si O2"
_cell_formula_units_Z 64
_cell_length_a 8.877769
_cell_length_b 30.714787
_cell_length_c 11.897928
_cell_angle_alpha 90.000000
_cell_angle_beta 90.000000
_cell_angle_gamma 90.000000
_cell_volume 3244.312538
_symmetry_space_group_name_H-M "C M M 2"
_symmetry_group_IT_number 35
_symmetry_cell_setting 'orthorhombic'
loop_
_space_group_symop_operation_xyz
x,y,z
-x,-y,z
-x,y,z
x,-y,z
1/2+x,1/2+y,z
1/2-x,1/2-y,z
1/2-x,1/2+y,z
1/2+x,1/2-y,z
loop_
_atom_site_type_symbol
_atom_site_label
_atom_site_fract_x
_atom_site_fract_y
_atom_site_fract_z
Si Si1 0.178761 0.451889 0.535140
Si Si2 0.822441 0.421501 0.292314
Si Si3 0.172427 0.950657 0.072302
Si Si4 0.827463 0.205710 0.063692
Si Si5 0.822887 0.795342 0.541781
Si Si6 0.677043 0.128368 0.680303
Si Si7 0.676621 0.874842 0.940882
Si Si8 0.672201 0.669002 0.301856
O O1 0.241013 0.500000 0.566676
O O2 0.237248 0.438809 0.411760
O O3 0.236717 0.416675 0.625346
O O4 0.000000 0.452439 0.534407
O O5 0.739860 0.448997 0.197022
O O6 0.782829 0.370966 0.279613
O O7 0.000000 0.427727 0.278583
O O8 0.000000 0.934637 0.076241
O O9 0.184732 0.000000 0.027861
O O10 0.264123 0.920443 0.987680
O O11 0.750000 0.250000 0.022527
O O12 0.811051 0.201937 0.198077
O O13 0.000000 0.207329 0.025992
O O14 0.751862 0.164978 0.004272
O O15 0.750000 0.750000 0.577882
O O16 0.763941 0.831878 0.625413
O O17 0.775570 0.806440 0.414253
O O18 0.000000 0.791230 0.555157
O O19 0.500000 0.134450 0.658514
O O20 0.718065 0.127281 0.810507
O O21 0.500000 0.872530 0.962270
O O22 0.500000 0.652260 0.312826
#
# Coordination Sequence:
#
# PCOD8173860 Si02
#       8
#     8   8   8   8   8   8   8   8
#     4   9  18  34  58  89 121 153 190 237 294 349
#     4  11  20  33  61  92 122 157 196 243 294 357
#     4  11  24  41  61  87 124 164 199 243 301 361
#     4  11  23  40  63  89 122 158 196 244 301 360
#     4  11  23  39  62  90 122 158 199 244 295 358
#     4  10  22  41  62  86 118 156 201 252 301 349
#     4  11  24  41  63  89 117 156 207 256 302 354
#     4  10  21  37  59  89 123 158 193 239 301 361
#
# _framework density 19.72683
#
# number of rings (size 3 to 8) (size 9 to 14) (size 15 to 20)
#    0.000    1.500    2.500    2.625    0.000    4.500 
#    0.000    1.250    0.000    1.125    0.000    0.000 
#    0.000    0.000    0.000    0.000    0.000    0.000 
#
# Total GULP energy -396939.160620 kJ/mol
# GULP energy per Si atom -12404.348769 kJ/mol
# Density = 1.968193 g / cm^3
# Si number density = 19.726830 Si / 1000 Ang^3
#
#
#
# Elastic Constant Matrix: (Units=GPa)
#
#
# Indices 1 2 3 4 5 6 
#
# 1 83.7120 48.4532 56.6512 0.0000 0.0000 0.0000
# 2 48.4532 141.3195 53.7522 0.0000 0.0000 0.0000
# 3 56.6512 53.7522 123.2236 0.0000 0.0000 0.0000
# 4 0.0000 0.0000 0.0000 1.8212 0.0000 0.0000
# 5 0.0000 0.0000 0.0000 0.0000 22.6150 0.0000
# 6 0.0000 0.0000 0.0000 0.0000 0.0000 29.8100
#
#
#
# Elastic Compliance Matrix: (Units=1/GPa)
#
#
# Indices 1 2 3 4 5 6 
#
# 1 0.018909 -0.003808 -0.007032 0.000000 0.000000 0.000000
# 2 -0.003808 0.009251 -0.002284 0.000000 0.000000 0.000000
# 3 -0.007032 -0.002284 0.012345 0.000000 0.000000 0.000000
# 4 0.000000 0.000000 0.000000 0.549077 0.000000 0.000000
# 5 0.000000 0.000000 0.000000 0.000000 0.044219 0.000000
# 6 0.000000 0.000000 0.000000 0.000000 0.000000 0.033546
#
#
# Mechanical properties :
#
#
# Convention : Reuss Voigt Hill
#
# Bulk Modulus (GPa) = 70.15199 73.99646 72.07423
# Shear Modulus (GPa) = 7.15976 23.47582 15.31779
#
# Velocity S-wave (km/s) = 1.90718 3.45345 2.78959
# Velocity P-wave (km/s) = 6.36307 7.31394 6.85501
#
# Compressibility (1/GPa) = 0.01425476
#
# Stress axis : x y z
#
# Youngs Moduli (GPa) = 52.88525 108.09800 81.00640
#
# Poissons Ratio (x) = 0.41169 0.56963
# Poissons Ratio (y) = 0.20141 0.18506
# Poissons Ratio (z) = 0.37188 0.24694
#
# Static dielectric constant tensor:
#      x y z
#    x 3.556240 0.000000 0.000000 
#    y 0.000000 3.721940 0.000000 
#    z 0.000000 0.000000 3.665510 
# 
# 
# High freq. dielectric constant tensor:
#      x y z
#    x 1.764080 0.000000 0.000000 
#    y 0.000000 1.780370 0.000000 
#    z 0.000000 0.000000 1.769090 
# 
# From -- ./inp_files/11846.got.cif
#   From: 2010.03.12/outbox.cif.g09.slc.cpg/sg35_6_cif.got.tgz:11846.got - 2010.04.14 02:02:04.
