data_PCOD8173182
_publ_section_title
;
Structure prediction by ZEFSAII (Michael W. Deem and Ramdas Pophale) SiO2 
 PCOD8173182
Probable space group: C M M 2
;
_chemical_formula_sum "Si O2"
_cell_formula_units_Z 56
_cell_length_a 9.277368
_cell_length_b 19.701101
_cell_length_c 17.708568
_cell_angle_alpha 90.000000
_cell_angle_beta 90.000000
_cell_angle_gamma 90.000000
_cell_volume 3236.672253
_symmetry_space_group_name_H-M "C M M 2"
_symmetry_group_IT_number 35
_symmetry_cell_setting 'orthorhombic'
loop_
_space_group_symop_operation_xyz
x,y,z
-x,-y,z
-x,y,z
x,-y,z
1/2+x,1/2+y,z
1/2-x,1/2-y,z
1/2-x,1/2+y,z
1/2+x,1/2-y,z
loop_
_atom_site_type_symbol
_atom_site_label
_atom_site_fract_x
_atom_site_fract_y
_atom_site_fract_z
Si Si1 0.667744 0.922182 0.378150
Si Si2 0.337960 0.918946 0.667745
Si Si3 0.333183 0.816097 0.253401
Si Si4 0.330308 0.181863 0.080146
Si Si5 0.167261 0.079260 0.977305
Si Si6 0.659685 0.419370 0.808050
Si Si7 0.662726 0.419206 0.524338
O O1 0.500000 0.914326 0.398292
O O2 0.712168 0.879978 0.304313
O O3 0.757288 0.893691 0.449069
O O4 0.707221 0.000000 0.360549
O O5 0.500000 0.890866 0.661358
O O6 0.269808 0.890591 0.745633
O O7 0.246133 0.890518 0.597399
O O8 0.337204 0.000000 0.667455
O O9 0.500000 0.799180 0.262030
O O10 0.250000 0.750000 0.282303
O O11 0.293676 0.833700 0.167305
O O12 0.500000 0.190470 0.066141
O O13 0.250000 0.250000 0.053324
O O14 0.271173 0.118735 0.033469
O O15 0.000000 0.095396 0.994363
O O16 0.198639 0.000000 0.988470
O O17 0.207238 0.102631 0.892108
O O18 0.500000 0.390981 0.789976
O O19 0.654634 0.500000 0.804417
O O20 0.500000 0.390908 0.524930
O O21 0.663725 0.500000 0.526615
#
# Coordination Sequence:
#
# PCOD8173182 Si02
#       7
#     8   8   8   8   8   8   8
#     4   9  17  30  47  67  93 122 152 189 233 277
#     4   9  15  22  35  57  86 120 155 189 226 268
#     4   9  19  34  51  70  92 121 155 193 235 279
#     4  10  20  34  52  72  95 125 162 201 240 286
#     4   9  18  32  49  71 100 130 159 196 243 289
#     4   8  14  25  40  59  87 122 155 188 229 275
#     4   9  16  25  38  59  88 120 153 188 227 271
#
# _framework density 17.301721000000001
#
# number of rings (size 3 to 8) (size 9 to 14) (size 15 to 20)
#    0.000    3.000    0.000    2.143    0.000    6.000 
#    0.000    2.857    0.000    1.714    0.000    1.000 
#    0.000    2.286    0.000    0.000    0.000    0.000 
#
# Total GULP energy -347151.890794 kJ/mol
# GULP energy per Si atom -12398.281814 kJ/mol
# Density = 1.726234 g / cm^3
# Si number density = 17.301721 Si / 1000 Ang^3
#
#
#
# Elastic Constant Matrix: (Units=GPa)
#
#
# Indices 1 2 3 4 5 6 
#
# 1 110.3197 40.1837 72.6822 0.0000 0.0000 0.0000
# 2 40.1837 49.9862 48.7605 0.0000 0.0000 0.0000
# 3 72.6822 48.7605 124.1119 0.0000 0.0000 0.0000
# 4 0.0000 0.0000 0.0000 1.8615 0.0000 0.0000
# 5 0.0000 0.0000 0.0000 0.0000 34.0075 0.0000
# 6 0.0000 0.0000 0.0000 0.0000 0.0000 21.1326
#
#
#
# Elastic Compliance Matrix: (Units=1/GPa)
#
#
# Indices 1 2 3 4 5 6 
#
# 1 0.015780 -0.005952 -0.006903 0.000000 0.000000 0.000000
# 2 -0.005952 0.034682 -0.010140 0.000000 0.000000 0.000000
# 3 -0.006903 -0.010140 0.016083 0.000000 0.000000 0.000000
# 4 0.000000 0.000000 0.000000 0.537199 0.000000 0.000000
# 5 0.000000 0.000000 0.000000 0.000000 0.029405 0.000000
# 6 0.000000 0.000000 0.000000 0.000000 0.000000 0.047320
#
#
# Mechanical properties :
#
#
# Convention : Reuss Voigt Hill
#
# Bulk Modulus (GPa) = 48.64839 67.51897 58.08368
# Shear Modulus (GPa) = 6.81838 19.58643 13.20240
#
# Velocity S-wave (km/s) = 1.98732 3.36825 2.76537
# Velocity P-wave (km/s) = 5.78313 7.36450 6.62120
#
# Compressibility (1/GPa) = 0.02055566
#
# Stress axis : x y z
#
# Youngs Moduli (GPa) = 63.36939 28.83364 62.17612
#
# Poissons Ratio (x) = 0.17163 0.42919
# Poissons Ratio (y) = 0.37719 0.63045
# Poissons Ratio (z) = 0.43743 0.29237
#
# Static dielectric constant tensor:
#      x y z
#    x 3.358410 0.000000 0.000000 
#    y 0.000000 2.759550 0.000000 
#    z 0.000000 0.000000 3.412040 
# 
# 
# High freq. dielectric constant tensor:
#      x y z
#    x 1.675290 0.000000 0.000000 
#    y 0.000000 1.611820 0.000000 
#    z 0.000000 0.000000 1.678410 
# 
# From -- ./inp_files/15617.got.cif
#   From: 2010.03.12/outbox.cif.g09.slc.cpg/sg35_8_cif.got.tgz:15617.got - 2010.04.14 02:02:04.
