data_PCOD8173353
_publ_section_title
;
Structure prediction by ZEFSAII (Michael W. Deem and Ramdas Pophale) SiO2 
 PCOD8173353
Probable space group: C M M 2
;
_chemical_formula_sum "Si O2"
_cell_formula_units_Z 56
_cell_length_a 8.711067
_cell_length_b 21.581850
_cell_length_c 14.559892
_cell_angle_alpha 90.000000
_cell_angle_beta 90.000000
_cell_angle_gamma 90.000000
_cell_volume 2737.273402
_symmetry_space_group_name_H-M "C M M 2"
_symmetry_group_IT_number 35
_symmetry_cell_setting 'orthorhombic'
loop_
_space_group_symop_operation_xyz
x,y,z
-x,-y,z
-x,y,z
x,-y,z
1/2+x,1/2+y,z
1/2-x,1/2-y,z
1/2-x,1/2+y,z
1/2+x,1/2-y,z
loop_
_atom_site_type_symbol
_atom_site_label
_atom_site_fract_x
_atom_site_fract_y
_atom_site_fract_z
Si Si1 0.677181 0.500000 0.129360
Si Si2 0.325406 0.103885 0.014804
Si Si3 0.181250 0.125717 0.346725
Si Si4 0.319205 0.929522 0.640545
Si Si5 0.181701 0.314440 0.514984
Si Si6 0.680463 0.000000 0.325901
Si Si7 0.674872 0.815121 0.179391
Si Si8 0.177228 0.071895 0.835948
O O1 0.500000 0.500000 0.161584
O O2 0.710023 0.558473 0.066073
O O3 0.786182 0.500000 0.217588
O O4 0.500000 0.078390 0.014968
O O5 0.315922 0.167982 0.071506
O O6 0.268247 0.113268 0.910605
O O7 0.253728 0.178097 0.411981
O O8 0.233072 0.135750 0.241495
O O9 0.000000 0.127262 0.354729
O O10 0.245996 0.058951 0.376635
O O11 0.500000 0.926316 0.654885
O O12 0.263879 0.875789 0.570818
O O13 0.240179 0.912443 0.736087
O O14 0.272282 0.000000 0.608790
O O15 0.250000 0.250000 0.556073
O O16 0.000000 0.308924 0.514097
O O17 0.500000 0.000000 0.343789
O O18 0.500000 0.814127 0.213899
O O19 0.750000 0.750000 0.196543
O O20 0.000000 0.090121 0.839425
O O21 0.204296 0.000000 0.860197
#
# Coordination Sequence:
#
# PCOD8173353 Si02
#       8
#     4   8   8   8   8   4   8   8
#     4  12  22  34  56  87 120 155 196 242 294 348
#     4  11  22  36  58  85 119 161 201 245 296 357
#     4  12  25  41  63  91 124 161 204 254 308 368
#     4   9  20  40  65  92 121 159 204 253 314 378
#     4  11  24  43  67  93 124 164 210 259 314 379
#     4  12  24  40  60  89 126 163 204 250 308 368
#     4  11  24  41  60  83 116 161 210 256 304 359
#     4  10  20  34  57  90 124 155 193 247 306 366
#
# _framework density 20.458314999999999
#
# number of rings (size 3 to 8) (size 9 to 14) (size 15 to 20)
#    0.000    1.143    2.143    4.714    1.000    3.429 
#    0.000    0.714    0.000    0.000    0.000    0.000 
#    0.000    0.000    0.000    0.000    0.000    0.000 
#
# Total GULP energy -347246.906712 kJ/mol
# GULP energy per Si atom -12401.675240 kJ/mol
# Density = 2.041175 g / cm^3
# Si number density = 20.458315 Si / 1000 Ang^3
#
#
#
# Elastic Constant Matrix: (Units=GPa)
#
#
# Indices 1 2 3 4 5 6 
#
# 1 105.5313 47.4015 42.3101 0.0000 0.0000 0.0000
# 2 47.4015 115.1664 41.3919 0.0000 0.0000 0.0000
# 3 42.3101 41.3919 96.0631 0.0000 0.0000 0.0000
# 4 0.0000 0.0000 0.0000 23.8745 0.0000 0.0000
# 5 0.0000 0.0000 0.0000 0.0000 29.5736 0.0000
# 6 0.0000 0.0000 0.0000 0.0000 0.0000 31.2068
#
#
#
# Elastic Compliance Matrix: (Units=1/GPa)
#
#
# Indices 1 2 3 4 5 6 
#
# 1 0.012795 -0.003835 -0.003983 0.000000 0.000000 0.000000
# 2 -0.003835 0.011423 -0.003233 0.000000 0.000000 0.000000
# 3 -0.003983 -0.003233 0.013557 0.000000 0.000000 0.000000
# 4 0.000000 0.000000 0.000000 0.041886 0.000000 0.000000
# 5 0.000000 0.000000 0.000000 0.000000 0.033814 0.000000
# 6 0.000000 0.000000 0.000000 0.000000 0.000000 0.032044
#
#
# Mechanical properties :
#
#
# Convention : Reuss Voigt Hill
#
# Bulk Modulus (GPa) = 63.80117 64.32975 64.06546
# Shear Modulus (GPa) = 28.92729 29.30813 29.11771
#
# Velocity S-wave (km/s) = 3.76435 3.78905 3.77672
# Velocity P-wave (km/s) = 7.08148 7.11724 7.09938
#
# Compressibility (1/GPa) = 0.01567369
#
# Stress axis : x y z
#
# Youngs Moduli (GPa) = 78.15349 87.53886 73.76090
#
# Poissons Ratio (x) = 0.33570 0.29381
# Poissons Ratio (y) = 0.29971 0.23848
# Poissons Ratio (z) = 0.31130 0.28303
#
# Static dielectric constant tensor:
#      x y z
#    x 3.697450 0.000000 0.000000 
#    y 0.000000 4.221650 0.000000 
#    z 0.000000 0.000000 3.677640 
# 
# 
# High freq. dielectric constant tensor:
#      x y z
#    x 1.809990 0.000000 0.000000 
#    y 0.000000 1.788340 0.000000 
#    z 0.000000 0.000000 1.795940 
# 
# From -- ./inp_files/15695.got.cif
#   From: 2010.03.12/outbox.cif.g09.slc.cpg/sg35_8_cif.got.tgz:15695.got - 2010.04.14 02:02:04.
