data_PCOD8173636
_publ_section_title
;
Structure prediction by ZEFSAII (Michael W. Deem and Ramdas Pophale) SiO2 
 PCOD8173636
Probable space group: C M M 2
;
_chemical_formula_sum "Si O2"
_cell_formula_units_Z 40
_cell_length_a 25.803677
_cell_length_b 8.637208
_cell_length_c 9.132902
_cell_angle_alpha 90.000000
_cell_angle_beta 90.000000
_cell_angle_gamma 90.000000
_cell_volume 2035.465627
_symmetry_space_group_name_H-M "C M M 2"
_symmetry_group_IT_number 35
_symmetry_cell_setting 'orthorhombic'
loop_
_space_group_symop_operation_xyz
x,y,z
-x,-y,z
-x,y,z
x,-y,z
1/2+x,1/2+y,z
1/2-x,1/2-y,z
1/2-x,1/2+y,z
1/2+x,1/2-y,z
loop_
_atom_site_type_symbol
_atom_site_label
_atom_site_fract_x
_atom_site_fract_y
_atom_site_fract_z
Si Si1 0.500000 0.183431 0.396960
Si Si2 0.803782 0.818280 0.071104
Si Si3 0.500000 0.816663 0.067530
Si Si4 0.599180 0.816602 0.577337
Si Si5 0.096648 0.816818 0.897990
Si Si6 0.304899 0.683665 0.406182
O O1 0.500000 0.250584 0.232564
O O2 0.448779 0.243146 0.479585
O O3 0.500000 0.000000 0.392484
O O4 0.750000 0.750000 0.011692
O O5 0.849946 0.755703 0.969463
O O6 0.799045 0.000000 0.060389
O O7 0.814436 0.767075 0.238063
O O8 0.500000 0.000000 0.067608
O O9 0.449574 0.758525 0.986238
O O10 0.594009 0.734025 0.731666
O O11 0.652095 0.766159 0.502546
O O12 0.597912 0.000000 0.599309
O O13 0.092032 0.000000 0.910224
O O14 0.306882 0.500000 0.429079
O O15 0.250000 0.750000 0.460123
#
# Coordination Sequence:
#
# PCOD8173636 Si02
#       6
#     4   8   4   8   8   8
#     4   9  21  39  60  84 112 145 188 235 284 340
#     4   9  20  37  59  84 113 148 191 237 285 338
#     4  11  22  39  62  86 110 145 190 237 284 338
#     4  11  22  38  59  85 116 153 191 233 283 340
#     4  11  23  39  57  84 119 153 187 232 286 342
#     4  10  20  37  59  85 114 149 191 238 286 338
#
# _framework density 19.651522
#
# number of rings (size 3 to 8) (size 9 to 14) (size 15 to 20)
#    0.000    1.800    0.000    3.900    0.000    4.000 
#    0.000    6.500    0.000    0.000    0.000    0.000 
#    0.000    0.000    0.000    0.000    0.000    0.000 
#
# Total GULP energy -248081.526994 kJ/mol
# GULP energy per Si atom -12404.076350 kJ/mol
# Density = 1.960679 g / cm^3
# Si number density = 19.651522 Si / 1000 Ang^3
#
#
#
# Elastic Constant Matrix: (Units=GPa)
#
#
# Indices 1 2 3 4 5 6 
#
# 1 177.4359 25.4907 84.1617 0.0000 0.0000 0.0000
# 2 25.4907 35.5198 5.1251 0.0000 0.0000 0.0000
# 3 84.1617 5.1251 119.4123 0.0000 0.0000 0.0000
# 4 0.0000 0.0000 0.0000 31.3467 0.0000 0.0000
# 5 0.0000 0.0000 0.0000 0.0000 49.3917 0.0000
# 6 0.0000 0.0000 0.0000 0.0000 0.0000 36.5658
#
#
#
# Elastic Compliance Matrix: (Units=1/GPa)
#
#
# Indices 1 2 3 4 5 6 
#
# 1 0.009564 -0.005928 -0.006486 0.000000 0.000000 0.000000
# 2 -0.005928 0.032003 0.002804 0.000000 0.000000 0.000000
# 3 -0.006486 0.002804 0.012826 0.000000 0.000000 0.000000
# 4 0.000000 0.000000 0.000000 0.031901 0.000000 0.000000
# 5 0.000000 0.000000 0.000000 0.000000 0.020246 0.000000
# 6 0.000000 0.000000 0.000000 0.000000 0.000000 0.027348
#
#
# Mechanical properties :
#
#
# Convention : Reuss Voigt Hill
#
# Bulk Modulus (GPa) = 28.43103 62.43588 45.43346
# Shear Modulus (GPa) = 30.33403 37.96688 34.15046
#
# Velocity S-wave (km/s) = 3.93313 4.40023 4.17322
# Velocity P-wave (km/s) = 5.92663 7.59319 6.81108
#
# Compressibility (1/GPa) = 0.03517284
#
# Stress axis : x y z
#
# Youngs Moduli (GPa) = 104.55883 31.24738 77.96962
#
# Poissons Ratio (x) = 0.18522 0.50573
# Poissons Ratio (y) = 0.61979 -0.21865
# Poissons Ratio (z) = 0.67820 -0.08763
#
# Static dielectric constant tensor:
#      x y z
#    x 3.785170 0.000000 0.000000 
#    y 0.000000 3.539770 0.000000 
#    z 0.000000 0.000000 3.826040 
# 
# 
# High freq. dielectric constant tensor:
#      x y z
#    x 1.784980 0.000000 0.000000 
#    y 0.000000 1.764060 0.000000 
#    z 0.000000 0.000000 1.772890 
# 
# From -- ./inp_files/10062.got.cif
#   From: 2010.03.12/outbox.cif.g09.slc.cpg/sg35_6_cif.got.tgz:10062.got - 2010.04.14 02:02:04.
