data_PCOD8173416
_publ_section_title
;
Structure prediction by ZEFSAII (Michael W. Deem and Ramdas Pophale) SiO2 
 PCOD8173416
Probable space group: C M M 2
;
_chemical_formula_sum "Si O2"
_cell_formula_units_Z 64
_cell_length_a 9.257228
_cell_length_b 18.599915
_cell_length_c 20.325560
_cell_angle_alpha 90.000000
_cell_angle_beta 90.000000
_cell_angle_gamma 90.000000
_cell_volume 3499.729189
_symmetry_space_group_name_H-M "C M M 2"
_symmetry_group_IT_number 35
_symmetry_cell_setting 'orthorhombic'
loop_
_space_group_symop_operation_xyz
x,y,z
-x,-y,z
-x,y,z
x,-y,z
1/2+x,1/2+y,z
1/2-x,1/2-y,z
1/2-x,1/2+y,z
1/2+x,1/2-y,z
loop_
_atom_site_type_symbol
_atom_site_label
_atom_site_fract_x
_atom_site_fract_y
_atom_site_fract_z
Si Si1 0.169803 0.825055 0.208790
Si Si2 0.334001 0.416745 0.079869
Si Si3 0.670054 0.823450 0.979572
Si Si4 0.340696 0.085150 0.463750
Si Si5 0.167224 0.320558 0.829824
Si Si6 0.330460 0.083259 0.315742
Si Si7 0.667468 0.082674 0.710811
Si Si8 0.662108 0.414118 0.585551
O O1 0.250000 0.750000 0.198269
O O2 0.201470 0.873990 0.145901
O O3 0.233085 0.865874 0.271419
O O4 0.000000 0.811517 0.219324
O O5 0.500000 0.405660 0.058511
O O6 0.298758 0.500000 0.092653
O O7 0.230408 0.388808 0.022328
O O8 0.500000 0.813534 0.992272
O O9 0.750000 0.750000 0.000169
O O10 0.705344 0.843842 0.904134
O O11 0.500000 0.117393 0.476584
O O12 0.288620 0.104888 0.390391
O O13 0.233514 0.117018 0.518824
O O14 0.348888 0.000000 0.470091
O O15 0.250000 0.250000 0.808135
O O16 0.215296 0.382358 0.779606
O O17 0.000000 0.302679 0.823734
O O18 0.500000 0.096777 0.302653
O O19 0.292250 0.000000 0.301875
O O20 0.500000 0.095202 0.695504
O O21 0.754641 0.116009 0.649480
O O22 0.706320 0.000000 0.719332
O O23 0.500000 0.384823 0.588432
O O24 0.667755 0.500000 0.584918
#
# Coordination Sequence:
#
# PCOD8173416 Si02
#       8
#     8   8   8   8   8   8   8   8
#     4  11  23  38  56  77 104 139 176 212 253 304
#     4  10  22  39  57  80 109 137 168 210 258 305
#     4  10  20  35  56  80 105 136 174 213 255 306
#     4   8  14  26  45  69  98 132 166 201 247 302
#     4   9  19  34  52  74 100 132 169 208 250 299
#     4   9  18  33  54  80 107 134 169 214 260 307
#     4   9  17  30  48  69  96 131 168 207 252 300
#     4   9  16  25  40  67 100 130 164 207 251 296
#
# _framework density 18.287130000000001
#
# number of rings (size 3 to 8) (size 9 to 14) (size 15 to 20)
#    0.000    2.625    0.000    2.625    0.000    6.500 
#    0.000    2.500    0.000    2.250    0.000    3.500 
#    0.000    0.000    0.000    0.000    0.000    0.000 
#
# Total GULP energy -396782.829214 kJ/mol
# GULP energy per Si atom -12399.463413 kJ/mol
# Density = 1.824551 g / cm^3
# Si number density = 18.287130 Si / 1000 Ang^3
#
#
#
# Elastic Constant Matrix: (Units=GPa)
#
#
# Indices 1 2 3 4 5 6 
#
# 1 99.8501 56.0494 75.9732 0.0000 0.0000 0.0000
# 2 56.0494 86.5212 65.0168 0.0000 0.0000 0.0000
# 3 75.9732 65.0168 138.6236 0.0000 0.0000 0.0000
# 4 0.0000 0.0000 0.0000 5.4171 0.0000 0.0000
# 5 0.0000 0.0000 0.0000 0.0000 28.2769 0.0000
# 6 0.0000 0.0000 0.0000 0.0000 0.0000 26.0565
#
#
#
# Elastic Compliance Matrix: (Units=1/GPa)
#
#
# Indices 1 2 3 4 5 6 
#
# 1 0.019696 -0.007177 -0.007428 0.000000 0.000000 0.000000
# 2 -0.007177 0.020464 -0.005664 0.000000 0.000000 0.000000
# 3 -0.007428 -0.005664 0.013941 0.000000 0.000000 0.000000
# 4 0.000000 0.000000 0.000000 0.184599 0.000000 0.000000
# 5 0.000000 0.000000 0.000000 0.000000 0.035365 0.000000
# 6 0.000000 0.000000 0.000000 0.000000 0.000000 0.038378
#
#
# Mechanical properties :
#
#
# Convention : Reuss Voigt Hill
#
# Bulk Modulus (GPa) = 73.73731 79.89708 76.81720
# Shear Modulus (GPa) = 13.98590 20.48047 17.23319
#
# Velocity S-wave (km/s) = 2.76849 3.35018 3.07313
# Velocity P-wave (km/s) = 7.11540 7.66486 7.39524
#
# Compressibility (1/GPa) = 0.01356165
#
# Stress axis : x y z
#
# Youngs Moduli (GPa) = 50.77277 48.86654 71.72857
#
# Poissons Ratio (x) = 0.35072 0.53280
# Poissons Ratio (y) = 0.36441 0.40630
# Poissons Ratio (z) = 0.37714 0.27680
#
# Static dielectric constant tensor:
#      x y z
#    x 3.452330 0.000000 0.000000 
#    y 0.000000 3.125720 0.000000 
#    z 0.000000 0.000000 3.601790 
# 
# 
# High freq. dielectric constant tensor:
#      x y z
#    x 1.711830 0.000000 0.000000 
#    y 0.000000 1.676280 0.000000 
#    z 0.000000 0.000000 1.722580 
# 
# From -- ./inp_files/18416.got.cif
#   From: 2010.03.12/outbox.cif.g09.slc.cpg/sg35_10_cif.got.tgz:18416.got - 2010.04.14 02:02:04.
