data_PCOD8173227
_publ_section_title
;
Structure prediction by ZEFSAII (Michael W. Deem and Ramdas Pophale) SiO2 
 PCOD8173227
Probable space group: C M M 2
;
_chemical_formula_sum "Si O2"
_cell_formula_units_Z 64
_cell_length_a 8.861945
_cell_length_b 19.933556
_cell_length_c 19.882768
_cell_angle_alpha 90.000000
_cell_angle_beta 90.000000
_cell_angle_gamma 90.000000
_cell_volume 3512.292497
_symmetry_space_group_name_H-M "C M M 2"
_symmetry_group_IT_number 35
_symmetry_cell_setting 'orthorhombic'
loop_
_space_group_symop_operation_xyz
x,y,z
-x,-y,z
-x,y,z
x,-y,z
1/2+x,1/2+y,z
1/2-x,1/2-y,z
1/2-x,1/2+y,z
1/2+x,1/2-y,z
loop_
_atom_site_type_symbol
_atom_site_label
_atom_site_fract_x
_atom_site_fract_y
_atom_site_fract_z
Si Si1 0.820430 0.179838 0.271810
Si Si2 0.676774 0.423684 0.385653
Si Si3 0.321433 0.179973 0.129683
Si Si4 0.178377 0.318937 0.631705
Si Si5 0.172667 0.922785 0.877693
Si Si6 0.323517 0.181592 0.783782
Si Si7 0.826561 0.922429 0.032868
Si Si8 0.821510 0.424411 0.523421
O O1 0.750000 0.250000 0.296424
O O2 0.771489 0.122779 0.324199
O O3 0.751106 0.158691 0.200474
O O4 0.000000 0.186707 0.265265
O O5 0.500000 0.418260 0.397740
O O6 0.725644 0.500000 0.368988
O O7 0.756639 0.397425 0.453104
O O8 0.500000 0.188477 0.137531
O O9 0.250000 0.250000 0.104641
O O10 0.285746 0.122492 0.076157
O O11 0.250000 0.250000 0.605514
O O12 0.231607 0.334319 0.707872
O O13 0.238754 0.378491 0.584217
O O14 0.000000 0.312255 0.627145
O O15 0.280911 0.879539 0.831332
O O16 0.000000 0.905663 0.860537
O O17 0.207791 0.000000 0.862232
O O18 0.206554 0.906588 0.955195
O O19 0.500000 0.192271 0.785968
O O20 0.250000 0.250000 0.810874
O O21 0.000000 0.905471 0.050485
O O22 0.792916 0.000000 0.048813
O O23 0.764041 0.500000 0.537197
O O24 0.000000 0.421696 0.518885
#
# Coordination Sequence:
#
# PCOD8173227 Si02
#       8
#     8   8   8   8   8   8   8   8
#     4  10  20  35  54  75 102 135 169 208 254 303
#     4   9  19  35  53  74 100 131 168 207 248 298
#     4  11  22  36  55  79 107 137 173 215 256 303
#     4   9  19  34  51  73 101 133 169 208 252 301
#     4   9  19  36  56  78 105 136 171 212 257 307
#     4  10  20  34  53  76 104 138 174 215 259 306
#     4   9  19  37  58  78 104 138 172 209 257 309
#     4   9  18  33  52  73  99 131 166 206 251 298
#
# _framework density 18.221716000000001
#
# number of rings (size 3 to 8) (size 9 to 14) (size 15 to 20)
#    0.000    2.500    0.000    3.375    0.000    5.000 
#    0.000    6.250    0.000    1.500    0.000    0.000 
#    0.000    0.000    0.000    0.000    0.000    0.000 
#
# Total GULP energy -396856.552677 kJ/mol
# GULP energy per Si atom -12401.767271 kJ/mol
# Density = 1.818024 g / cm^3
# Si number density = 18.221716 Si / 1000 Ang^3
#
#
#
# Elastic Constant Matrix: (Units=GPa)
#
#
# Indices 1 2 3 4 5 6 
#
# 1 64.5039 41.1131 41.3109 0.0000 0.0000 0.0000
# 2 41.1131 109.4282 79.5613 0.0000 0.0000 0.0000
# 3 41.3109 79.5613 104.1157 0.0000 0.0000 0.0000
# 4 0.0000 0.0000 0.0000 37.9356 0.0000 0.0000
# 5 0.0000 0.0000 0.0000 0.0000 30.6859 0.0000
# 6 0.0000 0.0000 0.0000 0.0000 0.0000 32.4603
#
#
#
# Elastic Compliance Matrix: (Units=1/GPa)
#
#
# Indices 1 2 3 4 5 6 
#
# 1 0.021627 -0.004245 -0.005337 0.000000 0.000000 0.000000
# 2 -0.004245 0.021396 -0.014666 0.000000 0.000000 0.000000
# 3 -0.005337 -0.014666 0.022930 0.000000 0.000000 0.000000
# 4 0.000000 0.000000 0.000000 0.026360 0.000000 0.000000
# 5 0.000000 0.000000 0.000000 0.000000 0.032588 0.000000
# 6 0.000000 0.000000 0.000000 0.000000 0.000000 0.030807
#
#
# Mechanical properties :
#
#
# Convention : Reuss Voigt Hill
#
# Bulk Modulus (GPa) = 57.28545 66.89094 62.08819
# Shear Modulus (GPa) = 23.80685 27.95385 25.88035
#
# Velocity S-wave (km/s) = 3.61849 3.92100 3.77278
# Velocity P-wave (km/s) = 6.99744 7.56889 7.28877
#
# Compressibility (1/GPa) = 0.01745644
#
# Stress axis : x y z
#
# Youngs Moduli (GPa) = 46.23917 46.73682 43.61149
#
# Poissons Ratio (x) = 0.19839 0.23277
# Poissons Ratio (y) = 0.19627 0.63961
# Poissons Ratio (z) = 0.24679 0.68545
#
# Static dielectric constant tensor:
#      x y z
#    x 3.269580 0.000000 0.000000 
#    y 0.000000 3.439710 0.000000 
#    z 0.000000 0.000000 3.408910 
# 
# 
# High freq. dielectric constant tensor:
#      x y z
#    x 1.704660 0.000000 0.000000 
#    y 0.000000 1.708640 0.000000 
#    z 0.000000 0.000000 1.707370 
# 
# From -- ./inp_files/18329.got.cif
#   From: 2010.03.12/outbox.cif.g09.slc.cpg/sg35_10_cif.got.tgz:18329.got - 2010.04.14 02:02:04.
