data_PCOD8173737
_publ_section_title
;
Structure prediction by ZEFSAII (Michael W. Deem and Ramdas Pophale) SiO2 
 PCOD8173737
Probable space group: C M M 2
;
_chemical_formula_sum "Si O2"
_cell_formula_units_Z 64
_cell_length_a 29.760902
_cell_length_b 9.599466
_cell_length_c 12.287069
_cell_angle_alpha 90.000000
_cell_angle_beta 90.000000
_cell_angle_gamma 90.000000
_cell_volume 3510.277591
_symmetry_space_group_name_H-M "C M M 2"
_symmetry_group_IT_number 35
_symmetry_cell_setting 'orthorhombic'
loop_
_space_group_symop_operation_xyz
x,y,z
-x,-y,z
-x,y,z
x,-y,z
1/2+x,1/2+y,z
1/2-x,1/2-y,z
1/2-x,1/2+y,z
1/2+x,1/2-y,z
loop_
_atom_site_type_symbol
_atom_site_label
_atom_site_fract_x
_atom_site_fract_y
_atom_site_fract_z
Si Si1 0.623273 0.334985 0.841640
Si Si2 0.792536 0.843717 0.219855
Si Si3 0.295284 0.662206 0.983942
Si Si4 0.947606 0.661984 0.454878
Si Si5 0.380098 0.665349 0.595242
Si Si6 0.551785 0.337232 0.013592
Si Si7 0.795271 0.161857 0.456752
Si Si8 0.446702 0.153757 0.211807
O O1 0.624750 0.500000 0.841929
O O2 0.668736 0.278950 0.897928
O O3 0.620405 0.279569 0.719007
O O4 0.579795 0.284178 0.909390
O O5 0.750000 0.750000 0.213099
O O6 0.817108 0.812329 0.335259
O O7 0.774259 0.000000 0.223748
O O8 0.818523 0.819870 0.105103
O O9 0.283912 0.500000 0.962679
O O10 0.250000 0.750000 0.970366
O O11 0.937647 0.500000 0.478738
O O12 0.921191 0.759039 0.537669
O O13 0.931429 0.700436 0.332435
O O14 0.000000 0.694762 0.470466
O O15 0.387604 0.500000 0.586506
O O16 0.332797 0.710303 0.542138
O O17 0.500000 0.299761 0.990388
O O18 0.558670 0.500000 0.034783
O O19 0.570641 0.261773 0.121609
O O20 0.750000 0.250000 0.475140
O O21 0.783005 0.000000 0.474247
O O22 0.500000 0.147218 0.211303
O O23 0.427360 0.000000 0.184933
#
# Coordination Sequence:
#
# PCOD8173737 Si02
#       8
#     8   8   8   8   8   8   8   8
#     4   9  19  34  49  69 100 134 166 204 249 289
#     4   8  14  26  45  68  92 120 155 196 244 295
#     4   9  17  31  50  69  93 125 158 197 246 294
#     4   9  19  36  55  75 102 134 165 202 253 307
#     4  10  21  35  51  74 102 133 175 217 247 288
#     4   9  17  30  50  74  98 127 164 202 241 292
#     4   9  18  32  50  73 100 129 163 205 251 298
#     4   8  15  30  51  74 101 129 156 194 248 302
#
# _framework density 18.232175999999999
#
# number of rings (size 3 to 8) (size 9 to 14) (size 15 to 20)
#    0.000    3.125    0.000    0.750    0.000    3.250 
#    0.000    6.875    0.000    7.500    0.000    0.000 
#    0.000    0.000    0.000    0.000    0.000    0.000 
#
# Total GULP energy -396486.100357 kJ/mol
# GULP energy per Si atom -12390.190636 kJ/mol
# Density = 1.819068 g / cm^3
# Si number density = 18.232176 Si / 1000 Ang^3
#
#
#
# Elastic Constant Matrix: (Units=GPa)
#
#
# Indices 1 2 3 4 5 6 
#
# 1 90.1943 40.9958 75.4243 0.0000 0.0000 0.0000
# 2 40.9958 49.3708 53.9242 0.0000 0.0000 0.0000
# 3 75.4243 53.9242 179.5318 0.0000 0.0000 0.0000
# 4 0.0000 0.0000 0.0000 20.4961 0.0000 0.0000
# 5 0.0000 0.0000 0.0000 0.0000 32.6847 0.0000
# 6 0.0000 0.0000 0.0000 0.0000 0.0000 23.8908
#
#
#
# Elastic Compliance Matrix: (Units=1/GPa)
#
#
# Indices 1 2 3 4 5 6 
#
# 1 0.020675 -0.011431 -0.005253 0.000000 0.000000 0.000000
# 2 -0.011431 0.036464 -0.006150 0.000000 0.000000 0.000000
# 3 -0.005253 -0.006150 0.009624 0.000000 0.000000 0.000000
# 4 0.000000 0.000000 0.000000 0.048790 0.000000 0.000000
# 5 0.000000 0.000000 0.000000 0.000000 0.030595 0.000000
# 6 0.000000 0.000000 0.000000 0.000000 0.000000 0.041857
#
#
# Mechanical properties :
#
#
# Convention : Reuss Voigt Hill
#
# Bulk Modulus (GPa) = 47.40225 73.30948 60.35587
# Shear Modulus (GPa) = 20.77236 25.33118 23.05177
#
# Velocity S-wave (km/s) = 3.37905 3.73146 3.55962
# Velocity P-wave (km/s) = 6.42492 7.67211 7.07605
#
# Compressibility (1/GPa) = 0.02109604
#
# Stress axis : x y z
#
# Youngs Moduli (GPa) = 48.36679 27.42440 103.90725
#
# Poissons Ratio (x) = 0.31349 0.54579
# Poissons Ratio (y) = 0.55288 0.63902
# Poissons Ratio (z) = 0.25405 0.16866
#
# Static dielectric constant tensor:
#      x y z
#    x 2.711010 0.000000 0.000000 
#    y 0.000000 3.273090 0.000000 
#    z 0.000000 0.000000 3.978880 
# 
# 
# High freq. dielectric constant tensor:
#      x y z
#    x 1.686000 0.000000 0.000000 
#    y 0.000000 1.690400 0.000000 
#    z 0.000000 0.000000 1.717480 
# 
# From -- ./inp_files/11939.got.cif
#   From: 2010.03.12/outbox.cif.g09.slc.cpg/sg35_6_cif.got.tgz:11939.got - 2010.04.14 02:02:04.
