data_PCOD8173137
_publ_section_title
;
Structure prediction by ZEFSAII (Michael W. Deem and Ramdas Pophale) SiO2 
 PCOD8173137
Probable space group: C M M 2
;
_chemical_formula_sum "Si O2"
_cell_formula_units_Z 64
_cell_length_a 16.071483
_cell_length_b 14.801305
_cell_length_c 14.134954
_cell_angle_alpha 90.000000
_cell_angle_beta 90.000000
_cell_angle_gamma 90.000000
_cell_volume 3362.407616
_symmetry_space_group_name_H-M "C M M 2"
_symmetry_group_IT_number 35
_symmetry_cell_setting 'orthorhombic'
loop_
_space_group_symop_operation_xyz
x,y,z
-x,-y,z
-x,y,z
x,-y,z
1/2+x,1/2+y,z
1/2-x,1/2-y,z
1/2-x,1/2+y,z
1/2+x,1/2-y,z
loop_
_atom_site_type_symbol
_atom_site_label
_atom_site_fract_x
_atom_site_fract_y
_atom_site_fract_z
Si Si1 0.287702 0.658713 0.844090
Si Si2 0.161650 0.225613 0.163730
Si Si3 0.229920 0.103216 0.331358
Si Si4 0.592302 0.281254 0.680054
Si Si5 0.906119 0.398076 0.253216
Si Si6 0.328954 0.098508 0.690192
Si Si7 0.907075 0.899222 0.005602
Si Si8 0.183389 0.896870 0.542648
O O1 0.250000 0.750000 0.889034
O O2 0.349266 0.680370 0.759775
O O3 0.214041 0.601680 0.794630
O O4 0.337312 0.606240 0.924597
O O5 0.250000 0.250000 0.115898
O O6 0.181963 0.170250 0.260051
O O7 0.108896 0.317906 0.177804
O O8 0.108416 0.166716 0.092488
O O9 0.330911 0.112961 0.328448
O O10 0.203061 0.131380 0.435819
O O11 0.204284 0.000000 0.307611
O O12 0.500000 0.307007 0.708793
O O13 0.600208 0.172981 0.676076
O O14 0.612946 0.328555 0.579928
O O15 0.899785 0.500000 0.207980
O O16 0.000000 0.386434 0.296706
O O17 0.264372 0.116270 0.606304
O O18 0.370346 0.000000 0.680009
O O19 0.000000 0.878918 0.965082
O O20 0.902579 0.000000 0.046754
O O21 0.151128 0.000000 0.548736
#
# Coordination Sequence:
#
# PCOD8173137 Si02
#       8
#     8   8   8   8   8   8   8   8
#     4   9  18  35  56  75  98 131 171 210 252 302
#     4  10  20  34  53  75 103 139 174 208 251 307
#     4   9  18  34  55  75  99 135 174 210 251 303
#     4  10  20  33  52  78 105 131 163 207 254 300
#     4   9  18  33  53  76 100 130 172 219 261 297
#     4   9  18  33  53  75 101 134 168 204 247 299
#     4  11  22  34  51  77 107 135 166 210 260 307
#     4   9  18  34  54  74  99 133 173 211 246 292
#
# _framework density 19.03398
#
# number of rings (size 3 to 8) (size 9 to 14) (size 15 to 20)
#    0.000    2.500    0.000    3.000    0.000    4.500 
#    0.000    3.125    0.000    4.500    0.000    0.000 
#    0.000    0.000    0.000    0.000    0.000    0.250 
#
# Total GULP energy -396517.694772 kJ/mol
# GULP energy per Si atom -12391.177962 kJ/mol
# Density = 1.899066 g / cm^3
# Si number density = 19.033980 Si / 1000 Ang^3
#
#
#
# Elastic Constant Matrix: (Units=GPa)
#
#
# Indices 1 2 3 4 5 6 
#
# 1 77.0307 38.4695 22.4380 0.0000 0.0000 0.0000
# 2 38.4695 109.1776 39.1815 0.0000 0.0000 0.0000
# 3 22.4380 39.1815 78.1091 0.0000 0.0000 0.0000
# 4 0.0000 0.0000 0.0000 25.1837 0.0000 0.0000
# 5 0.0000 0.0000 0.0000 0.0000 4.5807 0.0000
# 6 0.0000 0.0000 0.0000 0.0000 0.0000 17.1965
#
#
#
# Elastic Compliance Matrix: (Units=1/GPa)
#
#
# Indices 1 2 3 4 5 6 
#
# 1 0.016048 -0.004878 -0.002163 0.000000 0.000000 0.000000
# 2 -0.004878 0.012653 -0.004946 0.000000 0.000000 0.000000
# 3 -0.002163 -0.004946 0.015905 0.000000 0.000000 0.000000
# 4 0.000000 0.000000 0.000000 0.039708 0.000000 0.000000
# 5 0.000000 0.000000 0.000000 0.000000 0.218308 0.000000
# 6 0.000000 0.000000 0.000000 0.000000 0.000000 0.058151
#
#
# Mechanical properties :
#
#
# Convention : Reuss Voigt Hill
#
# Bulk Modulus (GPa) = 48.46845 51.61061 50.03953
# Shear Modulus (GPa) = 12.76729 20.34073 16.55401
#
# Velocity S-wave (km/s) = 2.59272 3.27257 2.95228
# Velocity P-wave (km/s) = 5.87217 6.43844 6.16181
#
# Compressibility (1/GPa) = 0.02063198
#
# Stress axis : x y z
#
# Youngs Moduli (GPa) = 62.31233 79.03076 62.87378
#
# Poissons Ratio (x) = 0.38555 0.13599
# Poissons Ratio (y) = 0.30399 0.31096
# Poissons Ratio (z) = 0.13478 0.39087
#
# Static dielectric constant tensor:
#      x y z
#    x 3.591920 0.000000 0.000000 
#    y 0.000000 3.825710 0.000000 
#    z 0.000000 0.000000 3.256530 
# 
# 
# High freq. dielectric constant tensor:
#      x y z
#    x 1.726740 0.000000 0.000000 
#    y 0.000000 1.759720 0.000000 
#    z 0.000000 0.000000 1.714570 
# 
# From -- ./inp_files/17241.got.cif
#   From: 2010.03.12/outbox.cif.g09.slc.cpg/sg35_9_cif.got.tgz:17241.got - 2010.04.14 02:02:04.
