data_PCOD8173518
_publ_section_title
;
Structure prediction by ZEFSAII (Michael W. Deem and Ramdas Pophale) SiO2 
 PCOD8173518
Probable space group: C M M 2
;
_chemical_formula_sum "Si O2"
_cell_formula_units_Z 40
_cell_length_a 14.637777
_cell_length_b 8.703335
_cell_length_c 16.516543
_cell_angle_alpha 90.000000
_cell_angle_beta 90.000000
_cell_angle_gamma 90.000000
_cell_volume 2104.165905
_symmetry_space_group_name_H-M "C M M 2"
_symmetry_group_IT_number 35
_symmetry_cell_setting 'orthorhombic'
loop_
_space_group_symop_operation_xyz
x,y,z
-x,-y,z
-x,y,z
x,-y,z
1/2+x,1/2+y,z
1/2-x,1/2-y,z
1/2-x,1/2+y,z
1/2+x,1/2-y,z
loop_
_atom_site_type_symbol
_atom_site_label
_atom_site_fract_x
_atom_site_fract_y
_atom_site_fract_z
Si Si1 0.349458 0.317566 0.285330
Si Si2 0.849817 0.821144 0.873111
Si Si3 0.000000 0.680009 0.175321
Si Si4 0.500000 0.176991 0.579954
Si Si5 0.000000 0.177407 0.004265
Si Si6 0.500000 0.681234 0.753007
Si Si7 0.847317 0.319371 0.452498
O O1 0.346902 0.500000 0.284902
O O2 0.250000 0.250000 0.270764
O O3 0.411009 0.257584 0.212913
O O4 0.387882 0.259169 0.371724
O O5 0.750000 0.750000 0.879001
O O6 0.908094 0.754369 0.796694
O O7 0.834549 0.000000 0.861564
O O8 0.908501 0.786350 0.953492
O O9 0.000000 0.500000 0.193462
O O10 0.000000 0.709543 0.080029
O O11 0.500000 0.279390 0.659265
O O12 0.588473 0.218329 0.527752
O O13 0.500000 0.000000 0.606070
O O14 0.000000 0.000000 0.032353
O O15 0.500000 0.500000 0.766089
O O16 0.839470 0.500000 0.435762
O O17 0.750000 0.250000 0.475372
#
# Coordination Sequence:
#
# PCOD8173518 Si02
#       7
#     8   8   4   4   4   4   8
#     4  11  22  38  59  83 111 148 191 233 280 330
#     4   9  19  37  60  82 107 141 177 218 270 325
#     4  12  24  38  57  84 116 149 186 229 278 329
#     4  10  22  36  53  78 110 145 180 225 274 319
#     4   9  20  39  57  79 112 144 179 222 271 328
#     4   9  20  37  55  79 110 142 177 218 267 326
#     4  10  20  36  55  78 109 145 186 230 276 325
#
# _framework density 19.009907999999999
#
# number of rings (size 3 to 8) (size 9 to 14) (size 15 to 20)
#    0.000    2.000    0.000    6.300    0.000    5.600 
#    0.000    8.000    0.000    0.000    0.000    0.000 
#    0.000    0.000    0.000    0.000    0.000    0.000 
#
# Total GULP energy -248005.075116 kJ/mol
# GULP energy per Si atom -12400.253756 kJ/mol
# Density = 1.896664 g / cm^3
# Si number density = 19.009908 Si / 1000 Ang^3
#
#
#
# Elastic Constant Matrix: (Units=GPa)
#
#
# Indices 1 2 3 4 5 6 
#
# 1 137.9669 53.1057 65.2669 0.0000 0.0000 0.0000
# 2 53.1057 114.1129 51.1565 0.0000 0.0000 0.0000
# 3 65.2669 51.1565 120.3545 0.0000 0.0000 0.0000
# 4 0.0000 0.0000 0.0000 34.4314 0.0000 0.0000
# 5 0.0000 0.0000 0.0000 0.0000 -14.6736 0.0000
# 6 0.0000 0.0000 0.0000 0.0000 0.0000 30.0336
#
#
#
# Elastic Compliance Matrix: (Units=1/GPa)
#
#
# Indices 1 2 3 4 5 6 
#
# 1 0.010459 -0.002872 -0.004451 0.000000 0.000000 0.000000
# 2 -0.002872 0.011615 -0.003379 0.000000 0.000000 0.000000
# 3 -0.004451 -0.003379 0.012159 0.000000 0.000000 0.000000
# 4 0.000000 0.000000 0.000000 0.029043 0.000000 0.000000
# 5 0.000000 0.000000 0.000000 0.000000 -0.068149 0.000000
# 6 0.000000 0.000000 0.000000 0.000000 0.000000 0.033296
#
#
# Mechanical properties :
#
#
# Convention : Reuss Voigt Hill
#
# Bulk Modulus (GPa) = 77.95527 79.05471 78.50499
# Shear Modulus (GPa) = 92.41417 23.48529 57.94973
#
# Velocity S-wave (km/s) = 6.97992 3.51867 5.52722
# Velocity P-wave (km/s) = 10.29833 7.62787 9.06201
#
# Compressibility (1/GPa) = 0.01282787
#
# Stress axis : x y z
#
# Youngs Moduli (GPa) = 95.60853 86.09696 82.24345
#
# Poissons Ratio (x) = 0.24728 0.36608
# Poissons Ratio (y) = 0.27460 0.27793
# Poissons Ratio (z) = 0.42557 0.29095
#
# Static dielectric constant tensor:
#      x y z
#    x 3.697190 0.000000 0.000000 
#    y 0.000000 3.450000 0.000000 
#    z 0.000000 0.000000 3.438690 
# 
# 
# High freq. dielectric constant tensor:
#      x y z
#    x 1.750310 0.000000 0.000000 
#    y 0.000000 1.741100 0.000000 
#    z 0.000000 0.000000 1.738540 
# 
# From -- ./inp_files/14830.got.cif
#   From: 2010.03.12/outbox.cif.g09.slc.cpg/sg35_8_cif.got.tgz:14830.got - 2010.04.14 02:02:04.
