data_PCOD8173521
_publ_section_title
;
Structure prediction by ZEFSAII (Michael W. Deem and Ramdas Pophale) SiO2 
 PCOD8173521
Probable space group: C M M 2
;
_chemical_formula_sum "Si O2"
_cell_formula_units_Z 64
_cell_length_a 22.911232
_cell_length_b 14.311099
_cell_length_c 9.739650
_cell_angle_alpha 90.000000
_cell_angle_beta 90.000000
_cell_angle_gamma 90.000000
_cell_volume 3193.484257
_symmetry_space_group_name_H-M "C M M 2"
_symmetry_group_IT_number 35
_symmetry_cell_setting 'orthorhombic'
loop_
_space_group_symop_operation_xyz
x,y,z
-x,-y,z
-x,y,z
x,-y,z
1/2+x,1/2+y,z
1/2-x,1/2-y,z
1/2-x,1/2+y,z
1/2+x,1/2-y,z
loop_
_atom_site_type_symbol
_atom_site_label
_atom_site_fract_x
_atom_site_fract_y
_atom_site_fract_z
Si Si1 0.671810 0.602451 0.997660
Si Si2 0.933018 0.752781 0.372864
Si Si3 0.273565 0.391679 0.721163
Si Si4 0.868342 0.714028 0.118397
Si Si5 0.152985 0.610001 0.839684
Si Si6 0.066965 0.394371 0.602842
Si Si7 0.264687 0.896171 0.212058
Si Si8 0.670081 0.609745 0.441778
O O1 0.643723 0.500000 0.024977
O O2 0.676454 0.622404 0.835667
O O3 0.632554 0.678996 0.069943
O O4 0.737544 0.604249 0.058737
O O5 0.924245 0.711319 0.218500
O O6 0.917146 0.668800 0.474056
O O7 0.890691 0.839087 0.408405
O O8 0.000000 0.785668 0.389093
O O9 0.259562 0.500000 0.694931
O O10 0.213042 0.345037 0.777021
O O11 0.298893 0.349445 0.579599
O O12 0.813969 0.683384 0.215486
O O13 0.868563 0.647814 0.986669
O O14 0.160332 0.500000 0.859105
O O15 0.102766 0.638622 0.734564
O O16 0.083606 0.500000 0.561292
O O17 0.000000 0.385269 0.645547
O O18 0.214065 0.870028 0.318063
O O19 0.290109 0.000000 0.244810
O O20 0.655808 0.500000 0.457271
#
# Coordination Sequence:
#
# PCOD8173521 Si02
#       8
#     8   8   8   8   8   8   8   8
#     4  10  20  36  55  82 124 160 190 233 295 367
#     4  11  26  43  60  87 120 160 216 259 291 347
#     4   9  19  35  56  88 122 149 187 241 302 367
#     4  12  23  36  60  89 122 163 198 242 306 358
#     4  10  21  37  60  92 122 153 197 248 305 373
#     4   9  21  43  63  80 113 160 204 251 302 347
#     4  10  20  36  58  89 125 156 190 241 304 373
#     4  10  22  40  63  90 122 158 198 248 309 368
#
# _framework density 20.040807000000001
#
# number of rings (size 3 to 8) (size 9 to 14) (size 15 to 20)
#    0.000    1.875    2.500    0.750    3.500    1.750 
#    0.000    0.000    0.000    0.000    0.000    0.000 
#    0.000    0.000    0.000    0.000    0.000    0.000 
#
# Total GULP energy -396689.638828 kJ/mol
# GULP energy per Si atom -12396.551213 kJ/mol
# Density = 1.999519 g / cm^3
# Si number density = 20.040807 Si / 1000 Ang^3
#
#
#
# Elastic Constant Matrix: (Units=GPa)
#
#
# Indices 1 2 3 4 5 6 
#
# 1 78.8798 45.6478 62.7789 0.0000 0.0000 0.0000
# 2 45.6478 76.4500 50.5253 0.0000 0.0000 0.0000
# 3 62.7789 50.5253 138.2822 0.0000 0.0000 0.0000
# 4 0.0000 0.0000 0.0000 32.3850 0.0000 0.0000
# 5 0.0000 0.0000 0.0000 0.0000 27.1819 0.0000
# 6 0.0000 0.0000 0.0000 0.0000 0.0000 21.2673
#
#
#
# Elastic Compliance Matrix: (Units=1/GPa)
#
#
# Indices 1 2 3 4 5 6 
#
# 1 0.024105 -0.009440 -0.007494 0.000000 0.000000 0.000000
# 2 -0.009440 0.020942 -0.003366 0.000000 0.000000 0.000000
# 3 -0.007494 -0.003366 0.011864 0.000000 0.000000 0.000000
# 4 0.000000 0.000000 0.000000 0.030878 0.000000 0.000000
# 5 0.000000 0.000000 0.000000 0.000000 0.036789 0.000000
# 6 0.000000 0.000000 0.000000 0.000000 0.000000 0.047021
#
#
# Mechanical properties :
#
#
# Convention : Reuss Voigt Hill
#
# Bulk Modulus (GPa) = 61.31251 67.94623 64.62937
# Shear Modulus (GPa) = 22.97417 25.14417 24.05917
#
# Velocity S-wave (km/s) = 3.38948 3.54594 3.46860
# Velocity P-wave (km/s) = 6.78073 7.12338 6.95417
#
# Compressibility (1/GPa) = 0.01630989
#
# Stress axis : x y z
#
# Youngs Moduli (GPa) = 41.48509 47.75199 84.29040
#
# Poissons Ratio (x) = 0.45078 0.63170
# Poissons Ratio (y) = 0.39162 0.28371
# Poissons Ratio (z) = 0.31090 0.16073
#
# Static dielectric constant tensor:
#      x y z
#    x 3.330270 0.000000 0.000000 
#    y 0.000000 3.657320 0.000000 
#    z 0.000000 0.000000 3.849780 
# 
# 
# High freq. dielectric constant tensor:
#      x y z
#    x 1.742420 0.000000 0.000000 
#    y 0.000000 1.785330 0.000000 
#    z 0.000000 0.000000 1.799420 
# 
# From -- ./inp_files/7842.got.cif
#   From: 2010.03.12/outbox.cif.g09.slc.cpg/sg35_4_cif.got.tgz:7842.got - 2010.04.14 02:02:04.
