data_PCOD8173859
_publ_section_title
;
Structure prediction by ZEFSAII (Michael W. Deem and Ramdas Pophale) SiO2 
 PCOD8173859
Probable space group: C M M 2
;
_chemical_formula_sum "Si O2"
_cell_formula_units_Z 64
_cell_length_a 8.831463
_cell_length_b 30.812048
_cell_length_c 11.900047
_cell_angle_alpha 90.000000
_cell_angle_beta 90.000000
_cell_angle_gamma 90.000000
_cell_volume 3238.186786
_symmetry_space_group_name_H-M "C M M 2"
_symmetry_group_IT_number 35
_symmetry_cell_setting 'orthorhombic'
loop_
_space_group_symop_operation_xyz
x,y,z
-x,-y,z
-x,y,z
x,-y,z
1/2+x,1/2+y,z
1/2-x,1/2-y,z
1/2-x,1/2+y,z
1/2+x,1/2-y,z
loop_
_atom_site_type_symbol
_atom_site_label
_atom_site_fract_x
_atom_site_fract_y
_atom_site_fract_z
Si Si1 0.678410 0.705390 0.583640
Si Si2 0.326946 0.548630 0.032564
Si Si3 0.823616 0.586094 0.824196
Si Si4 0.321590 0.206515 0.054668
Si Si5 0.322914 0.049121 0.582940
Si Si6 0.323014 0.371895 0.186825
Si Si7 0.179021 0.123793 0.442656
Si Si8 0.677784 0.321775 0.831539
O O1 0.500000 0.708623 0.570106
O O2 0.750000 0.750000 0.538833
O O3 0.742929 0.665549 0.509771
O O4 0.726803 0.697813 0.712150
O O5 0.500000 0.556060 0.993318
O O6 0.303810 0.500000 0.079833
O O7 0.284653 0.581718 0.132027
O O8 0.216150 0.554549 0.926907
O O9 0.780837 0.561896 0.709749
O O10 0.719271 0.627957 0.835955
O O11 0.000000 0.599124 0.828702
O O12 0.500000 0.209944 0.060748
O O13 0.250000 0.250000 0.108740
O O14 0.268452 0.164794 0.122410
O O15 0.269648 0.203997 0.925516
O O16 0.500000 0.053857 0.562472
O O17 0.239517 0.079581 0.494922
O O18 0.268003 0.000000 0.562107
O O19 0.500000 0.360763 0.178753
O O20 0.265940 0.373056 0.314629
O O21 0.000000 0.122364 0.451215
O O22 0.500000 0.316760 0.854689
#
# Coordination Sequence:
#
# PCOD8173859 Si02
#       8
#     8   8   8   8   8   8   8   8
#     4  10  22  38  59  87 119 152 192 240 293 352
#     4  10  21  37  59  87 119 157 198 244 301 358
#     4  11  21  35  59  89 121 157 196 244 302 360
#     4  12  25  41  63  91 123 158 200 243 297 359
#     4  10  22  39  59  87 123 160 198 244 298 355
#     4  10  22  41  63  86 120 158 202 254 299 348
#     4  10  22  41  62  87 117 156 204 251 296 348
#     4  11  21  37  61  89 123 155 193 245 299 359
#
# _framework density 19.764146
#
# number of rings (size 3 to 8) (size 9 to 14) (size 15 to 20)
#    0.000    1.500    2.500    2.625    0.000    5.500 
#    0.000    2.500    0.000    0.000    0.000    0.000 
#    0.000    0.000    0.000    0.000    0.000    0.000 
#
# Total GULP energy -396954.582302 kJ/mol
# GULP energy per Si atom -12404.830697 kJ/mol
# Density = 1.971916 g / cm^3
# Si number density = 19.764146 Si / 1000 Ang^3
#
#
#
# Elastic Constant Matrix: (Units=GPa)
#
#
# Indices 1 2 3 4 5 6 
#
# 1 62.5589 40.5689 44.6567 0.0000 0.0000 0.0000
# 2 40.5689 156.4188 57.5915 0.0000 0.0000 0.0000
# 3 44.6567 57.5915 129.6222 0.0000 0.0000 0.0000
# 4 0.0000 0.0000 0.0000 8.6327 0.0000 0.0000
# 5 0.0000 0.0000 0.0000 0.0000 18.5670 0.0000
# 6 0.0000 0.0000 0.0000 0.0000 0.0000 33.3710
#
#
#
# Elastic Compliance Matrix: (Units=1/GPa)
#
#
# Indices 1 2 3 4 5 6 
#
# 1 0.022784 -0.003610 -0.006246 0.000000 0.000000 0.000000
# 2 -0.003610 0.008215 -0.002407 0.000000 0.000000 0.000000
# 3 -0.006246 -0.002407 0.010936 0.000000 0.000000 0.000000
# 4 0.000000 0.000000 0.000000 0.115839 0.000000 0.000000
# 5 0.000000 0.000000 0.000000 0.000000 0.053859 0.000000
# 6 0.000000 0.000000 0.000000 0.000000 0.000000 0.029966
#
#
# Mechanical properties :
#
#
# Convention : Reuss Voigt Hill
#
# Bulk Modulus (GPa) = 57.43364 70.47046 63.95205
# Shear Modulus (GPa) = 18.38730 25.83300 22.11015
#
# Velocity S-wave (km/s) = 3.05345 3.61926 3.34833
# Velocity P-wave (km/s) = 6.44624 7.29373 6.88304
#
# Compressibility (1/GPa) = 0.01741140
#
# Stress axis : x y z
#
# Youngs Moduli (GPa) = 43.89015 121.72310 91.44399
#
# Poissons Ratio (x) = 0.43939 0.57113
# Poissons Ratio (y) = 0.15843 0.22006
# Poissons Ratio (z) = 0.27412 0.29293
#
# Static dielectric constant tensor:
#      x y z
#    x 3.509800 0.000000 0.000000 
#    y 0.000000 3.737480 0.000000 
#    z 0.000000 0.000000 3.703120 
# 
# 
# High freq. dielectric constant tensor:
#      x y z
#    x 1.763460 0.000000 0.000000 
#    y 0.000000 1.786900 0.000000 
#    z 0.000000 0.000000 1.766600 
# 
# From -- ./inp_files/11956.got.cif
#   From: 2010.03.12/outbox.cif.g09.slc.cpg/sg35_6_cif.got.tgz:11956.got - 2010.04.14 02:02:04.
