data_PCOD8173309
_publ_section_title
;
Structure prediction by ZEFSAII (Michael W. Deem and Ramdas Pophale) SiO2 
 PCOD8173309
Probable space group: C M M 2
;
_chemical_formula_sum "Si O2"
_cell_formula_units_Z 64
_cell_length_a 9.422058
_cell_length_b 27.641147
_cell_length_c 12.944889
_cell_angle_alpha 90.000000
_cell_angle_beta 90.000000
_cell_angle_gamma 90.000000
_cell_volume 3371.321457
_symmetry_space_group_name_H-M "C M M 2"
_symmetry_group_IT_number 35
_symmetry_cell_setting 'orthorhombic'
loop_
_space_group_symop_operation_xyz
x,y,z
-x,-y,z
-x,y,z
x,-y,z
1/2+x,1/2+y,z
1/2-x,1/2-y,z
1/2-x,1/2+y,z
1/2+x,1/2-y,z
loop_
_atom_site_type_symbol
_atom_site_label
_atom_site_fract_x
_atom_site_fract_y
_atom_site_fract_z
Si Si1 0.165056 0.387755 0.227720
Si Si2 0.839028 0.057364 0.627232
Si Si3 0.335763 0.943907 0.433195
Si Si4 0.662020 0.701569 0.743582
Si Si5 0.831692 0.199363 0.294218
Si Si6 0.659948 0.296775 0.520133
Si Si7 0.833301 0.896335 0.837901
Si Si8 0.835000 0.444447 0.020789
O O1 0.209934 0.416963 0.329384
O O2 0.261789 0.339714 0.217698
O O3 0.000000 0.372647 0.230578
O O4 0.199315 0.421925 0.131642
O O5 0.750413 0.077977 0.530233
O O6 0.777473 0.076427 0.735594
O O7 0.000000 0.075550 0.611541
O O8 0.828198 0.000000 0.630180
O O9 0.500000 0.936006 0.458370
O O10 0.299358 0.000000 0.416435
O O11 0.500000 0.717812 0.755579
O O12 0.750000 0.750000 0.763315
O O13 0.682604 0.675225 0.629445
O O14 0.701234 0.660836 0.827359
O O15 0.750000 0.250000 0.278958
O O16 0.800418 0.178234 0.410894
O O17 0.000000 0.205307 0.271241
O O18 0.500000 0.278657 0.508753
O O19 0.750000 0.250000 0.537500
O O20 0.751825 0.915500 0.936248
O O21 0.000000 0.905915 0.852821
O O22 0.785687 0.500000 0.022432
O O23 0.000000 0.440011 0.993646
#
# Coordination Sequence:
#
# PCOD8173309 Si02
#       8
#     8   8   8   8   8   8   8   8
#     4  10  21  37  57  81 110 145 187 232 283 334
#     4   9  18  32  51  77 110 144 176 219 280 342
#     4   9  18  33  53  78 109 143 180 225 278 337
#     4   9  18  33  52  77 110 147 184 224 270 323
#     4  10  20  34  55  82 114 150 188 230 275 327
#     4   8  15  28  47  72 104 142 179 216 260 312
#     4  10  21  36  57  82 111 146 186 230 280 333
#     4  10  22  41  63  84 108 142 186 236 285 334
#
# _framework density 18.983654999999999
#
# number of rings (size 3 to 8) (size 9 to 14) (size 15 to 20)
#    0.000    2.625    0.000    1.125    1.750    4.750 
#    0.000    1.875    0.000    3.750    0.000    0.000 
#    0.000    0.000    0.000    0.000    0.000    0.000 
#
# Total GULP energy -396597.279941 kJ/mol
# GULP energy per Si atom -12393.664998 kJ/mol
# Density = 1.894045 g / cm^3
# Si number density = 18.983655 Si / 1000 Ang^3
#
#
#
# Elastic Constant Matrix: (Units=GPa)
#
#
# Indices 1 2 3 4 5 6 
#
# 1 68.1378 47.2955 51.2345 0.0000 0.0000 0.0000
# 2 47.2955 86.2747 54.9995 0.0000 0.0000 0.0000
# 3 51.2345 54.9995 110.7727 0.0000 0.0000 0.0000
# 4 0.0000 0.0000 0.0000 31.9178 0.0000 0.0000
# 5 0.0000 0.0000 0.0000 0.0000 32.8081 0.0000
# 6 0.0000 0.0000 0.0000 0.0000 0.0000 29.9278
#
#
#
# Elastic Compliance Matrix: (Units=1/GPa)
#
#
# Indices 1 2 3 4 5 6 
#
# 1 0.027519 -0.010200 -0.007663 0.000000 0.000000 0.000000
# 2 -0.010200 0.020740 -0.005580 0.000000 0.000000 0.000000
# 3 -0.007663 -0.005580 0.015342 0.000000 0.000000 0.000000
# 4 0.000000 0.000000 0.000000 0.031331 0.000000 0.000000
# 5 0.000000 0.000000 0.000000 0.000000 0.030480 0.000000
# 6 0.000000 0.000000 0.000000 0.000000 0.000000 0.033414
#
#
# Mechanical properties :
#
#
# Convention : Reuss Voigt Hill
#
# Bulk Modulus (GPa) = 59.82990 63.58268 61.70629
# Shear Modulus (GPa) = 23.66500 26.37445 25.01972
#
# Velocity S-wave (km/s) = 3.53455 3.73141 3.63431
# Velocity P-wave (km/s) = 6.94567 7.22015 7.08424
#
# Compressibility (1/GPa) = 0.01671405
#
# Stress axis : x y z
#
# Youngs Moduli (GPa) = 36.33911 48.21707 65.17959
#
# Poissons Ratio (x) = 0.49183 0.49949
# Poissons Ratio (y) = 0.37067 0.36367
# Poissons Ratio (z) = 0.27848 0.26903
#
# Static dielectric constant tensor:
#      x y z
#    x 3.411840 0.000000 0.000000 
#    y 0.000000 3.257090 0.000000 
#    z 0.000000 0.000000 3.520430 
# 
# 
# High freq. dielectric constant tensor:
#      x y z
#    x 1.732210 0.000000 0.000000 
#    y 0.000000 1.737290 0.000000 
#    z 0.000000 0.000000 1.731490 
# 
# From -- ./inp_files/11963.got.cif
#   From: 2010.03.12/outbox.cif.g09.slc.cpg/sg35_6_cif.got.tgz:11963.got - 2010.04.14 02:02:04.
