data_PCOD8173654
_publ_section_title
;
Structure prediction by ZEFSAII (Michael W. Deem and Ramdas Pophale) SiO2 
 PCOD8173654
Probable space group: C M M 2
;
_chemical_formula_sum "Si O2"
_cell_formula_units_Z 48
_cell_length_a 8.711505
_cell_length_b 15.775434
_cell_length_c 16.769556
_cell_angle_alpha 90.000000
_cell_angle_beta 90.000000
_cell_angle_gamma 90.000000
_cell_volume 2304.602721
_symmetry_space_group_name_H-M "C M M 2"
_symmetry_group_IT_number 35
_symmetry_cell_setting 'orthorhombic'
loop_
_space_group_symop_operation_xyz
x,y,z
-x,-y,z
-x,y,z
x,-y,z
1/2+x,1/2+y,z
1/2-x,1/2-y,z
1/2-x,1/2+y,z
1/2+x,1/2-y,z
loop_
_atom_site_type_symbol
_atom_site_label
_atom_site_fract_x
_atom_site_fract_y
_atom_site_fract_z
Si Si1 0.826232 0.598203 0.462330
Si Si2 0.825618 0.596415 0.775023
Si Si3 0.318276 0.000000 0.014620
Si Si4 0.318201 0.000000 0.197956
Si Si5 0.818892 0.338061 0.292221
Si Si6 0.818788 0.838085 0.927529
Si Si7 0.679756 0.341946 0.620201
O O1 0.817429 0.500000 0.439901
O O2 0.772553 0.649621 0.384632
O O3 0.712090 0.619577 0.533670
O O4 0.000000 0.623277 0.487226
O O5 0.820705 0.500000 0.805647
O O6 0.725718 0.653589 0.834473
O O7 0.756291 0.598823 0.686617
O O8 0.000000 0.630490 0.774418
O O9 0.251278 0.915501 0.976209
O O10 0.500000 0.000000 0.002666
O O11 0.268174 0.000000 0.106443
O O12 0.250784 0.084475 0.239984
O O13 0.500000 0.000000 0.208196
O O14 0.750000 0.250000 0.260420
O O15 0.000000 0.334703 0.282439
O O16 0.750000 0.750000 0.960968
O O17 0.000000 0.837517 0.937525
O O18 0.500000 0.338509 0.634677
O O19 0.750000 0.250000 0.628561
#
# Coordination Sequence:
#
# PCOD8173654 Si02
#       7
#     8   8   4   4   8   8   8
#     4  10  20  37  61  86 119 163 209 255 312 375
#     4  11  23  41  65  91 124 164 210 259 316 378
#     4  11  23  43  69  98 131 168 211 263 322 387
#     4   9  20  41  67  92 125 166 205 251 314 383
#     4  10  20  38  63  92 124 165 209 256 311 373
#     4  12  25  43  68  97 132 171 215 264 319 382
#     4  12  25  39  56  83 122 163 211 263 313 368
#
# _framework density 20.827883
#
# number of rings (size 3 to 8) (size 9 to 14) (size 15 to 20)
#    0.000    1.167    1.667    5.250    0.000    6.000 
#    0.000    3.750    0.000    0.000    0.000    0.000 
#    0.000    0.000    0.000    0.000    0.000    0.000 
#
# Total GULP energy -297728.019660 kJ/mol
# GULP energy per Si atom -12405.334153 kJ/mol
# Density = 2.078048 g / cm^3
# Si number density = 20.827883 Si / 1000 Ang^3
#
#
#
# Elastic Constant Matrix: (Units=GPa)
#
#
# Indices 1 2 3 4 5 6 
#
# 1 112.5575 46.6955 47.5648 0.0000 0.0000 0.0000
# 2 46.6955 152.1001 62.1245 0.0000 0.0000 0.0000
# 3 47.5648 62.1245 118.6284 0.0000 0.0000 0.0000
# 4 0.0000 0.0000 0.0000 20.5103 0.0000 0.0000
# 5 0.0000 0.0000 0.0000 0.0000 18.3863 0.0000
# 6 0.0000 0.0000 0.0000 0.0000 0.0000 34.3694
#
#
#
# Elastic Compliance Matrix: (Units=1/GPa)
#
#
# Indices 1 2 3 4 5 6 
#
# 1 0.011171 -0.002036 -0.003413 0.000000 0.000000 0.000000
# 2 -0.002036 0.008734 -0.003758 0.000000 0.000000 0.000000
# 3 -0.003413 -0.003758 0.011766 0.000000 0.000000 0.000000
# 4 0.000000 0.000000 0.000000 0.048756 0.000000 0.000000
# 5 0.000000 0.000000 0.000000 0.000000 0.054388 0.000000
# 6 0.000000 0.000000 0.000000 0.000000 0.000000 0.029096
#
#
# Mechanical properties :
#
#
# Convention : Reuss Voigt Hill
#
# Bulk Modulus (GPa) = 75.42331 77.33952 76.38141
# Shear Modulus (GPa) = 26.77455 29.77996 28.27725
#
# Velocity S-wave (km/s) = 3.58930 3.78539 3.68865
# Velocity P-wave (km/s) = 7.31223 7.50459 7.40903
#
# Compressibility (1/GPa) = 0.01325850
#
# Stress axis : x y z
#
# Youngs Moduli (GPa) = 89.51637 114.48899 84.98895
#
# Poissons Ratio (x) = 0.23304 0.29008
# Poissons Ratio (y) = 0.18221 0.31939
# Poissons Ratio (z) = 0.30553 0.43025
#
# Static dielectric constant tensor:
#      x y z
#    x 3.729170 0.000000 0.000000 
#    y 0.000000 3.944630 0.000000 
#    z 0.000000 0.000000 3.877440 
# 
# 
# High freq. dielectric constant tensor:
#      x y z
#    x 1.806620 0.000000 0.000000 
#    y 0.000000 1.831290 0.000000 
#    z 0.000000 0.000000 1.815070 
# 
# From -- ./inp_files/17895.got.cif
#   From: 2010.03.12/outbox.cif.g09.slc.cpg/sg35_9_cif.got.tgz:17895.got - 2010.04.14 02:02:04.
