data_PCOD8173408
_publ_section_title
;
Structure prediction by ZEFSAII (Michael W. Deem and Ramdas Pophale) SiO2 
 PCOD8173408
Probable space group: C M M 2
;
_chemical_formula_sum "Si O2"
_cell_formula_units_Z 64
_cell_length_a 9.527445
_cell_length_b 28.280631
_cell_length_c 12.329049
_cell_angle_alpha 90.000000
_cell_angle_beta 90.000000
_cell_angle_gamma 90.000000
_cell_volume 3321.965549
_symmetry_space_group_name_H-M "C M M 2"
_symmetry_group_IT_number 35
_symmetry_cell_setting 'orthorhombic'
loop_
_space_group_symop_operation_xyz
x,y,z
-x,-y,z
-x,y,z
x,-y,z
1/2+x,1/2+y,z
1/2-x,1/2-y,z
1/2-x,1/2+y,z
1/2+x,1/2-y,z
loop_
_atom_site_type_symbol
_atom_site_label
_atom_site_fract_x
_atom_site_fract_y
_atom_site_fract_z
Si Si1 0.657490 0.947575 0.256060
Si Si2 0.666829 0.298890 0.499794
Si Si3 0.660451 0.639298 0.295560
Si Si4 0.151560 0.849265 0.053179
Si Si5 0.240369 0.052189 0.022045
Si Si6 0.337902 0.948790 0.783323
Si Si7 0.659530 0.796601 0.889354
Si Si8 0.161582 0.644725 0.672431
O O1 0.500000 0.939634 0.297173
O O2 0.750581 0.908170 0.315834
O O3 0.656456 0.943618 0.125179
O O4 0.711029 0.000000 0.290484
O O5 0.500000 0.291401 0.521881
O O6 0.750000 0.250000 0.512345
O O7 0.696357 0.319721 0.380935
O O8 0.730984 0.336606 0.583084
O O9 0.500000 0.623262 0.305921
O O10 0.691969 0.661506 0.177693
O O11 0.128853 0.905670 0.035200
O O12 0.000000 0.825927 0.024991
O O13 0.276897 0.830617 0.980222
O O14 0.167592 0.000000 0.020569
O O15 0.324747 0.060813 0.911268
O O16 0.500000 0.950336 0.755502
O O17 0.275654 0.906123 0.711131
O O18 0.268980 0.000000 0.752756
O O19 0.500000 0.784973 0.922421
O O20 0.750000 0.750000 0.884695
O O21 0.666072 0.820225 0.773120
O O22 0.000000 0.641540 0.629544
#
# Coordination Sequence:
#
# PCOD8173408 Si02
#       8
#     8   8   8   8   8   8   8   8
#     4   9  17  29  51  85 119 152 193 234 272 323
#     4  11  24  43  65  85 106 139 188 243 295 341
#     4   9  21  39  57  81 113 149 188 232 285 340
#     4  10  20  35  55  82 117 152 186 228 277 335
#     4   9  16  28  49  80 118 157 191 225 269 323
#     4   9  16  29  52  82 117 153 186 222 268 323
#     4  11  23  38  56  81 112 147 184 227 282 343
#     4  10  21  38  60  87 115 146 187 230 279 335
#
# _framework density 19.265702000000001
#
# number of rings (size 3 to 8) (size 9 to 14) (size 15 to 20)
#    0.000    2.250    1.250    1.500    0.000    7.500 
#    0.000    4.375    0.000    2.625    0.000    0.000 
#    0.000    0.000    0.000    0.000    0.000    0.000 
#
# Total GULP energy -396558.718321 kJ/mol
# GULP energy per Si atom -12392.459948 kJ/mol
# Density = 1.922185 g / cm^3
# Si number density = 19.265702 Si / 1000 Ang^3
#
#
#
# Elastic Constant Matrix: (Units=GPa)
#
#
# Indices 1 2 3 4 5 6 
#
# 1 89.4735 37.4215 32.6736 0.0000 0.0000 0.0000
# 2 37.4215 111.5640 40.7472 0.0000 0.0000 0.0000
# 3 32.6736 40.7472 77.7381 0.0000 0.0000 0.0000
# 4 0.0000 0.0000 0.0000 29.2236 0.0000 0.0000
# 5 0.0000 0.0000 0.0000 0.0000 23.8331 0.0000
# 6 0.0000 0.0000 0.0000 0.0000 0.0000 22.4820
#
#
#
# Elastic Compliance Matrix: (Units=1/GPa)
#
#
# Indices 1 2 3 4 5 6 
#
# 1 0.014050 -0.003161 -0.004248 0.000000 0.000000 0.000000
# 2 -0.003161 0.011797 -0.004855 0.000000 0.000000 0.000000
# 3 -0.004248 -0.004855 0.017194 0.000000 0.000000 0.000000
# 4 0.000000 0.000000 0.000000 0.034219 0.000000 0.000000
# 5 0.000000 0.000000 0.000000 0.000000 0.041959 0.000000
# 6 0.000000 0.000000 0.000000 0.000000 0.000000 0.044480
#
#
# Mechanical properties :
#
#
# Convention : Reuss Voigt Hill
#
# Bulk Modulus (GPa) = 54.01798 55.60670 54.81234
# Shear Modulus (GPa) = 25.72045 26.30329 26.01187
#
# Velocity S-wave (km/s) = 3.65778 3.69899 3.67844
# Velocity P-wave (km/s) = 6.77779 6.86798 6.82303
#
# Compressibility (1/GPa) = 0.01851235
#
# Stress axis : x y z
#
# Youngs Moduli (GPa) = 71.17447 84.76770 58.15977
#
# Poissons Ratio (x) = 0.26796 0.24708
# Poissons Ratio (y) = 0.22499 0.28236
# Poissons Ratio (z) = 0.30237 0.41154
#
# Static dielectric constant tensor:
#      x y z
#    x 3.385950 0.000000 0.000000 
#    y 0.000000 3.837780 0.000000 
#    z 0.000000 0.000000 3.441990 
# 
# 
# High freq. dielectric constant tensor:
#      x y z
#    x 1.735740 0.000000 0.000000 
#    y 0.000000 1.761080 0.000000 
#    z 0.000000 0.000000 1.732730 
# 
# From -- ./inp_files/11955.got.cif
#   From: 2010.03.12/outbox.cif.g09.slc.cpg/sg35_6_cif.got.tgz:11955.got - 2010.04.14 02:02:04.
