data_PCOD8173909
_publ_section_title
;
Structure prediction by ZEFSAII (Michael W. Deem and Ramdas Pophale) SiO2 
 PCOD8173909
Probable space group: C M M 2
;
_chemical_formula_sum "Si O2"
_cell_formula_units_Z 48
_cell_length_a 14.638922
_cell_length_b 18.171516
_cell_length_c 8.817158
_cell_angle_alpha 90.000000
_cell_angle_beta 90.000000
_cell_angle_gamma 90.000000
_cell_volume 2345.464591
_symmetry_space_group_name_H-M "C M M 2"
_symmetry_group_IT_number 35
_symmetry_cell_setting 'orthorhombic'
loop_
_space_group_symop_operation_xyz
x,y,z
-x,-y,z
-x,y,z
x,-y,z
1/2+x,1/2+y,z
1/2-x,1/2-y,z
1/2-x,1/2+y,z
1/2+x,1/2-y,z
loop_
_atom_site_type_symbol
_atom_site_label
_atom_site_fract_x
_atom_site_fract_y
_atom_site_fract_z
Si Si1 0.318771 0.315643 0.572460
Si Si2 0.500000 0.710553 0.387069
Si Si3 0.352984 0.919050 0.835309
Si Si4 0.321865 0.081122 0.482373
Si Si5 0.000000 0.841118 0.061613
Si Si6 0.850066 0.915389 0.860766
Si Si7 0.000000 0.625012 0.307907
Si Si8 0.000000 0.330417 0.987906
O O1 0.250000 0.250000 0.626894
O O2 0.409673 0.289977 0.488955
O O3 0.260574 0.362622 0.448345
O O4 0.355825 0.365345 0.710488
O O5 0.500000 0.652179 0.246436
O O6 0.500000 0.788411 0.310389
O O7 0.347466 0.906474 0.656488
O O8 0.254482 0.915109 0.916212
O O9 0.396342 0.000000 0.866767
O O10 0.410714 0.850634 0.893035
O O11 0.410179 0.090753 0.379684
O O12 0.282664 0.000000 0.454820
O O13 0.000000 0.756195 0.013508
O O14 0.088939 0.881471 0.994572
O O15 0.880551 0.000000 0.824334
O O16 0.000000 0.612364 0.128411
#
# Coordination Sequence:
#
# PCOD8173909 Si02
#       8
#     8   4   8   8   4   8   4   4
#     4  11  22  40  71  94 126 163 212 274 321 379
#     4  11  25  44  57  97 129 166 213 252 317 382
#     4   9  20  38  60  86 121 154 200 261 315 370
#     4  10  21  38  61  91 122 162 205 258 321 376
#     4  11  26  41  62  88 133 174 204 255 309 378
#     4  10  23  44  66  95 124 160 215 270 313 374
#     4  11  22  38  55  85 131 163 205 260 306 374
#     4  11  24  35  56  90 124 163 208 251 307 378
#
# _framework density 20.465026999999999
#
# number of rings (size 3 to 8) (size 9 to 14) (size 15 to 20)
#    0.000    1.667    1.667    3.250    4.667    5.333 
#    0.000    6.250    0.000    0.000    0.000    0.000 
#    0.000    0.000    0.000    0.000    0.000    0.000 
#
# Total GULP energy -297419.994797 kJ/mol
# GULP energy per Si atom -12392.499783 kJ/mol
# Density = 2.041845 g / cm^3
# Si number density = 20.465027 Si / 1000 Ang^3
#
#
#
# Elastic Constant Matrix: (Units=GPa)
#
#
# Indices 1 2 3 4 5 6 
#
# 1 105.1880 30.0648 30.0290 0.0000 0.0000 0.0000
# 2 30.0648 108.5054 27.4770 0.0000 0.0000 0.0000
# 3 30.0290 27.4770 54.5663 0.0000 0.0000 0.0000
# 4 0.0000 0.0000 0.0000 22.2397 0.0000 0.0000
# 5 0.0000 0.0000 0.0000 0.0000 -4.4306 0.0000
# 6 0.0000 0.0000 0.0000 0.0000 0.0000 36.4165
#
#
#
# Elastic Compliance Matrix: (Units=1/GPa)
#
#
# Indices 1 2 3 4 5 6 
#
# 1 0.011587 -0.001829 -0.005456 0.000000 0.000000 0.000000
# 2 -0.001829 0.010852 -0.004458 0.000000 0.000000 0.000000
# 3 -0.005456 -0.004458 0.023573 0.000000 0.000000 0.000000
# 4 0.000000 0.000000 0.000000 0.044965 0.000000 0.000000
# 5 0.000000 0.000000 0.000000 0.000000 -0.225703 0.000000
# 6 0.000000 0.000000 0.000000 0.000000 0.000000 0.027460
#
#
# Mechanical properties :
#
#
# Convention : Reuss Voigt Hill
#
# Bulk Modulus (GPa) = 44.39068 49.26681 46.82874
# Shear Modulus (GPa) = -65.55462 22.89104 -21.33179
#
# Velocity S-wave (km/s) = -5.66587 3.34809 -3.23205
# Velocity P-wave (km/s) = 4.58962 6.25078 3.00063
#
# Compressibility (1/GPa) = 0.02252725
#
# Stress axis : x y z
#
# Youngs Moduli (GPa) = 86.30351 92.15062 42.42066
#
# Poissons Ratio (x) = 0.16855 0.23143
# Poissons Ratio (y) = 0.15785 0.18911
# Poissons Ratio (z) = 0.47084 0.41080
#
# Static dielectric constant tensor:
#      x y z
#    x 3.862660 0.000000 0.000000 
#    y 0.000000 3.999620 0.000000 
#    z 0.000000 0.000000 3.605620 
# 
# 
# High freq. dielectric constant tensor:
#      x y z
#    x 1.807250 0.000000 0.000000 
#    y 0.000000 1.817140 0.000000 
#    z 0.000000 0.000000 1.779730 
# 
# From -- ./inp_files/7373.got.cif
#   From: 2010.03.12/outbox.cif.g09.slc.cpg/sg35_4_cif.got.tgz:7373.got - 2010.04.14 02:02:04.
