data_PCOD8173674
_publ_section_title
;
Structure prediction by ZEFSAII (Michael W. Deem and Ramdas Pophale) SiO2 
 PCOD8173674
Probable space group: C M M 2
;
_chemical_formula_sum "Si O2"
_cell_formula_units_Z 44
_cell_length_a 17.846005
_cell_length_b 13.977118
_cell_length_c 8.281776
_cell_angle_alpha 90.000000
_cell_angle_beta 90.000000
_cell_angle_gamma 90.000000
_cell_volume 2065.770741
_symmetry_space_group_name_H-M "C M M 2"
_symmetry_group_IT_number 35
_symmetry_cell_setting 'orthorhombic'
loop_
_space_group_symop_operation_xyz
x,y,z
-x,-y,z
-x,y,z
x,-y,z
1/2+x,1/2+y,z
1/2-x,1/2-y,z
1/2-x,1/2+y,z
1/2+x,1/2-y,z
loop_
_atom_site_type_symbol
_atom_site_label
_atom_site_fract_x
_atom_site_fract_y
_atom_site_fract_z
Si Si1 0.087623 0.610719 0.409530
Si Si2 0.000000 0.886111 0.113707
Si Si3 0.863881 0.785245 0.602166
Si Si4 0.750000 0.750000 0.865209
Si Si5 0.648523 0.607866 0.291574
Si Si6 0.500000 0.387175 0.750890
Si Si7 0.196640 0.607424 0.116942
O O1 0.103272 0.500000 0.455481
O O2 0.111754 0.675268 0.563899
O O3 0.137687 0.640378 0.253966
O O4 0.000000 0.626994 0.367649
O O5 0.925810 0.849138 0.205839
O O6 0.000000 0.000000 0.103634
O O7 0.000000 0.843551 0.932047
O O8 0.806899 0.803385 0.747300
O O9 0.827025 0.827301 0.440894
O O10 0.932104 0.851794 0.645133
O O11 0.803980 0.679356 0.966564
O O12 0.632657 0.500000 0.349426
O O13 0.717414 0.611280 0.170653
O O14 0.500000 0.500000 0.759462
O O15 0.175654 0.500000 0.060682
#
# Coordination Sequence:
#
# PCOD8173674 Si02
#       7
#     8   4   8   4   8   4   8
#     4  10  22  43  67  90 119 167 231 278 310 365
#     4   9  19  35  57  87 126 167 204 244 299 383
#     4  12  23  39  61  96 131 167 205 261 327 388
#     4  12  26  40  60  96 138 164 210 260 336 396
#     4  10  20  37  63  92 124 166 212 253 306 386
#     4  11  23  39  60  95 134 165 199 254 332 399
#     4  10  22  42  65  91 124 171 220 264 315 373
#
# _framework density 21.299555000000002
#
# number of rings (size 3 to 8) (size 9 to 14) (size 15 to 20)
#    0.000    1.455    0.909    4.364    0.000    4.364 
#    1.636    0.000    0.000    0.000    0.000    0.000 
#    0.000    0.000    0.000    0.000    0.000    0.000 
#
# Total GULP energy -272775.054031 kJ/mol
# GULP energy per Si atom -12398.866092 kJ/mol
# Density = 2.125108 g / cm^3
# Si number density = 21.299555 Si / 1000 Ang^3
#
#
#
# Elastic Constant Matrix: (Units=GPa)
#
#
# Indices 1 2 3 4 5 6 
#
# 1 91.9859 15.0265 12.7378 0.0000 0.0000 0.0000
# 2 15.0265 78.8547 44.3601 0.0000 0.0000 0.0000
# 3 12.7378 44.3601 94.4922 0.0000 0.0000 0.0000
# 4 0.0000 0.0000 0.0000 33.8638 0.0000 0.0000
# 5 0.0000 0.0000 0.0000 0.0000 -22.9913 0.0000
# 6 0.0000 0.0000 0.0000 0.0000 0.0000 24.5851
#
#
#
# Elastic Compliance Matrix: (Units=1/GPa)
#
#
# Indices 1 2 3 4 5 6 
#
# 1 0.011254 -0.001754 -0.000693 0.000000 0.000000 0.000000
# 2 -0.001754 0.017506 -0.007982 0.000000 0.000000 0.000000
# 3 -0.000693 -0.007982 0.014424 0.000000 0.000000 0.000000
# 4 0.000000 0.000000 0.000000 0.029530 0.000000 0.000000
# 5 0.000000 0.000000 0.000000 0.000000 -0.043495 0.000000
# 6 0.000000 0.000000 0.000000 0.000000 0.000000 0.040675
#
#
# Mechanical properties :
#
#
# Convention : Reuss Voigt Hill
#
# Bulk Modulus (GPa) = 44.79484 45.50909 45.15196
# Shear Modulus (GPa) = 50.91917 19.97206 35.44562
#
# Velocity S-wave (km/s) = 4.89470 3.06547 4.08382
# Velocity P-wave (km/s) = 7.28153 5.82598 6.59404
#
# Compressibility (1/GPa) = 0.02232400
#
# Stress axis : x y z
#
# Youngs Moduli (GPa) = 88.85851 57.12283 69.33120
#
# Poissons Ratio (x) = 0.10022 0.04808
# Poissons Ratio (y) = 0.15590 0.55339
# Poissons Ratio (z) = 0.06162 0.45595
#
# Static dielectric constant tensor:
#      x y z
#    x 3.741520 0.000000 0.000000 
#    y 0.000000 3.992010 0.000000 
#    z 0.000000 0.000000 3.816990 
# 
# 
# High freq. dielectric constant tensor:
#      x y z
#    x 1.844410 0.000000 0.000000 
#    y 0.000000 1.838210 0.000000 
#    z 0.000000 0.000000 1.827680 
# 
# From -- ./inp_files/8352.got.cif
#   From: 2010.03.12/outbox.cif.g09.slc.cpg/sg35_5_cif.got.tgz:8352.got - 2010.04.14 02:02:04.
