data_PCOD8173905
_publ_section_title
;
Structure prediction by ZEFSAII (Michael W. Deem and Ramdas Pophale) SiO2 
 PCOD8173905
Probable space group: C M M 2
;
_chemical_formula_sum "Si O2"
_cell_formula_units_Z 56
_cell_length_a 14.058138
_cell_length_b 18.725697
_cell_length_c 10.189308
_cell_angle_alpha 90.000000
_cell_angle_beta 90.000000
_cell_angle_gamma 90.000000
_cell_volume 2682.319360
_symmetry_space_group_name_H-M "C M M 2"
_symmetry_group_IT_number 35
_symmetry_cell_setting 'orthorhombic'
loop_
_space_group_symop_operation_xyz
x,y,z
-x,-y,z
-x,y,z
x,-y,z
1/2+x,1/2+y,z
1/2-x,1/2-y,z
1/2-x,1/2+y,z
1/2+x,1/2-y,z
loop_
_atom_site_type_symbol
_atom_site_label
_atom_site_fract_x
_atom_site_fract_y
_atom_site_fract_z
Si Si1 0.887866 0.081375 0.955860
Si Si2 0.390290 0.840939 0.080807
Si Si3 0.613452 0.689373 0.179652
Si Si4 0.206926 0.081692 0.685391
Si Si5 0.392305 0.081658 0.825324
Si Si6 0.391283 0.918321 0.340105
Si Si7 0.724814 0.670744 0.445819
O O1 0.843976 0.107112 0.818630
O O2 0.000000 0.089213 0.943387
O O3 0.857479 0.000000 0.987379
O O4 0.850434 0.131361 0.073916
O O5 0.500000 0.825576 0.056152
O O6 0.345617 0.766468 0.133174
O O7 0.373819 0.902660 0.187003
O O8 0.349756 0.869007 0.942444
O O9 0.500000 0.689653 0.196160
O O10 0.658148 0.668501 0.318689
O O11 0.321431 0.090512 0.702530
O O12 0.171183 0.131239 0.566003
O O13 0.179346 0.000000 0.653572
O O14 0.500000 0.102947 0.783351
O O15 0.390577 0.000000 0.875831
O O16 0.500000 0.900707 0.378568
O O17 0.324153 0.869378 0.426571
O O18 0.365733 0.000000 0.368574
O O19 0.750000 0.750000 0.490427
#
# Coordination Sequence:
#
# PCOD8173905 Si02
#       7
#     8   8   8   8   8   8   8
#     4   9  20  40  63  85 110 148 200 255 308 361
#     4   9  17  33  58  89 120 151 193 243 303 364
#     4  10  22  40  62  89 123 158 200 256 312 367
#     4  10  23  40  57  83 118 157 205 253 300 360
#     4   9  18  34  58  88 121 155 195 248 305 365
#     4  10  21  38  61  88 121 161 204 250 302 363
#     4  12  25  39  58  89 125 167 205 252 307 368
#
# _framework density 20.877454
#
# number of rings (size 3 to 8) (size 9 to 14) (size 15 to 20)
#    0.000    2.143    1.429    0.857    2.000    5.143 
#    0.000    1.429    0.000    0.000    0.000    0.000 
#    0.000    0.000    0.000    0.000    0.000    0.000 
#
# Total GULP energy -347184.052857 kJ/mol
# GULP energy per Si atom -12399.430459 kJ/mol
# Density = 2.082994 g / cm^3
# Si number density = 20.877454 Si / 1000 Ang^3
#
#
#
# Elastic Constant Matrix: (Units=GPa)
#
#
# Indices 1 2 3 4 5 6 
#
# 1 22.4688 24.3241 17.4672 0.0000 0.0000 0.0000
# 2 24.3241 121.0366 69.5640 0.0000 0.0000 0.0000
# 3 17.4672 69.5640 130.1113 0.0000 0.0000 0.0000
# 4 0.0000 0.0000 0.0000 39.5637 0.0000 0.0000
# 5 0.0000 0.0000 0.0000 0.0000 24.3333 0.0000
# 6 0.0000 0.0000 0.0000 0.0000 0.0000 18.3755
#
#
#
# Elastic Compliance Matrix: (Units=1/GPa)
#
#
# Indices 1 2 3 4 5 6 
#
# 1 0.057321 -0.010245 -0.002218 0.000000 0.000000 0.000000
# 2 -0.010245 0.013758 -0.005980 0.000000 0.000000 0.000000
# 3 -0.002218 -0.005980 0.011181 0.000000 0.000000 0.000000
# 4 0.000000 0.000000 0.000000 0.025276 0.000000 0.000000
# 5 0.000000 0.000000 0.000000 0.000000 0.041096 0.000000
# 6 0.000000 0.000000 0.000000 0.000000 0.000000 0.054420
#
#
# Mechanical properties :
#
#
# Convention : Reuss Voigt Hill
#
# Bulk Modulus (GPa) = 22.03912 55.14750 38.59331
# Shear Modulus (GPa) = 19.60304 27.27193 23.43749
#
# Velocity S-wave (km/s) = 3.06757 3.61818 3.35419
# Velocity P-wave (km/s) = 4.80894 6.62776 5.79021
#
# Compressibility (1/GPa) = 0.04537386
#
# Stress axis : x y z
#
# Youngs Moduli (GPa) = 17.44556 72.68544 89.43875
#
# Poissons Ratio (x) = 0.74465 0.19836
# Poissons Ratio (y) = 0.17873 0.53487
# Poissons Ratio (z) = 0.03869 0.43468
#
# Static dielectric constant tensor:
#      x y z
#    x 3.768410 0.000000 0.000000 
#    y 0.000000 4.018110 0.000000 
#    z 0.000000 0.000000 3.675690 
# 
# 
# High freq. dielectric constant tensor:
#      x y z
#    x 1.817540 0.000000 0.000000 
#    y 0.000000 1.815880 0.000000 
#    z 0.000000 0.000000 1.809760 
# 
# From -- ./inp_files/7634.got.cif
#   From: 2010.03.12/outbox.cif.g09.slc.cpg/sg35_4_cif.got.tgz:7634.got - 2010.04.14 02:02:04.
