data_PCOD8173559
_publ_section_title
;
Structure prediction by ZEFSAII (Michael W. Deem and Ramdas Pophale) SiO2 
 PCOD8173559
Probable space group: C M M 2
;
_chemical_formula_sum "Si O2"
_cell_formula_units_Z 64
_cell_length_a 18.319071
_cell_length_b 18.827021
_cell_length_c 9.556038
_cell_angle_alpha 90.000000
_cell_angle_beta 90.000000
_cell_angle_gamma 90.000000
_cell_volume 3295.815721
_symmetry_space_group_name_H-M "C M M 2"
_symmetry_group_IT_number 35
_symmetry_cell_setting 'orthorhombic'
loop_
_space_group_symop_operation_xyz
x,y,z
-x,-y,z
-x,y,z
x,-y,z
1/2+x,1/2+y,z
1/2-x,1/2-y,z
1/2-x,1/2+y,z
1/2+x,1/2-y,z
loop_
_atom_site_type_symbol
_atom_site_label
_atom_site_fract_x
_atom_site_fract_y
_atom_site_fract_z
Si Si1 0.083570 0.346480 0.934550
Si Si2 0.415166 0.577237 0.948700
Si Si3 0.417204 0.078354 0.657431
Si Si4 0.319038 0.083174 0.169735
Si Si5 0.175255 0.658524 0.446817
Si Si6 0.153442 0.918976 0.233947
Si Si7 0.913275 0.794700 0.768136
Si Si8 0.661096 0.315168 0.470422
O O1 0.086575 0.410195 0.823567
O O2 0.110754 0.275159 0.854583
O O3 0.000000 0.337196 0.990939
O O4 0.138551 0.367247 0.059128
O O5 0.500000 0.574190 0.917528
O O6 0.379457 0.500000 0.912858
O O7 0.380843 0.638223 0.852924
O O8 0.404186 0.594311 0.111520
O O9 0.500000 0.084754 0.604694
O O10 0.372471 0.139535 0.581091
O O11 0.385620 0.000000 0.624838
O O12 0.346806 0.104054 0.324281
O O13 0.232811 0.101418 0.169823
O O14 0.334738 0.000000 0.141095
O O15 0.258621 0.653320 0.498273
O O16 0.161046 0.738676 0.394515
O O17 0.124938 0.870617 0.362432
O O18 0.154318 0.000000 0.287448
O O19 0.880436 0.803416 0.614804
O O20 0.000000 0.794413 0.752590
#
# Coordination Sequence:
#
# PCOD8173559 Si02
#       8
#     8   8   8   8   8   8   8   8
#     4  10  21  37  56  83 116 150 192 239 287 344
#     4   9  19  37  58  81 111 144 183 231 284 345
#     4  10  20  36  58  82 114 156 196 237 288 344
#     4  10  21  37  56  81 115 151 190 238 286 338
#     4  10  21  37  55  81 114 150 194 238 286 341
#     4   9  20  38  58  84 113 146 188 234 287 343
#     4  10  21  38  58  83 115 150 189 238 291 345
#     4  10  21  37  57  81 115 150 190 238 289 345
#
# _framework density 19.418562000000001
#
# number of rings (size 3 to 8) (size 9 to 14) (size 15 to 20)
#    0.000    2.250    1.250    0.750    1.750    3.750 
#    0.000    1.250    0.000    0.000    0.000    0.000 
#    0.000    0.000    0.000    0.000    0.000    0.000 
#
# Total GULP energy -396635.112397 kJ/mol
# GULP energy per Si atom -12394.847262 kJ/mol
# Density = 1.937436 g / cm^3
# Si number density = 19.418562 Si / 1000 Ang^3
#
#
#
# Elastic Constant Matrix: (Units=GPa)
#
#
# Indices 1 2 3 4 5 6 
#
# 1 32.7331 30.9208 28.3801 0.0000 0.0000 0.0000
# 2 30.9208 116.4470 55.1081 0.0000 0.0000 0.0000
# 3 28.3801 55.1081 92.3300 0.0000 0.0000 0.0000
# 4 0.0000 0.0000 0.0000 41.1794 0.0000 0.0000
# 5 0.0000 0.0000 0.0000 0.0000 35.3252 0.0000
# 6 0.0000 0.0000 0.0000 0.0000 0.0000 23.4271
#
#
#
# Elastic Compliance Matrix: (Units=1/GPa)
#
#
# Indices 1 2 3 4 5 6 
#
# 1 0.046147 -0.007722 -0.009575 0.000000 0.000000 0.000000
# 2 -0.007722 0.013260 -0.005541 0.000000 0.000000 0.000000
# 3 -0.009575 -0.005541 0.017081 0.000000 0.000000 0.000000
# 4 0.000000 0.000000 0.000000 0.024284 0.000000 0.000000
# 5 0.000000 0.000000 0.000000 0.000000 0.028308 0.000000
# 6 0.000000 0.000000 0.000000 0.000000 0.000000 0.042686
#
#
# Mechanical properties :
#
#
# Convention : Reuss Voigt Hill
#
# Bulk Modulus (GPa) = 32.45568 52.25869 42.35718
# Shear Modulus (GPa) = 21.95740 28.45973 25.20856
#
# Velocity S-wave (km/s) = 3.36630 3.83246 3.60692
# Velocity P-wave (km/s) = 5.64441 6.82304 6.26152
#
# Compressibility (1/GPa) = 0.03081125
#
# Stress axis : x y z
#
# Youngs Moduli (GPa) = 21.67001 75.41291 58.54399
#
# Poissons Ratio (x) = 0.58234 0.56058
# Poissons Ratio (y) = 0.16734 0.32439
# Poissons Ratio (z) = 0.20750 0.41786
#
# Static dielectric constant tensor:
#      x y z
#    x 3.385820 0.000000 0.000000 
#    y 0.000000 3.898580 0.000000 
#    z 0.000000 0.000000 3.384610 
# 
# 
# High freq. dielectric constant tensor:
#      x y z
#    x 1.737340 0.000000 0.000000 
#    y 0.000000 1.773390 0.000000 
#    z 0.000000 0.000000 1.748080 
# 
# From -- ./inp_files/8755.got.cif
#   From: 2010.03.12/outbox.cif.g09.slc.cpg/sg35_5_cif.got.tgz:8755.got - 2010.04.14 02:02:04.
