data_PCOD8173033
_publ_section_title
;
Structure prediction by ZEFSAII (Michael W. Deem and Ramdas Pophale) SiO2 
 PCOD8173033
Probable space group: C M M 2
;
_chemical_formula_sum "Si O2"
_cell_formula_units_Z 64
_cell_length_a 9.119933
_cell_length_b 28.780849
_cell_length_c 12.258439
_cell_angle_alpha 90.000000
_cell_angle_beta 90.000000
_cell_angle_gamma 90.000000
_cell_volume 3217.587892
_symmetry_space_group_name_H-M "C M M 2"
_symmetry_group_IT_number 35
_symmetry_cell_setting 'orthorhombic'
loop_
_space_group_symop_operation_xyz
x,y,z
-x,-y,z
-x,y,z
x,-y,z
1/2+x,1/2+y,z
1/2-x,1/2-y,z
1/2-x,1/2+y,z
1/2+x,1/2-y,z
loop_
_atom_site_type_symbol
_atom_site_label
_atom_site_fract_x
_atom_site_fract_y
_atom_site_fract_z
Si Si1 0.330833 0.638728 0.728670
Si Si2 0.834177 0.207787 0.540775
Si Si3 0.674156 0.200022 0.907727
Si Si4 0.827929 0.360428 0.117540
Si Si5 0.670029 0.947970 0.650133
Si Si6 0.836907 0.568942 0.407319
Si Si7 0.162361 0.673053 0.348268
Si Si8 0.169301 0.948256 0.190675
O O1 0.500000 0.636699 0.767177
O O2 0.316804 0.660456 0.608177
O O3 0.237446 0.671036 0.807888
O O4 0.264852 0.586925 0.724610
O O5 0.750000 0.250000 0.601606
O O6 0.771992 0.204199 0.418163
O O7 0.000000 0.223552 0.531509
O O8 0.500000 0.206594 0.894315
O O9 0.750000 0.250000 0.915094
O O10 0.714755 0.170814 0.015177
O O11 0.776417 0.332506 0.225321
O O12 0.749713 0.410734 0.113263
O O13 0.000000 0.370904 0.124828
O O14 0.500000 0.932760 0.656698
O O15 0.723621 0.947374 0.524584
O O16 0.692813 0.000000 0.696722
O O17 0.844612 0.624026 0.408063
O O18 0.730599 0.550690 0.313424
O O19 0.000000 0.548294 0.387532
O O20 0.000000 0.695662 0.346720
O O21 0.000000 0.934177 0.196746
O O22 0.189756 0.000000 0.140323
#
# Coordination Sequence:
#
# PCOD8173033 Si02
#       8
#     8   8   8   8   8   8   8   8
#     4  11  24  41  61  87 120 155 197 247 299 352
#     4  11  23  36  54  82 115 152 191 233 287 350
#     4  11  24  44  69  92 115 147 196 250 303 360
#     4   9  21  40  61  87 116 151 195 243 293 351
#     4  10  20  35  58  87 119 159 203 244 293 352
#     4   9  17  31  53  80 115 160 202 239 283 341
#     4   9  17  33  56  82 116 152 187 232 286 341
#     4  10  20  32  51  84 123 161 200 242 289 342
#
# _framework density 19.890677
#
# number of rings (size 3 to 8) (size 9 to 14) (size 15 to 20)
#    0.000    2.000    1.250    3.000    0.000    8.250 
#    0.000    1.875    0.000    0.750    0.000    0.000 
#    0.000    0.000    0.000    0.000    0.000    0.000 
#
# Total GULP energy -396760.723856 kJ/mol
# GULP energy per Si atom -12398.772620 kJ/mol
# Density = 1.984540 g / cm^3
# Si number density = 19.890677 Si / 1000 Ang^3
#
#
#
# Elastic Constant Matrix: (Units=GPa)
#
#
# Indices 1 2 3 4 5 6 
#
# 1 113.7709 64.2860 49.2605 0.0000 0.0000 0.0000
# 2 64.2860 127.2677 47.3111 0.0000 0.0000 0.0000
# 3 49.2605 47.3111 82.5026 0.0000 0.0000 0.0000
# 4 0.0000 0.0000 0.0000 20.5519 0.0000 0.0000
# 5 0.0000 0.0000 0.0000 0.0000 21.0142 0.0000
# 6 0.0000 0.0000 0.0000 0.0000 0.0000 31.5978
#
#
#
# Elastic Compliance Matrix: (Units=1/GPa)
#
#
# Indices 1 2 3 4 5 6 
#
# 1 0.014008 -0.005041 -0.005473 0.000000 0.000000 0.000000
# 2 -0.005041 0.011801 -0.003757 0.000000 0.000000 0.000000
# 3 -0.005473 -0.003757 0.017543 0.000000 0.000000 0.000000
# 4 0.000000 0.000000 0.000000 0.048657 0.000000 0.000000
# 5 0.000000 0.000000 0.000000 0.000000 0.047587 0.000000
# 6 0.000000 0.000000 0.000000 0.000000 0.000000 0.031648
#
#
# Mechanical properties :
#
#
# Convention : Reuss Voigt Hill
#
# Bulk Modulus (GPa) = 67.52571 71.69514 69.61043
# Shear Modulus (GPa) = 24.42340 25.47835 24.95088
#
# Velocity S-wave (km/s) = 3.50792 3.58288 3.54559
# Velocity P-wave (km/s) = 7.10137 7.29650 7.19959
#
# Compressibility (1/GPa) = 0.01480917
#
# Stress axis : x y z
#
# Youngs Moduli (GPa) = 71.38931 84.74210 57.00269
#
# Poissons Ratio (x) = 0.42720 0.31197
# Poissons Ratio (y) = 0.35988 0.21416
# Poissons Ratio (z) = 0.39070 0.31838
#
# Static dielectric constant tensor:
#      x y z
#    x 3.624860 0.000000 0.000000 
#    y 0.000000 3.675830 0.000000 
#    z 0.000000 0.000000 3.441780 
# 
# 
# High freq. dielectric constant tensor:
#      x y z
#    x 1.775770 0.000000 0.000000 
#    y 0.000000 1.784500 0.000000 
#    z 0.000000 0.000000 1.752890 
# 
# From -- ./inp_files/12009.got.cif
#   From: 2010.03.12/outbox.cif.g09.slc.cpg/sg35_7_cif.got.tgz:12009.got - 2010.04.14 02:02:04.
