data_PCOD8173308
_publ_section_title
;
Structure prediction by ZEFSAII (Michael W. Deem and Ramdas Pophale) SiO2 
 PCOD8173308
Probable space group: C M M 2
;
_chemical_formula_sum "Si O2"
_cell_formula_units_Z 64
_cell_length_a 8.785687
_cell_length_b 18.596442
_cell_length_c 20.297245
_cell_angle_alpha 90.000000
_cell_angle_beta 90.000000
_cell_angle_gamma 90.000000
_cell_volume 3316.215011
_symmetry_space_group_name_H-M "C M M 2"
_symmetry_group_IT_number 35
_symmetry_cell_setting 'orthorhombic'
loop_
_space_group_symop_operation_xyz
x,y,z
-x,-y,z
-x,y,z
x,-y,z
1/2+x,1/2+y,z
1/2-x,1/2-y,z
1/2-x,1/2+y,z
1/2+x,1/2-y,z
loop_
_atom_site_type_symbol
_atom_site_label
_atom_site_fract_x
_atom_site_fract_y
_atom_site_fract_z
Si Si1 0.320500 0.675534 0.238150
Si Si2 0.321051 0.324922 0.089457
Si Si3 0.677111 0.917483 0.980665
Si Si4 0.180222 0.171668 0.480071
Si Si5 0.180350 0.328174 0.852556
Si Si6 0.181023 0.080096 0.356690
Si Si7 0.821968 0.082576 0.735381
Si Si8 0.177479 0.416961 0.595916
O O1 0.500000 0.683792 0.241688
O O2 0.250000 0.750000 0.262594
O O3 0.267090 0.657104 0.163911
O O4 0.262546 0.613729 0.287559
O O5 0.500000 0.316563 0.085039
O O6 0.250000 0.250000 0.064679
O O7 0.268196 0.389865 0.043809
O O8 0.500000 0.907724 0.995482
O O9 0.726764 0.873615 0.916483
O O10 0.721067 0.000000 0.968448
O O11 0.250000 0.250000 0.477069
O O12 0.242576 0.127042 0.417516
O O13 0.230120 0.131979 0.546019
O O14 0.000000 0.178044 0.478979
O O15 0.250000 0.250000 0.861642
O O16 0.254245 0.365790 0.790088
O O17 0.000000 0.323836 0.843029
O O18 0.000000 0.077252 0.358773
O O19 0.249702 0.000000 0.362147
O O20 0.736446 0.101883 0.668297
O O21 0.000000 0.097675 0.726227
O O22 0.790942 0.000000 0.755577
O O23 0.210047 0.500000 0.578868
O O24 0.000000 0.398482 0.591661
#
# Coordination Sequence:
#
# PCOD8173308 Si02
#       8
#     8   8   8   8   8   8   8   8
#     4   9  18  33  54  79 108 142 180 223 271 325
#     4  10  20  34  55  82 111 146 186 228 274 326
#     4  10  22  39  58  81 111 146 183 227 278 330
#     4  11  22  36  56  81 110 145 186 230 276 327
#     4  11  23  39  59  83 112 146 185 227 274 327
#     4   9  18  33  54  79 107 141 181 226 276 329
#     4  10  21  38  61  88 116 146 182 224 270 323
#     4  10  21  38  60  85 114 147 182 223 272 326
#
# _framework density 19.299111
#
# number of rings (size 3 to 8) (size 9 to 14) (size 15 to 20)
#    0.000    2.000    0.000    3.375    0.000    6.250 
#    0.000    4.375    0.000    1.875    0.000    0.000 
#    0.000    0.000    0.000    0.000    0.000    0.000 
#
# Total GULP energy -396920.000221 kJ/mol
# GULP energy per Si atom -12403.750007 kJ/mol
# Density = 1.925519 g / cm^3
# Si number density = 19.299111 Si / 1000 Ang^3
#
#
#
# Elastic Constant Matrix: (Units=GPa)
#
#
# Indices 1 2 3 4 5 6 
#
# 1 55.2988 41.5508 32.3661 0.0000 0.0000 0.0000
# 2 41.5508 150.3222 84.4260 0.0000 0.0000 0.0000
# 3 32.3661 84.4260 117.7827 0.0000 0.0000 0.0000
# 4 0.0000 0.0000 0.0000 40.3859 0.0000 0.0000
# 5 0.0000 0.0000 0.0000 0.0000 22.2179 0.0000
# 6 0.0000 0.0000 0.0000 0.0000 0.0000 24.9229
#
#
#
# Elastic Compliance Matrix: (Units=1/GPa)
#
#
# Indices 1 2 3 4 5 6 
#
# 1 0.023444 -0.004791 -0.003008 0.000000 0.000000 0.000000
# 2 -0.004791 0.012114 -0.007367 0.000000 0.000000 0.000000
# 3 -0.003008 -0.007367 0.014597 0.000000 0.000000 0.000000
# 4 0.000000 0.000000 0.000000 0.024761 0.000000 0.000000
# 5 0.000000 0.000000 0.000000 0.000000 0.045009 0.000000
# 6 0.000000 0.000000 0.000000 0.000000 0.000000 0.040124
#
#
# Mechanical properties :
#
#
# Convention : Reuss Voigt Hill
#
# Bulk Modulus (GPa) = 50.44458 71.12105 60.78282
# Shear Modulus (GPa) = 25.38219 28.50940 26.94579
#
# Velocity S-wave (km/s) = 3.63050 3.84766 3.74066
# Velocity P-wave (km/s) = 6.61582 7.52803 7.08662
#
# Compressibility (1/GPa) = 0.01982374
#
# Stress axis : x y z
#
# Youngs Moduli (GPa) = 42.65492 82.54927 68.50530
#
# Poissons Ratio (x) = 0.39545 0.20610
# Poissons Ratio (y) = 0.20434 0.50467
# Poissons Ratio (z) = 0.12833 0.60813
#
# Static dielectric constant tensor:
#      x y z
#    x 3.464120 0.000000 0.000000 
#    y 0.000000 3.680390 0.000000 
#    z 0.000000 0.000000 3.698520 
# 
# 
# High freq. dielectric constant tensor:
#      x y z
#    x 1.745590 0.000000 0.000000 
#    y 0.000000 1.755990 0.000000 
#    z 0.000000 0.000000 1.764690 
# 
# From -- ./inp_files/18414.got.cif
#   From: 2010.03.12/outbox.cif.g09.slc.cpg/sg35_10_cif.got.tgz:18414.got - 2010.04.14 02:02:04.
