data_PCOD8173901
_publ_section_title
;
Structure prediction by ZEFSAII (Michael W. Deem and Ramdas Pophale) SiO2 
 PCOD8173901
Probable space group: C M M 2
;
_chemical_formula_sum "Si O2"
_cell_formula_units_Z 56
_cell_length_a 8.870380
_cell_length_b 21.683356
_cell_length_c 14.569429
_cell_angle_alpha 90.000000
_cell_angle_beta 90.000000
_cell_angle_gamma 90.000000
_cell_volume 2802.278254
_symmetry_space_group_name_H-M "C M M 2"
_symmetry_group_IT_number 35
_symmetry_cell_setting 'orthorhombic'
loop_
_space_group_symop_operation_xyz
x,y,z
-x,-y,z
-x,y,z
x,-y,z
1/2+x,1/2+y,z
1/2-x,1/2-y,z
1/2-x,1/2+y,z
1/2+x,1/2-y,z
loop_
_atom_site_type_symbol
_atom_site_label
_atom_site_fract_x
_atom_site_fract_y
_atom_site_fract_z
Si Si1 0.679032 0.000000 0.307860
Si Si2 0.324509 0.131999 0.083490
Si Si3 0.677625 0.312318 0.252671
Si Si4 0.324991 0.000000 0.105355
Si Si5 0.175151 0.069801 0.578477
Si Si6 0.176332 0.929355 0.790342
Si Si7 0.822287 0.620925 0.410696
Si Si8 0.677499 0.185483 0.893675
O O1 0.737841 0.059452 0.361633
O O2 0.500000 0.000000 0.308092
O O3 0.751369 0.000000 0.206385
O O4 0.500000 0.138413 0.110238
O O5 0.226757 0.139000 0.175325
O O6 0.284624 0.062057 0.049058
O O7 0.282394 0.178422 0.001623
O O8 0.500000 0.307666 0.258698
O O9 0.750000 0.250000 0.214979
O O10 0.743948 0.324342 0.354154
O O11 0.500000 0.000000 0.127367
O O12 0.209790 0.084213 0.684022
O O13 0.268221 0.118190 0.516328
O O14 0.000000 0.078264 0.556989
O O15 0.226906 0.000000 0.556085
O O16 0.263629 0.875945 0.844110
O O17 0.000000 0.923282 0.811927
O O18 0.228945 0.000000 0.814918
O O19 0.000000 0.630667 0.407466
O O20 0.500000 0.189343 0.877010
O O21 0.750000 0.250000 0.858538
#
# Coordination Sequence:
#
# PCOD8173901 Si02
#       8
#     4   8   8   4   8   8   8   8
#     4   9  16  28  52  81 112 149 181 218 272 326
#     4  10  21  38  61  87 118 155 193 241 295 352
#     4  12  25  40  57  79 111 154 201 247 290 346
#     4   9  16  32  56  83 118 153 187 230 286 344
#     4   9  18  34  57  87 120 154 191 235 291 352
#     4   9  20  40  64  90 125 161 194 245 310 366
#     4  11  20  34  56  85 118 154 191 232 282 338
#     4  11  24  40  63  90 120 158 205 253 302 364
#
# _framework density 19.983739
#
# number of rings (size 3 to 8) (size 9 to 14) (size 15 to 20)
#    0.000    1.857    2.143    3.429    1.000    3.143 
#    0.000    3.214    0.000    3.429    0.000    0.000 
#    0.000    0.000    0.000    0.000    0.000    0.000 
#
# Total GULP energy -347056.871485 kJ/mol
# GULP energy per Si atom -12394.888267 kJ/mol
# Density = 1.993826 g / cm^3
# Si number density = 19.983739 Si / 1000 Ang^3
#
#
#
# Elastic Constant Matrix: (Units=GPa)
#
#
# Indices 1 2 3 4 5 6 
#
# 1 107.3327 49.1246 50.8016 0.0000 0.0000 0.0000
# 2 49.1246 114.0770 41.8146 0.0000 0.0000 0.0000
# 3 50.8016 41.8146 83.9658 0.0000 0.0000 0.0000
# 4 0.0000 0.0000 0.0000 28.7656 0.0000 0.0000
# 5 0.0000 0.0000 0.0000 0.0000 32.1923 0.0000
# 6 0.0000 0.0000 0.0000 0.0000 0.0000 30.1435
#
#
#
# Elastic Compliance Matrix: (Units=1/GPa)
#
#
# Indices 1 2 3 4 5 6 
#
# 1 0.014183 -0.003624 -0.006776 0.000000 0.000000 0.000000
# 2 -0.003624 0.011649 -0.003609 0.000000 0.000000 0.000000
# 3 -0.006776 -0.003609 0.017807 0.000000 0.000000 0.000000
# 4 0.000000 0.000000 0.000000 0.034764 0.000000 0.000000
# 5 0.000000 0.000000 0.000000 0.000000 0.031063 0.000000
# 6 0.000000 0.000000 0.000000 0.000000 0.000000 0.033175
#
#
# Mechanical properties :
#
#
# Convention : Reuss Voigt Hill
#
# Bulk Modulus (GPa) = 64.01679 65.42859 64.72269
# Shear Modulus (GPa) = 28.43092 29.12926 28.78009
#
# Velocity S-wave (km/s) = 3.77596 3.82206 3.79908
# Velocity P-wave (km/s) = 7.14944 7.23115 7.19041
#
# Compressibility (1/GPa) = 0.01562090
#
# Stress axis : x y z
#
# Youngs Moduli (GPa) = 70.50900 85.84245 56.15860
#
# Poissons Ratio (x) = 0.31105 0.38055
# Poissons Ratio (y) = 0.25549 0.20267
# Poissons Ratio (z) = 0.47779 0.30980
#
# Static dielectric constant tensor:
#      x y z
#    x 3.381140 0.000000 0.000000 
#    y 0.000000 3.725890 0.000000 
#    z 0.000000 0.000000 3.564920 
# 
# 
# High freq. dielectric constant tensor:
#      x y z
#    x 1.762930 0.000000 0.000000 
#    y 0.000000 1.779370 0.000000 
#    z 0.000000 0.000000 1.775730 
# 
# From -- ./inp_files/15731.got.cif
#   From: 2010.03.12/outbox.cif.g09.slc.cpg/sg35_8_cif.got.tgz:15731.got - 2010.04.14 02:02:04.
