data_PCOD8173614
_publ_section_title
;
Structure prediction by ZEFSAII (Michael W. Deem and Ramdas Pophale) SiO2 
 PCOD8173614
Probable space group: C M M 2
;
_chemical_formula_sum "Si O2"
_cell_formula_units_Z 64
_cell_length_a 27.772699
_cell_length_b 8.840935
_cell_length_c 12.942820
_cell_angle_alpha 90.000000
_cell_angle_beta 90.000000
_cell_angle_gamma 90.000000
_cell_volume 3177.936362
_symmetry_space_group_name_H-M "C M M 2"
_symmetry_group_IT_number 35
_symmetry_cell_setting 'orthorhombic'
loop_
_space_group_symop_operation_xyz
x,y,z
-x,-y,z
-x,y,z
x,-y,z
1/2+x,1/2+y,z
1/2-x,1/2-y,z
1/2-x,1/2+y,z
1/2+x,1/2-y,z
loop_
_atom_site_type_symbol
_atom_site_label
_atom_site_fract_x
_atom_site_fract_y
_atom_site_fract_z
Si Si1 0.198386 0.175838 0.049900
Si Si2 0.886706 0.178950 0.748642
Si Si3 0.301922 0.674854 0.279172
Si Si4 0.302521 0.178919 0.846618
Si Si5 0.892890 0.323658 0.354655
Si Si6 0.442587 0.670855 0.169097
Si Si7 0.946803 0.178580 0.940829
Si Si8 0.555721 0.676272 0.545279
O O1 0.250000 0.250000 0.061164
O O2 0.174931 0.196959 0.163525
O O3 0.202550 0.000000 0.020379
O O4 0.172584 0.261278 0.954237
O O5 0.835073 0.262653 0.751321
O O6 0.915632 0.244427 0.847217
O O7 0.914770 0.226493 0.645925
O O8 0.878946 0.000000 0.754350
O O9 0.294913 0.500000 0.304965
O O10 0.250000 0.750000 0.292975
O O11 0.340372 0.745494 0.358051
O O12 0.250000 0.250000 0.833839
O O13 0.298795 0.000000 0.846573
O O14 0.884305 0.500000 0.363303
O O15 0.920948 0.288060 0.249467
O O16 0.925200 0.269337 0.448963
O O17 0.500000 0.681098 0.169693
O O18 0.426301 0.500000 0.198679
O O19 0.423482 0.712414 0.053674
O O20 0.000000 0.251359 0.933935
O O21 0.951143 0.000000 0.926819
O O22 0.500000 0.715285 0.564498
O O23 0.562651 0.500000 0.521278
#
# Coordination Sequence:
#
# PCOD8173614 Si02
#       8
#     8   8   8   8   8   8   8   8
#     4   9  17  31  53  80 112 152 194 237 285 338
#     4  10  20  36  61  90 117 148 194 245 298 354
#     4  10  21  38  60  86 119 156 198 246 297 352
#     4  11  22  36  55  82 120 160 200 242 289 345
#     4  12  25  38  57  85 119 158 202 246 296 355
#     4   9  18  34  56  83 116 153 193 238 293 357
#     4   8  15  30  55  86 116 146 183 231 289 352
#     4  10  22  42  67  91 116 151 199 252 301 356
#
# _framework density 20.138855
#
# number of rings (size 3 to 8) (size 9 to 14) (size 15 to 20)
#    0.000    2.125    0.000    5.250    1.750    5.500 
#    0.000    0.625    0.000    4.875    0.000    0.000 
#    0.000    0.000    0.000    0.000    0.000    0.000 
#
# Total GULP energy -396722.143295 kJ/mol
# GULP energy per Si atom -12397.566978 kJ/mol
# Density = 2.009302 g / cm^3
# Si number density = 20.138855 Si / 1000 Ang^3
#
#
#
# Elastic Constant Matrix: (Units=GPa)
#
#
# Indices 1 2 3 4 5 6 
#
# 1 77.5461 45.1087 49.3645 0.0000 0.0000 0.0000
# 2 45.1087 110.2796 45.0664 0.0000 0.0000 0.0000
# 3 49.3645 45.0664 101.3163 0.0000 0.0000 0.0000
# 4 0.0000 0.0000 0.0000 8.3901 0.0000 0.0000
# 5 0.0000 0.0000 0.0000 0.0000 37.7530 0.0000
# 6 0.0000 0.0000 0.0000 0.0000 0.0000 27.1204
#
#
#
# Elastic Compliance Matrix: (Units=1/GPa)
#
#
# Indices 1 2 3 4 5 6 
#
# 1 0.021029 -0.005395 -0.007846 0.000000 0.000000 0.000000
# 2 -0.005395 0.012467 -0.002917 0.000000 0.000000 0.000000
# 3 -0.007846 -0.002917 0.014990 0.000000 0.000000 0.000000
# 4 0.000000 0.000000 0.000000 0.119189 0.000000 0.000000
# 5 0.000000 0.000000 0.000000 0.000000 0.026488 0.000000
# 6 0.000000 0.000000 0.000000 0.000000 0.000000 0.036873
#
#
# Mechanical properties :
#
#
# Convention : Reuss Voigt Hill
#
# Bulk Modulus (GPa) = 61.84318 63.13570 62.48944
# Shear Modulus (GPa) = 18.60536 24.62619 21.61577
#
# Velocity S-wave (km/s) = 3.04279 3.50068 3.27974
# Velocity P-wave (km/s) = 6.56657 6.91071 6.74084
#
# Compressibility (1/GPa) = 0.01616993
#
# Stress axis : x y z
#
# Youngs Moduli (GPa) = 47.55442 80.21444 66.71041
#
# Poissons Ratio (x) = 0.43278 0.52340
# Poissons Ratio (y) = 0.25657 0.19456
# Poissons Ratio (z) = 0.37311 0.23395
#
# Static dielectric constant tensor:
#      x y z
#    x 3.731860 0.000000 0.000000 
#    y 0.000000 3.424060 0.000000 
#    z 0.000000 0.000000 3.814130 
# 
# 
# High freq. dielectric constant tensor:
#      x y z
#    x 1.796110 0.000000 0.000000 
#    y 0.000000 1.765580 0.000000 
#    z 0.000000 0.000000 1.776100 
# 
# From -- ./inp_files/14560.got.cif
#   From: 2010.03.12/outbox.cif.g09.slc.cpg/sg35_8_cif.got.tgz:14560.got - 2010.04.14 02:02:04.
