data_PCOD8173280
_publ_section_title
;
Structure prediction by ZEFSAII (Michael W. Deem and Ramdas Pophale) SiO2 
 PCOD8173280
Probable space group: C M M 2
;
_chemical_formula_sum "Si O2"
_cell_formula_units_Z 64
_cell_length_a 8.811723
_cell_length_b 19.108269
_cell_length_c 20.148500
_cell_angle_alpha 90.000000
_cell_angle_beta 90.000000
_cell_angle_gamma 90.000000
_cell_volume 3392.539420
_symmetry_space_group_name_H-M "C M M 2"
_symmetry_group_IT_number 35
_symmetry_cell_setting 'orthorhombic'
loop_
_space_group_symop_operation_xyz
x,y,z
-x,-y,z
-x,y,z
x,-y,z
1/2+x,1/2+y,z
1/2-x,1/2-y,z
1/2-x,1/2+y,z
1/2+x,1/2-y,z
loop_
_atom_site_type_symbol
_atom_site_label
_atom_site_fract_x
_atom_site_fract_y
_atom_site_fract_z
Si Si1 0.676931 0.919783 0.886510
Si Si2 0.320776 0.176829 0.008474
Si Si3 0.829000 0.916809 0.391452
Si Si4 0.677727 0.321890 0.782726
Si Si5 0.178612 0.177819 0.630765
Si Si6 0.674419 0.082754 0.257143
Si Si7 0.679859 0.676012 0.148191
Si Si8 0.326000 0.082757 0.525134
O O1 0.500000 0.911941 0.871310
O O2 0.766323 0.887339 0.825039
O O3 0.726517 0.000000 0.893933
O O4 0.720744 0.881520 0.954635
O O5 0.500000 0.185810 0.018321
O O6 0.250000 0.250000 0.984283
O O7 0.246678 0.152670 0.077402
O O8 0.733469 0.890303 0.328376
O O9 0.750880 0.887838 0.458096
O O10 0.000000 0.887381 0.386922
O O11 0.829442 0.000000 0.393062
O O12 0.500000 0.313892 0.790428
O O13 0.750000 0.250000 0.809765
O O14 0.726490 0.335455 0.706856
O O15 0.250000 0.250000 0.604556
O O16 0.242652 0.113810 0.588760
O O17 0.000000 0.181983 0.621994
O O18 0.500000 0.105495 0.249115
O O19 0.776390 0.117186 0.200747
O O20 0.694125 0.000000 0.250565
O O21 0.500000 0.683059 0.143213
O O22 0.750000 0.750000 0.170516
O O23 0.500000 0.106367 0.524689
O O24 0.308872 0.000000 0.529881
#
# Coordination Sequence:
#
# PCOD8173280 Si02
#       8
#     8   8   8   8   8   8   8   8
#     4  10  22  38  56  81 113 145 177 219 269 317
#     4  10  20  36  57  79 105 141 183 222 265 319
#     4   9  17  31  52  78 108 142 181 223 266 316
#     4  10  21  37  58  81 106 141 182 222 266 321
#     4  10  21  37  56  79 108 141 179 223 271 321
#     4  10  20  35  56  81 110 144 181 222 269 321
#     4  11  22  37  57  81 110 143 181 223 269 320
#     4  10  20  34  54  80 109 143 182 222 267 320
#
# _framework density 18.864924999999999
#
# number of rings (size 3 to 8) (size 9 to 14) (size 15 to 20)
#    0.000    2.000    0.000    4.500    0.000    7.750 
#    0.000    4.375    0.000    0.000    0.000    0.000 
#    0.000    0.000    0.000    0.000    0.000    0.000 
#
# Total GULP energy -396933.760776 kJ/mol
# GULP energy per Si atom -12404.180024 kJ/mol
# Density = 1.882199 g / cm^3
# Si number density = 18.864925 Si / 1000 Ang^3
#
#
#
# Elastic Constant Matrix: (Units=GPa)
#
#
# Indices 1 2 3 4 5 6 
#
# 1 114.5854 41.5892 59.7173 0.0000 0.0000 0.0000
# 2 41.5892 76.6668 61.4451 0.0000 0.0000 0.0000
# 3 59.7173 61.4451 120.8621 0.0000 0.0000 0.0000
# 4 0.0000 0.0000 0.0000 23.3823 0.0000 0.0000
# 5 0.0000 0.0000 0.0000 0.0000 37.5686 0.0000
# 6 0.0000 0.0000 0.0000 0.0000 0.0000 31.4571
#
#
#
# Elastic Compliance Matrix: (Units=1/GPa)
#
#
# Indices 1 2 3 4 5 6 
#
# 1 0.012150 -0.003003 -0.004476 0.000000 0.000000 0.000000
# 2 -0.003003 0.022755 -0.010084 0.000000 0.000000 0.000000
# 3 -0.004476 -0.010084 0.015612 0.000000 0.000000 0.000000
# 4 0.000000 0.000000 0.000000 0.042767 0.000000 0.000000
# 5 0.000000 0.000000 0.000000 0.000000 0.026618 0.000000
# 6 0.000000 0.000000 0.000000 0.000000 0.000000 0.031789
#
#
# Mechanical properties :
#
#
# Convention : Reuss Voigt Hill
#
# Bulk Modulus (GPa) = 64.98113 70.84637 67.91375
# Shear Modulus (GPa) = 26.04842 28.43912 27.24377
#
# Velocity S-wave (km/s) = 3.71992 3.88688 3.80432
# Velocity P-wave (km/s) = 7.27810 7.60131 7.44146
#
# Compressibility (1/GPa) = 0.01538908
#
# Stress axis : x y z
#
# Youngs Moduli (GPa) = 82.30363 43.94661 64.05133
#
# Poissons Ratio (x) = 0.13199 0.28672
# Poissons Ratio (y) = 0.24719 0.64592
# Poissons Ratio (z) = 0.36843 0.44318
#
# Static dielectric constant tensor:
#      x y z
#    x 3.604800 0.000000 0.000000 
#    y 0.000000 3.321970 0.000000 
#    z 0.000000 0.000000 3.567090 
# 
# 
# High freq. dielectric constant tensor:
#      x y z
#    x 1.749130 0.000000 0.000000 
#    y 0.000000 1.713480 0.000000 
#    z 0.000000 0.000000 1.743240 
# 
# From -- ./inp_files/18428.got.cif
#   From: 2010.03.12/outbox.cif.g09.slc.cpg/sg35_10_cif.got.tgz:18428.got - 2010.04.14 02:02:04.
