data_PCOD8173270
_publ_section_title
;
Structure prediction by ZEFSAII (Michael W. Deem and Ramdas Pophale) SiO2 
 PCOD8173270
Probable space group: C M M 2
;
_chemical_formula_sum "Si O2"
_cell_formula_units_Z 56
_cell_length_a 18.201027
_cell_length_b 9.111650
_cell_length_c 17.734155
_cell_angle_alpha 90.000000
_cell_angle_beta 90.000000
_cell_angle_gamma 90.000000
_cell_volume 2941.056874
_symmetry_space_group_name_H-M "C M M 2"
_symmetry_group_IT_number 35
_symmetry_cell_setting 'orthorhombic'
loop_
_space_group_symop_operation_xyz
x,y,z
-x,-y,z
-x,y,z
x,-y,z
1/2+x,1/2+y,z
1/2-x,1/2-y,z
1/2-x,1/2+y,z
1/2+x,1/2-y,z
loop_
_atom_site_type_symbol
_atom_site_label
_atom_site_fract_x
_atom_site_fract_y
_atom_site_fract_z
Si Si1 0.174398 0.172514 0.472150
Si Si2 0.414341 0.331388 0.871633
Si Si3 0.671971 0.827168 0.742818
Si Si4 0.084625 0.669728 0.593524
Si Si5 0.326441 0.328979 0.021879
Si Si6 0.823928 0.828985 0.300734
Si Si7 0.581520 0.325764 0.162512
O O1 0.250000 0.250000 0.496490
O O2 0.108409 0.232214 0.522820
O O3 0.153627 0.211988 0.386044
O O4 0.184002 0.000000 0.484687
O O5 0.500000 0.295484 0.876787
O O6 0.400281 0.500000 0.848204
O O7 0.378425 0.225224 0.810932
O O8 0.379895 0.296743 0.952477
O O9 0.750000 0.750000 0.746305
O O10 0.632244 0.783447 0.665413
O O11 0.683660 0.000000 0.749961
O O12 0.096927 0.500000 0.572981
O O13 0.000000 0.702920 0.612014
O O14 0.309892 0.500000 0.031097
O O15 0.250000 0.250000 0.007651
O O16 0.365844 0.264761 0.096610
O O17 0.750000 0.750000 0.275560
O O18 0.888030 0.777707 0.244322
O O19 0.808341 0.000000 0.292978
O O20 0.500000 0.258342 0.153851
O O21 0.577277 0.500000 0.155740
#
# Coordination Sequence:
#
# PCOD8173270 Si02
#       7
#     8   8   8   8   8   8   8
#     4  10  20  34  54  80 108 140 179 221 265 316
#     4  10  21  37  57  82 111 141 176 219 266 316
#     4  11  23  39  59  82 108 140 179 219 262 315
#     4  10  22  39  57  79 108 140 175 218 268 319
#     4  10  20  34  54  79 106 139 178 218 260 310
#     4   9  18  32  52  77 104 136 174 216 260 309
#     4   9  17  31  52  76 103 137 176 217 261 308
#
# _framework density 19.040775
#
# number of rings (size 3 to 8) (size 9 to 14) (size 15 to 20)
#    0.000    2.143    0.000    3.000    0.000    8.000 
#    0.000    1.429    0.000    2.571    0.000    0.000 
#    0.000    0.000    0.000    0.000    0.000    0.000 
#
# Total GULP energy -347293.125277 kJ/mol
# GULP energy per Si atom -12403.325903 kJ/mol
# Density = 1.899744 g / cm^3
# Si number density = 19.040775 Si / 1000 Ang^3
#
#
#
# Elastic Constant Matrix: (Units=GPa)
#
#
# Indices 1 2 3 4 5 6 
#
# 1 148.4430 48.0642 68.4709 0.0000 0.0000 0.0000
# 2 48.0642 54.4423 46.2173 0.0000 0.0000 0.0000
# 3 68.4709 46.2173 118.1849 0.0000 0.0000 0.0000
# 4 0.0000 0.0000 0.0000 16.1747 0.0000 0.0000
# 5 0.0000 0.0000 0.0000 0.0000 34.4873 0.0000
# 6 0.0000 0.0000 0.0000 0.0000 0.0000 24.4439
#
#
#
# Elastic Compliance Matrix: (Units=1/GPa)
#
#
# Indices 1 2 3 4 5 6 
#
# 1 0.010383 -0.006077 -0.003639 0.000000 0.000000 0.000000
# 2 -0.006077 0.031054 -0.008623 0.000000 0.000000 0.000000
# 3 -0.003639 -0.008623 0.013941 0.000000 0.000000 0.000000
# 4 0.000000 0.000000 0.000000 0.061825 0.000000 0.000000
# 5 0.000000 0.000000 0.000000 0.000000 0.028996 0.000000
# 6 0.000000 0.000000 0.000000 0.000000 0.000000 0.040910
#
#
# Mechanical properties :
#
#
# Convention : Reuss Voigt Hill
#
# Bulk Modulus (GPa) = 53.47598 71.84166 62.65882
# Shear Modulus (GPa) = 21.73722 25.57569 23.65645
#
# Velocity S-wave (km/s) = 3.38244 3.66895 3.52861
# Velocity P-wave (km/s) = 6.58791 7.46730 7.04135
#
# Compressibility (1/GPa) = 0.01869998
#
# Stress axis : x y z
#
# Youngs Moduli (GPa) = 96.31331 32.20232 71.72875
#
# Poissons Ratio (x) = 0.19571 0.26100
# Poissons Ratio (y) = 0.58534 0.61850
# Poissons Ratio (z) = 0.35045 0.27767
#
# Static dielectric constant tensor:
#      x y z
#    x 3.587630 0.000000 0.000000 
#    y 0.000000 3.359100 0.000000 
#    z 0.000000 0.000000 3.664630 
# 
# 
# High freq. dielectric constant tensor:
#      x y z
#    x 1.748490 0.000000 0.000000 
#    y 0.000000 1.722140 0.000000 
#    z 0.000000 0.000000 1.754470 
# 
# From -- ./inp_files/17418.got.cif
#   From: 2010.03.12/outbox.cif.g09.slc.cpg/sg35_9_cif.got.tgz:17418.got - 2010.04.14 02:02:04.
