data_PCOD8173544
_publ_section_title
;
Structure prediction by ZEFSAII (Michael W. Deem and Ramdas Pophale) SiO2 
 PCOD8173544
Probable space group: C M M 2
;
_chemical_formula_sum "Si O2"
_cell_formula_units_Z 64
_cell_length_a 8.977955
_cell_length_b 28.367254
_cell_length_c 12.543930
_cell_angle_alpha 90.000000
_cell_angle_beta 90.000000
_cell_angle_gamma 90.000000
_cell_volume 3194.687213
_symmetry_space_group_name_H-M "C M M 2"
_symmetry_group_IT_number 35
_symmetry_cell_setting 'orthorhombic'
loop_
_space_group_symop_operation_xyz
x,y,z
-x,-y,z
-x,y,z
x,-y,z
1/2+x,1/2+y,z
1/2-x,1/2-y,z
1/2-x,1/2+y,z
1/2+x,1/2-y,z
loop_
_atom_site_type_symbol
_atom_site_label
_atom_site_fract_x
_atom_site_fract_y
_atom_site_fract_z
Si Si1 0.170937 0.796650 0.430300
Si Si2 0.824199 0.699369 0.049964
Si Si3 0.176289 0.201352 0.670322
Si Si4 0.836400 0.555515 0.553549
Si Si5 0.674710 0.860808 0.843267
Si Si6 0.673634 0.554484 0.764058
Si Si7 0.324060 0.946264 0.316087
Si Si8 0.173298 0.859539 0.233411
O O1 0.250000 0.750000 0.386458
O O2 0.225557 0.810457 0.549001
O O3 0.202268 0.839602 0.351509
O O4 0.000000 0.782848 0.434479
O O5 0.750000 0.750000 0.034117
O O6 0.760344 0.673763 0.152909
O O7 0.000000 0.706193 0.063112
O O8 0.782677 0.667140 0.949376
O O9 0.250000 0.250000 0.708426
O O10 0.239482 0.160321 0.742873
O O11 0.000000 0.205123 0.684594
O O12 0.855843 0.500000 0.552628
O O13 0.719932 0.570668 0.644429
O O14 0.778391 0.569796 0.436008
O O15 0.000000 0.577979 0.577063
O O16 0.500000 0.860210 0.822608
O O17 0.734746 0.914673 0.850582
O O18 0.500000 0.564251 0.777505
O O19 0.713813 0.500000 0.784886
O O20 0.500000 0.940823 0.299978
O O21 0.238852 0.912511 0.232551
O O22 0.274145 0.000000 0.292976
O O23 0.000000 0.860477 0.202425
#
# Coordination Sequence:
#
# PCOD8173544 Si02
#       8
#     8   8   8   8   8   8   8   8
#     4   9  20  36  54  82 117 151 187 232 288 351
#     4  11  25  45  67  90 117 151 197 251 303 356
#     4  10  20  36  57  84 120 155 190 236 294 356
#     4   8  15  30  52  79 114 157 200 240 285 341
#     4  11  24  40  61  88 116 153 201 247 299 357
#     4  10  21  36  56  85 121 159 199 246 298 351
#     4   9  19  36  57  84 120 161 204 248 295 348
#     4  11  23  38  60  89 120 155 200 246 298 357
#
# _framework density 20.033259999999999
#
# number of rings (size 3 to 8) (size 9 to 14) (size 15 to 20)
#    0.000    2.125    0.000    3.375    1.750    7.000 
#    0.000    1.875    0.000    0.750    0.000    0.000 
#    0.000    0.000    0.000    0.000    0.000    0.000 
#
# Total GULP energy -396806.563577 kJ/mol
# GULP energy per Si atom -12400.205112 kJ/mol
# Density = 1.998766 g / cm^3
# Si number density = 20.033260 Si / 1000 Ang^3
#
#
#
# Elastic Constant Matrix: (Units=GPa)
#
#
# Indices 1 2 3 4 5 6 
#
# 1 91.8766 55.4221 46.0363 0.0000 0.0000 0.0000
# 2 55.4221 103.4518 43.0491 0.0000 0.0000 0.0000
# 3 46.0363 43.0491 67.8591 0.0000 0.0000 0.0000
# 4 0.0000 0.0000 0.0000 34.0952 0.0000 0.0000
# 5 0.0000 0.0000 0.0000 0.0000 26.3123 0.0000
# 6 0.0000 0.0000 0.0000 0.0000 0.0000 35.5576
#
#
#
# Elastic Compliance Matrix: (Units=1/GPa)
#
#
# Indices 1 2 3 4 5 6 
#
# 1 0.019373 -0.006671 -0.008911 0.000000 0.000000 0.000000
# 2 -0.006671 0.015430 -0.005263 0.000000 0.000000 0.000000
# 3 -0.008911 -0.005263 0.024121 0.000000 0.000000 0.000000
# 4 0.000000 0.000000 0.000000 0.029330 0.000000 0.000000
# 5 0.000000 0.000000 0.000000 0.000000 0.038005 0.000000
# 6 0.000000 0.000000 0.000000 0.000000 0.000000 0.028123
#
#
# Mechanical properties :
#
#
# Convention : Reuss Voigt Hill
#
# Bulk Modulus (GPa) = 58.02502 61.35585 59.69043
# Shear Modulus (GPa) = 24.77490 27.10500 25.93995
#
# Velocity S-wave (km/s) = 3.52047 3.68230 3.60230
# Velocity P-wave (km/s) = 6.74924 6.98374 6.86749
#
# Compressibility (1/GPa) = 0.01723395
#
# Stress axis : x y z
#
# Youngs Moduli (GPa) = 51.61799 64.80809 41.45778
#
# Poissons Ratio (x) = 0.43230 0.36944
# Poissons Ratio (y) = 0.34432 0.21821
# Poissons Ratio (z) = 0.45998 0.34111
#
# Static dielectric constant tensor:
#      x y z
#    x 3.645530 0.000000 0.000000 
#    y 0.000000 3.731240 0.000000 
#    z 0.000000 0.000000 3.625560 
# 
# 
# High freq. dielectric constant tensor:
#      x y z
#    x 1.785600 0.000000 0.000000 
#    y 0.000000 1.788330 0.000000 
#    z 0.000000 0.000000 1.764850 
# 
# From -- ./inp_files/11861.got.cif
#   From: 2010.03.12/outbox.cif.g09.slc.cpg/sg35_6_cif.got.tgz:11861.got - 2010.04.14 02:02:04.
