data_PCOD8173047
_publ_section_title
;
Structure prediction by ZEFSAII (Michael W. Deem and Ramdas Pophale) SiO2 
 PCOD8173047
Probable space group: C M M 2
;
_chemical_formula_sum "Si O2"
_cell_formula_units_Z 64
_cell_length_a 9.709499
_cell_length_b 18.958596
_cell_length_c 20.354989
_cell_angle_alpha 90.000000
_cell_angle_beta 90.000000
_cell_angle_gamma 90.000000
_cell_volume 3746.915210
_symmetry_space_group_name_H-M "C M M 2"
_symmetry_group_IT_number 35
_symmetry_cell_setting 'orthorhombic'
loop_
_space_group_symop_operation_xyz
x,y,z
-x,-y,z
-x,y,z
x,-y,z
1/2+x,1/2+y,z
1/2-x,1/2-y,z
1/2-x,1/2+y,z
1/2+x,1/2-y,z
loop_
_atom_site_type_symbol
_atom_site_label
_atom_site_fract_x
_atom_site_fract_y
_atom_site_fract_z
Si Si1 0.841316 0.815997 0.688090
Si Si2 0.341828 0.581092 0.803008
Si Si3 0.341412 0.418654 0.424155
Si Si4 0.653132 0.916141 0.307859
Si Si5 0.841482 0.581130 0.923688
Si Si6 0.162108 0.679204 0.047115
Si Si7 0.658745 0.683865 0.539236
Si Si8 0.163548 0.421285 0.162821
O O1 0.750000 0.750000 0.708904
O O2 0.801835 0.879414 0.736201
O O3 0.808707 0.840380 0.613675
O O4 0.000000 0.793803 0.695555
O O5 0.500000 0.594145 0.822633
O O6 0.310430 0.500000 0.788599
O O7 0.249408 0.608699 0.862999
O O8 0.500000 0.407726 0.405426
O O9 0.305158 0.500000 0.435706
O O10 0.254090 0.386102 0.363865
O O11 0.302103 0.380260 0.491664
O O12 0.500000 0.885431 0.320302
O O13 0.708122 0.894382 0.235451
O O14 0.648661 0.000000 0.310623
O O15 0.805662 0.500000 0.942009
O O16 0.000000 0.588048 0.902931
O O17 0.806599 0.630276 0.984913
O O18 0.250000 0.750000 0.041212
O O19 0.216434 0.635526 0.110157
O O20 0.000000 0.697550 0.052328
O O21 0.500000 0.705941 0.531508
O O22 0.750000 0.750000 0.518434
O O23 0.223938 0.500000 0.148259
O O24 0.000000 0.426763 0.159384
#
# Coordination Sequence:
#
# PCOD8173047 Si02
#       8
#     8   8   8   8   8   8   8   8
#     4   9  18  32  49  68  91 121 156 190 225 269
#     4   9  18  32  50  72  96 120 148 187 232 273
#     4   9  17  29  46  69  95 120 148 187 233 275
#     4   8  14  26  46  70  92 116 150 190 228 268
#     4   9  18  33  52  71  91 120 157 191 223 265
#     4  10  20  33  49  70  96 123 152 189 230 270
#     4   9  18  32  48  66  90 122 157 190 225 268
#     4   8  14  28  51  72  88 115 157 195 224 263
#
# _framework density 17.080715999999999
#
# number of rings (size 3 to 8) (size 9 to 14) (size 15 to 20)
#    0.000    3.125    0.000    1.125    0.000    4.000 
#    0.000    6.250    0.000    4.875    0.000    7.000 
#    0.000    0.000    0.000    0.000    0.000    0.000 
#
# Total GULP energy -396720.380501 kJ/mol
# GULP energy per Si atom -12397.511891 kJ/mol
# Density = 1.704184 g / cm^3
# Si number density = 17.080716 Si / 1000 Ang^3
#
#
#
# Elastic Constant Matrix: (Units=GPa)
#
#
# Indices 1 2 3 4 5 6 
#
# 1 60.3775 47.3051 65.5579 0.0000 0.0000 0.0000
# 2 47.3051 82.2210 72.5837 0.0000 0.0000 0.0000
# 3 65.5579 72.5837 144.4029 0.0000 0.0000 0.0000
# 4 0.0000 0.0000 0.0000 12.5367 0.0000 0.0000
# 5 0.0000 0.0000 0.0000 0.0000 28.5547 0.0000
# 6 0.0000 0.0000 0.0000 0.0000 0.0000 25.4483
#
#
#
# Elastic Compliance Matrix: (Units=1/GPa)
#
#
# Indices 1 2 3 4 5 6 
#
# 1 0.038298 -0.012018 -0.011346 0.000000 0.000000 0.000000
# 2 -0.012018 0.025636 -0.007429 0.000000 0.000000 0.000000
# 3 -0.011346 -0.007429 0.015811 0.000000 0.000000 0.000000
# 4 0.000000 0.000000 0.000000 0.079766 0.000000 0.000000
# 5 0.000000 0.000000 0.000000 0.000000 0.035021 0.000000
# 6 0.000000 0.000000 0.000000 0.000000 0.000000 0.039295
#
#
# Mechanical properties :
#
#
# Convention : Reuss Voigt Hill
#
# Bulk Modulus (GPa) = 55.07634 73.09942 64.08788
# Shear Modulus (GPa) = 16.58558 20.07823 18.33191
#
# Velocity S-wave (km/s) = 3.11949 3.43226 3.27961
# Velocity P-wave (km/s) = 6.72976 7.65484 7.20716
#
# Compressibility (1/GPa) = 0.01815662
#
# Stress axis : x y z
#
# Youngs Moduli (GPa) = 26.11071 39.00828 63.24878
#
# Poissons Ratio (x) = 0.46881 0.71764
# Poissons Ratio (y) = 0.31381 0.46990
# Poissons Ratio (z) = 0.29626 0.28981
#
# Static dielectric constant tensor:
#      x y z
#    x 3.153770 0.000000 0.000000 
#    y 0.000000 3.074130 0.000000 
#    z 0.000000 0.000000 3.463540 
# 
# 
# High freq. dielectric constant tensor:
#      x y z
#    x 1.644690 0.000000 0.000000 
#    y 0.000000 1.639230 0.000000 
#    z 0.000000 0.000000 1.670180 
# 
# From -- ./inp_files/17219.got.cif
#   From: 2010.03.12/outbox.cif.g09.slc.cpg/sg35_9_cif.got.tgz:17219.got - 2010.04.14 02:02:04.
