data_PCOD8173603
_publ_section_title
;
Structure prediction by ZEFSAII (Michael W. Deem and Ramdas Pophale) SiO2 
 PCOD8173603
Probable space group: C M M 2
;
_chemical_formula_sum "Si O2"
_cell_formula_units_Z 48
_cell_length_a 8.644913
_cell_length_b 15.551750
_cell_length_c 17.061623
_cell_angle_alpha 90.000000
_cell_angle_beta 90.000000
_cell_angle_gamma 90.000000
_cell_volume 2293.824751
_symmetry_space_group_name_H-M "C M M 2"
_symmetry_group_IT_number 35
_symmetry_cell_setting 'orthorhombic'
loop_
_space_group_symop_operation_xyz
x,y,z
-x,-y,z
-x,y,z
x,-y,z
1/2+x,1/2+y,z
1/2-x,1/2-y,z
1/2-x,1/2+y,z
1/2+x,1/2-y,z
loop_
_atom_site_type_symbol
_atom_site_label
_atom_site_fract_x
_atom_site_fract_y
_atom_site_fract_z
Si Si1 0.316427 0.500000 0.596480
Si Si2 0.683780 0.344786 0.329666
Si Si3 0.181385 0.838660 0.699483
Si Si4 0.169469 0.097952 0.014221
Si Si5 0.322802 0.898006 0.857980
Si Si6 0.682192 0.000000 0.426615
Si Si7 0.182204 0.341933 0.165214
O O1 0.500000 0.500000 0.579420
O O2 0.262574 0.583309 0.645016
O O3 0.218547 0.500000 0.517816
O O4 0.500000 0.340292 0.332981
O O5 0.750000 0.250000 0.348488
O O6 0.744126 0.413554 0.391669
O O7 0.737761 0.376991 0.244033
O O8 0.250000 0.750000 0.665764
O O9 0.232362 0.852587 0.788390
O O10 0.000000 0.831764 0.697300
O O11 0.275787 0.099426 0.091514
O O12 0.000000 0.141508 0.028009
O O13 0.143271 0.000000 0.992131
O O14 0.255445 0.139851 0.939678
O O15 0.500000 0.870232 0.852853
O O16 0.302929 0.000000 0.851327
O O17 0.500000 0.000000 0.410824
O O18 0.250000 0.250000 0.143333
O O19 0.000000 0.338863 0.179622
#
# Coordination Sequence:
#
# PCOD8173603 Si02
#       7
#     4   8   8   8   8   4   8
#     4  10  24  46  68  93 130 167 204 258 316 377
#     4  11  23  43  68  96 132 170 214 265 319 379
#     4  11  23  41  66  95 127 166 210 255 312 374
#     4  10  21  36  56  84 120 162 209 256 310 366
#     4  10  20  36  59  87 122 162 208 261 315 369
#     4  12  26  44  70 101 130 169 212 256 318 385
#     4  11  22  38  59  85 121 161 207 258 313 369
#
# _framework density 20.925747999999999
#
# number of rings (size 3 to 8) (size 9 to 14) (size 15 to 20)
#    0.000    1.333    0.833    6.250    1.167    4.333 
#    0.000    5.000    0.000    0.000    0.000    0.000 
#    0.000    0.000    0.000    0.000    0.000    0.000 
#
# Total GULP energy -297645.448136 kJ/mol
# GULP energy per Si atom -12401.893672 kJ/mol
# Density = 2.087812 g / cm^3
# Si number density = 20.925748 Si / 1000 Ang^3
#
#
#
# Elastic Constant Matrix: (Units=GPa)
#
#
# Indices 1 2 3 4 5 6 
#
# 1 149.8130 52.7420 59.7144 0.0000 0.0000 0.0000
# 2 52.7420 101.9944 65.2968 0.0000 0.0000 0.0000
# 3 59.7144 65.2968 148.4439 0.0000 0.0000 0.0000
# 4 0.0000 0.0000 0.0000 9.6103 0.0000 0.0000
# 5 0.0000 0.0000 0.0000 0.0000 36.9903 0.0000
# 6 0.0000 0.0000 0.0000 0.0000 0.0000 33.4215
#
#
#
# Elastic Compliance Matrix: (Units=1/GPa)
#
#
# Indices 1 2 3 4 5 6 
#
# 1 0.008604 -0.003109 -0.002094 0.000000 0.000000 0.000000
# 2 -0.003109 0.014771 -0.005247 0.000000 0.000000 0.000000
# 3 -0.002094 -0.005247 0.009887 0.000000 0.000000 0.000000
# 4 0.000000 0.000000 0.000000 0.104055 0.000000 0.000000
# 5 0.000000 0.000000 0.000000 0.000000 0.027034 0.000000
# 6 0.000000 0.000000 0.000000 0.000000 0.000000 0.029921
#
#
# Mechanical properties :
#
#
# Convention : Reuss Voigt Hill
#
# Bulk Modulus (GPa) = 80.88539 83.97307 82.42923
# Shear Modulus (GPa) = 22.80073 30.83763 26.81918
#
# Velocity S-wave (km/s) = 3.30449 3.84300 3.58388
# Velocity P-wave (km/s) = 7.30048 7.74001 7.52346
#
# Compressibility (1/GPa) = 0.01236317
#
# Stress axis : x y z
#
# Youngs Moduli (GPa) = 116.22560 67.69974 101.14594
#
# Poissons Ratio (x) = 0.21047 0.21176
# Poissons Ratio (y) = 0.36133 0.53070
# Poissons Ratio (z) = 0.24333 0.35521
#
# Static dielectric constant tensor:
#      x y z
#    x 3.987960 0.000000 0.000000 
#    y 0.000000 3.901770 0.000000 
#    z 0.000000 0.000000 3.805790 
# 
# 
# High freq. dielectric constant tensor:
#      x y z
#    x 1.835730 0.000000 0.000000 
#    y 0.000000 1.815740 0.000000 
#    z 0.000000 0.000000 1.821450 
# 
# From -- ./inp_files/15238.got.cif
#   From: 2010.03.12/outbox.cif.g09.slc.cpg/sg35_8_cif.got.tgz:15238.got - 2010.04.14 02:02:04.
