data_PCOD8173677
_publ_section_title
;
Structure prediction by ZEFSAII (Michael W. Deem and Ramdas Pophale) SiO2 
 PCOD8173677
Probable space group: C M M 2
;
_chemical_formula_sum "Si O2"
_cell_formula_units_Z 56
_cell_length_a 19.002530
_cell_length_b 14.329779
_cell_length_c 9.932212
_cell_angle_alpha 90.000000
_cell_angle_beta 90.000000
_cell_angle_gamma 90.000000
_cell_volume 2704.561742
_symmetry_space_group_name_H-M "C M M 2"
_symmetry_group_IT_number 35
_symmetry_cell_setting 'orthorhombic'
loop_
_space_group_symop_operation_xyz
x,y,z
-x,-y,z
-x,y,z
x,-y,z
1/2+x,1/2+y,z
1/2-x,1/2-y,z
1/2-x,1/2+y,z
1/2+x,1/2-y,z
loop_
_atom_site_type_symbol
_atom_site_label
_atom_site_fract_x
_atom_site_fract_y
_atom_site_fract_z
Si Si1 0.079881 0.892125 0.581050
Si Si2 0.141095 0.281093 0.069707
Si Si3 0.845355 0.396787 0.573593
Si Si4 0.276202 0.395266 0.132198
Si Si5 0.782744 0.850865 0.430338
Si Si6 0.079831 0.268503 0.777235
Si Si7 0.419583 0.105228 0.304664
O O1 0.134777 0.852511 0.470104
O O2 0.088485 0.836934 0.722087
O O3 0.000000 0.878545 0.524726
O O4 0.095617 0.000000 0.611214
O O5 0.208847 0.348448 0.060471
O O6 0.158604 0.173705 0.105283
O O7 0.090627 0.323074 0.183220
O O8 0.098907 0.277430 0.931990
O O9 0.873562 0.500000 0.604849
O O10 0.760720 0.397274 0.553806
O O11 0.866105 0.332522 0.696743
O O12 0.877792 0.357755 0.434506
O O13 0.288336 0.500000 0.073360
O O14 0.267685 0.406344 0.292841
O O15 0.750000 0.750000 0.404889
O O16 0.000000 0.303762 0.756241
O O17 0.500000 0.104131 0.347368
O O18 0.394692 0.000000 0.263704
#
# Coordination Sequence:
#
# PCOD8173677 Si02
#       7
#     8   8   8   8   8   8   8
#     4  10  23  43  67  95 132 178 221 266 325 391
#     4  11  23  40  62  91 125 171 213 265 326 388
#     4  11  22  38  64  96 128 166 210 267 328 385
#     4  11  23  41  64  93 127 164 214 277 330 385
#     4  12  20  40  70 101 132 165 213 275 334 381
#     4  11  25  43  62  91 133 174 217 269 323 388
#     4  10  20  37  63  93 126 169 218 263 320 393
#
# _framework density 20.705757999999999
#
# number of rings (size 3 to 8) (size 9 to 14) (size 15 to 20)
#    0.000    1.143    4.286    2.571    0.000    4.857 
#    0.000    0.714    0.000    2.143    0.000    0.000 
#    0.000    0.000    0.000    0.000    0.000    0.000 
#
# Total GULP energy -347161.355027 kJ/mol
# GULP energy per Si atom -12398.619822 kJ/mol
# Density = 2.065863 g / cm^3
# Si number density = 20.705758 Si / 1000 Ang^3
#
#
#
# Elastic Constant Matrix: (Units=GPa)
#
#
# Indices 1 2 3 4 5 6 
#
# 1 97.2214 29.5655 22.3532 0.0000 0.0000 0.0000
# 2 29.5655 129.6329 27.6805 0.0000 0.0000 0.0000
# 3 22.3532 27.6805 62.8670 0.0000 0.0000 0.0000
# 4 0.0000 0.0000 0.0000 16.0105 0.0000 0.0000
# 5 0.0000 0.0000 0.0000 0.0000 34.7109 0.0000
# 6 0.0000 0.0000 0.0000 0.0000 0.0000 28.0060
#
#
#
# Elastic Compliance Matrix: (Units=1/GPa)
#
#
# Indices 1 2 3 4 5 6 
#
# 1 0.011633 -0.001954 -0.003276 0.000000 0.000000 0.000000
# 2 -0.001954 0.008843 -0.003199 0.000000 0.000000 0.000000
# 3 -0.003276 -0.003199 0.018480 0.000000 0.000000 0.000000
# 4 0.000000 0.000000 0.000000 0.062459 0.000000 0.000000
# 5 0.000000 0.000000 0.000000 0.000000 0.028809 0.000000
# 6 0.000000 0.000000 0.000000 0.000000 0.000000 0.035707
#
#
# Mechanical properties :
#
#
# Convention : Reuss Voigt Hill
#
# Bulk Modulus (GPa) = 45.25174 49.87996 47.56585
# Shear Modulus (GPa) = 26.29446 29.75362 28.02404
#
# Velocity S-wave (km/s) = 3.56745 3.79486 3.68291
# Velocity P-wave (km/s) = 6.23466 6.58357 6.41149
#
# Compressibility (1/GPa) = 0.02209860
#
# Stress axis : x y z
#
# Youngs Moduli (GPa) = 85.96110 113.08761 54.11279
#
# Poissons Ratio (x) = 0.22093 0.17728
# Poissons Ratio (y) = 0.16794 0.17310
# Poissons Ratio (z) = 0.28162 0.36175
#
# Static dielectric constant tensor:
#      x y z
#    x 3.909140 0.000000 0.000000 
#    y 0.000000 3.940810 0.000000 
#    z 0.000000 0.000000 3.461070 
# 
# 
# High freq. dielectric constant tensor:
#      x y z
#    x 1.815610 0.000000 0.000000 
#    y 0.000000 1.823100 0.000000 
#    z 0.000000 0.000000 1.784290 
# 
# From -- ./inp_files/7664.got.cif
#   From: 2010.03.12/outbox.cif.g09.slc.cpg/sg35_4_cif.got.tgz:7664.got - 2010.04.14 02:02:04.
