data_PCOD8173803
_publ_section_title
;
Structure prediction by ZEFSAII (Michael W. Deem and Ramdas Pophale) SiO2 
 PCOD8173803
Probable space group: C M M 2
;
_chemical_formula_sum "Si O2"
_cell_formula_units_Z 48
_cell_length_a 18.629104
_cell_length_b 8.834181
_cell_length_c 15.062588
_cell_angle_alpha 90.000000
_cell_angle_beta 90.000000
_cell_angle_gamma 90.000000
_cell_volume 2478.893436
_symmetry_space_group_name_H-M "C M M 2"
_symmetry_group_IT_number 35
_symmetry_cell_setting 'orthorhombic'
loop_
_space_group_symop_operation_xyz
x,y,z
-x,-y,z
-x,y,z
x,-y,z
1/2+x,1/2+y,z
1/2-x,1/2-y,z
1/2-x,1/2+y,z
1/2+x,1/2-y,z
loop_
_atom_site_type_symbol
_atom_site_label
_atom_site_fract_x
_atom_site_fract_y
_atom_site_fract_z
Si Si1 0.828317 0.820935 0.203700
Si Si2 0.325292 0.679787 0.896241
Si Si3 0.822353 0.824462 0.694948
Si Si4 0.084318 0.667814 0.556837
Si Si5 0.084214 0.323078 0.044444
Si Si6 0.082920 0.676988 0.355776
O O1 0.750000 0.750000 0.198415
O O2 0.876551 0.758505 0.124777
O O3 0.865615 0.778339 0.296093
O O4 0.821610 0.000000 0.195357
O O5 0.322941 0.500000 0.908985
O O6 0.250000 0.750000 0.929300
O O7 0.340473 0.729703 0.794765
O O8 0.389686 0.750726 0.952419
O O9 0.750000 0.750000 0.658780
O O10 0.885849 0.784709 0.628177
O O11 0.809085 0.000000 0.695189
O O12 0.115015 0.500000 0.576296
O O13 0.104365 0.716262 0.456863
O O14 0.000000 0.666715 0.567506
O O15 0.102642 0.500000 0.046143
O O16 0.000000 0.293530 0.053884
O O17 0.095398 0.500000 0.335466
O O18 0.000000 0.718766 0.337139
#
# Coordination Sequence:
#
# PCOD8173803 Si02
#       6
#     8   8   8   8   8   8
#     4  12  25  40  60  85 114 148 186 229 277 330
#     4  10  21  38  59  83 113 148 188 233 280 330
#     4  10  21  36  56  82 113 150 189 233 281 329
#     4   9  19  36  58  83 113 150 188 229 279 333
#     4  11  24  41  61  85 114 148 184 225 276 333
#     4   9  19  38  61  84 113 148 186 230 280 332
#
# _framework density 19.363478000000001
#
# number of rings (size 3 to 8) (size 9 to 14) (size 15 to 20)
#    0.000    1.833    0.000    5.000    0.000    8.000 
#    0.000    5.000    0.000    0.000    0.000    0.000 
#    0.000    0.000    0.000    0.000    0.000    0.000 
#
# Total GULP energy -297678.721287 kJ/mol
# GULP energy per Si atom -12403.280054 kJ/mol
# Density = 1.931941 g / cm^3
# Si number density = 19.363478 Si / 1000 Ang^3
#
#
#
# Elastic Constant Matrix: (Units=GPa)
#
#
# Indices 1 2 3 4 5 6 
#
# 1 98.0662 60.5692 66.1779 0.0000 0.0000 0.0000
# 2 60.5692 111.6326 55.6542 0.0000 0.0000 0.0000
# 3 66.1779 55.6542 118.4984 0.0000 0.0000 0.0000
# 4 0.0000 0.0000 0.0000 27.1411 0.0000 0.0000
# 5 0.0000 0.0000 0.0000 0.0000 36.9730 0.0000
# 6 0.0000 0.0000 0.0000 0.0000 0.0000 36.0079
#
#
#
# Elastic Compliance Matrix: (Units=1/GPa)
#
#
# Indices 1 2 3 4 5 6 
#
# 1 0.019632 -0.006771 -0.007784 0.000000 0.000000 0.000000
# 2 -0.006771 0.014032 -0.002809 0.000000 0.000000 0.000000
# 3 -0.007784 -0.002809 0.014105 0.000000 0.000000 0.000000
# 4 0.000000 0.000000 0.000000 0.036845 0.000000 0.000000
# 5 0.000000 0.000000 0.000000 0.000000 0.027047 0.000000
# 6 0.000000 0.000000 0.000000 0.000000 0.000000 0.027772
#
#
# Mechanical properties :
#
#
# Convention : Reuss Voigt Hill
#
# Bulk Modulus (GPa) = 76.67710 76.99998 76.83854
# Shear Modulus (GPa) = 28.01003 29.74412 28.87708
#
# Velocity S-wave (km/s) = 3.80747 3.92356 3.86595
# Velocity P-wave (km/s) = 7.68205 7.77030 7.72630
#
# Compressibility (1/GPa) = 0.01304170
#
# Stress axis : x y z
#
# Youngs Moduli (GPa) = 50.93694 71.26431 70.89636
#
# Poissons Ratio (x) = 0.48256 0.55184
# Poissons Ratio (y) = 0.34491 0.19913
# Poissons Ratio (z) = 0.39648 0.20017
#
# Static dielectric constant tensor:
#      x y z
#    x 3.594770 0.000000 0.000000 
#    y 0.000000 3.948190 0.000000 
#    z 0.000000 0.000000 3.726650 
# 
# 
# High freq. dielectric constant tensor:
#      x y z
#    x 1.753040 0.000000 0.000000 
#    y 0.000000 1.759620 0.000000 
#    z 0.000000 0.000000 1.765940 
# 
# From -- ./inp_files/15081.got.cif
#   From: 2010.03.12/outbox.cif.g09.slc.cpg/sg35_8_cif.got.tgz:15081.got - 2010.04.14 02:02:04.
