data_PCOD8173578
_publ_section_title
;
Structure prediction by ZEFSAII (Michael W. Deem and Ramdas Pophale) SiO2 
 PCOD8173578
Probable space group: C M M 2
;
_chemical_formula_sum "Si O2"
_cell_formula_units_Z 48
_cell_length_a 8.864419
_cell_length_b 16.112346
_cell_length_c 16.782455
_cell_angle_alpha 90.000000
_cell_angle_beta 90.000000
_cell_angle_gamma 90.000000
_cell_volume 2396.980753
_symmetry_space_group_name_H-M "C M M 2"
_symmetry_group_IT_number 35
_symmetry_cell_setting 'orthorhombic'
loop_
_space_group_symop_operation_xyz
x,y,z
-x,-y,z
-x,y,z
x,-y,z
1/2+x,1/2+y,z
1/2-x,1/2-y,z
1/2-x,1/2+y,z
1/2+x,1/2-y,z
loop_
_atom_site_type_symbol
_atom_site_label
_atom_site_fract_x
_atom_site_fract_y
_atom_site_fract_z
Si Si1 0.822322 0.334819 0.742020
Si Si2 0.339408 0.408051 0.599822
Si Si3 0.676021 0.835422 0.457282
Si Si4 0.822757 0.336474 0.922212
Si Si5 0.821182 0.339448 0.274641
Si Si6 0.179534 0.000000 0.190983
Si Si7 0.678626 0.000000 0.020603
O O1 0.750000 0.250000 0.712540
O O2 0.761810 0.399633 0.678607
O O3 0.769073 0.355637 0.831953
O O4 0.000000 0.330413 0.737836
O O5 0.500000 0.356267 0.600892
O O6 0.394700 0.500000 0.600167
O O7 0.243872 0.399570 0.519129
O O8 0.500000 0.829190 0.469577
O O9 0.750000 0.750000 0.482203
O O10 0.715746 0.859178 0.366599
O O11 0.750000 0.250000 0.953812
O O12 0.000000 0.322806 0.926520
O O13 0.774510 0.416570 0.973294
O O14 0.750000 0.250000 0.249721
O O15 0.748539 0.415614 0.227053
O O16 0.000000 0.335752 0.257803
O O17 0.221277 0.000000 0.098857
O O18 0.000000 0.000000 0.203265
O O19 0.500000 0.000000 0.039481
#
# Coordination Sequence:
#
# PCOD8173578 Si02
#       7
#     8   8   8   8   8   4   4
#     4  10  20  36  59  83 112 151 196 243 293 350
#     4  11  24  37  51  79 117 156 197 243 293 342
#     4  10  21  38  61  85 113 151 196 243 294 350
#     4   9  20  38  63  90 119 156 199 247 302 359
#     4  10  22  42  67  95 125 162 206 255 309 367
#     4  12  26  42  64  95 128 165 204 247 306 371
#     4  10  22  42  64  89 122 159 198 247 304 365
#
# _framework density 20.025192000000001
#
# number of rings (size 3 to 8) (size 9 to 14) (size 15 to 20)
#    0.000    1.833    0.000    3.250    2.333    5.333 
#    0.000    1.667    0.000    0.000    0.000    0.000 
#    0.000    0.000    0.000    0.000    0.000    0.000 
#
# Total GULP energy -297431.253882 kJ/mol
# GULP energy per Si atom -12392.968912 kJ/mol
# Density = 1.997961 g / cm^3
# Si number density = 20.025192 Si / 1000 Ang^3
#
#
#
# Elastic Constant Matrix: (Units=GPa)
#
#
# Indices 1 2 3 4 5 6 
#
# 1 98.1664 54.6347 51.6899 0.0000 0.0000 0.0000
# 2 54.6347 140.8976 70.7832 0.0000 0.0000 0.0000
# 3 51.6899 70.7832 113.0030 0.0000 0.0000 0.0000
# 4 0.0000 0.0000 0.0000 31.0118 0.0000 0.0000
# 5 0.0000 0.0000 0.0000 0.0000 32.2899 0.0000
# 6 0.0000 0.0000 0.0000 0.0000 0.0000 27.2323
#
#
#
# Elastic Compliance Matrix: (Units=1/GPa)
#
#
# Indices 1 2 3 4 5 6 
#
# 1 0.014411 -0.003322 -0.004511 0.000000 0.000000 0.000000
# 2 -0.003322 0.011122 -0.005447 0.000000 0.000000 0.000000
# 3 -0.004511 -0.005447 0.014325 0.000000 0.000000 0.000000
# 4 0.000000 0.000000 0.000000 0.032246 0.000000 0.000000
# 5 0.000000 0.000000 0.000000 0.000000 0.030969 0.000000
# 6 0.000000 0.000000 0.000000 0.000000 0.000000 0.036721
#
#
# Mechanical properties :
#
#
# Convention : Reuss Voigt Hill
#
# Bulk Modulus (GPa) = 75.20187 78.47585 76.83886
# Shear Modulus (GPa) = 29.27631 29.77073 29.52352
#
# Velocity S-wave (km/s) = 3.82773 3.85991 3.84385
# Velocity P-wave (km/s) = 7.56112 7.69018 7.62592
#
# Compressibility (1/GPa) = 0.01329754
#
# Stress axis : x y z
#
# Youngs Moduli (GPa) = 69.39215 89.91277 69.80879
#
# Poissons Ratio (x) = 0.29866 0.31492
# Poissons Ratio (y) = 0.23050 0.38026
# Poissons Ratio (z) = 0.31304 0.48977
#
# Static dielectric constant tensor:
#      x y z
#    x 3.704420 0.000000 0.000000 
#    y 0.000000 3.630570 0.000000 
#    z 0.000000 0.000000 3.745010 
# 
# 
# High freq. dielectric constant tensor:
#      x y z
#    x 1.795240 0.000000 0.000000 
#    y 0.000000 1.781450 0.000000 
#    z 0.000000 0.000000 1.783060 
# 
# From -- ./inp_files/15193.got.cif
#   From: 2010.03.12/outbox.cif.g09.slc.cpg/sg35_8_cif.got.tgz:15193.got - 2010.04.14 02:02:04.
