data_PCOD8173332
_publ_section_title
;
Structure prediction by ZEFSAII (Michael W. Deem and Ramdas Pophale) SiO2 
 PCOD8173332
Probable space group: C M M 2
;
_chemical_formula_sum "Si O2"
_cell_formula_units_Z 64
_cell_length_a 13.600697
_cell_length_b 21.882906
_cell_length_c 9.807902
_cell_angle_alpha 90.000000
_cell_angle_beta 90.000000
_cell_angle_gamma 90.000000
_cell_volume 2919.055000
_symmetry_space_group_name_H-M "C M M 2"
_symmetry_group_IT_number 35
_symmetry_cell_setting 'orthorhombic'
loop_
_space_group_symop_operation_xyz
x,y,z
-x,-y,z
-x,y,z
x,-y,z
1/2+x,1/2+y,z
1/2-x,1/2-y,z
1/2-x,1/2+y,z
1/2+x,1/2-y,z
loop_
_atom_site_type_symbol
_atom_site_label
_atom_site_fract_x
_atom_site_fract_y
_atom_site_fract_z
Si Si1 0.391990 0.157489 0.654670
Si Si2 0.612393 0.233071 0.899306
Si Si3 0.613309 0.168238 0.170369
Si Si4 0.605521 0.569957 0.304013
Si Si5 0.115956 0.865432 0.834933
Si Si6 0.194907 0.130140 0.541548
Si Si7 0.264958 0.572557 0.063040
Si Si8 0.890859 0.749641 0.422433
O O1 0.500000 0.124205 0.661711
O O2 0.349614 0.177578 0.802981
O O3 0.307841 0.116708 0.584772
O O4 0.402419 0.218812 0.568388
O O5 0.500000 0.239997 0.855407
O O6 0.661496 0.298619 0.871381
O O7 0.627461 0.220223 0.057227
O O8 0.500000 0.148602 0.188958
O O9 0.667003 0.107860 0.112253
O O10 0.651663 0.200495 0.310543
O O11 0.500000 0.602752 0.323525
O O12 0.590209 0.500000 0.271622
O O13 0.668862 0.575423 0.440997
O O14 0.656764 0.598202 0.172009
O O15 0.124791 0.874119 0.672711
O O16 0.000000 0.873962 0.874606
O O17 0.187227 0.912330 0.915749
O O18 0.180770 0.192716 0.451861
O O19 0.242768 0.500000 0.069542
O O20 0.000000 0.771346 0.373282
#
# Coordination Sequence:
#
# PCOD8173332 Si02
#       8
#     8   8   8   8   8   8   8   8
#     4  10  20  35  55  84 125 163 197 244 309 380
#     4   9  19  37  58  87 125 161 196 246 315 379
#     4  10  22  40  63  92 125 161 208 262 313 373
#     4  10  23  43  62  84 119 161 210 268 318 369
#     4  11  23  39  62  93 129 164 205 261 318 383
#     4  12  22  36  63  92 123 166 210 257 318 388
#     4  11  25  43  63  89 123 171 220 259 314 375
#     4  10  20  34  55  89 125 155 198 254 316 379
#
# _framework density 21.924903
#
# number of rings (size 3 to 8) (size 9 to 14) (size 15 to 20)
#    0.000    1.625    1.250    3.375    1.750    3.000 
#    0.000    0.000    0.000    1.125    0.000    0.000 
#    0.000    0.000    0.000    0.000    0.000    0.000 
#
# Total GULP energy -396498.088268 kJ/mol
# GULP energy per Si atom -12390.565258 kJ/mol
# Density = 2.187500 g / cm^3
# Si number density = 21.924903 Si / 1000 Ang^3
#
#
#
# Elastic Constant Matrix: (Units=GPa)
#
#
# Indices 1 2 3 4 5 6 
#
# 1 115.8019 21.1645 28.2659 0.0000 0.0000 0.0000
# 2 21.1645 52.3029 31.5064 0.0000 0.0000 0.0000
# 3 28.2659 31.5064 120.1253 0.0000 0.0000 0.0000
# 4 0.0000 0.0000 0.0000 32.6979 0.0000 0.0000
# 5 0.0000 0.0000 0.0000 0.0000 36.1924 0.0000
# 6 0.0000 0.0000 0.0000 0.0000 0.0000 23.2020
#
#
#
# Elastic Compliance Matrix: (Units=1/GPa)
#
#
# Indices 1 2 3 4 5 6 
#
# 1 0.009537 -0.002978 -0.001463 0.000000 0.000000 0.000000
# 2 -0.002978 0.023637 -0.005499 0.000000 0.000000 0.000000
# 3 -0.001463 -0.005499 0.010111 0.000000 0.000000 0.000000
# 4 0.000000 0.000000 0.000000 0.030583 0.000000 0.000000
# 5 0.000000 0.000000 0.000000 0.000000 0.027630 0.000000
# 6 0.000000 0.000000 0.000000 0.000000 0.000000 0.043100
#
#
# Mechanical properties :
#
#
# Convention : Reuss Voigt Hill
#
# Bulk Modulus (GPa) = 42.72499 50.01152 46.36826
# Shear Modulus (GPa) = 29.02280 32.23802 30.63041
#
# Velocity S-wave (km/s) = 3.64227 3.83872 3.74178
# Velocity P-wave (km/s) = 6.10061 6.51978 6.31367
#
# Compressibility (1/GPa) = 0.02340550
#
# Stress axis : x y z
#
# Youngs Moduli (GPa) = 104.85720 42.30702 98.90116
#
# Poissons Ratio (x) = 0.12598 0.14469
# Poissons Ratio (y) = 0.31224 0.54383
# Poissons Ratio (z) = 0.15341 0.23264
#
# Static dielectric constant tensor:
#      x y z
#    x 4.333630 0.000000 0.000000 
#    y 0.000000 3.452740 0.000000 
#    z 0.000000 0.000000 4.028740 
# 
# 
# High freq. dielectric constant tensor:
#      x y z
#    x 1.878300 0.000000 0.000000 
#    y 0.000000 1.811170 0.000000 
#    z 0.000000 0.000000 1.878680 
# 
# From -- ./inp_files/7884.got.cif
#   From: 2010.03.12/outbox.cif.g09.slc.cpg/sg35_4_cif.got.tgz:7884.got - 2010.04.14 02:02:04.
