data_PCOD8173288
_publ_section_title
;
Structure prediction by ZEFSAII (Michael W. Deem and Ramdas Pophale) SiO2 
 PCOD8173288
Probable space group: C M M 2
;
_chemical_formula_sum "Si O2"
_cell_formula_units_Z 48
_cell_length_a 15.557827
_cell_length_b 8.835890
_cell_length_c 17.097652
_cell_angle_alpha 90.000000
_cell_angle_beta 90.000000
_cell_angle_gamma 90.000000
_cell_volume 2350.367168
_symmetry_space_group_name_H-M "C M M 2"
_symmetry_group_IT_number 35
_symmetry_cell_setting 'orthorhombic'
loop_
_space_group_symop_operation_xyz
x,y,z
-x,-y,z
-x,y,z
x,-y,z
1/2+x,1/2+y,z
1/2-x,1/2-y,z
1/2-x,1/2+y,z
1/2+x,1/2-y,z
loop_
_atom_site_type_symbol
_atom_site_label
_atom_site_fract_x
_atom_site_fract_y
_atom_site_fract_z
Si Si1 0.097046 0.329088 0.527720
Si Si2 0.663400 0.320971 0.378798
Si Si3 0.500000 0.822599 0.114354
Si Si4 0.157951 0.823794 0.848472
Si Si5 0.000000 0.820798 0.282608
Si Si6 0.656943 0.323443 0.677227
Si Si7 0.155721 0.678716 0.003116
O O1 0.132813 0.500000 0.531716
O O2 0.154684 0.233477 0.468201
O O3 0.097088 0.254991 0.613402
O O4 0.000000 0.326649 0.496740
O O5 0.669636 0.500000 0.377207
O O6 0.750000 0.250000 0.342664
O O7 0.584472 0.259540 0.326892
O O8 0.500000 0.734538 0.194735
O O9 0.500000 0.000000 0.130706
O O10 0.412920 0.775219 0.069161
O O11 0.250000 0.750000 0.840377
O O12 0.113366 0.799736 0.763531
O O13 0.113392 0.740116 0.921762
O O14 0.165710 0.000000 0.868994
O O15 0.000000 0.000000 0.283915
O O16 0.665663 0.500000 0.658619
O O17 0.750000 0.250000 0.672192
O O18 0.166926 0.500000 0.997538
O O19 0.250000 0.750000 0.020398
#
# Coordination Sequence:
#
# PCOD8173288 Si02
#       7
#     8   8   4   8   4   8   8
#     4  11  23  38  57  83 116 157 202 247 297 349
#     4  11  23  42  66  93 122 157 198 242 296 355
#     4  10  24  42  62  89 122 157 192 237 296 357
#     4   9  17  31  53  81 111 151 196 243 293 343
#     4  10  24  44  66  91 122 155 192 241 294 353
#     4  10  20  34  54  80 114 153 198 247 296 347
#     4  10  20  37  60  87 119 157 198 242 294 350
#
# _framework density 20.422339000000001
#
# number of rings (size 3 to 8) (size 9 to 14) (size 15 to 20)
#    0.000    1.833    0.833    4.000    0.000    6.333 
#    1.500    3.333    0.000    0.000    0.000    0.000 
#    0.000    0.000    0.000    0.000    0.000    0.000 
#
# Total GULP energy -297516.026537 kJ/mol
# GULP energy per Si atom -12396.501106 kJ/mol
# Density = 2.037586 g / cm^3
# Si number density = 20.422339 Si / 1000 Ang^3
#
#
#
# Elastic Constant Matrix: (Units=GPa)
#
#
# Indices 1 2 3 4 5 6 
#
# 1 111.7264 42.5979 56.5420 0.0000 0.0000 0.0000
# 2 42.5979 104.1526 46.8660 0.0000 0.0000 0.0000
# 3 56.5420 46.8660 136.3771 0.0000 0.0000 0.0000
# 4 0.0000 0.0000 0.0000 37.4631 0.0000 0.0000
# 5 0.0000 0.0000 0.0000 0.0000 30.2908 0.0000
# 6 0.0000 0.0000 0.0000 0.0000 0.0000 27.9873
#
#
#
# Elastic Compliance Matrix: (Units=1/GPa)
#
#
# Indices 1 2 3 4 5 6 
#
# 1 0.012167 -0.003201 -0.003944 0.000000 0.000000 0.000000
# 2 -0.003201 0.012200 -0.002865 0.000000 0.000000 0.000000
# 3 -0.003944 -0.002865 0.009953 0.000000 0.000000 0.000000
# 4 0.000000 0.000000 0.000000 0.026693 0.000000 0.000000
# 5 0.000000 0.000000 0.000000 0.000000 0.033013 0.000000
# 6 0.000000 0.000000 0.000000 0.000000 0.000000 0.035731
#
#
# Mechanical properties :
#
#
# Convention : Reuss Voigt Hill
#
# Bulk Modulus (GPa) = 69.94125 71.58530 70.76328
# Shear Modulus (GPa) = 32.35318 32.89826 32.62572
#
# Velocity S-wave (km/s) = 3.98453 4.01795 4.00127
# Velocity P-wave (km/s) = 7.44919 7.52687 7.48813
#
# Compressibility (1/GPa) = 0.01429771
#
# Stress axis : x y z
#
# Youngs Moduli (GPa) = 82.18820 81.96766 100.47673
#
# Poissons Ratio (x) = 0.26242 0.39631
# Poissons Ratio (y) = 0.26312 0.28788
# Poissons Ratio (z) = 0.32418 0.23485
#
# Static dielectric constant tensor:
#      x y z
#    x 3.607010 0.000000 0.000000 
#    y 0.000000 3.772240 0.000000 
#    z 0.000000 0.000000 4.033010 
# 
# 
# High freq. dielectric constant tensor:
#      x y z
#    x 1.785720 0.000000 0.000000 
#    y 0.000000 1.807120 0.000000 
#    z 0.000000 0.000000 1.802770 
# 
# From -- ./inp_files/15240.got.cif
#   From: 2010.03.12/outbox.cif.g09.slc.cpg/sg35_8_cif.got.tgz:15240.got - 2010.04.14 02:02:04.
