data_PCOD8173240
_publ_section_title
;
Structure prediction by ZEFSAII (Michael W. Deem and Ramdas Pophale) SiO2 
 PCOD8173240
Probable space group: C M M 2
;
_chemical_formula_sum "Si O2"
_cell_formula_units_Z 64
_cell_length_a 35.283672
_cell_length_b 9.212979
_cell_length_c 10.259812
_cell_angle_alpha 90.000000
_cell_angle_beta 90.000000
_cell_angle_gamma 90.000000
_cell_volume 3335.133789
_symmetry_space_group_name_H-M "C M M 2"
_symmetry_group_IT_number 35
_symmetry_cell_setting 'orthorhombic'
loop_
_space_group_symop_operation_xyz
x,y,z
-x,-y,z
-x,y,z
x,-y,z
1/2+x,1/2+y,z
1/2-x,1/2-y,z
1/2-x,1/2+y,z
1/2+x,1/2-y,z
loop_
_atom_site_type_symbol
_atom_site_label
_atom_site_fract_x
_atom_site_fract_y
_atom_site_fract_z
Si Si1 0.420065 0.828440 0.020050
Si Si2 0.044089 0.668425 0.747220
Si Si3 0.585115 0.672008 0.515664
Si Si4 0.170773 0.827592 0.527734
Si Si5 0.543699 0.666450 0.253951
Si Si6 0.789178 0.829342 0.789565
Si Si7 0.711743 0.331677 0.270844
Si Si8 0.842068 0.167167 0.029034
O O1 0.447501 0.763668 0.129291
O O2 0.378082 0.769067 0.037568
O O3 0.419970 0.000000 0.036240
O O4 0.435469 0.780916 0.879322
O O5 0.051612 0.500000 0.719027
O O6 0.060159 0.759632 0.628498
O O7 0.000000 0.702557 0.762904
O O8 0.583262 0.500000 0.532740
O O9 0.627946 0.732453 0.525888
O O10 0.568682 0.719654 0.376003
O O11 0.192170 0.771795 0.656222
O O12 0.193848 0.768004 0.403676
O O13 0.169017 0.000000 0.523150
O O14 0.500000 0.685128 0.292830
O O15 0.553449 0.500000 0.219713
O O16 0.750000 0.750000 0.815554
O O17 0.781228 0.000000 0.784894
O O18 0.817637 0.787576 0.904428
O O19 0.721674 0.500000 0.285744
O O20 0.750000 0.250000 0.235177
O O21 0.681921 0.304120 0.157596
O O22 0.855111 0.000000 0.019587
#
# Coordination Sequence:
#
# PCOD8173240 Si02
#       8
#     8   8   8   8   8   8   8   8
#     4  11  23  38  58  83 112 149 190 231 278 332
#     4  10  22  39  56  79 114 149 181 225 281 333
#     4  10  20  37  61  85 110 144 188 231 272 326
#     4   9  18  33  53  77 106 139 173 215 268 320
#     4  10  21  37  58  85 115 147 186 232 280 331
#     4  10  20  34  53  77 105 139 177 218 268 323
#     4  10  20  35  55  78 106 140 176 218 269 322
#     4  10  21  37  56  78 107 142 179 224 277 327
#
# _framework density 19.189634999999999
#
# number of rings (size 3 to 8) (size 9 to 14) (size 15 to 20)
#    0.000    2.000    0.000    3.375    0.000    7.000 
#    0.000    1.250    0.000    0.000    0.000    0.000 
#    0.000    0.000    0.000    0.000    0.000    0.000 
#
# Total GULP energy -396953.815980 kJ/mol
# GULP energy per Si atom -12404.806749 kJ/mol
# Density = 1.914596 g / cm^3
# Si number density = 19.189635 Si / 1000 Ang^3
#
#
#
# Elastic Constant Matrix: (Units=GPa)
#
#
# Indices 1 2 3 4 5 6 
#
# 1 87.3533 30.4768 20.2999 0.0000 0.0000 0.0000
# 2 30.4768 45.5128 34.3328 0.0000 0.0000 0.0000
# 3 20.2999 34.3328 114.4494 0.0000 0.0000 0.0000
# 4 0.0000 0.0000 0.0000 -7.0543 0.0000 0.0000
# 5 0.0000 0.0000 0.0000 0.0000 33.1057 0.0000
# 6 0.0000 0.0000 0.0000 0.0000 0.0000 26.2334
#
#
#
# Elastic Compliance Matrix: (Units=1/GPa)
#
#
# Indices 1 2 3 4 5 6 
#
# 1 0.014956 -0.010358 0.000454 0.000000 0.000000 0.000000
# 2 -0.010358 0.035571 -0.008834 0.000000 0.000000 0.000000
# 3 0.000454 -0.008834 0.011307 0.000000 0.000000 0.000000
# 4 0.000000 0.000000 0.000000 -0.141757 0.000000 0.000000
# 5 0.000000 0.000000 0.000000 0.000000 0.030206 0.000000
# 6 0.000000 0.000000 0.000000 0.000000 0.000000 0.038119
#
#
# Mechanical properties :
#
#
# Convention : Reuss Voigt Hill
#
# Bulk Modulus (GPa) = 41.05057 46.39272 43.72165
# Shear Modulus (GPa) = 147.07338 21.27069 84.17203
#
# Velocity S-wave (km/s) = 8.76404 3.33295 6.63012
# Velocity P-wave (km/s) = 11.12878 6.24818 9.02468
#
# Compressibility (1/GPa) = 0.02436020
#
# Stress axis : x y z
#
# Youngs Moduli (GPa) = 66.86343 28.11256 88.44221
#
# Poissons Ratio (x) = 0.29118 -0.04019
# Poissons Ratio (y) = 0.69255 0.78126
# Poissons Ratio (z) = -0.03038 0.24834
#
# Static dielectric constant tensor:
#      x y z
#    x 3.586150 0.000000 0.000000 
#    y 0.000000 3.289940 0.000000 
#    z 0.000000 0.000000 3.713430 
# 
# 
# High freq. dielectric constant tensor:
#      x y z
#    x 1.762250 0.000000 0.000000 
#    y 0.000000 1.723520 0.000000 
#    z 0.000000 0.000000 1.765350 
# 
# From -- ./inp_files/14598.got.cif
#   From: 2010.03.12/outbox.cif.g09.slc.cpg/sg35_8_cif.got.tgz:14598.got - 2010.04.14 02:02:04.
