data_PCOD8173884
_publ_section_title
;
Structure prediction by ZEFSAII (Michael W. Deem and Ramdas Pophale) SiO2 
 PCOD8173884
Probable space group: C M M 2
;
_chemical_formula_sum "Si O2"
_cell_formula_units_Z 64
_cell_length_a 14.149514
_cell_length_b 23.883190
_cell_length_c 9.034623
_cell_angle_alpha 90.000000
_cell_angle_beta 90.000000
_cell_angle_gamma 90.000000
_cell_volume 3053.120123
_symmetry_space_group_name_H-M "C M M 2"
_symmetry_group_IT_number 35
_symmetry_cell_setting 'orthorhombic'
loop_
_space_group_symop_operation_xyz
x,y,z
-x,-y,z
-x,y,z
x,-y,z
1/2+x,1/2+y,z
1/2-x,1/2-y,z
1/2-x,1/2+y,z
1/2+x,1/2-y,z
loop_
_atom_site_type_symbol
_atom_site_label
_atom_site_fract_x
_atom_site_fract_y
_atom_site_fract_z
Si Si1 0.858296 0.263091 0.814050
Si Si2 0.360902 0.756805 0.484920
Si Si3 0.271959 0.065911 0.466293
Si Si4 0.807642 0.629336 0.966620
Si Si5 0.894947 0.564595 0.735804
Si Si6 0.106814 0.363257 0.276934
Si Si7 0.103120 0.141858 0.343233
Si Si8 0.896445 0.841852 0.000555
O O1 0.750000 0.250000 0.799522
O O2 0.903816 0.262877 0.650392
O O3 0.867751 0.325248 0.875240
O O4 0.905256 0.220252 0.930919
O O5 0.250000 0.750000 0.485984
O O6 0.387116 0.809847 0.384175
O O7 0.406403 0.700678 0.424353
O O8 0.313341 0.087458 0.624065
O O9 0.356908 0.080008 0.354245
O O10 0.179347 0.101311 0.420522
O O11 0.247316 0.000000 0.461521
O O12 0.824698 0.643480 0.136976
O O13 0.694608 0.627249 0.929465
O O14 0.854909 0.572768 0.903374
O O15 0.905521 0.500000 0.702958
O O16 0.000000 0.591520 0.712589
O O17 0.000000 0.372664 0.224423
O O18 0.126385 0.157947 0.174467
O O19 0.000000 0.112163 0.354133
O O20 0.000000 0.870864 0.970882
#
# Coordination Sequence:
#
# PCOD8173884 Si02
#       8
#     8   8   8   8   8   8   8   8
#     4   9  21  34  57  89 126 166 203 245 298 369
#     4  11  20  38  62  93 132 168 208 256 313 378
#     4  11  24  44  66  90 122 164 212 269 323 376
#     4  11  21  40  61  90 127 166 205 252 312 376
#     4  10  23  43  66  90 121 162 208 261 321 380
#     4  12  24  38  62  95 127 162 207 264 321 382
#     4  11  23  41  65  94 128 170 211 260 318 377
#     4  10  21  38  59  88 126 167 207 248 305 369
#
# _framework density 20.962161999999999
#
# number of rings (size 3 to 8) (size 9 to 14) (size 15 to 20)
#    0.000    1.375    2.500    2.625    3.500    5.500 
#    0.000    0.000    0.000    1.125    0.000    0.000 
#    0.000    0.000    0.000    0.000    0.000    0.000 
#
# Total GULP energy -396435.372511 kJ/mol
# GULP energy per Si atom -12388.605391 kJ/mol
# Density = 2.091445 g / cm^3
# Si number density = 20.962162 Si / 1000 Ang^3
#
#
#
# Elastic Constant Matrix: (Units=GPa)
#
#
# Indices 1 2 3 4 5 6 
#
# 1 157.7003 29.5435 46.4458 0.0000 0.0000 0.0000
# 2 29.5435 58.0234 43.2217 0.0000 0.0000 0.0000
# 3 46.4458 43.2217 127.2845 0.0000 0.0000 0.0000
# 4 0.0000 0.0000 0.0000 29.0843 0.0000 0.0000
# 5 0.0000 0.0000 0.0000 0.0000 -9.4156 0.0000
# 6 0.0000 0.0000 0.0000 0.0000 0.0000 18.5674
#
#
#
# Elastic Compliance Matrix: (Units=1/GPa)
#
#
# Indices 1 2 3 4 5 6 
#
# 1 0.007333 -0.002330 -0.001885 0.000000 0.000000 0.000000
# 2 -0.002330 0.023810 -0.007235 0.000000 0.000000 0.000000
# 3 -0.001885 -0.007235 0.011001 0.000000 0.000000 0.000000
# 4 0.000000 0.000000 0.000000 0.034383 0.000000 0.000000
# 5 0.000000 0.000000 0.000000 0.000000 -0.106206 0.000000
# 6 0.000000 0.000000 0.000000 0.000000 0.000000 0.053858
#
#
# Mechanical properties :
#
#
# Convention : Reuss Voigt Hill
#
# Bulk Modulus (GPa) = 51.96167 64.60334 58.28251
# Shear Modulus (GPa) = 93.47357 22.56705 58.02031
#
# Velocity S-wave (km/s) = 6.68494 3.28466 5.26675
# Velocity P-wave (km/s) = 9.18840 6.72839 8.05288
#
# Compressibility (1/GPa) = 0.01924495
#
# Stress axis : x y z
#
# Youngs Moduli (GPa) = 136.37679 41.99914 90.90194
#
# Poissons Ratio (x) = 0.09785 0.17131
# Poissons Ratio (y) = 0.31772 0.65768
# Poissons Ratio (z) = 0.25701 0.30386
#
# Static dielectric constant tensor:
#      x y z
#    x 5.726270 0.000000 0.000000 
#    y 0.000000 3.560700 0.000000 
#    z 0.000000 0.000000 4.031650 
# 
# 
# High freq. dielectric constant tensor:
#      x y z
#    x 1.843190 0.000000 0.000000 
#    y 0.000000 1.789420 0.000000 
#    z 0.000000 0.000000 1.829460 
# 
# From -- ./inp_files/7887.got.cif
#   From: 2010.03.12/outbox.cif.g09.slc.cpg/sg35_4_cif.got.tgz:7887.got - 2010.04.14 02:02:04.
