data_PCOD8173834
_publ_section_title
;
Structure prediction by ZEFSAII (Michael W. Deem and Ramdas Pophale) SiO2 
 PCOD8173834
Probable space group: C M M 2
;
_chemical_formula_sum "Si O2"
_cell_formula_units_Z 56
_cell_length_a 15.301673
_cell_length_b 26.340991
_cell_length_c 6.649915
_cell_angle_alpha 90.000000
_cell_angle_beta 90.000000
_cell_angle_gamma 90.000000
_cell_volume 2680.322924
_symmetry_space_group_name_H-M "C M M 2"
_symmetry_group_IT_number 35
_symmetry_cell_setting 'orthorhombic'
loop_
_space_group_symop_operation_xyz
x,y,z
-x,-y,z
-x,y,z
x,-y,z
1/2+x,1/2+y,z
1/2-x,1/2-y,z
1/2-x,1/2+y,z
1/2+x,1/2-y,z
loop_
_atom_site_type_symbol
_atom_site_label
_atom_site_fract_x
_atom_site_fract_y
_atom_site_fract_z
Si Si1 0.401630 0.283264 0.164590
Si Si2 0.399016 0.364822 0.856975
Si Si3 0.802602 0.202122 0.553125
Si Si4 0.243754 0.058095 0.971039
Si Si5 0.401817 0.180765 0.000845
Si Si6 0.695905 0.119093 0.332396
Si Si7 0.398965 0.903951 0.710355
O O1 0.500000 0.277487 0.239378
O O2 0.343283 0.272461 0.356312
O O3 0.380997 0.240728 0.993186
O O4 0.386005 0.339253 0.075992
O O5 0.500000 0.381918 0.823079
O O6 0.376053 0.320019 0.701200
O O7 0.333190 0.412316 0.850675
O O8 0.750000 0.250000 0.652211
O O9 0.751114 0.151379 0.491153
O O10 0.335674 0.062117 0.850694
O O11 0.214465 0.000000 0.977952
O O12 0.251911 0.076891 0.202885
O O13 0.500000 0.169904 0.069983
O O14 0.342305 0.157092 0.170814
O O15 0.384503 0.154834 0.784091
O O16 0.624029 0.091178 0.474014
O O17 0.500000 0.921087 0.741493
#
# Coordination Sequence:
#
# PCOD8173834 Si02
#       7
#     8   8   8   8   8   8   8
#     4  10  21  37  57  87 128 172 214 257 314 383
#     4  11  25  44  65  93 131 172 222 278 329 387
#     4  12  23  36  63  98 131 171 211 259 324 400
#     4  11  25  45  69  93 122 168 228 286 342 393
#     4   9  19  34  56  89 130 174 211 244 299 383
#     4  11  21  38  61  93 128 168 210 266 321 390
#     4  10  22  41  64  95 134 170 210 265 328 399
#
# _framework density 20.893006
#
# number of rings (size 3 to 8) (size 9 to 14) (size 15 to 20)
#    0.000    1.429    4.286    0.857    2.000    2.286 
#    0.000    0.000    0.000    0.000    0.000    0.000 
#    0.000    0.000    0.000    0.000    0.000    0.000 
#
# Total GULP energy -347012.644983 kJ/mol
# GULP energy per Si atom -12393.308749 kJ/mol
# Density = 2.084545 g / cm^3
# Si number density = 20.893006 Si / 1000 Ang^3
#
#
#
# Elastic Constant Matrix: (Units=GPa)
#
#
# Indices 1 2 3 4 5 6 
#
# 1 108.2332 47.9815 38.9857 0.0000 0.0000 0.0000
# 2 47.9815 114.6221 20.9654 0.0000 0.0000 0.0000
# 3 38.9857 20.9654 73.7280 0.0000 0.0000 0.0000
# 4 0.0000 0.0000 0.0000 20.4228 0.0000 0.0000
# 5 0.0000 0.0000 0.0000 0.0000 33.2890 0.0000
# 6 0.0000 0.0000 0.0000 0.0000 0.0000 20.2476
#
#
#
# Elastic Compliance Matrix: (Units=1/GPa)
#
#
# Indices 1 2 3 4 5 6 
#
# 1 0.013317 -0.004522 -0.005756 0.000000 0.000000 0.000000
# 2 -0.004522 0.010738 -0.000663 0.000000 0.000000 0.000000
# 3 -0.005756 -0.000663 0.016795 0.000000 0.000000 0.000000
# 4 0.000000 0.000000 0.000000 0.048965 0.000000 0.000000
# 5 0.000000 0.000000 0.000000 0.000000 0.030040 0.000000
# 6 0.000000 0.000000 0.000000 0.000000 0.000000 0.049389
#
#
# Mechanical properties :
#
#
# Convention : Reuss Voigt Hill
#
# Bulk Modulus (GPa) = 52.71412 56.93871 54.82642
# Shear Modulus (GPa) = 25.32303 27.36859 26.34581
#
# Velocity S-wave (km/s) = 3.48520 3.62324 3.55489
# Velocity P-wave (km/s) = 6.44056 6.69444 6.56872
#
# Compressibility (1/GPa) = 0.01897025
#
# Stress axis : x y z
#
# Youngs Moduli (GPa) = 75.09067 93.12391 59.54010
#
# Poissons Ratio (x) = 0.42109 0.34271
# Poissons Ratio (y) = 0.33955 0.03945
# Poissons Ratio (z) = 0.43222 0.06170
#
# Static dielectric constant tensor:
#      x y z
#    x 3.929310 0.000000 0.000000 
#    y 0.000000 3.597420 0.000000 
#    z 0.000000 0.000000 3.735070 
# 
# 
# High freq. dielectric constant tensor:
#      x y z
#    x 1.822630 0.000000 0.000000 
#    y 0.000000 1.793240 0.000000 
#    z 0.000000 0.000000 1.816060 
# 
# From -- ./inp_files/2062.got.cif
#   From: 2010.03.12/outbox.cif.g09.slc.cpg/sg35_2_cif.got.tgz:2062.got - 2010.04.14 02:02:04.
