data_PCOD8173426
_publ_section_title
;
Structure prediction by ZEFSAII (Michael W. Deem and Ramdas Pophale) SiO2 
 PCOD8173426
Probable space group: C M M 2
;
_chemical_formula_sum "Si O2"
_cell_formula_units_Z 56
_cell_length_a 19.265124
_cell_length_b 8.815433
_cell_length_c 17.587101
_cell_angle_alpha 90.000000
_cell_angle_beta 90.000000
_cell_angle_gamma 90.000000
_cell_volume 2986.824571
_symmetry_space_group_name_H-M "C M M 2"
_symmetry_group_IT_number 35
_symmetry_cell_setting 'orthorhombic'
loop_
_space_group_symop_operation_xyz
x,y,z
-x,-y,z
-x,y,z
x,-y,z
1/2+x,1/2+y,z
1/2-x,1/2-y,z
1/2-x,1/2+y,z
1/2+x,1/2-y,z
loop_
_atom_site_type_symbol
_atom_site_label
_atom_site_fract_x
_atom_site_fract_y
_atom_site_fract_z
Si Si1 0.079602 0.176046 0.986010
Si Si2 0.176417 0.679966 0.283833
Si Si3 0.580502 0.677411 0.407067
Si Si4 0.179330 0.822786 0.541181
Si Si5 0.918494 0.674266 0.831942
Si Si6 0.322388 0.679782 0.123274
Si Si7 0.821534 0.178747 0.712638
O O1 0.108347 0.268348 0.913770
O O2 0.000000 0.216889 0.002627
O O3 0.089727 0.000000 0.967214
O O4 0.121288 0.224675 0.060560
O O5 0.184096 0.500000 0.279381
O O6 0.250000 0.750000 0.310194
O O7 0.116115 0.724601 0.341709
O O8 0.154177 0.745542 0.202252
O O9 0.500000 0.721866 0.411628
O O10 0.590667 0.500000 0.388947
O O11 0.615001 0.721782 0.487604
O O12 0.250000 0.750000 0.509038
O O13 0.163218 0.764912 0.626531
O O14 0.192250 0.000000 0.541279
O O15 0.897829 0.500000 0.823045
O O16 0.884438 0.768401 0.764565
O O17 0.000000 0.702646 0.825424
O O18 0.315305 0.500000 0.134249
O O19 0.250000 0.750000 0.095766
O O20 0.750000 0.250000 0.742958
O O21 0.814934 0.000000 0.717121
#
# Coordination Sequence:
#
# PCOD8173426 Si02
#       7
#     8   8   8   8   8   8   8
#     4   9  19  36  56  77 103 139 181 220 262 315
#     4  11  22  37  57  80 108 142 181 221 265 318
#     4  10  21  37  56  80 111 143 177 219 266 316
#     4   9  19  35  56  80 105 139 179 219 266 318
#     4  10  21  36  54  78 109 144 181 221 267 318
#     4  10  20  35  56  81 107 137 175 219 267 316
#     4  10  20  35  56  81 109 140 178 223 268 317
#
# _framework density 18.749009000000001
#
# number of rings (size 3 to 8) (size 9 to 14) (size 15 to 20)
#    0.000    2.143    0.000    3.857    0.000    6.286 
#    0.000    4.286    0.000    0.000    0.000    0.000 
#    0.000    0.000    0.000    0.000    0.000    0.000 
#
# Total GULP energy -347289.821471 kJ/mol
# GULP energy per Si atom -12403.207910 kJ/mol
# Density = 1.870634 g / cm^3
# Si number density = 18.749009 Si / 1000 Ang^3
#
#
#
# Elastic Constant Matrix: (Units=GPa)
#
#
# Indices 1 2 3 4 5 6 
#
# 1 105.6756 48.1138 77.9260 0.0000 0.0000 0.0000
# 2 48.1138 88.0696 54.3429 0.0000 0.0000 0.0000
# 3 77.9260 54.3429 121.8222 0.0000 0.0000 0.0000
# 4 0.0000 0.0000 0.0000 26.6445 0.0000 0.0000
# 5 0.0000 0.0000 0.0000 0.0000 34.5797 0.0000
# 6 0.0000 0.0000 0.0000 0.0000 0.0000 31.0748
#
#
#
# Elastic Compliance Matrix: (Units=1/GPa)
#
#
# Indices 1 2 3 4 5 6 
#
# 1 0.018855 -0.003944 -0.010302 0.000000 0.000000 0.000000
# 2 -0.003944 0.016492 -0.004834 0.000000 0.000000 0.000000
# 3 -0.010302 -0.004834 0.016955 0.000000 0.000000 0.000000
# 4 0.000000 0.000000 0.000000 0.037531 0.000000 0.000000
# 5 0.000000 0.000000 0.000000 0.000000 0.028919 0.000000
# 6 0.000000 0.000000 0.000000 0.000000 0.000000 0.032180
#
#
# Mechanical properties :
#
#
# Convention : Reuss Voigt Hill
#
# Bulk Modulus (GPa) = 70.70902 75.14811 72.92856
# Shear Modulus (GPa) = 25.79895 27.47209 26.63552
#
# Velocity S-wave (km/s) = 3.71349 3.83202 3.77322
# Velocity P-wave (km/s) = 7.49547 7.72964 7.61345
#
# Compressibility (1/GPa) = 0.01414247
#
# Stress axis : x y z
#
# Youngs Moduli (GPa) = 53.03551 60.63474 58.98095
#
# Poissons Ratio (x) = 0.23917 0.60760
# Poissons Ratio (y) = 0.20919 0.28510
# Poissons Ratio (z) = 0.54635 0.29310
#
# Static dielectric constant tensor:
#      x y z
#    x 3.434030 0.000000 0.000000 
#    y 0.000000 3.465140 0.000000 
#    z 0.000000 0.000000 3.592700 
# 
# 
# High freq. dielectric constant tensor:
#      x y z
#    x 1.723320 0.000000 0.000000 
#    y 0.000000 1.732640 0.000000 
#    z 0.000000 0.000000 1.736680 
# 
# From -- ./inp_files/15627.got.cif
#   From: 2010.03.12/outbox.cif.g09.slc.cpg/sg35_8_cif.got.tgz:15627.got - 2010.04.14 02:02:04.
