data_PCOD8173293
_publ_section_title
;
Structure prediction by ZEFSAII (Michael W. Deem and Ramdas Pophale) SiO2 
 PCOD8173293
Probable space group: C M M 2
;
_chemical_formula_sum "Si O2"
_cell_formula_units_Z 64
_cell_length_a 8.738840
_cell_length_b 19.056419
_cell_length_c 20.274639
_cell_angle_alpha 90.000000
_cell_angle_beta 90.000000
_cell_angle_gamma 90.000000
_cell_volume 3376.355839
_symmetry_space_group_name_H-M "C M M 2"
_symmetry_group_IT_number 35
_symmetry_cell_setting 'orthorhombic'
loop_
_space_group_symop_operation_xyz
x,y,z
-x,-y,z
-x,y,z
x,-y,z
1/2+x,1/2+y,z
1/2-x,1/2-y,z
1/2-x,1/2+y,z
1/2+x,1/2-y,z
loop_
_atom_site_type_symbol
_atom_site_label
_atom_site_fract_x
_atom_site_fract_y
_atom_site_fract_z
Si Si1 0.820225 0.824212 0.186650
Si Si2 0.177798 0.081401 0.063780
Si Si3 0.826342 0.417149 0.709149
Si Si4 0.820642 0.675953 0.324492
Si Si5 0.180495 0.676000 0.955592
Si Si6 0.822529 0.918042 0.432334
Si Si7 0.320094 0.676699 0.815495
Si Si8 0.669544 0.416708 0.578464
O O1 0.750000 0.750000 0.164248
O O2 0.779015 0.882486 0.132722
O O3 0.750319 0.850298 0.255587
O O4 0.000000 0.814367 0.195379
O O5 0.000000 0.092651 0.046789
O O6 0.220447 0.000000 0.069578
O O7 0.278276 0.114878 0.006190
O O8 0.802882 0.500000 0.714572
O O9 0.714900 0.382670 0.762162
O O10 0.783618 0.390346 0.635592
O O11 0.000000 0.394853 0.723679
O O12 0.750000 0.750000 0.345774
O O13 0.785739 0.620149 0.380797
O O14 0.000000 0.684730 0.315282
O O15 0.250000 0.750000 0.979887
O O16 0.246673 0.654213 0.884774
O O17 0.000000 0.684372 0.950202
O O18 0.776860 0.891313 0.505953
O O19 0.000000 0.900915 0.418275
O O20 0.790487 0.000000 0.424907
O O21 0.500000 0.684973 0.824946
O O22 0.250000 0.750000 0.790604
O O23 0.500000 0.387236 0.594021
O O24 0.662808 0.500000 0.576788
#
# Coordination Sequence:
#
# PCOD8173293 Si02
#       8
#     8   8   8   8   8   8   8   8
#     4  10  20  36  58  80 105 142 184 223 266 320
#     4  10  22  39  58  83 114 145 178 219 267 316
#     4  10  20  34  54  81 112 144 180 223 269 319
#     4  11  22  36  55  79 109 143 181 225 270 320
#     4  11  22  38  60  83 109 143 182 221 265 320
#     4   9  18  34  56  80 108 142 179 221 270 324
#     4  11  22  38  59  81 109 143 181 225 270 320
#     4   8  15  30  52  77 105 140 181 221 265 320
#
# _framework density 18.955348000000001
#
# number of rings (size 3 to 8) (size 9 to 14) (size 15 to 20)
#    0.000    2.000    0.000    6.750    0.000    4.750 
#    0.000    3.125    0.000    3.000    0.000    0.000 
#    0.000    0.000    0.000    0.000    0.000    0.000 
#
# Total GULP energy -396859.571391 kJ/mol
# GULP energy per Si atom -12401.861606 kJ/mol
# Density = 1.891221 g / cm^3
# Si number density = 18.955348 Si / 1000 Ang^3
#
#
#
# Elastic Constant Matrix: (Units=GPa)
#
#
# Indices 1 2 3 4 5 6 
#
# 1 128.2980 47.3922 62.9446 0.0000 0.0000 0.0000
# 2 47.3922 78.5007 66.5465 0.0000 0.0000 0.0000
# 3 62.9446 66.5465 128.5445 0.0000 0.0000 0.0000
# 4 0.0000 0.0000 0.0000 -14.7491 0.0000 0.0000
# 5 0.0000 0.0000 0.0000 0.0000 31.7834 0.0000
# 6 0.0000 0.0000 0.0000 0.0000 0.0000 28.8310
#
#
#
# Elastic Compliance Matrix: (Units=1/GPa)
#
#
# Indices 1 2 3 4 5 6 
#
# 1 0.010811 -0.003634 -0.003413 0.000000 0.000000 0.000000
# 2 -0.003634 0.023923 -0.010605 0.000000 0.000000 0.000000
# 3 -0.003413 -0.010605 0.014941 0.000000 0.000000 0.000000
# 4 0.000000 0.000000 0.000000 -0.067801 0.000000 0.000000
# 5 0.000000 0.000000 0.000000 0.000000 0.031463 0.000000
# 6 0.000000 0.000000 0.000000 0.000000 0.000000 0.034685
#
#
# Mechanical properties :
#
#
# Convention : Reuss Voigt Hill
#
# Bulk Modulus (GPa) = 69.58416 76.56774 73.07595
# Shear Modulus (GPa) = 56.74365 19.73705 38.24035
#
# Velocity S-wave (km/s) = 5.47726 3.23032 4.49641
# Velocity P-wave (km/s) = 8.76298 7.37528 8.09890
#
# Compressibility (1/GPa) = 0.01437109
#
# Stress axis : x y z
#
# Youngs Moduli (GPa) = 92.49909 41.80106 66.93107
#
# Poissons Ratio (x) = 0.15190 0.22841
# Poissons Ratio (y) = 0.33612 0.70982
# Poissons Ratio (z) = 0.31566 0.44331
#
# Static dielectric constant tensor:
#      x y z
#    x 3.538840 0.000000 0.000000 
#    y 0.000000 3.414970 0.000000 
#    z 0.000000 0.000000 3.623760 
# 
# 
# High freq. dielectric constant tensor:
#      x y z
#    x 1.744080 0.000000 0.000000 
#    y 0.000000 1.716640 0.000000 
#    z 0.000000 0.000000 1.748920 
# 
# From -- ./inp_files/18398.got.cif
#   From: 2010.03.12/outbox.cif.g09.slc.cpg/sg35_10_cif.got.tgz:18398.got - 2010.04.14 02:02:04.
