data_PCOD8173030
_publ_section_title
;
Structure prediction by ZEFSAII (Michael W. Deem and Ramdas Pophale) SiO2 
 PCOD8173030
Probable space group: C M M 2
;
_chemical_formula_sum "Si O2"
_cell_formula_units_Z 56
_cell_length_a 21.478131
_cell_length_b 8.981601
_cell_length_c 14.437627
_cell_angle_alpha 90.000000
_cell_angle_beta 90.000000
_cell_angle_gamma 90.000000
_cell_volume 2785.133791
_symmetry_space_group_name_H-M "C M M 2"
_symmetry_group_IT_number 35
_symmetry_cell_setting 'orthorhombic'
loop_
_space_group_symop_operation_xyz
x,y,z
-x,-y,z
-x,y,z
x,-y,z
1/2+x,1/2+y,z
1/2-x,1/2-y,z
1/2-x,1/2+y,z
1/2+x,1/2-y,z
loop_
_atom_site_type_symbol
_atom_site_label
_atom_site_fract_x
_atom_site_fract_y
_atom_site_fract_z
Si Si1 0.133424 0.831394 0.869520
Si Si2 0.880463 0.675844 0.212869
Si Si3 0.189964 0.171381 0.060209
Si Si4 0.685359 0.823957 0.703041
Si Si5 0.000000 0.831262 0.912153
Si Si6 0.929364 0.172126 0.382592
Si Si7 0.071719 0.826489 0.596283
Si Si8 0.000000 0.675498 0.103963
O O1 0.175946 0.718551 0.811044
O O2 0.060319 0.804448 0.847161
O O3 0.153898 0.000000 0.843741
O O4 0.138478 0.805372 0.980146
O O5 0.873419 0.500000 0.212723
O O6 0.823624 0.747754 0.157411
O O7 0.882869 0.732252 0.318667
O O8 0.940516 0.737339 0.158346
O O9 0.250000 0.250000 0.017052
O O10 0.202253 0.000000 0.081761
O O11 0.750000 0.750000 0.666470
O O12 0.623600 0.765467 0.651440
O O13 0.690807 0.000000 0.690621
O O14 0.000000 0.721076 0.997945
O O15 0.000000 0.000000 0.951043
O O16 0.912646 0.201523 0.488943
O O17 0.000000 0.223911 0.363470
O O18 0.921042 0.000000 0.357541
O O19 0.000000 0.775884 0.617461
O O20 0.078728 0.000000 0.621601
O O21 0.000000 0.500000 0.108215
#
# Coordination Sequence:
#
# PCOD8173030 Si02
#       8
#     8   8   8   8   4   8   8   4
#     4  10  22  39  61  88 119 156 197 242 297 356
#     4  11  21  34  54  84 120 156 192 236 287 340
#     4  11  23  39  58  80 111 154 202 248 292 346
#     4  12  26  43  65  91 121 159 204 251 304 366
#     4  10  20  36  58  87 118 155 196 239 294 352
#     4   9  18  34  59  89 119 154 194 237 291 354
#     4   9  20  41  67  94 125 159 197 247 306 365
#     4  10  20  32  50  81 118 153 186 229 284 332
#
# _framework density 20.106753999999999
#
# number of rings (size 3 to 8) (size 9 to 14) (size 15 to 20)
#    0.000    1.714    2.143    3.429    1.000    4.286 
#    0.000    2.143    0.000    3.429    0.000    0.000 
#    0.000    0.000    0.000    0.000    0.000    0.000 
#
# Total GULP energy -347156.466423 kJ/mol
# GULP energy per Si atom -12398.445229 kJ/mol
# Density = 2.006099 g / cm^3
# Si number density = 20.106754 Si / 1000 Ang^3
#
#
#
# Elastic Constant Matrix: (Units=GPa)
#
#
# Indices 1 2 3 4 5 6 
#
# 1 107.0924 53.2249 33.6438 0.0000 0.0000 0.0000
# 2 53.2249 110.6056 48.4884 0.0000 0.0000 0.0000
# 3 33.6438 48.4884 82.9480 0.0000 0.0000 0.0000
# 4 0.0000 0.0000 0.0000 35.4832 0.0000 0.0000
# 5 0.0000 0.0000 0.0000 0.0000 27.8091 0.0000
# 6 0.0000 0.0000 0.0000 0.0000 0.0000 31.6637
#
#
#
# Elastic Compliance Matrix: (Units=1/GPa)
#
#
# Indices 1 2 3 4 5 6 
#
# 1 0.012538 -0.005115 -0.002096 0.000000 0.000000 0.000000
# 2 -0.005115 0.014243 -0.006251 0.000000 0.000000 0.000000
# 3 -0.002096 -0.006251 0.016560 0.000000 0.000000 0.000000
# 4 0.000000 0.000000 0.000000 0.028182 0.000000 0.000000
# 5 0.000000 0.000000 0.000000 0.000000 0.035959 0.000000
# 6 0.000000 0.000000 0.000000 0.000000 0.000000 0.031582
#
#
# Mechanical properties :
#
#
# Convention : Reuss Voigt Hill
#
# Bulk Modulus (GPa) = 60.90995 63.48447 62.19721
# Shear Modulus (GPa) = 29.16117 30.01046 29.58581
#
# Velocity S-wave (km/s) = 3.81243 3.86755 3.84009
# Velocity P-wave (km/s) = 7.05256 7.18235 7.11775
#
# Compressibility (1/GPa) = 0.01641768
#
# Stress axis : x y z
#
# Youngs Moduli (GPa) = 79.75667 70.20989 60.38637
#
# Poissons Ratio (x) = 0.35911 0.12654
# Poissons Ratio (y) = 0.40794 0.37750
# Poissons Ratio (z) = 0.16713 0.43891
#
# Static dielectric constant tensor:
#      x y z
#    x 3.728960 0.000000 0.000000 
#    y 0.000000 3.487300 0.000000 
#    z 0.000000 0.000000 3.538190 
# 
# 
# High freq. dielectric constant tensor:
#      x y z
#    x 1.783300 0.000000 0.000000 
#    y 0.000000 1.776770 0.000000 
#    z 0.000000 0.000000 1.780540 
# 
# From -- ./inp_files/17485.got.cif
#   From: 2010.03.12/outbox.cif.g09.slc.cpg/sg35_9_cif.got.tgz:17485.got - 2010.04.14 02:02:04.
