data_PCOD8173502
_publ_section_title
;
Structure prediction by ZEFSAII (Michael W. Deem and Ramdas Pophale) SiO2 
 PCOD8173502
Probable space group: C M M 2
;
_chemical_formula_sum "Si O2"
_cell_formula_units_Z 40
_cell_length_a 8.792606
_cell_length_b 15.511096
_cell_length_c 14.220915
_cell_angle_alpha 90.000000
_cell_angle_beta 90.000000
_cell_angle_gamma 90.000000
_cell_volume 1939.490421
_symmetry_space_group_name_H-M "C M M 2"
_symmetry_group_IT_number 35
_symmetry_cell_setting 'orthorhombic'
loop_
_space_group_symop_operation_xyz
x,y,z
-x,-y,z
-x,y,z
x,-y,z
1/2+x,1/2+y,z
1/2-x,1/2-y,z
1/2-x,1/2+y,z
1/2+x,1/2-y,z
loop_
_atom_site_type_symbol
_atom_site_label
_atom_site_fract_x
_atom_site_fract_y
_atom_site_fract_z
Si Si1 0.173889 0.500000 0.089780
Si Si2 0.820495 0.838823 0.412832
Si Si3 0.325125 0.898526 0.597662
Si Si4 0.325189 0.399968 0.787905
Si Si5 0.825770 0.500000 0.312087
Si Si6 0.179531 0.838849 0.990331
O O1 0.186909 0.500000 0.201087
O O2 0.000000 0.500000 0.055811
O O3 0.255183 0.584573 0.052089
O O4 0.750000 0.750000 0.374159
O O5 0.777292 0.849763 0.522020
O O6 0.000000 0.836194 0.401705
O O7 0.755138 0.915699 0.351085
O O8 0.500000 0.874419 0.580518
O O9 0.276961 0.867001 0.701386
O O10 0.295318 0.000000 0.587192
O O11 0.500000 0.383059 0.761897
O O12 0.295733 0.500000 0.808884
O O13 0.274826 0.349459 0.881101
O O14 0.000000 0.500000 0.347189
O O15 0.250000 0.750000 0.028022
O O16 0.000000 0.838146 0.003430
#
# Coordination Sequence:
#
# PCOD8173502 Si02
#       6
#     4   8   8   8   4   8
#     4  11  25  45  70  95 124 163 205 260 322 379
#     4  12  25  42  67  96 128 168 210 258 313 373
#     4  10  20  35  59  91 129 170 211 257 307 367
#     4   9  18  35  58  86 124 170 215 258 307 364
#     4  11  25  47  70  95 126 159 205 262 320 381
#     4  11  23  41  65  95 130 168 211 261 312 372
#
# _framework density 20.623975000000002
#
# number of rings (size 3 to 8) (size 9 to 14) (size 15 to 20)
#    0.000    1.400    2.000    3.600    0.000    5.600 
#    0.000    2.000    0.000    0.000    0.000    0.000 
#    0.000    0.000    0.000    0.000    0.000    0.000 
#
# Total GULP energy -248118.104605 kJ/mol
# GULP energy per Si atom -12405.905230 kJ/mol
# Density = 2.057703 g / cm^3
# Si number density = 20.623975 Si / 1000 Ang^3
#
#
#
# Elastic Constant Matrix: (Units=GPa)
#
#
# Indices 1 2 3 4 5 6 
#
# 1 155.0149 70.8328 60.1654 0.0000 0.0000 0.0000
# 2 70.8328 145.8771 52.1410 0.0000 0.0000 0.0000
# 3 60.1654 52.1410 83.8092 0.0000 0.0000 0.0000
# 4 0.0000 0.0000 0.0000 -4.4803 0.0000 0.0000
# 5 0.0000 0.0000 0.0000 0.0000 35.4605 0.0000
# 6 0.0000 0.0000 0.0000 0.0000 0.0000 35.7995
#
#
#
# Elastic Compliance Matrix: (Units=1/GPa)
#
#
# Indices 1 2 3 4 5 6 
#
# 1 0.009805 -0.002887 -0.005243 0.000000 0.000000 0.000000
# 2 -0.002887 0.009665 -0.003941 0.000000 0.000000 0.000000
# 3 -0.005243 -0.003941 0.018147 0.000000 0.000000 0.000000
# 4 0.000000 0.000000 0.000000 -0.223198 0.000000 0.000000
# 5 0.000000 0.000000 0.000000 0.000000 0.028200 0.000000
# 6 0.000000 0.000000 0.000000 0.000000 0.000000 0.027933
#
#
# Mechanical properties :
#
#
# Convention : Reuss Voigt Hill
#
# Bulk Modulus (GPa) = 74.20195 83.44218 78.82206
# Shear Modulus (GPa) = -49.59671 26.79340 -11.40165
#
# Velocity S-wave (km/s) = -4.90920 3.60827 -2.35380
# Velocity P-wave (km/s) = 1.98063 7.60961 5.56008
#
# Compressibility (1/GPa) = 0.01347674
#
# Stress axis : x y z
#
# Youngs Moduli (GPa) = 101.98796 103.46108 55.10489
#
# Poissons Ratio (x) = 0.29870 0.28890
# Poissons Ratio (y) = 0.29445 0.21715
# Poissons Ratio (z) = 0.53470 0.40771
#
# Static dielectric constant tensor:
#      x y z
#    x 3.834560 0.000000 0.000000 
#    y 0.000000 3.768970 0.000000 
#    z 0.000000 0.000000 3.739160 
# 
# 
# High freq. dielectric constant tensor:
#      x y z
#    x 1.816510 0.000000 0.000000 
#    y 0.000000 1.812360 0.000000 
#    z 0.000000 0.000000 1.805790 
# 
# From -- ./inp_files/14738.got.cif
#   From: 2010.03.12/outbox.cif.g09.slc.cpg/sg35_8_cif.got.tgz:14738.got - 2010.04.14 02:02:04.
