data_PCOD8173402
_publ_section_title
;
Structure prediction by ZEFSAII (Michael W. Deem and Ramdas Pophale) SiO2 
 PCOD8173402
Probable space group: C M M 2
;
_chemical_formula_sum "Si O2"
_cell_formula_units_Z 40
_cell_length_a 8.690285
_cell_length_b 15.742764
_cell_length_c 14.488132
_cell_angle_alpha 90.000000
_cell_angle_beta 90.000000
_cell_angle_gamma 90.000000
_cell_volume 1982.108384
_symmetry_space_group_name_H-M "C M M 2"
_symmetry_group_IT_number 35
_symmetry_cell_setting 'orthorhombic'
loop_
_space_group_symop_operation_xyz
x,y,z
-x,-y,z
-x,y,z
x,-y,z
1/2+x,1/2+y,z
1/2-x,1/2-y,z
1/2-x,1/2+y,z
1/2+x,1/2-y,z
loop_
_atom_site_type_symbol
_atom_site_label
_atom_site_fract_x
_atom_site_fract_y
_atom_site_fract_z
Si Si1 0.327967 0.904225 0.398220
Si Si2 0.183551 0.500000 0.702174
Si Si3 0.680162 0.339366 0.224991
Si Si4 0.682761 0.000000 0.910462
Si Si5 0.817363 0.657941 0.030864
Si Si6 0.682361 0.837974 0.590648
O O1 0.500000 0.874620 0.369047
O O2 0.215394 0.901129 0.310306
O O3 0.265551 0.848841 0.483933
O O4 0.333165 0.000000 0.435283
O O5 0.246873 0.500000 0.806654
O O6 0.247514 0.415540 0.652027
O O7 0.000000 0.500000 0.700642
O O8 0.500000 0.332884 0.206193
O O9 0.750000 0.250000 0.255697
O O10 0.761044 0.371417 0.131796
O O11 0.500000 0.000000 0.912560
O O12 0.742307 0.085758 0.960518
O O13 0.750000 0.750000 0.003120
O O14 0.000000 0.665237 0.031256
O O15 0.500000 0.835854 0.597601
O O16 0.750000 0.750000 0.629456
#
# Coordination Sequence:
#
# PCOD8173402 Si02
#       6
#     8   4   8   4   8   8
#     4  10  20  35  55  81 114 153 191 228 275 336
#     4   9  18  38  60  83 112 146 189 231 276 343
#     4  11  22  36  54  80 112 150 189 232 279 330
#     4   9  20  36  60  85 110 146 189 231 282 341
#     4  10  20  37  58  84 113 149 189 233 281 335
#     4  10  20  36  60  85 113 150 188 229 278 331
#
# _framework density 20.180530000000001
#
# number of rings (size 3 to 8) (size 9 to 14) (size 15 to 20)
#    0.000    2.000    1.000    4.200    1.400    3.600 
#    0.000    2.000    0.000    3.600    0.000    0.000 
#    0.000    0.000    0.000    0.000    0.000    0.000 
#
# Total GULP energy -247994.330709 kJ/mol
# GULP energy per Si atom -12399.716535 kJ/mol
# Density = 2.013460 g / cm^3
# Si number density = 20.180530 Si / 1000 Ang^3
#
#
#
# Elastic Constant Matrix: (Units=GPa)
#
#
# Indices 1 2 3 4 5 6 
#
# 1 65.1303 29.9581 31.8123 0.0000 0.0000 0.0000
# 2 29.9581 147.5352 83.8974 0.0000 0.0000 0.0000
# 3 31.8123 83.8974 145.0905 0.0000 0.0000 0.0000
# 4 0.0000 0.0000 0.0000 30.2917 0.0000 0.0000
# 5 0.0000 0.0000 0.0000 0.0000 12.8777 0.0000
# 6 0.0000 0.0000 0.0000 0.0000 0.0000 29.9834
#
#
#
# Elastic Compliance Matrix: (Units=1/GPa)
#
#
# Indices 1 2 3 4 5 6 
#
# 1 0.017604 -0.002056 -0.002671 0.000000 0.000000 0.000000
# 2 -0.002056 0.010339 -0.005528 0.000000 0.000000 0.000000
# 3 -0.002671 -0.005528 0.010674 0.000000 0.000000 0.000000
# 4 0.000000 0.000000 0.000000 0.033012 0.000000 0.000000
# 5 0.000000 0.000000 0.000000 0.000000 0.077653 0.000000
# 6 0.000000 0.000000 0.000000 0.000000 0.000000 0.033352
#
#
# Mechanical properties :
#
#
# Convention : Reuss Voigt Hill
#
# Bulk Modulus (GPa) = 55.22352 72.12130 63.67241
# Shear Modulus (GPa) = 23.90290 28.76977 26.33634
#
# Velocity S-wave (km/s) = 3.44532 3.77983 3.61645
# Velocity P-wave (km/s) = 6.57656 7.40710 7.00415
#
# Compressibility (1/GPa) = 0.01810823
#
# Stress axis : x y z
#
# Youngs Moduli (GPa) = 56.80501 96.72327 93.68373
#
# Poissons Ratio (x) = 0.19883 0.25025
# Poissons Ratio (y) = 0.11677 0.51785
# Poissons Ratio (z) = 0.15174 0.53465
#
# Static dielectric constant tensor:
#      x y z
#    x 3.365500 0.000000 0.000000 
#    y 0.000000 3.815700 0.000000 
#    z 0.000000 0.000000 3.694460 
# 
# 
# High freq. dielectric constant tensor:
#      x y z
#    x 1.761390 0.000000 0.000000 
#    y 0.000000 1.795670 0.000000 
#    z 0.000000 0.000000 1.786670 
# 
# From -- ./inp_files/14748.got.cif
#   From: 2010.03.12/outbox.cif.g09.slc.cpg/sg35_8_cif.got.tgz:14748.got - 2010.04.14 02:02:04.
