data_PCOD8173695
_publ_section_title
;
Structure prediction by ZEFSAII (Michael W. Deem and Ramdas Pophale) SiO2 
 PCOD8173695
Probable space group: C M M 2
;
_chemical_formula_sum "Si O2"
_cell_formula_units_Z 48
_cell_length_a 17.640774
_cell_length_b 9.653255
_cell_length_c 13.911842
_cell_angle_alpha 90.000000
_cell_angle_beta 90.000000
_cell_angle_gamma 90.000000
_cell_volume 2369.059953
_symmetry_space_group_name_H-M "C M M 2"
_symmetry_group_IT_number 35
_symmetry_cell_setting 'orthorhombic'
loop_
_space_group_symop_operation_xyz
x,y,z
-x,-y,z
-x,y,z
x,-y,z
1/2+x,1/2+y,z
1/2-x,1/2-y,z
1/2-x,1/2+y,z
1/2+x,1/2-y,z
loop_
_atom_site_type_symbol
_atom_site_label
_atom_site_fract_x
_atom_site_fract_y
_atom_site_fract_z
Si Si1 0.673611 0.661525 0.628850
Si Si2 0.672851 0.838396 0.462311
Si Si3 0.410279 0.282207 0.820671
Si Si4 0.089868 0.500000 0.902756
Si Si5 0.089512 0.000000 0.187545
Si Si6 0.339518 0.771407 0.253336
Si Si7 0.910432 0.000000 0.973270
Si Si8 0.408997 0.000000 0.121930
O O1 0.689049 0.500000 0.598970
O O2 0.750000 0.750000 0.648121
O O3 0.628176 0.749327 0.544848
O O4 0.624556 0.657163 0.724462
O O5 0.750000 0.750000 0.455396
O O6 0.636613 0.836149 0.356402
O O7 0.683011 0.000000 0.492898
O O8 0.500000 0.291291 0.808927
O O9 0.379993 0.128914 0.841494
O O10 0.383116 0.366865 0.913973
O O11 0.000000 0.500000 0.907937
O O12 0.119049 0.500000 0.011907
O O13 0.118654 0.872868 0.248684
O O14 0.125426 0.000000 0.079881
O O15 0.000000 0.000000 0.182492
O O16 0.250000 0.750000 0.240182
O O17 0.373096 0.865200 0.169452
O O18 0.000000 0.000000 0.984844
O O19 0.500000 0.000000 0.132084
#
# Coordination Sequence:
#
# PCOD8173695 Si02
#       8
#     8   8   8   4   4   8   4   4
#     4  11  23  38  62  89 119 154 195 247 298 357
#     4  10  21  38  63  87 116 159 200 239 293 370
#     4  10  20  38  62  86 114 155 203 245 289 350
#     4   9  20  35  60  87 116 160 203 237 288 367
#     4  11  23  39  64  91 122 164 209 251 300 361
#     4  11  23  39  63  92 124 160 204 253 304 361
#     4   9  18  37  60  83 114 158 207 239 284 361
#     4  11  21  41  64  89 122 164 207 251 304 361
#
# _framework density 20.261201
#
# number of rings (size 3 to 8) (size 9 to 14) (size 15 to 20)
#    0.000    1.667    1.667    4.000    7.000    2.667 
#    0.000    6.667    0.000    0.000    0.000    0.000 
#    0.000    0.000    0.000    0.000    0.000    0.000 
#
# Total GULP energy -297378.462695 kJ/mol
# GULP energy per Si atom -12390.769279 kJ/mol
# Density = 2.021509 g / cm^3
# Si number density = 20.261201 Si / 1000 Ang^3
#
#
#
# Elastic Constant Matrix: (Units=GPa)
#
#
# Indices 1 2 3 4 5 6 
#
# 1 50.2782 24.7891 25.1857 0.0000 0.0000 0.0000
# 2 24.7891 183.2533 38.9172 0.0000 0.0000 0.0000
# 3 25.1857 38.9172 111.1918 0.0000 0.0000 0.0000
# 4 0.0000 0.0000 0.0000 47.4420 0.0000 0.0000
# 5 0.0000 0.0000 0.0000 0.0000 36.3623 0.0000
# 6 0.0000 0.0000 0.0000 0.0000 0.0000 26.8019
#
#
#
# Elastic Compliance Matrix: (Units=1/GPa)
#
#
# Indices 1 2 3 4 5 6 
#
# 1 0.023218 -0.002186 -0.004494 0.000000 0.000000 0.000000
# 2 -0.002186 0.006101 -0.001640 0.000000 0.000000 0.000000
# 3 -0.004494 -0.001640 0.010585 0.000000 0.000000 0.000000
# 4 0.000000 0.000000 0.000000 0.021078 0.000000 0.000000
# 5 0.000000 0.000000 0.000000 0.000000 0.027501 0.000000
# 6 0.000000 0.000000 0.000000 0.000000 0.000000 0.037311
#
#
# Mechanical properties :
#
#
# Convention : Reuss Voigt Hill
#
# Bulk Modulus (GPa) = 42.98492 58.05638 50.52065
# Shear Modulus (GPa) = 33.29104 39.17666 36.23385
#
# Velocity S-wave (km/s) = 4.05791 4.40202 4.23346
# Velocity P-wave (km/s) = 6.57396 7.38601 6.99179
#
# Compressibility (1/GPa) = 0.02326397
#
# Stress axis : x y z
#
# Youngs Moduli (GPa) = 43.06916 163.90759 94.46972
#
# Poissons Ratio (x) = 0.35838 0.42454
# Poissons Ratio (y) = 0.09417 0.15494
# Poissons Ratio (z) = 0.19355 0.26883
#
# Static dielectric constant tensor:
#      x y z
#    x 3.241810 0.000000 0.000000 
#    y 0.000000 3.895860 0.000000 
#    z 0.000000 0.000000 4.390010 
# 
# 
# High freq. dielectric constant tensor:
#      x y z
#    x 1.743970 0.000000 0.000000 
#    y 0.000000 1.817020 0.000000 
#    z 0.000000 0.000000 1.812470 
# 
# From -- ./inp_files/15306.got.cif
#   From: 2010.03.12/outbox.cif.g09.slc.cpg/sg35_8_cif.got.tgz:15306.got - 2010.04.14 02:02:04.
