data_PCOD8173665
_publ_section_title
;
Structure prediction by ZEFSAII (Michael W. Deem and Ramdas Pophale) SiO2 
 PCOD8173665
Probable space group: C M M 2
;
_chemical_formula_sum "Si O2"
_cell_formula_units_Z 64
_cell_length_a 30.802445
_cell_length_b 8.725367
_cell_length_c 11.930118
_cell_angle_alpha 90.000000
_cell_angle_beta 90.000000
_cell_angle_gamma 90.000000
_cell_volume 3206.369975
_symmetry_space_group_name_H-M "C M M 2"
_symmetry_group_IT_number 35
_symmetry_cell_setting 'orthorhombic'
loop_
_space_group_symop_operation_xyz
x,y,z
-x,-y,z
-x,y,z
x,-y,z
1/2+x,1/2+y,z
1/2-x,1/2-y,z
1/2-x,1/2+y,z
1/2+x,1/2-y,z
loop_
_atom_site_type_symbol
_atom_site_label
_atom_site_fract_x
_atom_site_fract_y
_atom_site_fract_z
Si Si1 0.049286 0.324505 0.946240
Si Si2 0.584042 0.823701 0.704903
Si Si3 0.705046 0.319093 0.469546
Si Si4 0.873835 0.179976 0.074336
Si Si5 0.124420 0.181862 0.327034
Si Si6 0.705461 0.180179 0.939704
Si Si7 0.950914 0.177104 0.488026
Si Si8 0.676323 0.679418 0.714580
O O1 0.060468 0.500000 0.976567
O O2 0.054834 0.297221 0.814065
O O3 0.000000 0.283623 0.978812
O O4 0.080446 0.214131 0.016026
O O5 0.555299 0.777256 0.598891
O O6 0.625556 0.715197 0.713450
O O7 0.599035 0.000000 0.694619
O O8 0.706954 0.500000 0.459373
O O9 0.750000 0.250000 0.425269
O O10 0.666412 0.253120 0.392288
O O11 0.696867 0.268032 0.597135
O O12 0.875518 0.245229 0.200719
O O13 0.835197 0.262099 0.009898
O O14 0.864987 0.000000 0.071376
O O15 0.081042 0.238049 0.390682
O O16 0.125442 0.000000 0.325187
O O17 0.750000 0.250000 0.988851
O O18 0.707917 0.000000 0.949733
O O19 0.700704 0.226498 0.810256
O O20 0.000000 0.197826 0.444429
O O21 0.940688 0.000000 0.516876
O O22 0.682740 0.500000 0.737559
#
# Coordination Sequence:
#
# PCOD8173665 Si02
#       8
#     8   8   8   8   8   8   8   8
#     4  10  22  40  60  85 122 162 197 243 304 360
#     4  11  21  35  59  89 123 159 194 241 300 361
#     4  10  21  38  60  86 120 152 187 237 291 348
#     4  11  23  40  64  89 117 156 207 256 301 356
#     4   9  20  40  60  84 117 154 198 252 301 345
#     4  12  25  42  63  90 125 160 199 245 300 359
#     4  10  20  37  62  88 118 157 199 244 296 356
#     4  11  21  37  63  91 121 156 196 243 297 358
#
# _framework density 19.960266000000001
#
# number of rings (size 3 to 8) (size 9 to 14) (size 15 to 20)
#    0.000    1.500    2.500    3.000    0.000    4.500 
#    0.000    5.000    0.000    0.000    0.000    0.000 
#    0.000    0.000    0.000    0.000    0.000    0.000 
#
# Total GULP energy -396943.460392 kJ/mol
# GULP energy per Si atom -12404.483137 kJ/mol
# Density = 1.991484 g / cm^3
# Si number density = 19.960266 Si / 1000 Ang^3
#
#
#
# Elastic Constant Matrix: (Units=GPa)
#
#
# Indices 1 2 3 4 5 6 
#
# 1 150.2267 36.2569 60.3153 0.0000 0.0000 0.0000
# 2 36.2569 72.2179 41.2636 0.0000 0.0000 0.0000
# 3 60.3153 41.2636 140.9510 0.0000 0.0000 0.0000
# 4 0.0000 0.0000 0.0000 10.1987 0.0000 0.0000
# 5 0.0000 0.0000 0.0000 0.0000 -3.0885 0.0000
# 6 0.0000 0.0000 0.0000 0.0000 0.0000 32.1718
#
#
#
# Elastic Compliance Matrix: (Units=1/GPa)
#
#
# Indices 1 2 3 4 5 6 
#
# 1 0.008427 -0.002606 -0.002843 0.000000 0.000000 0.000000
# 2 -0.002606 0.017435 -0.003989 0.000000 0.000000 0.000000
# 3 -0.002843 -0.003989 0.009479 0.000000 0.000000 0.000000
# 4 0.000000 0.000000 0.000000 0.098051 0.000000 0.000000
# 5 0.000000 0.000000 0.000000 0.000000 -0.323785 0.000000
# 6 0.000000 0.000000 0.000000 0.000000 0.000000 0.031083
#
#
# Mechanical properties :
#
#
# Convention : Reuss Voigt Hill
#
# Bulk Modulus (GPa) = 60.73722 71.00747 65.87235
# Shear Modulus (GPa) = -37.05196 22.89374 -7.07911
#
# Velocity S-wave (km/s) = -4.31314 3.39036 -1.88529
# Velocity P-wave (km/s) = 2.38556 7.13987 5.32300
#
# Compressibility (1/GPa) = 0.01646437
#
# Stress axis : x y z
#
# Youngs Moduli (GPa) = 118.66429 57.35739 105.49671
#
# Poissons Ratio (x) = 0.14949 0.29994
# Poissons Ratio (y) = 0.30928 0.42079
# Poissons Ratio (z) = 0.33737 0.22878
#
# Static dielectric constant tensor:
#      x y z
#    x 3.802220 0.000000 0.000000 
#    y 0.000000 3.486240 0.000000 
#    z 0.000000 0.000000 3.780980 
# 
# 
# High freq. dielectric constant tensor:
#      x y z
#    x 1.793300 0.000000 0.000000 
#    y 0.000000 1.766050 0.000000 
#    z 0.000000 0.000000 1.776050 
# 
# From -- ./inp_files/11941.got.cif
#   From: 2010.03.12/outbox.cif.g09.slc.cpg/sg35_6_cif.got.tgz:11941.got - 2010.04.14 02:02:04.
