data_PCOD8173108
_publ_section_title
;
Structure prediction by ZEFSAII (Michael W. Deem and Ramdas Pophale) SiO2 
 PCOD8173108
Probable space group: C M M 2
;
_chemical_formula_sum "Si O2"
_cell_formula_units_Z 48
_cell_length_a 19.585481
_cell_length_b 9.117981
_cell_length_c 15.038027
_cell_angle_alpha 90.000000
_cell_angle_beta 90.000000
_cell_angle_gamma 90.000000
_cell_volume 2685.491518
_symmetry_space_group_name_H-M "C M M 2"
_symmetry_group_IT_number 35
_symmetry_cell_setting 'orthorhombic'
loop_
_space_group_symop_operation_xyz
x,y,z
-x,-y,z
-x,y,z
x,-y,z
1/2+x,1/2+y,z
1/2-x,1/2-y,z
1/2-x,1/2+y,z
1/2+x,1/2-y,z
loop_
_atom_site_type_symbol
_atom_site_label
_atom_site_fract_x
_atom_site_fract_y
_atom_site_fract_z
Si Si1 0.081217 0.335977 0.786760
Si Si2 0.579439 0.329555 0.152603
Si Si3 0.418749 0.663046 0.954545
Si Si4 0.680790 0.171478 0.483663
Si Si5 0.818152 0.669899 0.276575
Si Si6 0.919592 0.829804 0.611455
O O1 0.110199 0.500000 0.774158
O O2 0.110840 0.271276 0.879185
O O3 0.105888 0.235199 0.705398
O O4 0.000000 0.337990 0.790674
O O5 0.500000 0.296164 0.164796
O O6 0.595109 0.500000 0.170090
O O7 0.617726 0.230664 0.223459
O O8 0.603749 0.285031 0.052971
O O9 0.500000 0.658557 0.950732
O O10 0.390402 0.500000 0.935394
O O11 0.750000 0.250000 0.516013
O O12 0.668400 0.200162 0.379949
O O13 0.616649 0.242583 0.532727
O O14 0.685867 0.000000 0.506288
O O15 0.808980 0.500000 0.255892
O O16 0.750000 0.750000 0.243562
O O17 0.000000 0.806472 0.598855
O O18 0.899489 0.000000 0.608078
#
# Coordination Sequence:
#
# PCOD8173108 Si02
#       6
#     8   8   8   8   8   8
#     4   9  16  26  43  69 100 132 165 203 246 291
#     4   9  18  32  51  76 105 135 167 206 250 294
#     4   8  14  26  44  67  97 132 166 199 240 292
#     4  10  21  37  55  74  98 130 168 208 251 301
#     4  10  21  36  54  74  98 131 169 208 250 300
#     4  10  20  33  51  76 104 134 168 206 248 294
#
# _framework density 17.873823000000002
#
# number of rings (size 3 to 8) (size 9 to 14) (size 15 to 20)
#    0.000    2.667    0.000    3.000    0.000    6.667 
#    0.000    5.000    0.000    1.000    0.000    2.333 
#    0.000    0.000    0.000    0.000    0.000    0.000 
#
# Total GULP energy -297591.707476 kJ/mol
# GULP energy per Si atom -12399.654478 kJ/mol
# Density = 1.783314 g / cm^3
# Si number density = 17.873823 Si / 1000 Ang^3
#
#
#
# Elastic Constant Matrix: (Units=GPa)
#
#
# Indices 1 2 3 4 5 6 
#
# 1 49.4737 47.0873 46.2537 0.0000 0.0000 0.0000
# 2 47.0873 132.2789 72.5411 0.0000 0.0000 0.0000
# 3 46.2537 72.5411 99.8202 0.0000 0.0000 0.0000
# 4 0.0000 0.0000 0.0000 37.2825 0.0000 0.0000
# 5 0.0000 0.0000 0.0000 0.0000 2.5913 0.0000
# 6 0.0000 0.0000 0.0000 0.0000 0.0000 28.4108
#
#
#
# Elastic Compliance Matrix: (Units=1/GPa)
#
#
# Indices 1 2 3 4 5 6 
#
# 1 0.038821 -0.006574 -0.013211 0.000000 0.000000 0.000000
# 2 -0.006574 0.013682 -0.006897 0.000000 0.000000 0.000000
# 3 -0.013211 -0.006897 0.021151 0.000000 0.000000 0.000000
# 4 0.000000 0.000000 0.000000 0.026822 0.000000 0.000000
# 5 0.000000 0.000000 0.000000 0.000000 0.385907 0.000000
# 6 0.000000 0.000000 0.000000 0.000000 0.000000 0.035198
#
#
# Mechanical properties :
#
#
# Convention : Reuss Voigt Hill
#
# Bulk Modulus (GPa) = 49.28318 68.14856 58.71587
# Shear Modulus (GPa) = 8.59535 21.36962 14.98248
#
# Velocity S-wave (km/s) = 2.19530 3.46147 2.89837
# Velocity P-wave (km/s) = 5.83596 7.36112 6.64246
#
# Compressibility (1/GPa) = 0.02029090
#
# Stress axis : x y z
#
# Youngs Moduli (GPa) = 25.75922 73.08766 47.27801
#
# Poissons Ratio (x) = 0.48051 0.62458
# Poissons Ratio (y) = 0.16935 0.32606
# Poissons Ratio (z) = 0.34030 0.50407
#
# Static dielectric constant tensor:
#      x y z
#    x 2.926530 0.000000 0.000000 
#    y 0.000000 3.485350 0.000000 
#    z 0.000000 0.000000 3.439100 
# 
# 
# High freq. dielectric constant tensor:
#      x y z
#    x 1.649630 0.000000 0.000000 
#    y 0.000000 1.703560 0.000000 
#    z 0.000000 0.000000 1.700020 
# 
# From -- ./inp_files/15118.got.cif
#   From: 2010.03.12/outbox.cif.g09.slc.cpg/sg35_8_cif.got.tgz:15118.got - 2010.04.14 02:02:04.
