data_PCOD8173611
_publ_section_title
;
Structure prediction by ZEFSAII (Michael W. Deem and Ramdas Pophale) SiO2 
 PCOD8173611
Probable space group: C M M 2
;
_chemical_formula_sum "Si O2"
_cell_formula_units_Z 56
_cell_length_a 14.104225
_cell_length_b 32.844251
_cell_length_c 4.875818
_cell_angle_alpha 90.000000
_cell_angle_beta 90.000000
_cell_angle_gamma 90.000000
_cell_volume 2258.687125
_symmetry_space_group_name_H-M "C M M 2"
_symmetry_group_IT_number 35
_symmetry_cell_setting 'orthorhombic'
loop_
_space_group_symop_operation_xyz
x,y,z
-x,-y,z
-x,y,z
x,-y,z
1/2+x,1/2+y,z
1/2-x,1/2-y,z
1/2-x,1/2+y,z
1/2+x,1/2-y,z
loop_
_atom_site_type_symbol
_atom_site_label
_atom_site_fract_x
_atom_site_fract_y
_atom_site_fract_z
Si Si1 0.393161 0.452946 0.482220
Si Si2 0.711524 0.420649 0.993333
Si Si3 0.389170 0.794225 0.370947
Si Si4 0.395398 0.135014 0.735316
Si Si5 0.216929 0.173847 0.071549
Si Si6 0.389573 0.296557 0.562823
Si Si7 0.105346 0.584718 0.247276
O O1 0.500000 0.442894 0.578842
O O2 0.382463 0.500000 0.401610
O O3 0.319340 0.442345 0.718175
O O4 0.371291 0.426208 0.214588
O O5 0.731917 0.371975 0.943579
O O6 0.810176 0.441675 0.105371
O O7 0.500000 0.798948 0.283761
O O8 0.354019 0.821322 0.636424
O O9 0.368407 0.748136 0.451081
O O10 0.321038 0.806134 0.116122
O O11 0.500000 0.136617 0.608894
O O12 0.399294 0.126096 0.060550
O O13 0.354666 0.097202 0.549465
O O14 0.155066 0.200190 0.862926
O O15 0.158879 0.171272 0.355589
O O16 0.500000 0.306690 0.586937
O O17 0.000000 0.563373 0.247677
#
# Coordination Sequence:
#
# PCOD8173611 Si02
#       7
#     8   8   8   8   8   8   8
#     4  11  26  49  75 104 135 173 224 277 333 405
#     4  12  24  41  74 105 136 175 217 280 348 405
#     4  10  23  44  68  94 131 182 238 291 341 394
#     4   9  18  33  57  86 122 166 218 273 319 368
#     4  12  26  43  68 102 135 174 232 289 351 412
#     4  11  27  47  64  88 133 189 237 290 347 407
#     4  10  20  36  60  97 138 170 209 266 324 389
#
# _framework density 24.793163
#
# number of rings (size 3 to 8) (size 9 to 14) (size 15 to 20)
#    0.000    1.286    1.429    3.429    2.000    8.000 
#    0.000    6.429    0.000    3.429    0.000    0.000 
#    0.000    0.000    0.000    0.000    0.000    0.000 
#
# Total GULP energy -346954.542424 kJ/mol
# GULP energy per Si atom -12391.233658 kJ/mol
# Density = 2.473673 g / cm^3
# Si number density = 24.793163 Si / 1000 Ang^3
#
#
#
# Elastic Constant Matrix: (Units=GPa)
#
#
# Indices 1 2 3 4 5 6 
#
# 1 153.1278 28.8129 18.0480 0.0000 0.0000 0.0000
# 2 28.8129 51.6093 -0.8898 0.0000 0.0000 0.0000
# 3 18.0480 -0.8898 89.7797 0.0000 0.0000 0.0000
# 4 0.0000 0.0000 0.0000 21.5819 0.0000 0.0000
# 5 0.0000 0.0000 0.0000 0.0000 35.3054 0.0000
# 6 0.0000 0.0000 0.0000 0.0000 0.0000 32.5005
#
#
#
# Elastic Compliance Matrix: (Units=1/GPa)
#
#
# Indices 1 2 3 4 5 6 
#
# 1 0.007507 -0.004218 -0.001551 0.000000 0.000000 0.000000
# 2 -0.004218 0.021749 0.001063 0.000000 0.000000 0.000000
# 3 -0.001551 0.001063 0.011461 0.000000 0.000000 0.000000
# 4 0.000000 0.000000 0.000000 0.046335 0.000000 0.000000
# 5 0.000000 0.000000 0.000000 0.000000 0.028324 0.000000
# 6 0.000000 0.000000 0.000000 0.000000 0.000000 0.030769
#
#
# Mechanical properties :
#
#
# Convention : Reuss Voigt Hill
#
# Bulk Modulus (GPa) = 31.94213 42.93987 37.44100
# Shear Modulus (GPa) = 30.12207 34.44726 32.28467
#
# Velocity S-wave (km/s) = 3.48937 3.73149 3.61246
# Velocity P-wave (km/s) = 5.39868 5.99351 5.70385
#
# Compressibility (1/GPa) = 0.03130661
#
# Stress axis : x y z
#
# Youngs Moduli (GPa) = 133.21064 45.97820 87.25481
#
# Poissons Ratio (x) = 0.19393 0.13532
# Poissons Ratio (y) = 0.56185 -0.09279
# Poissons Ratio (z) = 0.20659 -0.04890
#
# Static dielectric constant tensor:
#      x y z
#    x 5.215430 0.000000 0.000000 
#    y 0.000000 4.035020 0.000000 
#    z 0.000000 0.000000 4.401520 
# 
# 
# High freq. dielectric constant tensor:
#      x y z
#    x 2.021530 0.000000 0.000000 
#    y 0.000000 1.935500 0.000000 
#    z 0.000000 0.000000 2.005620 
# 
# From -- ./inp_files/2064.got.cif
#   From: 2010.03.12/outbox.cif.g09.slc.cpg/sg35_2_cif.got.tgz:2064.got - 2010.04.14 02:02:04.
