data_PCOD8173210
_publ_section_title
;
Structure prediction by ZEFSAII (Michael W. Deem and Ramdas Pophale) SiO2 
 PCOD8173210
Probable space group: C M M 2
;
_chemical_formula_sum "Si O2"
_cell_formula_units_Z 48
_cell_length_a 15.409126
_cell_length_b 16.684458
_cell_length_c 9.480785
_cell_angle_alpha 90.000000
_cell_angle_beta 90.000000
_cell_angle_gamma 90.000000
_cell_volume 2437.442657
_symmetry_space_group_name_H-M "C M M 2"
_symmetry_group_IT_number 35
_symmetry_cell_setting 'orthorhombic'
loop_
_space_group_symop_operation_xyz
x,y,z
-x,-y,z
-x,y,z
x,-y,z
1/2+x,1/2+y,z
1/2-x,1/2-y,z
1/2-x,1/2+y,z
1/2+x,1/2-y,z
loop_
_atom_site_type_symbol
_atom_site_label
_atom_site_fract_x
_atom_site_fract_y
_atom_site_fract_z
Si Si1 0.163878 0.701754 0.813640
Si Si2 0.746708 0.908606 0.036580
Si Si3 0.900060 0.592545 0.561014
Si Si4 0.096436 0.093588 0.542586
Si Si5 0.096357 0.134908 0.855649
Si Si6 0.250069 0.905446 0.352716
O O1 0.250000 0.750000 0.765191
O O2 0.124251 0.649348 0.689691
O O3 0.095308 0.768395 0.864119
O O4 0.181245 0.644275 0.945677
O O5 0.748308 0.871710 0.194011
O O6 0.713333 0.000000 0.037414
O O7 0.843174 0.905067 0.972742
O O8 0.883027 0.500000 0.604802
O O9 0.840319 0.617052 0.428649
O O10 0.000000 0.605760 0.517412
O O11 0.129905 0.108755 0.701093
O O12 0.167441 0.132274 0.436746
O O13 0.000000 0.132207 0.519894
O O14 0.090179 0.000000 0.514731
O O15 0.000000 0.101867 0.882773
O O16 0.237420 0.000000 0.348143
#
# Coordination Sequence:
#
# PCOD8173210 Si02
#       6
#     8   8   8   8   8   8
#     4  10  20  35  54  76 106 141 176 215 260 311
#     4  10  20  34  54  78 104 139 177 214 261 311
#     4  10  20  36  59  82 103 134 179 226 268 312
#     4   9  17  31  54  82 109 139 175 216 264 317
#     4  10  20  34  52  77 109 139 171 214 261 312
#     4   9  18  33  53  78 108 137 172 221 268 312
#
# _framework density 19.692771
#
# number of rings (size 3 to 8) (size 9 to 14) (size 15 to 20)
#    0.000    2.333    0.000    3.500    0.000    3.000 
#    0.000   10.833    0.000    4.000    0.000    0.000 
#    0.000    0.000    0.000    0.000    0.000    0.000 
#
# Total GULP energy -297542.085321 kJ/mol
# GULP energy per Si atom -12397.586888 kJ/mol
# Density = 1.964795 g / cm^3
# Si number density = 19.692771 Si / 1000 Ang^3
#
#
#
# Elastic Constant Matrix: (Units=GPa)
#
#
# Indices 1 2 3 4 5 6 
#
# 1 106.0003 18.0275 65.4755 0.0000 0.0000 0.0000
# 2 18.0275 50.1791 22.4138 0.0000 0.0000 0.0000
# 3 65.4755 22.4138 142.4788 0.0000 0.0000 0.0000
# 4 0.0000 0.0000 0.0000 -3.4760 0.0000 0.0000
# 5 0.0000 0.0000 0.0000 0.0000 10.7327 0.0000
# 6 0.0000 0.0000 0.0000 0.0000 0.0000 16.6136
#
#
#
# Elastic Compliance Matrix: (Units=1/GPa)
#
#
# Indices 1 2 3 4 5 6 
#
# 1 0.013399 -0.002219 -0.005808 0.000000 0.000000 0.000000
# 2 -0.002219 0.021802 -0.002410 0.000000 0.000000 0.000000
# 3 -0.005808 -0.002410 0.010067 0.000000 0.000000 0.000000
# 4 0.000000 0.000000 0.000000 -0.287685 0.000000 0.000000
# 5 0.000000 0.000000 0.000000 0.000000 0.093173 0.000000
# 6 0.000000 0.000000 0.000000 0.000000 0.000000 0.060192
#
#
# Mechanical properties :
#
#
# Convention : Reuss Voigt Hill
#
# Bulk Modulus (GPa) = 40.99510 56.72132 48.85821
# Shear Modulus (GPa) = -83.27082 17.62348 -32.82367
#
# Velocity S-wave (km/s) = -6.50974 2.99477 -4.08706
# Velocity P-wave (km/s) = 5.96991 6.38935 1.60997
#
# Compressibility (1/GPa) = 0.02439316
#
# Stress axis : x y z
#
# Youngs Moduli (GPa) = 74.63136 45.86653 99.33521
#
# Poissons Ratio (x) = 0.10179 0.57698
# Poissons Ratio (y) = 0.16563 0.23939
# Poissons Ratio (z) = 0.43349 0.11053
#
# Static dielectric constant tensor:
#      x y z
#    x 3.738550 0.000000 0.000000 
#    y 0.000000 3.545930 0.000000 
#    z 0.000000 0.000000 3.622180 
# 
# 
# High freq. dielectric constant tensor:
#      x y z
#    x 1.768820 0.000000 0.000000 
#    y 0.000000 1.756900 0.000000 
#    z 0.000000 0.000000 1.756490 
# 
# From -- ./inp_files/7331.got.cif
#   From: 2010.03.12/outbox.cif.g09.slc.cpg/sg35_4_cif.got.tgz:7331.got - 2010.04.14 02:02:04.
