data_PCOD8173188
_publ_section_title
;
Structure prediction by ZEFSAII (Michael W. Deem and Ramdas Pophale) SiO2 
 PCOD8173188
Probable space group: C M M 2
;
_chemical_formula_sum "Si O2"
_cell_formula_units_Z 56
_cell_length_a 9.207146
_cell_length_b 17.913014
_cell_length_c 18.304011
_cell_angle_alpha 90.000000
_cell_angle_beta 90.000000
_cell_angle_gamma 90.000000
_cell_volume 3018.839079
_symmetry_space_group_name_H-M "C M M 2"
_symmetry_group_IT_number 35
_symmetry_cell_setting 'orthorhombic'
loop_
_space_group_symop_operation_xyz
x,y,z
-x,-y,z
-x,y,z
x,-y,z
1/2+x,1/2+y,z
1/2-x,1/2-y,z
1/2-x,1/2+y,z
1/2+x,1/2-y,z
loop_
_atom_site_type_symbol
_atom_site_label
_atom_site_fract_x
_atom_site_fract_y
_atom_site_fract_z
Si Si1 0.173602 0.671649 0.610850
Si Si2 0.837515 0.911282 0.176046
Si Si3 0.172688 0.582979 0.469960
Si Si4 0.339268 0.911036 0.310995
Si Si5 0.336338 0.910976 0.877754
Si Si6 0.163694 0.088759 0.015724
Si Si7 0.334771 0.588566 0.736491
O O1 0.250000 0.750000 0.623487
O O2 0.222835 0.640626 0.531860
O O3 0.233752 0.615042 0.670713
O O4 0.000000 0.678316 0.617891
O O5 0.748540 0.875661 0.243208
O O6 0.776910 0.886873 0.096080
O O7 0.000000 0.881233 0.183935
O O8 0.833853 0.000000 0.181930
O O9 0.233849 0.500000 0.488139
O O10 0.230117 0.610484 0.390194
O O11 0.000000 0.578220 0.465998
O O12 0.500000 0.877442 0.304529
O O13 0.343709 0.000000 0.305798
O O14 0.500000 0.879999 0.869107
O O15 0.236832 0.881589 0.811417
O O16 0.337809 0.000000 0.878786
O O17 0.269121 0.878879 0.953167
O O18 0.000000 0.119007 0.003557
O O19 0.160238 0.000000 0.010907
O O20 0.500000 0.619401 0.730357
O O21 0.335901 0.500000 0.735309
#
# Coordination Sequence:
#
# PCOD8173188 Si02
#       7
#     8   8   8   8   8   8   8
#     4  11  22  36  53  72  97 126 158 197 242 291
#     4   8  13  20  30  48  78 115 149 180 221 270
#     4   8  15  29  49  70  91 120 157 194 234 281
#     4   8  13  22  37  57  80 108 146 187 223 265
#     4   9  16  25  39  61  87 116 153 193 231 273
#     4   8  13  21  32  48  77 117 153 183 220 268
#     4  10  20  34  52  73  97 125 159 198 240 287
#
# _framework density 18.550177999999999
#
# number of rings (size 3 to 8) (size 9 to 14) (size 15 to 20)
#    0.000    3.143    0.000    3.429    0.000    3.714 
#    0.000    4.286    0.000    3.429    0.000    0.000 
#    0.000    1.143    0.000    6.000    0.000   11.286 
#
# Total GULP energy -346964.420396 kJ/mol
# GULP energy per Si atom -12391.586443 kJ/mol
# Density = 1.850796 g / cm^3
# Si number density = 18.550178 Si / 1000 Ang^3
#
#
#
# Elastic Constant Matrix: (Units=GPa)
#
#
# Indices 1 2 3 4 5 6 
#
# 1 100.7144 14.3807 70.8035 0.0000 0.0000 0.0000
# 2 14.3807 12.7679 14.5370 0.0000 0.0000 0.0000
# 3 70.8035 14.5370 172.9927 0.0000 0.0000 0.0000
# 4 0.0000 0.0000 0.0000 0.6488 0.0000 0.0000
# 5 0.0000 0.0000 0.0000 0.0000 33.7678 0.0000
# 6 0.0000 0.0000 0.0000 0.0000 0.0000 12.7569
#
#
#
# Elastic Compliance Matrix: (Units=1/GPa)
#
#
# Indices 1 2 3 4 5 6 
#
# 1 0.015249 -0.011134 -0.005305 0.000000 0.000000 0.000000
# 2 -0.011134 0.094738 -0.003404 0.000000 0.000000 0.000000
# 3 -0.005305 -0.003404 0.008238 0.000000 0.000000 0.000000
# 4 0.000000 0.000000 0.000000 1.541315 0.000000 0.000000
# 5 0.000000 0.000000 0.000000 0.000000 0.029614 0.000000
# 6 0.000000 0.000000 0.000000 0.000000 0.000000 0.078389
#
#
# Mechanical properties :
#
#
# Convention : Reuss Voigt Hill
#
# Bulk Modulus (GPa) = 12.73279 53.99083 33.36181
# Shear Modulus (GPa) = 2.72716 21.88496 12.30606
#
# Velocity S-wave (km/s) = 1.21381 3.43851 2.57844
# Velocity P-wave (km/s) = 2.97377 6.70320 5.18538
#
# Compressibility (1/GPa) = 0.07853736
#
# Stress axis : x y z
#
# Youngs Moduli (GPa) = 65.57934 10.55542 121.38765
#
# Poissons Ratio (x) = 0.11753 0.64401
# Poissons Ratio (y) = 0.73019 0.41319
# Poissons Ratio (z) = 0.34793 0.03593
#
# Static dielectric constant tensor:
#      x y z
#    x 3.497660 0.000000 0.000000 
#    y 0.000000 2.724530 0.000000 
#    z 0.000000 0.000000 3.933360 
# 
# 
# High freq. dielectric constant tensor:
#      x y z
#    x 1.709180 0.000000 0.000000 
#    y 0.000000 1.644130 0.000000 
#    z 0.000000 0.000000 1.744220 
# 
# From -- ./inp_files/18193.got.cif
#   From: 2010.03.12/outbox.cif.g09.slc.cpg/sg35_10_cif.got.tgz:18193.got - 2010.04.14 02:02:04.
