data_PCOD8173461
_publ_section_title
;
Structure prediction by ZEFSAII (Michael W. Deem and Ramdas Pophale) SiO2 
 PCOD8173461
Probable space group: C M M 2
;
_chemical_formula_sum "Si O2"
_cell_formula_units_Z 48
_cell_length_a 9.298305
_cell_length_b 15.487523
_cell_length_c 17.114094
_cell_angle_alpha 90.000000
_cell_angle_beta 90.000000
_cell_angle_gamma 90.000000
_cell_volume 2464.561529
_symmetry_space_group_name_H-M "C M M 2"
_symmetry_group_IT_number 35
_symmetry_cell_setting 'orthorhombic'
loop_
_space_group_symop_operation_xyz
x,y,z
-x,-y,z
-x,y,z
x,-y,z
1/2+x,1/2+y,z
1/2-x,1/2-y,z
1/2-x,1/2+y,z
1/2+x,1/2-y,z
loop_
_atom_site_type_symbol
_atom_site_label
_atom_site_fract_x
_atom_site_fract_y
_atom_site_fract_z
Si Si1 0.340274 0.102745 0.244800
Si Si2 0.328309 0.665594 0.925601
Si Si3 0.670075 0.334774 0.557289
Si Si4 0.329772 0.500000 0.828404
Si Si5 0.167703 0.901095 0.390352
Si Si6 0.167330 0.601218 0.071085
Si Si7 0.171101 0.000000 0.652921
O O1 0.500000 0.137035 0.261471
O O2 0.240714 0.140661 0.313569
O O3 0.290227 0.132548 0.158540
O O4 0.336984 0.000000 0.245842
O O5 0.500000 0.677064 0.925691
O O6 0.250000 0.750000 0.890227
O O7 0.276289 0.585210 0.873150
O O8 0.271927 0.652613 0.013547
O O9 0.500000 0.322980 0.566459
O O10 0.750000 0.250000 0.588801
O O11 0.714645 0.349380 0.467281
O O12 0.726710 0.414964 0.608502
O O13 0.500000 0.500000 0.825441
O O14 0.266500 0.500000 0.740794
O O15 0.000000 0.895090 0.376275
O O16 0.216054 0.000000 0.402421
O O17 0.196416 0.500000 0.061062
O O18 0.000000 0.622150 0.053503
O O19 0.000000 0.000000 0.652232
#
# Coordination Sequence:
#
# PCOD8173461 Si02
#       7
#     8   8   8   4   8   8   4
#     4   8  15  27  46  75 107 141 181 225 274 320
#     4  11  22  37  57  85 115 146 187 229 276 332
#     4  10  20  35  57  83 111 145 184 224 271 326
#     4   9  20  38  61  86 111 142 182 225 273 335
#     4   9  16  29  49  74 104 142 187 226 264 317
#     4   9  17  32  54  79 110 148 188 230 278 328
#     4   9  18  38  63  82 109 148 180 217 275 335
#
# _framework density 19.476082000000002
#
# number of rings (size 3 to 8) (size 9 to 14) (size 15 to 20)
#    0.000    2.667    1.667    1.500    0.000    2.000 
#    0.000    2.917    0.000    5.000    0.000    0.000 
#    0.000    0.000    0.000    0.000    0.000    0.000 
#
# Total GULP energy -297545.439438 kJ/mol
# GULP energy per Si atom -12397.726643 kJ/mol
# Density = 1.943175 g / cm^3
# Si number density = 19.476082 Si / 1000 Ang^3
#
#
#
# Elastic Constant Matrix: (Units=GPa)
#
#
# Indices 1 2 3 4 5 6 
#
# 1 53.2989 42.6650 44.3094 0.0000 0.0000 0.0000
# 2 42.6650 121.1928 64.5813 0.0000 0.0000 0.0000
# 3 44.3094 64.5813 144.7085 0.0000 0.0000 0.0000
# 4 0.0000 0.0000 0.0000 8.5234 0.0000 0.0000
# 5 0.0000 0.0000 0.0000 0.0000 18.0357 0.0000
# 6 0.0000 0.0000 0.0000 0.0000 0.0000 28.4257
#
#
#
# Elastic Compliance Matrix: (Units=1/GPa)
#
#
# Indices 1 2 3 4 5 6 
#
# 1 0.029361 -0.007276 -0.005743 0.000000 0.000000 0.000000
# 2 -0.007276 0.012629 -0.003408 0.000000 0.000000 0.000000
# 3 -0.005743 -0.003408 0.010190 0.000000 0.000000 0.000000
# 4 0.000000 0.000000 0.000000 0.117324 0.000000 0.000000
# 5 0.000000 0.000000 0.000000 0.000000 0.055445 0.000000
# 6 0.000000 0.000000 0.000000 0.000000 0.000000 0.035179
#
#
# Mechanical properties :
#
#
# Convention : Reuss Voigt Hill
#
# Bulk Modulus (GPa) = 51.74558 69.14572 60.44565
# Shear Modulus (GPa) = 16.69870 22.17326 19.43598
#
# Velocity S-wave (km/s) = 2.93131 3.37781 3.16245
# Velocity P-wave (km/s) = 6.17116 7.12690 6.66618
#
# Compressibility (1/GPa) = 0.01932532
#
# Stress axis : x y z
#
# Youngs Moduli (GPa) = 34.05904 79.18332 98.13530
#
# Poissons Ratio (x) = 0.57613 0.56360
# Poissons Ratio (y) = 0.24781 0.33447
# Poissons Ratio (z) = 0.19560 0.26988
#
# Static dielectric constant tensor:
#      x y z
#    x 3.308030 0.000000 0.000000 
#    y 0.000000 3.445600 0.000000 
#    z 0.000000 0.000000 3.780670 
# 
# 
# High freq. dielectric constant tensor:
#      x y z
#    x 1.732030 0.000000 0.000000 
#    y 0.000000 1.749480 0.000000 
#    z 0.000000 0.000000 1.761630 
# 
# From -- ./inp_files/17937.got.cif
#   From: 2010.03.12/outbox.cif.g09.slc.cpg/sg35_9_cif.got.tgz:17937.got - 2010.04.14 02:02:04.
