data_PCOD8173132
_publ_section_title
;
Structure prediction by ZEFSAII (Michael W. Deem and Ramdas Pophale) SiO2 
 PCOD8173132
Probable space group: C M M 2
;
_chemical_formula_sum "Si O2"
_cell_formula_units_Z 64
_cell_length_a 8.947212
_cell_length_b 19.066531
_cell_length_c 20.790599
_cell_angle_alpha 90.000000
_cell_angle_beta 90.000000
_cell_angle_gamma 90.000000
_cell_volume 3546.715997
_symmetry_space_group_name_H-M "C M M 2"
_symmetry_group_IT_number 35
_symmetry_cell_setting 'orthorhombic'
loop_
_space_group_symop_operation_xyz
x,y,z
-x,-y,z
-x,y,z
x,-y,z
1/2+x,1/2+y,z
1/2-x,1/2-y,z
1/2-x,1/2+y,z
1/2+x,1/2-y,z
loop_
_atom_site_type_symbol
_atom_site_label
_atom_site_fract_x
_atom_site_fract_y
_atom_site_fract_z
Si Si1 0.326895 0.417416 0.062910
Si Si2 0.672966 0.675445 0.688178
Si Si3 0.822062 0.326817 0.954757
Si Si4 0.832788 0.416782 0.192008
Si Si5 0.174551 0.824853 0.829671
Si Si6 0.825041 0.580912 0.583746
Si Si7 0.666163 0.083512 0.441469
Si Si8 0.332802 0.416264 0.317323
O O1 0.500000 0.396736 0.055099
O O2 0.302185 0.500000 0.052809
O O3 0.272276 0.393214 0.133276
O O4 0.225593 0.376932 0.012274
O O5 0.500000 0.688846 0.675996
O O6 0.750000 0.750000 0.680766
O O7 0.698429 0.640521 0.759265
O O8 0.732722 0.622333 0.635998
O O9 0.750000 0.250000 0.963887
O O10 0.759568 0.363314 0.888709
O O11 0.000000 0.320475 0.952433
O O12 0.837796 0.500000 0.195911
O O13 0.765283 0.386576 0.258362
O O14 0.000000 0.386599 0.182650
O O15 0.250000 0.750000 0.824643
O O16 0.000000 0.818437 0.846936
O O17 0.783456 0.500000 0.592260
O O18 0.777735 0.607297 0.512212
O O19 0.000000 0.593525 0.594419
O O20 0.500000 0.112685 0.428801
O O21 0.771611 0.113353 0.385192
O O22 0.662046 0.000000 0.440122
O O23 0.500000 0.388112 0.308457
O O24 0.328867 0.500000 0.317629
#
# Coordination Sequence:
#
# PCOD8173132 Si02
#       8
#     8   8   8   8   8   8   8   8
#     4  10  20  34  51  72 101 133 163 200 246 291
#     4  10  20  33  52  75  98 126 161 201 242 288
#     4  11  21  34  54  77 100 127 162 201 241 288
#     4   9  16  26  41  62  90 124 160 197 238 285
#     4   9  17  31  50  72  96 123 158 200 244 285
#     4   9  18  32  49  70  99 132 163 199 245 293
#     4   8  14  25  40  59  86 121 157 193 236 283
#     4   9  15  22  35  58  87 119 156 197 238 279
#
# _framework density 18.044862999999999
#
# number of rings (size 3 to 8) (size 9 to 14) (size 15 to 20)
#    0.000    2.625    0.000    4.500    0.000    6.000 
#    0.000    1.875    0.000    0.750    0.000    0.875 
#    0.000    4.000    0.000    0.000    0.000    0.000 
#
# Total GULP energy -396598.590080 kJ/mol
# GULP energy per Si atom -12393.705940 kJ/mol
# Density = 1.800379 g / cm^3
# Si number density = 18.044863 Si / 1000 Ang^3
#
#
#
# Elastic Constant Matrix: (Units=GPa)
#
#
# Indices 1 2 3 4 5 6 
#
# 1 137.7963 30.8411 80.1712 0.0000 0.0000 0.0000
# 2 30.8411 26.7594 35.7958 0.0000 0.0000 0.0000
# 3 80.1712 35.7958 166.1231 0.0000 0.0000 0.0000
# 4 0.0000 0.0000 0.0000 -93.0922 0.0000 0.0000
# 5 0.0000 0.0000 0.0000 0.0000 37.9063 0.0000
# 6 0.0000 0.0000 0.0000 0.0000 0.0000 20.7301
#
#
#
# Elastic Compliance Matrix: (Units=1/GPa)
#
#
# Indices 1 2 3 4 5 6 
#
# 1 0.011180 -0.007963 -0.003680 0.000000 0.000000 0.000000
# 2 -0.007963 0.058176 -0.008692 0.000000 0.000000 0.000000
# 3 -0.003680 -0.008692 0.009668 0.000000 0.000000 0.000000
# 4 0.000000 0.000000 0.000000 -0.010742 0.000000 0.000000
# 5 0.000000 0.000000 0.000000 0.000000 0.026381 0.000000
# 6 0.000000 0.000000 0.000000 0.000000 0.000000 0.048239
#
#
# Mechanical properties :
#
#
# Convention : Reuss Voigt Hill
#
# Bulk Modulus (GPa) = 26.07309 69.36610 47.71960
# Shear Modulus (GPa) = 25.46366 5.36690 15.41528
#
# Velocity S-wave (km/s) = 3.76058 1.72646 2.92597
# Velocity P-wave (km/s) = 5.77376 6.51909 6.15771
#
# Compressibility (1/GPa) = 0.03835372
#
# Stress axis : x y z
#
# Youngs Moduli (GPa) = 89.44300 17.18921 103.42869
#
# Poissons Ratio (x) = 0.13688 0.38059
# Poissons Ratio (y) = 0.71227 0.89905
# Poissons Ratio (z) = 0.32912 0.14942
#
# Static dielectric constant tensor:
#      x y z
#    x 3.506230 0.000000 0.000000 
#    y 0.000000 2.775030 0.000000 
#    z 0.000000 0.000000 3.909590 
# 
# 
# High freq. dielectric constant tensor:
#      x y z
#    x 1.713120 0.000000 0.000000 
#    y 0.000000 1.627250 0.000000 
#    z 0.000000 0.000000 1.723200 
# 
# From -- ./inp_files/18400.got.cif
#   From: 2010.03.12/outbox.cif.g09.slc.cpg/sg35_10_cif.got.tgz:18400.got - 2010.04.14 02:02:04.
