data_PCOD8173271
_publ_section_title
;
Structure prediction by ZEFSAII (Michael W. Deem and Ramdas Pophale) SiO2 
 PCOD8173271
Probable space group: C M M 2
;
_chemical_formula_sum "Si O2"
_cell_formula_units_Z 48
_cell_length_a 30.137985
_cell_length_b 8.829024
_cell_length_c 9.390672
_cell_angle_alpha 90.000000
_cell_angle_beta 90.000000
_cell_angle_gamma 90.000000
_cell_volume 2498.754455
_symmetry_space_group_name_H-M "C M M 2"
_symmetry_group_IT_number 35
_symmetry_cell_setting 'orthorhombic'
loop_
_space_group_symop_operation_xyz
x,y,z
-x,-y,z
-x,y,z
x,-y,z
1/2+x,1/2+y,z
1/2-x,1/2-y,z
1/2-x,1/2+y,z
1/2+x,1/2-y,z
loop_
_atom_site_type_symbol
_atom_site_label
_atom_site_fract_x
_atom_site_fract_y
_atom_site_fract_z
Si Si1 0.428716 0.335870 0.244770
Si Si2 0.000000 0.672010 0.405384
Si Si3 0.126422 0.327165 0.036631
Si Si4 0.796691 0.322715 0.252443
Si Si5 0.354421 0.666999 0.474025
Si Si6 0.594240 0.824262 0.731849
Si Si7 0.500000 0.321234 0.700631
O O1 0.452936 0.500000 0.229375
O O2 0.458048 0.202049 0.307531
O O3 0.413003 0.280547 0.090626
O O4 0.387068 0.356136 0.344427
O O5 0.000000 0.500000 0.462027
O O6 0.000000 0.791875 0.532422
O O7 0.114430 0.500000 0.074240
O O8 0.172223 0.283811 0.115927
O O9 0.127157 0.303150 0.866566
O O10 0.790939 0.500000 0.272052
O O11 0.750000 0.250000 0.213833
O O12 0.813661 0.260370 0.405966
O O13 0.338659 0.500000 0.527199
O O14 0.379575 0.752124 0.600684
O O15 0.545738 0.750010 0.762106
O O16 0.585685 0.000000 0.697400
O O17 0.500000 0.500000 0.730272
#
# Coordination Sequence:
#
# PCOD8173271 Si02
#       7
#     8   4   8   8   8   8   4
#     4  10  20  34  54  79 109 143 188 238 285 334
#     4  12  22  33  54  79 108 148 194 242 290 339
#     4   9  21  39  58  82 115 153 193 234 288 351
#     4  10  20  38  63  89 116 147 189 239 291 352
#     4  10  20  35  57  84 114 147 186 235 286 343
#     4  11  22  38  59  84 116 158 199 240 290 345
#     4  12  24  37  54  81 116 154 198 246 290 341
#
# _framework density 19.209569999999999
#
# number of rings (size 3 to 8) (size 9 to 14) (size 15 to 20)
#    0.000    1.667    1.667    3.500    0.000    4.000 
#    0.000    1.667    0.000    2.000    0.000    0.000 
#    0.000    0.000    0.000    0.000    0.000    0.000 
#
# Total GULP energy -297437.357984 kJ/mol
# GULP energy per Si atom -12393.223249 kJ/mol
# Density = 1.916585 g / cm^3
# Si number density = 19.209570 Si / 1000 Ang^3
#
#
#
# Elastic Constant Matrix: (Units=GPa)
#
#
# Indices 1 2 3 4 5 6 
#
# 1 97.3314 47.0822 40.4313 0.0000 0.0000 0.0000
# 2 47.0822 130.5500 42.6999 0.0000 0.0000 0.0000
# 3 40.4313 42.6999 95.7258 0.0000 0.0000 0.0000
# 4 0.0000 0.0000 0.0000 22.8955 0.0000 0.0000
# 5 0.0000 0.0000 0.0000 0.0000 31.1762 0.0000
# 6 0.0000 0.0000 0.0000 0.0000 0.0000 33.3810
#
#
#
# Elastic Compliance Matrix: (Units=1/GPa)
#
#
# Indices 1 2 3 4 5 6 
#
# 1 0.013758 -0.003584 -0.004212 0.000000 0.000000 0.000000
# 2 -0.003584 0.009902 -0.002903 0.000000 0.000000 0.000000
# 3 -0.004212 -0.002903 0.013521 0.000000 0.000000 0.000000
# 4 0.000000 0.000000 0.000000 0.043677 0.000000 0.000000
# 5 0.000000 0.000000 0.000000 0.000000 0.032076 0.000000
# 6 0.000000 0.000000 0.000000 0.000000 0.000000 0.029957
#
#
# Mechanical properties :
#
#
# Convention : Reuss Voigt Hill
#
# Bulk Modulus (GPa) = 63.36446 64.89266 64.12856
# Shear Modulus (GPa) = 29.49006 30.38344 29.93675
#
# Velocity S-wave (km/s) = 3.92238 3.98135 3.95198
# Velocity P-wave (km/s) = 7.31922 7.41550 7.36752
#
# Compressibility (1/GPa) = 0.01578172
#
# Stress axis : x y z
#
# Youngs Moduli (GPa) = 72.68756 100.98976 73.96148
#
# Poissons Ratio (x) = 0.36194 0.31153
# Poissons Ratio (y) = 0.26051 0.21473
# Poissons Ratio (z) = 0.30616 0.29319
#
# Static dielectric constant tensor:
#      x y z
#    x 3.457850 0.000000 0.000000 
#    y 0.000000 3.909510 0.000000 
#    z 0.000000 0.000000 3.414550 
# 
# 
# High freq. dielectric constant tensor:
#      x y z
#    x 1.730580 0.000000 0.000000 
#    y 0.000000 1.765930 0.000000 
#    z 0.000000 0.000000 1.737280 
# 
# From -- ./inp_files/5356.got.cif
#   From: 2010.03.12/outbox.cif.g09.slc.cpg/sg35_3_cif.got.tgz:5356.got - 2010.04.14 02:02:04.
