data_PCOD8173478
_publ_section_title
;
Structure prediction by ZEFSAII (Michael W. Deem and Ramdas Pophale) SiO2 
 PCOD8173478
Probable space group: C M M 2
;
_chemical_formula_sum "Si O2"
_cell_formula_units_Z 40
_cell_length_a 8.703749
_cell_length_b 15.607179
_cell_length_c 14.219080
_cell_angle_alpha 90.000000
_cell_angle_beta 90.000000
_cell_angle_gamma 90.000000
_cell_volume 1931.533600
_symmetry_space_group_name_H-M "C M M 2"
_symmetry_group_IT_number 35
_symmetry_cell_setting 'orthorhombic'
loop_
_space_group_symop_operation_xyz
x,y,z
-x,-y,z
-x,y,z
x,-y,z
1/2+x,1/2+y,z
1/2-x,1/2-y,z
1/2-x,1/2+y,z
1/2+x,1/2-y,z
loop_
_atom_site_type_symbol
_atom_site_label
_atom_site_fract_x
_atom_site_fract_y
_atom_site_fract_z
Si Si1 0.180699 0.840950 0.516350
Si Si2 0.678982 0.837834 0.140398
Si Si3 0.817611 0.655557 0.711411
Si Si4 0.173223 0.902922 0.316788
Si Si5 0.675092 0.500000 0.042699
Si Si6 0.323667 0.500000 0.820469
O O1 0.250000 0.750000 0.489689
O O2 0.264370 0.877599 0.608683
O O3 0.218014 0.900289 0.426794
O O4 0.000000 0.834368 0.537817
O O5 0.500000 0.834935 0.124256
O O6 0.750000 0.750000 0.101154
O O7 0.715652 0.846796 0.251656
O O8 0.746150 0.915387 0.081396
O O9 0.750000 0.750000 0.733010
O O10 0.758800 0.586322 0.785746
O O11 0.000000 0.661281 0.715989
O O12 0.000000 0.867829 0.303788
O O13 0.186423 0.000000 0.281583
O O14 0.500000 0.500000 0.077106
O O15 0.689348 0.500000 0.931555
O O16 0.500000 0.500000 0.786194
#
# Coordination Sequence:
#
# PCOD8173478 Si02
#       6
#     8   8   8   8   4   4
#     4  10  20  35  57  86 123 168 212 257 306 363
#     4  12  25  42  67  96 128 169 210 257 313 374
#     4  11  23  41  65  95 130 169 211 260 311 372
#     4  10  21  37  59  89 128 170 211 258 309 366
#     4  11  25  47  70  95 126 159 205 264 320 379
#     4  11  25  45  70  95 124 163 205 260 324 379
#
# _framework density 20.708932000000001
#
# number of rings (size 3 to 8) (size 9 to 14) (size 15 to 20)
#    0.000    1.200    1.000    6.600    1.400    5.600 
#    0.000    0.000    0.000    0.000    0.000    0.000 
#    0.000    0.000    0.000    0.000    0.000    0.000 
#
# Total GULP energy -248052.363203 kJ/mol
# GULP energy per Si atom -12402.618160 kJ/mol
# Density = 2.066180 g / cm^3
# Si number density = 20.708932 Si / 1000 Ang^3
#
#
#
# Elastic Constant Matrix: (Units=GPa)
#
#
# Indices 1 2 3 4 5 6 
#
# 1 187.1870 73.3479 59.3943 0.0000 0.0000 0.0000
# 2 73.3479 134.6083 51.5776 0.0000 0.0000 0.0000
# 3 59.3943 51.5776 86.9383 0.0000 0.0000 0.0000
# 4 0.0000 0.0000 0.0000 20.7654 0.0000 0.0000
# 5 0.0000 0.0000 0.0000 0.0000 31.2534 0.0000
# 6 0.0000 0.0000 0.0000 0.0000 0.0000 35.3471
#
#
#
# Elastic Compliance Matrix: (Units=1/GPa)
#
#
# Indices 1 2 3 4 5 6 
#
# 1 0.007539 -0.002762 -0.003512 0.000000 0.000000 0.000000
# 2 -0.002762 0.010627 -0.004417 0.000000 0.000000 0.000000
# 3 -0.003512 -0.004417 0.016522 0.000000 0.000000 0.000000
# 4 0.000000 0.000000 0.000000 0.048157 0.000000 0.000000
# 5 0.000000 0.000000 0.000000 0.000000 0.031996 0.000000
# 6 0.000000 0.000000 0.000000 0.000000 0.000000 0.028291
#
#
# Mechanical properties :
#
#
# Convention : Reuss Voigt Hill
#
# Bulk Modulus (GPa) = 75.15861 86.37482 80.76671
# Shear Modulus (GPa) = 29.59462 32.43411 31.01437
#
# Velocity S-wave (km/s) = 3.78441 3.96180 3.87412
# Velocity P-wave (km/s) = 7.44764 7.92006 7.68748
#
# Compressibility (1/GPa) = 0.01330520
#
# Stress axis : x y z
#
# Youngs Moduli (GPa) = 132.64534 94.10201 60.52522
#
# Poissons Ratio (x) = 0.25995 0.21254
# Poissons Ratio (y) = 0.36642 0.26736
# Poissons Ratio (z) = 0.46579 0.41567
#
# Static dielectric constant tensor:
#      x y z
#    x 3.870510 0.000000 0.000000 
#    y 0.000000 3.754340 0.000000 
#    z 0.000000 0.000000 3.789140 
# 
# 
# High freq. dielectric constant tensor:
#      x y z
#    x 1.819500 0.000000 0.000000 
#    y 0.000000 1.817050 0.000000 
#    z 0.000000 0.000000 1.812190 
# 
# From -- ./inp_files/14794.got.cif
#   From: 2010.03.12/outbox.cif.g09.slc.cpg/sg35_8_cif.got.tgz:14794.got - 2010.04.14 02:02:04.
