data_PCOD8173734
_publ_section_title
;
Structure prediction by ZEFSAII (Michael W. Deem and Ramdas Pophale) SiO2 
 PCOD8173734
Probable space group: C M M 2
;
_chemical_formula_sum "Si O2"
_cell_formula_units_Z 64
_cell_length_a 28.239532
_cell_length_b 9.167593
_cell_length_c 14.088894
_cell_angle_alpha 90.000000
_cell_angle_beta 90.000000
_cell_angle_gamma 90.000000
_cell_volume 3647.453140
_symmetry_space_group_name_H-M "C M M 2"
_symmetry_group_IT_number 35
_symmetry_cell_setting 'orthorhombic'
loop_
_space_group_symop_operation_xyz
x,y,z
-x,-y,z
-x,y,z
x,-y,z
1/2+x,1/2+y,z
1/2-x,1/2-y,z
1/2-x,1/2+y,z
1/2+x,1/2-y,z
loop_
_atom_site_type_symbol
_atom_site_label
_atom_site_fract_x
_atom_site_fract_y
_atom_site_fract_z
Si Si1 0.298224 0.832736 0.212460
Si Si2 0.200889 0.829018 0.712786
Si Si3 0.552460 0.826479 0.211395
Si Si4 0.119854 0.830544 0.563529
Si Si5 0.554025 0.169719 0.701196
Si Si6 0.124268 0.332435 0.369258
Si Si7 0.366633 0.828512 0.849774
Si Si8 0.127000 0.673609 0.064021
O O1 0.250000 0.750000 0.226818
O O2 0.328875 0.811826 0.306990
O O3 0.326501 0.771460 0.120589
O O4 0.285801 0.000000 0.195578
O O5 0.250000 0.750000 0.690558
O O6 0.167032 0.799151 0.623600
O O7 0.177293 0.759083 0.806011
O O8 0.209334 0.000000 0.730329
O O9 0.500000 0.757887 0.211536
O O10 0.579002 0.780715 0.307956
O O11 0.580504 0.766918 0.118982
O O12 0.550564 0.000000 0.206500
O O13 0.074349 0.755171 0.610961
O O14 0.128760 0.769168 0.459749
O O15 0.108498 0.000000 0.557095
O O16 0.500000 0.218310 0.720511
O O17 0.584639 0.206537 0.794740
O O18 0.557075 0.000000 0.676314
O O19 0.118660 0.500000 0.401595
O O20 0.354721 0.000000 0.846617
O O21 0.372938 0.769145 0.956575
O O22 0.125941 0.500000 0.066598
#
# Coordination Sequence:
#
# PCOD8173734 Si02
#       8
#     8   8   8   8   8   8   8   8
#     4   9  18  32  48  68  96 128 160 195 237 283
#     4  10  21  36  52  71  96 126 161 200 244 293
#     4   8  14  26  46  72  99 126 157 193 234 280
#     4  10  21  35  51  72  97 126 161 201 245 291
#     4   9  18  32  50  73 100 130 164 200 239 284
#     4   9  18  32  49  70  97 126 157 197 241 284
#     4   9  17  31  51  74 101 130 161 200 241 281
#     4   8  15  28  46  70  99 127 156 194 237 278
#
# _framework density 17.546491
#
# number of rings (size 3 to 8) (size 9 to 14) (size 15 to 20)
#    0.000    3.000    0.000    2.250    0.000    4.250 
#    0.000    8.125    0.000    0.750    0.000    0.000 
#    0.000    0.000    0.000    0.000    0.000    0.000 
#
# Total GULP energy -396748.680965 kJ/mol
# GULP energy per Si atom -12398.396280 kJ/mol
# Density = 1.750655 g / cm^3
# Si number density = 17.546491 Si / 1000 Ang^3
#
#
#
# Elastic Constant Matrix: (Units=GPa)
#
#
# Indices 1 2 3 4 5 6 
#
# 1 119.6291 43.3102 46.6614 0.0000 0.0000 0.0000
# 2 43.3102 52.9106 41.7245 0.0000 0.0000 0.0000
# 3 46.6614 41.7245 125.8688 0.0000 0.0000 0.0000
# 4 0.0000 0.0000 0.0000 16.7539 0.0000 0.0000
# 5 0.0000 0.0000 0.0000 0.0000 11.4907 0.0000
# 6 0.0000 0.0000 0.0000 0.0000 0.0000 24.2728
#
#
#
# Elastic Compliance Matrix: (Units=1/GPa)
#
#
# Indices 1 2 3 4 5 6 
#
# 1 0.012122 -0.008636 -0.001631 0.000000 0.000000 0.000000
# 2 -0.008636 0.031742 -0.007321 0.000000 0.000000 0.000000
# 3 -0.001631 -0.007321 0.010976 0.000000 0.000000 0.000000
# 4 0.000000 0.000000 0.000000 0.059688 0.000000 0.000000
# 5 0.000000 0.000000 0.000000 0.000000 0.087027 0.000000
# 6 0.000000 0.000000 0.000000 0.000000 0.000000 0.041198
#
#
# Mechanical properties :
#
#
# Convention : Reuss Voigt Hill
#
# Bulk Modulus (GPa) = 50.85343 62.42230 56.63786
# Shear Modulus (GPa) = 17.57571 21.61765 19.59668
#
# Velocity S-wave (km/s) = 3.16834 3.51382 3.34555
# Velocity P-wave (km/s) = 6.51380 7.21909 6.87549
#
# Compressibility (1/GPa) = 0.01966436
#
# Stress axis : x y z
#
# Youngs Moduli (GPa) = 82.49446 31.50384 91.10703
#
# Poissons Ratio (x) = 0.27208 0.14859
# Poissons Ratio (y) = 0.71246 0.66696
# Poissons Ratio (z) = 0.13454 0.23063
#
# Static dielectric constant tensor:
#      x y z
#    x 3.439010 0.000000 0.000000 
#    y 0.000000 3.009200 0.000000 
#    z 0.000000 0.000000 3.343780 
# 
# 
# High freq. dielectric constant tensor:
#      x y z
#    x 1.683280 0.000000 0.000000 
#    y 0.000000 1.650230 0.000000 
#    z 0.000000 0.000000 1.681390 
# 
# From -- ./inp_files/17755.got.cif
#   From: 2010.03.12/outbox.cif.g09.slc.cpg/sg35_9_cif.got.tgz:17755.got - 2010.04.14 02:02:04.
