data_PCOD8173666
_publ_section_title
;
Structure prediction by ZEFSAII (Michael W. Deem and Ramdas Pophale) SiO2 
 PCOD8173666
Probable space group: C M M 2
;
_chemical_formula_sum "Si O2"
_cell_formula_units_Z 64
_cell_length_a 13.708690
_cell_length_b 18.689370
_cell_length_c 11.773692
_cell_angle_alpha 90.000000
_cell_angle_beta 90.000000
_cell_angle_gamma 90.000000
_cell_volume 3016.499712
_symmetry_space_group_name_H-M "C M M 2"
_symmetry_group_IT_number 35
_symmetry_cell_setting 'orthorhombic'
loop_
_space_group_symop_operation_xyz
x,y,z
-x,-y,z
-x,y,z
x,-y,z
1/2+x,1/2+y,z
1/2-x,1/2-y,z
1/2-x,1/2+y,z
1/2+x,1/2-y,z
loop_
_atom_site_type_symbol
_atom_site_label
_atom_site_fract_x
_atom_site_fract_y
_atom_site_fract_z
Si Si1 0.113700 0.793384 0.332490
Si Si2 0.197610 0.921105 0.191090
Si Si3 0.893427 0.346968 0.717466
Si Si4 0.151146 0.782428 0.589419
Si Si5 0.611895 0.225266 0.942917
Si Si6 0.695749 0.420012 0.709610
Si Si7 0.117982 0.884351 0.950366
Si Si8 0.887751 0.341806 0.184252
O O1 0.137319 0.864820 0.264365
O O2 0.162258 0.792934 0.455356
O O3 0.147787 0.723869 0.262772
O O4 0.000000 0.790184 0.352725
O O5 0.313843 0.906842 0.204132
O O6 0.179535 0.000000 0.241628
O O7 0.159910 0.921849 0.062140
O O8 0.919757 0.281411 0.629767
O O9 0.848120 0.317522 0.835363
O O10 0.810132 0.403345 0.680310
O O11 0.000000 0.385132 0.733996
O O12 0.250000 0.750000 0.640797
O O13 0.129009 0.859915 0.646353
O O14 0.500000 0.241935 0.918789
O O15 0.660583 0.303218 0.955067
O O16 0.626651 0.179591 0.054756
O O17 0.675472 0.500000 0.661248
O O18 0.665795 0.421983 0.841547
O O19 0.000000 0.890488 0.948454
O O20 0.000000 0.364111 0.209944
#
# Coordination Sequence:
#
# PCOD8173666 Si02
#       8
#     8   8   8   8   8   8   8   8
#     4  11  23  40  63  88 114 149 196 246 290 338
#     4  12  25  38  58  88 122 158 192 231 288 353
#     4  10  20  37  62  89 117 150 193 243 290 341
#     4  10  21  38  61  86 114 150 195 246 290 339
#     4   9  17  32  59  88 110 143 191 237 282 331
#     4  11  24  38  57  88 122 158 193 231 289 352
#     4  11  22  38  59  86 121 156 195 241 287 341
#     4  10  21  39  63  89 116 149 193 243 290 340
#
# _framework density 21.216643000000001
#
# number of rings (size 3 to 8) (size 9 to 14) (size 15 to 20)
#    0.000    1.500    2.500    3.000    0.000    4.250 
#    0.000    0.000    0.000    3.750    0.000    3.500 
#    0.000    0.000    0.000    0.000    0.000    0.000 
#
# Total GULP energy -396587.123466 kJ/mol
# GULP energy per Si atom -12393.347608 kJ/mol
# Density = 2.116835 g / cm^3
# Si number density = 21.216643 Si / 1000 Ang^3
#
#
#
# Elastic Constant Matrix: (Units=GPa)
#
#
# Indices 1 2 3 4 5 6 
#
# 1 66.3836 9.9469 -4.6925 0.0000 0.0000 0.0000
# 2 9.9469 101.2138 18.1811 0.0000 0.0000 0.0000
# 3 -4.6925 18.1811 110.1020 0.0000 0.0000 0.0000
# 4 0.0000 0.0000 0.0000 5.7997 0.0000 0.0000
# 5 0.0000 0.0000 0.0000 0.0000 17.9695 0.0000
# 6 0.0000 0.0000 0.0000 0.0000 0.0000 18.4893
#
#
#
# Elastic Compliance Matrix: (Units=1/GPa)
#
#
# Indices 1 2 3 4 5 6 
#
# 1 0.015382 -0.001679 0.000933 0.000000 0.000000 0.000000
# 2 -0.001679 0.010365 -0.001783 0.000000 0.000000 0.000000
# 3 0.000933 -0.001783 0.009417 0.000000 0.000000 0.000000
# 4 0.000000 0.000000 0.000000 0.172422 0.000000 0.000000
# 5 0.000000 0.000000 0.000000 0.000000 0.055650 0.000000
# 6 0.000000 0.000000 0.000000 0.000000 0.000000 0.054085
#
#
# Mechanical properties :
#
#
# Convention : Reuss Voigt Hill
#
# Bulk Modulus (GPa) = 33.21761 36.06337 34.64049
# Shear Modulus (GPa) = 15.04142 25.40261 20.22201
#
# Velocity S-wave (km/s) = 2.66549 3.46395 3.09061
# Velocity P-wave (km/s) = 5.01632 5.74745 5.39429
#
# Compressibility (1/GPa) = 0.03010452
#
# Stress axis : x y z
#
# Youngs Moduli (GPa) = 65.01307 96.47459 106.19431
#
# Poissons Ratio (x) = 0.16200 -0.09906
# Poissons Ratio (y) = 0.10917 0.18937
# Poissons Ratio (z) = -0.06065 0.17203
#
# Static dielectric constant tensor:
#      x y z
#    x 3.947940 0.000000 0.000000 
#    y 0.000000 3.684260 0.000000 
#    z 0.000000 0.000000 3.755420 
# 
# 
# High freq. dielectric constant tensor:
#      x y z
#    x 1.847200 0.000000 0.000000 
#    y 0.000000 1.810280 0.000000 
#    z 0.000000 0.000000 1.822930 
# 
# From -- ./inp_files/13171.got.cif
#   From: 2010.03.12/outbox.cif.g09.slc.cpg/sg35_7_cif.got.tgz:13171.got - 2010.04.14 02:02:04.
