data_PCOD8173351
_publ_section_title
;
Structure prediction by ZEFSAII (Michael W. Deem and Ramdas Pophale) SiO2 
 PCOD8173351
Probable space group: C M M 2
;
_chemical_formula_sum "Si O2"
_cell_formula_units_Z 64
_cell_length_a 28.766157
_cell_length_b 8.974888
_cell_length_c 12.628577
_cell_angle_alpha 90.000000
_cell_angle_beta 90.000000
_cell_angle_gamma 90.000000
_cell_volume 3260.358080
_symmetry_space_group_name_H-M "C M M 2"
_symmetry_group_IT_number 35
_symmetry_cell_setting 'orthorhombic'
loop_
_space_group_symop_operation_xyz
x,y,z
-x,-y,z
-x,y,z
x,-y,z
1/2+x,1/2+y,z
1/2-x,1/2-y,z
1/2-x,1/2+y,z
1/2+x,1/2-y,z
loop_
_atom_site_type_symbol
_atom_site_label
_atom_site_fract_x
_atom_site_fract_y
_atom_site_fract_z
Si Si1 0.701448 0.823607 0.969260
Si Si2 0.554389 0.839364 0.850144
Si Si3 0.144473 0.672363 0.530228
Si Si4 0.799967 0.825140 0.347017
Si Si5 0.051306 0.677629 0.623064
Si Si6 0.296080 0.829724 0.730636
Si Si7 0.447128 0.177945 0.080217
Si Si8 0.859292 0.823952 0.143180
O O1 0.750000 0.750000 0.003659
O O2 0.688863 0.777967 0.848354
O O3 0.704817 0.000000 0.986642
O O4 0.661176 0.756014 0.040503
O O5 0.500000 0.870891 0.852347
O O6 0.565324 0.753305 0.739385
O O7 0.580706 0.000000 0.849632
O O8 0.566230 0.759356 0.961731
O O9 0.150671 0.500000 0.496777
O O10 0.171197 0.775499 0.448967
O O11 0.089911 0.720227 0.535264
O O12 0.162874 0.701392 0.648635
O O13 0.750000 0.750000 0.343914
O O14 0.828822 0.777588 0.244138
O O15 0.792061 0.000000 0.353529
O O16 0.050482 0.500000 0.637952
O O17 0.000000 0.734349 0.586580
O O18 0.250000 0.750000 0.689164
O O19 0.281852 0.000000 0.735373
O O20 0.500000 0.221376 0.111303
O O21 0.411620 0.260262 0.159990
O O22 0.440943 0.000000 0.085414
O O23 0.860392 0.000000 0.127423
#
# Coordination Sequence:
#
# PCOD8173351 Si02
#       8
#     8   8   8   8   8   8   8   8
#     4  10  20  35  56  82 115 148 182 228 284 347
#     4   7  11  22  44  75 110 146 181 219 264 313
#     4  10  20  34  57  86 114 145 187 231 280 335
#     4  11  25  44  63  82 107 141 187 239 291 341
#     4   8  14  26  48  80 116 150 185 225 267 317
#     4   9  19  33  51  79 112 144 177 221 280 344
#     4   9  18  33  56  86 117 151 192 236 280 329
#     4  11  24  39  57  82 112 150 194 235 285 342
#
# _framework density 19.629746000000001
#
# number of rings (size 3 to 8) (size 9 to 14) (size 15 to 20)
#    0.000    2.625    0.000    3.375    1.750    5.250 
#    0.000    0.625    0.000    2.625    0.000    0.000 
#    0.000    0.000    0.000    0.000    0.000    0.000 
#
# Total GULP energy -396538.497216 kJ/mol
# GULP energy per Si atom -12391.828038 kJ/mol
# Density = 1.958507 g / cm^3
# Si number density = 19.629746 Si / 1000 Ang^3
#
#
#
# Elastic Constant Matrix: (Units=GPa)
#
#
# Indices 1 2 3 4 5 6 
#
# 1 143.7312 45.6889 63.4528 0.0000 0.0000 0.0000
# 2 45.6889 49.5063 35.0330 0.0000 0.0000 0.0000
# 3 63.4528 35.0330 81.7456 0.0000 0.0000 0.0000
# 4 0.0000 0.0000 0.0000 22.1513 0.0000 0.0000
# 5 0.0000 0.0000 0.0000 0.0000 31.4089 0.0000
# 6 0.0000 0.0000 0.0000 0.0000 0.0000 26.5870
#
#
#
# Elastic Compliance Matrix: (Units=1/GPa)
#
#
# Indices 1 2 3 4 5 6 
#
# 1 0.011826 -0.006341 -0.006462 0.000000 0.000000 0.000000
# 2 -0.006341 0.032392 -0.008960 0.000000 0.000000 0.000000
# 3 -0.006462 -0.008960 0.021089 0.000000 0.000000 0.000000
# 4 0.000000 0.000000 0.000000 0.045144 0.000000 0.000000
# 5 0.000000 0.000000 0.000000 0.000000 0.031838 0.000000
# 6 0.000000 0.000000 0.000000 0.000000 0.000000 0.037612
#
#
# Mechanical properties :
#
#
# Convention : Reuss Voigt Hill
#
# Bulk Modulus (GPa) = 45.91179 62.59249 54.25214
# Shear Modulus (GPa) = 21.67434 24.75000 23.21217
#
# Velocity S-wave (km/s) = 3.32649 3.55469 3.44248
# Velocity P-wave (km/s) = 6.18011 6.98595 6.59535
#
# Compressibility (1/GPa) = 0.02178090
#
# Stress axis : x y z
#
# Youngs Moduli (GPa) = 84.56004 30.87169 47.41861
#
# Poissons Ratio (x) = 0.19577 0.30642
# Poissons Ratio (y) = 0.53622 0.42486
# Poissons Ratio (z) = 0.54642 0.27660
#
# Static dielectric constant tensor:
#      x y z
#    x 3.788130 0.000000 0.000000 
#    y 0.000000 3.279500 0.000000 
#    z 0.000000 0.000000 3.660910 
# 
# 
# High freq. dielectric constant tensor:
#      x y z
#    x 1.776560 0.000000 0.000000 
#    y 0.000000 1.726660 0.000000 
#    z 0.000000 0.000000 1.754100 
# 
# From -- ./inp_files/14575.got.cif
#   From: 2010.03.12/outbox.cif.g09.slc.cpg/sg35_8_cif.got.tgz:14575.got - 2010.04.14 02:02:04.
