data_PCOD8173110
_publ_section_title
;
Structure prediction by ZEFSAII (Michael W. Deem and Ramdas Pophale) SiO2 
 PCOD8173110
Probable space group: C M M 2
;
_chemical_formula_sum "Si O2"
_cell_formula_units_Z 48
_cell_length_a 8.945427
_cell_length_b 18.931707
_cell_length_c 15.526889
_cell_angle_alpha 90.000000
_cell_angle_beta 90.000000
_cell_angle_gamma 90.000000
_cell_volume 2629.512857
_symmetry_space_group_name_H-M "C M M 2"
_symmetry_group_IT_number 35
_symmetry_cell_setting 'orthorhombic'
loop_
_space_group_symop_operation_xyz
x,y,z
-x,-y,z
-x,y,z
x,-y,z
1/2+x,1/2+y,z
1/2-x,1/2-y,z
1/2-x,1/2+y,z
1/2+x,1/2-y,z
loop_
_atom_site_type_symbol
_atom_site_label
_atom_site_fract_x
_atom_site_fract_y
_atom_site_fract_z
Si Si1 0.834764 0.083830 0.946750
Si Si2 0.170193 0.416538 0.113995
Si Si3 0.173408 0.825404 0.255120
Si Si4 0.174465 0.174558 0.445293
Si Si5 0.173977 0.082421 0.754816
Si Si6 0.177021 0.673116 0.611626
O O1 0.783545 0.107985 0.851560
O O2 0.000000 0.113882 0.967074
O O3 0.841155 0.000000 0.946866
O O4 0.722724 0.111635 0.020304
O O5 0.192511 0.500000 0.120670
O O6 0.266918 0.382105 0.188450
O O7 0.000000 0.393637 0.126301
O O8 0.250000 0.750000 0.242616
O O9 0.199769 0.859265 0.350717
O O10 0.000000 0.812625 0.238434
O O11 0.250000 0.250000 0.440268
O O12 0.257767 0.135003 0.524503
O O13 0.000000 0.180917 0.467541
O O14 0.280917 0.125179 0.692094
O O15 0.000000 0.098361 0.735839
O O16 0.207982 0.000000 0.742621
O O17 0.250000 0.750000 0.623083
O O18 0.000000 0.680394 0.604974
#
# Coordination Sequence:
#
# PCOD8173110 Si02
#       6
#     8   8   8   8   8   8
#     4   8  15  30  52  74  97 130 169 205 245 297
#     4  10  20  33  51  76 105 135 167 206 249 294
#     4  10  20  34  54  77 101 131 167 208 251 298
#     4   9  17  31  51  73  97 129 168 206 247 297
#     4   9  18  34  55  77 102 132 166 206 251 298
#     4  11  21  33  52  76 103 134 168 207 249 296
#
# _framework density 18.254332000000002
#
# number of rings (size 3 to 8) (size 9 to 14) (size 15 to 20)
#    0.000    2.500    0.000    5.000    0.000    4.000 
#    0.000    3.333    0.000    5.000    0.000    0.000 
#    0.000    0.000    0.000    0.000    0.000    0.000 
#
# Total GULP energy -297445.530988 kJ/mol
# GULP energy per Si atom -12393.563791 kJ/mol
# Density = 1.821278 g / cm^3
# Si number density = 18.254332 Si / 1000 Ang^3
#
#
#
# Elastic Constant Matrix: (Units=GPa)
#
#
# Indices 1 2 3 4 5 6 
#
# 1 135.3399 35.8173 81.7505 0.0000 0.0000 0.0000
# 2 35.8173 33.8182 39.9341 0.0000 0.0000 0.0000
# 3 81.7505 39.9341 161.8458 0.0000 0.0000 0.0000
# 4 0.0000 0.0000 0.0000 29.2045 0.0000 0.0000
# 5 0.0000 0.0000 0.0000 0.0000 34.2626 0.0000
# 6 0.0000 0.0000 0.0000 0.0000 0.0000 25.2338
#
#
#
# Elastic Compliance Matrix: (Units=1/GPa)
#
#
# Indices 1 2 3 4 5 6 
#
# 1 0.011929 -0.007788 -0.004104 0.000000 0.000000 0.000000
# 2 -0.007788 0.046812 -0.007617 0.000000 0.000000 0.000000
# 3 -0.004104 -0.007617 0.010131 0.000000 0.000000 0.000000
# 4 0.000000 0.000000 0.000000 0.034241 0.000000 0.000000
# 5 0.000000 0.000000 0.000000 0.000000 0.029186 0.000000
# 6 0.000000 0.000000 0.000000 0.000000 0.000000 0.039629
#
#
# Mechanical properties :
#
#
# Convention : Reuss Voigt Hill
#
# Bulk Modulus (GPa) = 33.49511 71.77865 52.63688
# Shear Modulus (GPa) = 22.63493 29.30698 25.97096
#
# Velocity S-wave (km/s) = 3.52515 4.01119 3.77600
# Velocity P-wave (km/s) = 5.91252 7.80126 6.92162
#
# Compressibility (1/GPa) = 0.02985511
#
# Stress axis : x y z
#
# Youngs Moduli (GPa) = 83.83167 21.36188 98.70755
#
# Poissons Ratio (x) = 0.16637 0.40507
# Poissons Ratio (y) = 0.65288 0.75183
# Poissons Ratio (z) = 0.34402 0.16271
#
# Static dielectric constant tensor:
#      x y z
#    x 3.497090 0.000000 0.000000 
#    y 0.000000 2.885320 0.000000 
#    z 0.000000 0.000000 4.091360 
# 
# 
# High freq. dielectric constant tensor:
#      x y z
#    x 1.717810 0.000000 0.000000 
#    y 0.000000 1.657250 0.000000 
#    z 0.000000 0.000000 1.731060 
# 
# From -- ./inp_files/15383.got.cif
#   From: 2010.03.12/outbox.cif.g09.slc.cpg/sg35_8_cif.got.tgz:15383.got - 2010.04.14 02:02:04.
