data_PCOD8173772
_publ_section_title
;
Structure prediction by ZEFSAII (Michael W. Deem and Ramdas Pophale) SiO2 
 PCOD8173772
Probable space group: C M M 2
;
_chemical_formula_sum "Si O2"
_cell_formula_units_Z 56
_cell_length_a 9.196247
_cell_length_b 18.463880
_cell_length_c 18.291546
_cell_angle_alpha 90.000000
_cell_angle_beta 90.000000
_cell_angle_gamma 90.000000
_cell_volume 3105.875264
_symmetry_space_group_name_H-M "C M M 2"
_symmetry_group_IT_number 35
_symmetry_cell_setting 'orthorhombic'
loop_
_space_group_symop_operation_xyz
x,y,z
-x,-y,z
-x,y,z
x,-y,z
1/2+x,1/2+y,z
1/2-x,1/2-y,z
1/2-x,1/2+y,z
1/2+x,1/2-y,z
loop_
_atom_site_type_symbol
_atom_site_label
_atom_site_fract_x
_atom_site_fract_y
_atom_site_fract_z
Si Si1 0.669780 0.082804 0.240630
Si Si2 0.170623 0.174041 0.961004
Si Si3 0.832651 0.176113 0.803808
Si Si4 0.169558 0.084528 0.506360
Si Si5 0.830690 0.825719 0.645693
Si Si6 0.827511 0.672997 0.382711
Si Si7 0.329732 0.583075 0.097320
O O1 0.500000 0.087041 0.224860
O O2 0.715204 0.133169 0.307838
O O3 0.751292 0.113818 0.169407
O O4 0.717586 0.000000 0.257759
O O5 0.250000 0.250000 0.967516
O O6 0.202667 0.135551 0.881092
O O7 0.000000 0.187525 0.971006
O O8 0.229854 0.122946 0.025215
O O9 0.750000 0.250000 0.806057
O O10 0.793262 0.138163 0.725963
O O11 0.000000 0.196734 0.803131
O O12 0.214467 0.115606 0.585497
O O13 0.270027 0.123459 0.447721
O O14 0.000000 0.098835 0.488881
O O15 0.206072 0.000000 0.505967
O O16 0.750000 0.750000 0.632272
O O17 0.000000 0.807517 0.639479
O O18 0.750000 0.750000 0.385209
O O19 0.000000 0.683226 0.390874
O O20 0.500000 0.594748 0.108214
O O21 0.287846 0.500000 0.086440
#
# Coordination Sequence:
#
# PCOD8173772 Si02
#       7
#     8   8   8   8   8   8   8
#     4   9  19  36  55  73  95 126 163 200 240 290
#     4   9  17  29  46  69  96 126 162 202 242 285
#     4   8  14  26  44  66  93 125 160 198 241 286
#     4  10  21  36  53  75 104 135 167 204 247 296
#     4   9  17  30  49  72  97 127 164 204 245 289
#     4  11  23  38  56  78 103 130 164 205 248 296
#     4   9  18  32  49  70  97 128 161 197 239 288
#
# _framework density 18.030343999999999
#
# number of rings (size 3 to 8) (size 9 to 14) (size 15 to 20)
#    0.000    2.714    0.000    1.286    0.000    4.857 
#    0.000    5.000    0.000    4.286    0.000    0.000 
#    0.000   13.714    0.000    0.000    0.000    0.000 
#
# Total GULP energy -346952.799594 kJ/mol
# GULP energy per Si atom -12391.171414 kJ/mol
# Density = 1.798931 g / cm^3
# Si number density = 18.030344 Si / 1000 Ang^3
#
#
#
# Elastic Constant Matrix: (Units=GPa)
#
#
# Indices 1 2 3 4 5 6 
#
# 1 42.0417 36.3586 57.5040 0.0000 0.0000 0.0000
# 2 36.3586 93.0555 82.4018 0.0000 0.0000 0.0000
# 3 57.5040 82.4018 202.9894 0.0000 0.0000 0.0000
# 4 0.0000 0.0000 0.0000 14.8951 0.0000 0.0000
# 5 0.0000 0.0000 0.0000 0.0000 26.8048 0.0000
# 6 0.0000 0.0000 0.0000 0.0000 0.0000 20.3306
#
#
#
# Elastic Compliance Matrix: (Units=1/GPa)
#
#
# Indices 1 2 3 4 5 6 
#
# 1 0.043650 -0.009531 -0.008496 0.000000 0.000000 0.000000
# 2 -0.009531 0.018858 -0.004955 0.000000 0.000000 0.000000
# 3 -0.008496 -0.004955 0.009345 0.000000 0.000000 0.000000
# 4 0.000000 0.000000 0.000000 0.067136 0.000000 0.000000
# 5 0.000000 0.000000 0.000000 0.000000 0.037307 0.000000
# 6 0.000000 0.000000 0.000000 0.000000 0.000000 0.049187
#
#
# Mechanical properties :
#
#
# Convention : Reuss Voigt Hill
#
# Bulk Modulus (GPa) = 38.62912 76.73504 57.68208
# Shear Modulus (GPa) = 17.85222 23.19426 20.52324
#
# Velocity S-wave (km/s) = 3.15003 3.59053 3.37747
# Velocity P-wave (km/s) = 5.89078 7.73566 6.87538
#
# Compressibility (1/GPa) = 0.02588721
#
# Stress axis : x y z
#
# Youngs Moduli (GPa) = 22.90966 53.02696 107.01188
#
# Poissons Ratio (x) = 0.50542 0.90919
# Poissons Ratio (y) = 0.21836 0.53027
# Poissons Ratio (z) = 0.19464 0.26276
#
# Static dielectric constant tensor:
#      x y z
#    x 3.290520 0.000000 0.000000 
#    y 0.000000 3.134930 0.000000 
#    z 0.000000 0.000000 4.068550 
# 
# 
# High freq. dielectric constant tensor:
#      x y z
#    x 1.694030 0.000000 0.000000 
#    y 0.000000 1.669550 0.000000 
#    z 0.000000 0.000000 1.726060 
# 
# From -- ./inp_files/18227.got.cif
#   From: 2010.03.12/outbox.cif.g09.slc.cpg/sg35_10_cif.got.tgz:18227.got - 2010.04.14 02:02:04.
