data_PCOD8173552
_publ_section_title
;
Structure prediction by ZEFSAII (Michael W. Deem and Ramdas Pophale) SiO2 
 PCOD8173552
Probable space group: C M M 2
;
_chemical_formula_sum "Si O2"
_cell_formula_units_Z 64
_cell_length_a 8.845630
_cell_length_b 18.575847
_cell_length_c 20.148590
_cell_angle_alpha 90.000000
_cell_angle_beta 90.000000
_cell_angle_gamma 90.000000
_cell_volume 3310.716966
_symmetry_space_group_name_H-M "C M M 2"
_symmetry_group_IT_number 35
_symmetry_cell_setting 'orthorhombic'
loop_
_space_group_symop_operation_xyz
x,y,z
-x,-y,z
-x,y,z
x,-y,z
1/2+x,1/2+y,z
1/2-x,1/2-y,z
1/2-x,1/2+y,z
1/2+x,1/2-y,z
loop_
_atom_site_type_symbol
_atom_site_label
_atom_site_fract_x
_atom_site_fract_y
_atom_site_fract_z
Si Si1 0.678726 0.825151 0.137660
Si Si2 0.673803 0.916907 0.263899
Si Si3 0.679419 0.326613 0.998942
Si Si4 0.678058 0.324404 0.521689
Si Si5 0.678162 0.171880 0.756998
Si Si6 0.177762 0.417265 0.630172
Si Si7 0.323263 0.323341 0.370446
Si Si8 0.175962 0.583914 0.886268
O O1 0.500000 0.816952 0.126597
O O2 0.750000 0.750000 0.160334
O O3 0.720514 0.881543 0.194469
O O4 0.755130 0.851695 0.069685
O O5 0.500000 0.900818 0.280595
O O6 0.772482 0.888916 0.324839
O O7 0.708857 0.000000 0.255659
O O8 0.500000 0.318619 0.002936
O O9 0.750000 0.250000 0.977493
O O10 0.724031 0.387524 0.946699
O O11 0.500000 0.318127 0.529542
O O12 0.750000 0.250000 0.547868
O O13 0.738647 0.390888 0.564164
O O14 0.727743 0.339019 0.445869
O O15 0.500000 0.181050 0.754593
O O16 0.750000 0.250000 0.760420
O O17 0.736262 0.129522 0.692236
O O18 0.727982 0.125748 0.820524
O O19 0.221027 0.500000 0.643146
O O20 0.000000 0.408083 0.619744
O O21 0.500000 0.313361 0.365458
O O22 0.250000 0.250000 0.343475
O O23 0.209555 0.500000 0.875477
O O24 0.000000 0.597514 0.901872
#
# Coordination Sequence:
#
# PCOD8173552 Si02
#       8
#     8   8   8   8   8   8   8   8
#     4  10  20  36  58  82 109 144 186 229 274 325
#     4  10  22  38  56  81 113 147 183 225 274 329
#     4  11  22  37  58  84 113 145 185 229 272 323
#     4  10  21  37  57  82 111 144 185 229 274 327
#     4  10  21  37  58  83 110 144 186 229 273 324
#     4  10  21  37  57  82 113 148 185 226 274 328
#     4  10  21  37  58  82 109 144 185 229 275 326
#     4  10  21  38  59  82 112 149 184 223 275 330
#
# _framework density 19.331160000000001
#
# number of rings (size 3 to 8) (size 9 to 14) (size 15 to 20)
#    0.000    1.875    0.000    4.500    0.000    9.750 
#    0.000    3.750    0.000    2.250    0.000    0.000 
#    0.000    0.000    0.000    0.000    0.000    0.000 
#
# Total GULP energy -396957.802018 kJ/mol
# GULP energy per Si atom -12404.931313 kJ/mol
# Density = 1.928716 g / cm^3
# Si number density = 19.331160 Si / 1000 Ang^3
#
#
#
# Elastic Constant Matrix: (Units=GPa)
#
#
# Indices 1 2 3 4 5 6 
#
# 1 78.7680 48.0230 52.8719 0.0000 0.0000 0.0000
# 2 48.0230 133.6733 82.9171 0.0000 0.0000 0.0000
# 3 52.8719 82.9171 126.5203 0.0000 0.0000 0.0000
# 4 0.0000 0.0000 0.0000 0.1310 0.0000 0.0000
# 5 0.0000 0.0000 0.0000 0.0000 14.1799 0.0000
# 6 0.0000 0.0000 0.0000 0.0000 0.0000 33.3916
#
#
#
# Elastic Compliance Matrix: (Units=1/GPa)
#
#
# Indices 1 2 3 4 5 6 
#
# 1 0.018376 -0.003098 -0.005649 0.000000 0.000000 0.000000
# 2 -0.003098 0.013127 -0.007309 0.000000 0.000000 0.000000
# 3 -0.005649 -0.007309 0.015055 0.000000 0.000000 0.000000
# 4 0.000000 0.000000 0.000000 7.635189 0.000000 0.000000
# 5 0.000000 0.000000 0.000000 0.000000 0.070523 0.000000
# 6 0.000000 0.000000 0.000000 0.000000 0.000000 0.029948
#
#
# Mechanical properties :
#
#
# Convention : Reuss Voigt Hill
#
# Bulk Modulus (GPa) = 69.21906 78.50952 73.86429
# Shear Modulus (GPa) = 0.63946 19.88379 10.26162
#
# Velocity S-wave (km/s) = 0.57577 3.21064 2.30648
# Velocity P-wave (km/s) = 6.02717 7.37871 6.73692
#
# Compressibility (1/GPa) = 0.01444689
#
# Stress axis : x y z
#
# Youngs Moduli (GPa) = 54.41906 76.17685 66.42509
#
# Poissons Ratio (x) = 0.23596 0.37525
# Poissons Ratio (y) = 0.16856 0.48549
# Poissons Ratio (z) = 0.30742 0.55676
#
# Static dielectric constant tensor:
#      x y z
#    x 3.500470 0.000000 0.000000 
#    y 0.000000 3.568890 0.000000 
#    z 0.000000 0.000000 3.665450 
# 
# 
# High freq. dielectric constant tensor:
#      x y z
#    x 1.751600 0.000000 0.000000 
#    y 0.000000 1.753530 0.000000 
#    z 0.000000 0.000000 1.764820 
# 
# From -- ./inp_files/18378.got.cif
#   From: 2010.03.12/outbox.cif.g09.slc.cpg/sg35_10_cif.got.tgz:18378.got - 2010.04.14 02:02:04.
