data_PCOD8173731
_publ_section_title
;
Structure prediction by ZEFSAII (Michael W. Deem and Ramdas Pophale) SiO2 
 PCOD8173731
Probable space group: C M M 2
;
_chemical_formula_sum "Si O2"
_cell_formula_units_Z 64
_cell_length_a 19.007424
_cell_length_b 9.619712
_cell_length_c 20.473861
_cell_angle_alpha 90.000000
_cell_angle_beta 90.000000
_cell_angle_gamma 90.000000
_cell_volume 3743.562457
_symmetry_space_group_name_H-M "C M M 2"
_symmetry_group_IT_number 35
_symmetry_cell_setting 'orthorhombic'
loop_
_space_group_symop_operation_xyz
x,y,z
-x,-y,z
-x,y,z
x,-y,z
1/2+x,1/2+y,z
1/2-x,1/2-y,z
1/2-x,1/2+y,z
1/2+x,1/2-y,z
loop_
_atom_site_type_symbol
_atom_site_label
_atom_site_fract_x
_atom_site_fract_y
_atom_site_fract_z
Si Si1 0.583723 0.845408 0.741770
Si Si2 0.580992 0.338082 0.861468
Si Si3 0.077485 0.665094 0.599311
Si Si4 0.681547 0.838333 0.489306
Si Si5 0.580914 0.338578 0.104210
Si Si6 0.182331 0.340162 0.341979
Si Si7 0.419160 0.839827 0.227057
Si Si8 0.178397 0.837005 0.982669
O O1 0.500000 0.849423 0.739046
O O2 0.610064 0.742055 0.797986
O O3 0.609976 0.792838 0.670275
O O4 0.612951 0.000000 0.757126
O O5 0.500000 0.297538 0.878059
O O6 0.586484 0.500000 0.845972
O O7 0.630895 0.294957 0.920946
O O8 0.071971 0.500000 0.596721
O O9 0.124302 0.720635 0.539817
O O10 0.000000 0.730797 0.590321
O O11 0.750000 0.750000 0.503043
O O12 0.654247 0.813795 0.415442
O O13 0.698374 0.000000 0.501758
O O14 0.500000 0.302009 0.085561
O O15 0.587790 0.500000 0.121707
O O16 0.607156 0.251624 0.166403
O O17 0.631884 0.297184 0.045258
O O18 0.203937 0.500000 0.332593
O O19 0.250000 0.250000 0.325713
O O20 0.121629 0.295386 0.292187
O O21 0.500000 0.809138 0.242275
O O22 0.405939 0.000000 0.208786
O O23 0.250000 0.750000 0.982621
O O24 0.197135 0.000000 0.981898
#
# Coordination Sequence:
#
# PCOD8173731 Si02
#       8
#     8   8   8   8   8   8   8   8
#     4   8  14  26  45  69  94 118 148 188 230 271
#     4   9  17  31  51  71  91 119 154 189 226 270
#     4   8  14  26  46  70  92 116 151 193 231 268
#     4   9  17  30  47  66  90 122 157 190 226 270
#     4   9  18  34  54  72  91 120 156 188 222 270
#     4   9  18  31  47  67  92 123 156 189 226 270
#     4   9  18  32  49  71  97 120 147 189 234 270
#     4  10  21  35  50  70  96 123 152 189 229 268
#
# _framework density 17.096015999999999
#
# number of rings (size 3 to 8) (size 9 to 14) (size 15 to 20)
#    0.000    3.125    0.000    1.125    0.000    4.000 
#    0.000    6.250    0.000    7.875    0.000    3.500 
#    0.000    0.000    0.000    0.000    0.000    0.000 
#
# Total GULP energy -396692.708806 kJ/mol
# GULP energy per Si atom -12396.647150 kJ/mol
# Density = 1.705710 g / cm^3
# Si number density = 17.096016 Si / 1000 Ang^3
#
#
#
# Elastic Constant Matrix: (Units=GPa)
#
#
# Indices 1 2 3 4 5 6 
#
# 1 89.7124 45.2635 87.4607 0.0000 0.0000 0.0000
# 2 45.2635 51.6479 64.0735 0.0000 0.0000 0.0000
# 3 87.4607 64.0735 171.8978 0.0000 0.0000 0.0000
# 4 0.0000 0.0000 0.0000 27.0753 0.0000 0.0000
# 5 0.0000 0.0000 0.0000 0.0000 11.8001 0.0000
# 6 0.0000 0.0000 0.0000 0.0000 0.0000 25.0524
#
#
#
# Elastic Compliance Matrix: (Units=1/GPa)
#
#
# Indices 1 2 3 4 5 6 
#
# 1 0.025357 -0.011565 -0.008591 0.000000 0.000000 0.000000
# 2 -0.011565 0.041291 -0.009507 0.000000 0.000000 0.000000
# 3 -0.008591 -0.009507 0.013732 0.000000 0.000000 0.000000
# 4 0.000000 0.000000 0.000000 0.036934 0.000000 0.000000
# 5 0.000000 0.000000 0.000000 0.000000 0.084745 0.000000
# 6 0.000000 0.000000 0.000000 0.000000 0.000000 0.039916
#
#
# Mechanical properties :
#
#
# Convention : Reuss Voigt Hill
#
# Bulk Modulus (GPa) = 47.49446 78.53926 63.01686
# Shear Modulus (GPa) = 16.21704 20.54958 18.38331
#
# Velocity S-wave (km/s) = 3.08325 3.47076 3.28273
# Velocity P-wave (km/s) = 6.36526 7.88045 7.16303
#
# Compressibility (1/GPa) = 0.02105509
#
# Stress axis : x y z
#
# Youngs Moduli (GPa) = 39.43739 24.21834 72.82338
#
# Poissons Ratio (x) = 0.28008 0.62560
# Poissons Ratio (y) = 0.45609 0.69232
# Poissons Ratio (z) = 0.33879 0.23024
#
# Static dielectric constant tensor:
#      x y z
#    x 3.121110 0.000000 0.000000 
#    y 0.000000 3.094220 0.000000 
#    z 0.000000 0.000000 3.484520 
# 
# 
# High freq. dielectric constant tensor:
#      x y z
#    x 1.640330 0.000000 0.000000 
#    y 0.000000 1.643920 0.000000 
#    z 0.000000 0.000000 1.672910 
# 
# From -- ./inp_files/16498.got.cif
#   From: 2010.03.12/outbox.cif.g09.slc.cpg/sg35_9_cif.got.tgz:16498.got - 2010.04.14 02:02:04.
