data_PCOD8173387
_publ_section_title
;
Structure prediction by ZEFSAII (Michael W. Deem and Ramdas Pophale) SiO2 
 PCOD8173387
Probable space group: C M M 2
;
_chemical_formula_sum "Si O2"
_cell_formula_units_Z 48
_cell_length_a 8.595981
_cell_length_b 18.984176
_cell_length_c 15.364863
_cell_angle_alpha 90.000000
_cell_angle_beta 90.000000
_cell_angle_gamma 90.000000
_cell_volume 2507.355366
_symmetry_space_group_name_H-M "C M M 2"
_symmetry_group_IT_number 35
_symmetry_cell_setting 'orthorhombic'
loop_
_space_group_symop_operation_xyz
x,y,z
-x,-y,z
-x,y,z
x,-y,z
1/2+x,1/2+y,z
1/2-x,1/2-y,z
1/2-x,1/2+y,z
1/2+x,1/2-y,z
loop_
_atom_site_type_symbol
_atom_site_label
_atom_site_fract_x
_atom_site_fract_y
_atom_site_fract_z
Si Si1 0.316367 0.827882 0.527710
Si Si2 0.817089 0.918070 0.683118
Si Si3 0.816500 0.675920 0.028286
Si Si4 0.815475 0.673739 0.831059
Si Si5 0.315202 0.079393 0.370255
Si Si6 0.815018 0.578171 0.178271
O O1 0.500000 0.821638 0.523114
O O2 0.250000 0.750000 0.536479
O O3 0.271674 0.874932 0.609632
O O4 0.247821 0.866303 0.441532
O O5 0.763392 0.887713 0.775646
O O6 0.000000 0.907762 0.671437
O O7 0.769609 0.000000 0.677860
O O8 0.750000 0.750000 0.056324
O O9 0.766670 0.656094 0.930274
O O10 0.000000 0.678243 0.035026
O O11 0.743601 0.622733 0.098971
O O12 0.750000 0.750000 0.802846
O O13 0.000000 0.673897 0.817317
O O14 0.500000 0.077187 0.376496
O O15 0.263150 0.105931 0.274006
O O16 0.251587 0.000000 0.387818
O O17 0.749471 0.500000 0.166056
O O18 0.000000 0.578349 0.172910
#
# Coordination Sequence:
#
# PCOD8173387 Si02
#       6
#     8   8   8   8   8   8
#     4  11  22  36  55  79 107 138 174 214 257 307
#     4  11  24  40  57  78 104 134 169 212 263 314
#     4   9  18  31  50  76 104 136 170 208 253 299
#     4  10  20  35  55  78 106 139 176 216 258 306
#     4   8  15  29  50  75 102 134 172 213 256 302
#     4   8  14  27  48  74 103 134 171 213 253 296
#
# _framework density 19.143677
#
# number of rings (size 3 to 8) (size 9 to 14) (size 15 to 20)
#    0.000    2.500    0.000    3.500    0.000    4.000 
#    0.000    1.667    0.000    1.500    0.000    4.667 
#    0.000    0.000    0.000    0.000    0.000    0.000 
#
# Total GULP energy -297518.926467 kJ/mol
# GULP energy per Si atom -12396.621936 kJ/mol
# Density = 1.910010 g / cm^3
# Si number density = 19.143677 Si / 1000 Ang^3
#
#
#
# Elastic Constant Matrix: (Units=GPa)
#
#
# Indices 1 2 3 4 5 6 
#
# 1 30.9193 24.5564 16.5385 0.0000 0.0000 0.0000
# 2 24.5564 139.7388 91.5784 0.0000 0.0000 0.0000
# 3 16.5385 91.5784 146.0977 0.0000 0.0000 0.0000
# 4 0.0000 0.0000 0.0000 41.3232 0.0000 0.0000
# 5 0.0000 0.0000 0.0000 0.0000 8.9721 0.0000
# 6 0.0000 0.0000 0.0000 0.0000 0.0000 17.6665
#
#
#
# Elastic Compliance Matrix: (Units=1/GPa)
#
#
# Indices 1 2 3 4 5 6 
#
# 1 0.037592 -0.006479 -0.000195 0.000000 0.000000 0.000000
# 2 -0.006479 0.013262 -0.007580 0.000000 0.000000 0.000000
# 3 -0.000195 -0.007580 0.011618 0.000000 0.000000 0.000000
# 4 0.000000 0.000000 0.000000 0.024199 0.000000 0.000000
# 5 0.000000 0.000000 0.000000 0.000000 0.111457 0.000000
# 6 0.000000 0.000000 0.000000 0.000000 0.000000 0.056604
#
#
# Mechanical properties :
#
#
# Convention : Reuss Voigt Hill
#
# Bulk Modulus (GPa) = 29.44102 64.67803 47.05952
# Shear Modulus (GPa) = 16.97449 25.86453 21.41951
#
# Velocity S-wave (km/s) = 2.98096 3.67968 3.34860
# Velocity P-wave (km/s) = 5.22116 7.20502 6.29178
#
# Compressibility (1/GPa) = 0.03396622
#
# Stress axis : x y z
#
# Youngs Moduli (GPa) = 26.60166 75.40319 86.07406
#
# Poissons Ratio (x) = 0.48850 0.01674
# Poissons Ratio (y) = 0.17234 0.65241
# Poissons Ratio (z) = 0.00517 0.57153
#
# Static dielectric constant tensor:
#      x y z
#    x 3.189900 0.000000 0.000000 
#    y 0.000000 3.722460 0.000000 
#    z 0.000000 0.000000 3.929490 
# 
# 
# High freq. dielectric constant tensor:
#      x y z
#    x 1.715590 0.000000 0.000000 
#    y 0.000000 1.744730 0.000000 
#    z 0.000000 0.000000 1.762280 
# 
# From -- ./inp_files/15077.got.cif
#   From: 2010.03.12/outbox.cif.g09.slc.cpg/sg35_8_cif.got.tgz:15077.got - 2010.04.14 02:02:04.
