data_PCOD8173345
_publ_section_title
;
Structure prediction by ZEFSAII (Michael W. Deem and Ramdas Pophale) SiO2 
 PCOD8173345
Probable space group: C M M 2
;
_chemical_formula_sum "Si O2"
_cell_formula_units_Z 64
_cell_length_a 29.268311
_cell_length_b 8.711097
_cell_length_c 12.395229
_cell_angle_alpha 90.000000
_cell_angle_beta 90.000000
_cell_angle_gamma 90.000000
_cell_volume 3160.276382
_symmetry_space_group_name_H-M "C M M 2"
_symmetry_group_IT_number 35
_symmetry_cell_setting 'orthorhombic'
loop_
_space_group_symop_operation_xyz
x,y,z
-x,-y,z
-x,y,z
x,-y,z
1/2+x,1/2+y,z
1/2-x,1/2-y,z
1/2-x,1/2+y,z
1/2+x,1/2-y,z
loop_
_atom_site_type_symbol
_atom_site_label
_atom_site_fract_x
_atom_site_fract_y
_atom_site_fract_z
Si Si1 0.895298 0.676832 0.875000
Si Si2 0.796658 0.318328 0.400753
Si Si3 0.949730 0.673856 0.325253
Si Si4 0.182637 0.821133 0.169858
Si Si5 0.906860 0.672532 0.112619
Si Si6 0.795038 0.319047 0.946312
Si Si7 0.113966 0.820717 0.485396
Si Si8 0.448172 0.680980 0.680757
O O1 0.898227 0.500000 0.838974
O O2 0.842063 0.729487 0.885699
O O3 0.922559 0.778855 0.790799
O O4 0.920938 0.705732 0.989303
O O5 0.795004 0.500000 0.400379
O O6 0.750000 0.250000 0.450424
O O7 0.801155 0.259076 0.278963
O O8 0.837643 0.264718 0.479104
O O9 0.937750 0.500000 0.361601
O O10 0.949335 0.683524 0.194441
O O11 0.913403 0.790009 0.375236
O O12 0.000000 0.721066 0.364787
O O13 0.128845 0.796479 0.155812
O O14 0.194375 0.000000 0.177077
O O15 0.207178 0.746361 0.067322
O O16 0.884838 0.500000 0.115639
O O17 0.791397 0.500000 0.949993
O O18 0.750000 0.250000 0.885850
O O19 0.082905 0.754323 0.582963
O O20 0.123648 0.000000 0.497962
O O21 0.500000 0.750169 0.677095
O O22 0.451634 0.500000 0.670243
#
# Coordination Sequence:
#
# PCOD8173345 Si02
#       8
#     8   8   8   8   8   8   8   8
#     4   9  20  37  59  87 118 153 198 247 294 349
#     4  12  24  39  59  86 120 157 198 243 293 353
#     4  10  20  34  56  86 119 157 196 238 297 361
#     4  11  20  32  53  83 119 161 202 240 286 345
#     4   9  18  34  54  81 121 160 194 242 297 348
#     4  10  20  35  55  84 121 159 200 244 291 345
#     4  11  23  41  62  86 117 154 198 249 303 354
#     4  10  23  43  65  88 116 152 196 249 302 353
#
# _framework density 20.251394000000001
#
# number of rings (size 3 to 8) (size 9 to 14) (size 15 to 20)
#    0.000    1.750    1.250    4.500    0.000    5.000 
#    0.000    1.875    0.000    1.500    0.000    0.000 
#    0.000    0.000    0.000    0.000    0.000    0.000 
#
# Total GULP energy -396678.553284 kJ/mol
# GULP energy per Si atom -12396.204790 kJ/mol
# Density = 2.020530 g / cm^3
# Si number density = 20.251394 Si / 1000 Ang^3
#
#
#
# Elastic Constant Matrix: (Units=GPa)
#
#
# Indices 1 2 3 4 5 6 
#
# 1 142.4522 45.4356 60.4277 0.0000 0.0000 0.0000
# 2 45.4356 89.5172 28.4086 0.0000 0.0000 0.0000
# 3 60.4277 28.4086 99.9976 0.0000 0.0000 0.0000
# 4 0.0000 0.0000 0.0000 28.4352 0.0000 0.0000
# 5 0.0000 0.0000 0.0000 0.0000 21.2042 0.0000
# 6 0.0000 0.0000 0.0000 0.0000 0.0000 29.7266
#
#
#
# Elastic Compliance Matrix: (Units=1/GPa)
#
#
# Indices 1 2 3 4 5 6 
#
# 1 0.010403 -0.003611 -0.005261 0.000000 0.000000 0.000000
# 2 -0.003611 0.013531 -0.001662 0.000000 0.000000 0.000000
# 3 -0.005261 -0.001662 0.013651 0.000000 0.000000 0.000000
# 4 0.000000 0.000000 0.000000 0.035168 0.000000 0.000000
# 5 0.000000 0.000000 0.000000 0.000000 0.047160 0.000000
# 6 0.000000 0.000000 0.000000 0.000000 0.000000 0.033640
#
#
# Mechanical properties :
#
#
# Convention : Reuss Voigt Hill
#
# Bulk Modulus (GPa) = 60.53819 66.72341 63.63080
# Shear Modulus (GPa) = 27.75815 29.05288 28.40552
#
# Velocity S-wave (km/s) = 3.70628 3.79174 3.74925
# Velocity P-wave (km/s) = 6.94792 7.22418 7.08740
#
# Compressibility (1/GPa) = 0.01651850
#
# Stress axis : x y z
#
# Youngs Moduli (GPa) = 96.12484 73.90323 73.25216
#
# Poissons Ratio (x) = 0.26684 0.38536
# Poissons Ratio (y) = 0.34708 0.12176
# Poissons Ratio (z) = 0.50569 0.12284
#
# Static dielectric constant tensor:
#      x y z
#    x 3.969840 0.000000 0.000000 
#    y 0.000000 3.574780 0.000000 
#    z 0.000000 0.000000 3.548480 
# 
# 
# High freq. dielectric constant tensor:
#      x y z
#    x 1.798990 0.000000 0.000000 
#    y 0.000000 1.785290 0.000000 
#    z 0.000000 0.000000 1.770500 
# 
# From -- ./inp_files/11898.got.cif
#   From: 2010.03.12/outbox.cif.g09.slc.cpg/sg35_6_cif.got.tgz:11898.got - 2010.04.14 02:02:04.
