data_PCOD8173195
_publ_section_title
;
Structure prediction by ZEFSAII (Michael W. Deem and Ramdas Pophale) SiO2 
 PCOD8173195
Probable space group: C M M 2
;
_chemical_formula_sum "Si O2"
_cell_formula_units_Z 64
_cell_length_a 9.064906
_cell_length_b 19.083203
_cell_length_c 20.348408
_cell_angle_alpha 90.000000
_cell_angle_beta 90.000000
_cell_angle_gamma 90.000000
_cell_volume 3520.019036
_symmetry_space_group_name_H-M "C M M 2"
_symmetry_group_IT_number 35
_symmetry_cell_setting 'orthorhombic'
loop_
_space_group_symop_operation_xyz
x,y,z
-x,-y,z
-x,y,z
x,-y,z
1/2+x,1/2+y,z
1/2-x,1/2-y,z
1/2-x,1/2+y,z
1/2+x,1/2-y,z
loop_
_atom_site_type_symbol
_atom_site_label
_atom_site_fract_x
_atom_site_fract_y
_atom_site_fract_z
Si Si1 0.676048 0.174108 0.304540
Si Si2 0.672750 0.418524 0.413530
Si Si3 0.326337 0.079273 0.183303
Si Si4 0.172451 0.320352 0.662020
Si Si5 0.170241 0.917881 0.910520
Si Si6 0.326680 0.178536 0.810366
Si Si7 0.836395 0.916789 0.055710
Si Si8 0.832016 0.419189 0.546156
O O1 0.500000 0.181957 0.308700
O O2 0.750000 0.250000 0.302718
O O3 0.732986 0.130534 0.366347
O O4 0.727680 0.131058 0.240387
O O5 0.500000 0.402216 0.405940
O O6 0.707695 0.500000 0.397923
O O7 0.723402 0.399225 0.486928
O O8 0.500000 0.077477 0.179713
O O9 0.268962 0.110007 0.113942
O O10 0.266016 0.000000 0.196459
O O11 0.250000 0.250000 0.638385
O O12 0.220621 0.341229 0.735901
O O13 0.221952 0.380399 0.611760
O O14 0.000000 0.306781 0.659275
O O15 0.275040 0.883153 0.857341
O O16 0.000000 0.898740 0.896999
O O17 0.196288 0.000000 0.904504
O O18 0.216279 0.890874 0.983686
O O19 0.500000 0.188554 0.816985
O O20 0.250000 0.250000 0.833013
O O21 0.000000 0.887915 0.070421
O O22 0.838818 0.000000 0.053942
O O23 0.820252 0.500000 0.563783
O O24 0.000000 0.398819 0.526806
#
# Coordination Sequence:
#
# PCOD8173195 Si02
#       8
#     8   8   8   8   8   8   8   8
#     4  11  23  38  55  77 107 140 174 213 258 305
#     4  10  21  37  57  81 107 136 173 213 252 302
#     4   9  18  33  54  78 102 131 169 211 254 304
#     4   9  19  34  52  74 100 133 171 211 255 306
#     4   9  18  33  52  76 106 137 171 213 260 308
#     4  10  20  34  52  74 102 137 177 217 258 307
#     4   8  15  29  50  75 102 132 166 206 253 305
#     4   9  18  34  55  77 103 135 169 208 255 303
#
# _framework density 18.181719999999999
#
# number of rings (size 3 to 8) (size 9 to 14) (size 15 to 20)
#    0.000    2.625    0.000    2.250    0.000    5.000 
#    0.000    5.625    0.000    3.000    0.000    0.000 
#    0.000    0.000    0.000    0.000    0.000    0.000 
#
# Total GULP energy -396749.808222 kJ/mol
# GULP energy per Si atom -12398.431507 kJ/mol
# Density = 1.814034 g / cm^3
# Si number density = 18.181720 Si / 1000 Ang^3
#
#
#
# Elastic Constant Matrix: (Units=GPa)
#
#
# Indices 1 2 3 4 5 6 
#
# 1 57.5048 41.3928 45.6197 0.0000 0.0000 0.0000
# 2 41.3928 79.6486 67.4006 0.0000 0.0000 0.0000
# 3 45.6197 67.4006 127.3312 0.0000 0.0000 0.0000
# 4 0.0000 0.0000 0.0000 4.1232 0.0000 0.0000
# 5 0.0000 0.0000 0.0000 0.0000 31.6161 0.0000
# 6 0.0000 0.0000 0.0000 0.0000 0.0000 28.6215
#
#
#
# Elastic Compliance Matrix: (Units=1/GPa)
#
#
# Indices 1 2 3 4 5 6 
#
# 1 0.029072 -0.011402 -0.004381 0.000000 0.000000 0.000000
# 2 -0.011402 0.027214 -0.010320 0.000000 0.000000 0.000000
# 3 -0.004381 -0.010320 0.014886 0.000000 0.000000 0.000000
# 4 0.000000 0.000000 0.000000 0.242531 0.000000 0.000000
# 5 0.000000 0.000000 0.000000 0.000000 0.031629 0.000000
# 6 0.000000 0.000000 0.000000 0.000000 0.000000 0.034939
#
#
# Mechanical properties :
#
#
# Convention : Reuss Voigt Hill
#
# Bulk Modulus (GPa) = 52.72355 63.70118 58.21237
# Shear Modulus (GPa) = 11.39477 20.21027 15.80252
#
# Velocity S-wave (km/s) = 2.50614 3.33764 2.95132
# Velocity P-wave (km/s) = 6.11845 7.06859 6.61061
#
# Compressibility (1/GPa) = 0.01896685
#
# Stress axis : x y z
#
# Youngs Moduli (GPa) = 34.39722 36.74628 67.17820
#
# Poissons Ratio (x) = 0.41897 0.29428
# Poissons Ratio (y) = 0.39218 0.69329
# Poissons Ratio (z) = 0.15068 0.37923
#
# Static dielectric constant tensor:
#      x y z
#    x 3.352490 0.000000 0.000000 
#    y 0.000000 3.276440 0.000000 
#    z 0.000000 0.000000 3.596180 
# 
# 
# High freq. dielectric constant tensor:
#      x y z
#    x 1.703610 0.000000 0.000000 
#    y 0.000000 1.686300 0.000000 
#    z 0.000000 0.000000 1.715870 
# 
# From -- ./inp_files/18330.got.cif
#   From: 2010.03.12/outbox.cif.g09.slc.cpg/sg35_10_cif.got.tgz:18330.got - 2010.04.14 02:02:04.
