data_PCOD8173787
_publ_section_title
;
Structure prediction by ZEFSAII (Michael W. Deem and Ramdas Pophale) SiO2 
 PCOD8173787
Probable space group: C M M 2
;
_chemical_formula_sum "Si O2"
_cell_formula_units_Z 32
_cell_length_a 26.522479
_cell_length_b 9.041186
_cell_length_c 7.791201
_cell_angle_alpha 90.000000
_cell_angle_beta 90.000000
_cell_angle_gamma 90.000000
_cell_volume 1868.288440
_symmetry_space_group_name_H-M "C M M 2"
_symmetry_group_IT_number 35
_symmetry_cell_setting 'orthorhombic'
loop_
_space_group_symop_operation_xyz
x,y,z
-x,-y,z
-x,y,z
x,-y,z
1/2+x,1/2+y,z
1/2-x,1/2-y,z
1/2-x,1/2+y,z
1/2+x,1/2-y,z
loop_
_atom_site_type_symbol
_atom_site_label
_atom_site_fract_x
_atom_site_fract_y
_atom_site_fract_z
Si Si1 0.942113 0.673090 0.814490
Si Si2 0.390981 0.825450 0.167992
Si Si3 0.396063 0.666749 0.497878
Si Si4 0.801586 0.167119 0.298952
O O1 0.934992 0.500000 0.783392
O O2 0.908964 0.758312 0.676546
O O3 0.000000 0.721095 0.796609
O O4 0.923009 0.718898 0.002170
O O5 0.419548 0.758051 0.336055
O O6 0.334789 0.753118 0.153955
O O7 0.385916 0.000000 0.189994
O O8 0.417523 0.500000 0.494580
O O9 0.334988 0.666502 0.474380
O O10 0.750000 0.250000 0.336790
O O11 0.790733 0.000000 0.236322
#
# Coordination Sequence:
#
# PCOD8173787 Si02
#       4
#     8   8   8   8
#     4  10  21  36  55  79 106 141 182 220 262 314
#     4   9  18  34  55  78 109 142 176 219 264 312
#     4   9  20  35  53  79 109 140 176 219 264 314
#     4   9  18  33  55  80 106 139 177 216 265 317
#
# _framework density 17.127977999999999
#
# number of rings (size 3 to 8) (size 9 to 14) (size 15 to 20)
#    1.500    1.250    0.000    1.500    0.000    3.500 
#    0.000    3.750    0.000    3.000    0.000    0.000 
#    0.000    0.000    0.000    0.000    0.000    0.000 
#
# Total GULP energy -198234.263222 kJ/mol
# GULP energy per Si atom -12389.641451 kJ/mol
# Density = 1.708899 g / cm^3
# Si number density = 17.127978 Si / 1000 Ang^3
#
#
#
# Elastic Constant Matrix: (Units=GPa)
#
#
# Indices 1 2 3 4 5 6 
#
# 1 70.6185 40.1441 23.2508 0.0000 0.0000 0.0000
# 2 40.1441 103.5282 58.0790 0.0000 0.0000 0.0000
# 3 23.2508 58.0790 91.8772 0.0000 0.0000 0.0000
# 4 0.0000 0.0000 0.0000 26.6624 0.0000 0.0000
# 5 0.0000 0.0000 0.0000 0.0000 25.0440 0.0000
# 6 0.0000 0.0000 0.0000 0.0000 0.0000 17.7397
#
#
#
# Elastic Compliance Matrix: (Units=1/GPa)
#
#
# Indices 1 2 3 4 5 6 
#
# 1 0.018168 -0.006919 -0.000224 0.000000 0.000000 0.000000
# 2 -0.006919 0.017602 -0.009376 0.000000 0.000000 0.000000
# 3 -0.000224 -0.009376 0.016868 0.000000 0.000000 0.000000
# 4 0.000000 0.000000 0.000000 0.037506 0.000000 0.000000
# 5 0.000000 0.000000 0.000000 0.000000 0.039930 0.000000
# 6 0.000000 0.000000 0.000000 0.000000 0.000000 0.056371
#
#
# Mechanical properties :
#
#
# Convention : Reuss Voigt Hill
#
# Bulk Modulus (GPa) = 51.02138 56.55240 53.78689
# Shear Modulus (GPa) = 22.12249 23.52589 22.82419
#
# Velocity S-wave (km/s) = 3.59778 3.71015 3.65440
# Velocity P-wave (km/s) = 6.86380 7.17236 7.01978
#
# Compressibility (1/GPa) = 0.01959963
#
# Stress axis : x y z
#
# Youngs Moduli (GPa) = 55.04321 56.81152 59.28529
#
# Poissons Ratio (x) = 0.39309 0.01326
# Poissons Ratio (y) = 0.38085 0.55586
# Poissons Ratio (z) = 0.01231 0.53266
#
# Static dielectric constant tensor:
#      x y z
#    x 3.011240 0.000000 0.000000 
#    y 0.000000 3.278820 0.000000 
#    z 0.000000 0.000000 2.967420 
# 
# 
# High freq. dielectric constant tensor:
#      x y z
#    x 1.645480 0.000000 0.000000 
#    y 0.000000 1.677720 0.000000 
#    z 0.000000 0.000000 1.640940 
# 
# From -- ./inp_files/534.got.cif
#   From: 2010.03.12/outbox.cif.g09.slc.cpg/sg35_1_cif.got.tgz:534.got - 2010.04.14 02:02:04.
