data_PCOD8173025
_publ_section_title
;
Structure prediction by ZEFSAII (Michael W. Deem and Ramdas Pophale) SiO2 
 PCOD8173025
Probable space group: C M M 2
;
_chemical_formula_sum "Si O2"
_cell_formula_units_Z 64
_cell_length_a 31.810737
_cell_length_b 8.940721
_cell_length_c 11.660711
_cell_angle_alpha 90.000000
_cell_angle_beta 90.000000
_cell_angle_gamma 90.000000
_cell_volume 3316.433594
_symmetry_space_group_name_H-M "C M M 2"
_symmetry_group_IT_number 35
_symmetry_cell_setting 'orthorhombic'
loop_
_space_group_symop_operation_xyz
x,y,z
-x,-y,z
-x,y,z
x,-y,z
1/2+x,1/2+y,z
1/2-x,1/2-y,z
1/2-x,1/2+y,z
1/2+x,1/2-y,z
loop_
_atom_site_type_symbol
_atom_site_label
_atom_site_fract_x
_atom_site_fract_y
_atom_site_fract_z
Si Si1 0.296321 0.820034 0.810760
Si Si2 0.679070 0.326984 0.048464
Si Si3 0.452737 0.324036 0.780001
Si Si4 0.640090 0.329805 0.394847
Si Si5 0.631349 0.674758 0.660404
Si Si6 0.710485 0.825361 0.267704
Si Si7 0.091742 0.165206 0.176957
Si Si8 0.951487 0.660041 0.003391
O O1 0.250000 0.750000 0.786664
O O2 0.329816 0.766306 0.714505
O O3 0.292975 0.000000 0.808240
O O4 0.314368 0.765264 0.932221
O O5 0.691280 0.500000 0.027349
O O6 0.708456 0.256542 0.145156
O O7 0.632115 0.310574 0.095634
O O8 0.500000 0.260009 0.748559
O O9 0.455511 0.500000 0.775300
O O10 0.414905 0.266798 0.698930
O O11 0.437507 0.276803 0.906474
O O12 0.657216 0.500000 0.376801
O O13 0.629277 0.297874 0.525103
O O14 0.672631 0.206338 0.353340
O O15 0.599861 0.307427 0.311863
O O16 0.637629 0.500000 0.691608
O O17 0.750000 0.750000 0.331278
O O18 0.715585 0.000000 0.248205
O O19 0.073635 0.000000 0.159345
O O20 0.057603 0.280923 0.131192
O O21 0.928497 0.500000 0.984362
O O22 0.000000 0.632557 0.993330
#
# Coordination Sequence:
#
# PCOD8173025 Si02
#       8
#     8   8   8   8   8   8   8   8
#     4  12  25  39  56  81 113 149 189 230 277 332
#     4  10  20  36  56  80 110 140 175 222 276 330
#     4   9  18  34  58  86 113 143 180 223 274 331
#     4   9  20  38  56  76 104 139 180 224 269 320
#     4  10  21  39  60  81 110 147 187 233 279 324
#     4  11  21  34  54  79 106 138 177 222 272 324
#     4   9  18  33  54  78 104 137 174 215 266 322
#     4  10  20  32  49  77 111 142 172 212 263 320
#
# _framework density 19.297839
#
# number of rings (size 3 to 8) (size 9 to 14) (size 15 to 20)
#    0.000    2.000    0.000    4.875    0.000    7.750 
#    0.000    0.625    0.000    2.250    0.000    1.750 
#    0.000    0.000    0.000    0.000    0.000    0.000 
#
# Total GULP energy -396545.258783 kJ/mol
# GULP energy per Si atom -12392.039337 kJ/mol
# Density = 1.925392 g / cm^3
# Si number density = 19.297839 Si / 1000 Ang^3
#
#
#
# Elastic Constant Matrix: (Units=GPa)
#
#
# Indices 1 2 3 4 5 6 
#
# 1 52.0255 39.2852 55.7202 0.0000 0.0000 0.0000
# 2 39.2852 95.4602 42.5175 0.0000 0.0000 0.0000
# 3 55.7202 42.5175 129.5763 0.0000 0.0000 0.0000
# 4 0.0000 0.0000 0.0000 -26.3970 0.0000 0.0000
# 5 0.0000 0.0000 0.0000 0.0000 -40.6960 0.0000
# 6 0.0000 0.0000 0.0000 0.0000 0.0000 25.8262
#
#
#
# Elastic Compliance Matrix: (Units=1/GPa)
#
#
# Indices 1 2 3 4 5 6 
#
# 1 0.044144 -0.011374 -0.015250 0.000000 0.000000 0.000000
# 2 -0.011374 0.015199 -0.000096 0.000000 0.000000 0.000000
# 3 -0.015250 -0.000096 0.014307 0.000000 0.000000 0.000000
# 4 0.000000 0.000000 0.000000 -0.037883 0.000000 0.000000
# 5 0.000000 0.000000 0.000000 0.000000 -0.024572 0.000000
# 6 0.000000 0.000000 0.000000 0.000000 0.000000 0.038720
#
#
# Mechanical properties :
#
#
# Convention : Reuss Voigt Hill
#
# Bulk Modulus (GPa) = 49.48451 61.34530 55.41490
# Shear Modulus (GPa) = 45.41640 1.04924 23.23282
#
# Velocity S-wave (km/s) = 4.85649 0.73817 3.47350
# Velocity P-wave (km/s) = 7.55947 5.70826 6.69813
#
# Compressibility (1/GPa) = 0.02020835
#
# Stress axis : x y z
#
# Youngs Moduli (GPa) = 22.65333 65.79257 69.89596
#
# Poissons Ratio (x) = 0.74834 1.06594
# Poissons Ratio (y) = 0.25766 0.00672
# Poissons Ratio (z) = 0.34547 0.00633
#
# Static dielectric constant tensor:
#      x y z
#    x 3.719080 0.000000 0.000000 
#    y 0.000000 3.798140 0.000000 
#    z 0.000000 0.000000 3.499350 
# 
# 
# High freq. dielectric constant tensor:
#      x y z
#    x 1.747630 0.000000 0.000000 
#    y 0.000000 1.753320 0.000000 
#    z 0.000000 0.000000 1.741670 
# 
# From -- ./inp_files/14545.got.cif
#   From: 2010.03.12/outbox.cif.g09.slc.cpg/sg35_8_cif.got.tgz:14545.got - 2010.04.14 02:02:04.
