data_PCOD8173805
_publ_section_title
;
Structure prediction by ZEFSAII (Michael W. Deem and Ramdas Pophale) SiO2 
 PCOD8173805
Probable space group: C M M 2
;
_chemical_formula_sum "Si O2"
_cell_formula_units_Z 64
_cell_length_a 8.834646
_cell_length_b 27.837669
_cell_length_c 12.984630
_cell_angle_alpha 90.000000
_cell_angle_beta 90.000000
_cell_angle_gamma 90.000000
_cell_volume 3193.387328
_symmetry_space_group_name_H-M "C M M 2"
_symmetry_group_IT_number 35
_symmetry_cell_setting 'orthorhombic'
loop_
_space_group_symop_operation_xyz
x,y,z
-x,-y,z
-x,y,z
x,-y,z
1/2+x,1/2+y,z
1/2-x,1/2-y,z
1/2-x,1/2+y,z
1/2+x,1/2-y,z
loop_
_atom_site_type_symbol
_atom_site_label
_atom_site_fract_x
_atom_site_fract_y
_atom_site_fract_z
Si Si1 0.820342 0.197391 0.828030
Si Si2 0.677902 0.944998 0.728741
Si Si3 0.321106 0.887627 0.927448
Si Si4 0.677708 0.198077 0.624763
Si Si5 0.677716 0.391513 0.320364
Si Si6 0.321525 0.445042 0.522550
Si Si7 0.823152 0.055870 0.111408
Si Si8 0.323436 0.198359 0.395988
O O1 0.750000 0.250000 0.843719
O O2 0.763631 0.163777 0.921723
O O3 0.758757 0.171941 0.721614
O O4 0.000000 0.201043 0.826679
O O5 0.500000 0.939673 0.717655
O O6 0.736287 0.918800 0.830679
O O7 0.749204 0.921671 0.625434
O O8 0.730540 0.000000 0.739182
O O9 0.500000 0.879444 0.926896
O O10 0.275244 0.915286 0.029876
O O11 0.500000 0.200621 0.648017
O O12 0.750000 0.250000 0.624342
O O13 0.710679 0.176846 0.511086
O O14 0.500000 0.382962 0.326902
O O15 0.739637 0.418619 0.421243
O O16 0.721331 0.423491 0.222657
O O17 0.757021 0.339418 0.314081
O O18 0.500000 0.440502 0.531263
O O19 0.268662 0.500000 0.513212
O O20 0.000000 0.063173 0.088124
O O21 0.778471 0.000000 0.108281
O O22 0.500000 0.204932 0.377826
O O23 0.250000 0.250000 0.377848
#
# Coordination Sequence:
#
# PCOD8173805 Si02
#       8
#     8   8   8   8   8   8   8   8
#     4  11  22  37  58  85 119 157 199 244 295 352
#     4   9  19  35  54  79 114 152 187 231 289 348
#     4  11  23  39  60  86 118 155 199 246 299 355
#     4   9  17  31  51  78 113 154 195 238 286 339
#     4  10  21  37  59  86 117 153 195 243 297 350
#     4   9  18  33  54  82 115 150 188 231 284 347
#     4  10  22  42  66  90 117 152 198 250 300 354
#     4  10  21  36  56  83 118 157 199 244 291 347
#
# _framework density 20.041415000000001
#
# number of rings (size 3 to 8) (size 9 to 14) (size 15 to 20)
#    0.000    2.125    0.000    3.750    1.750    5.750 
#    0.000    1.875    0.000    5.250    0.000    0.000 
#    0.000    0.000    0.000    0.000    0.000    0.000 
#
# Total GULP energy -396763.056890 kJ/mol
# GULP energy per Si atom -12398.845528 kJ/mol
# Density = 1.999580 g / cm^3
# Si number density = 20.041415 Si / 1000 Ang^3
#
#
#
# Elastic Constant Matrix: (Units=GPa)
#
#
# Indices 1 2 3 4 5 6 
#
# 1 84.5149 45.2656 45.3595 0.0000 0.0000 0.0000
# 2 45.2656 97.0992 54.4150 0.0000 0.0000 0.0000
# 3 45.3595 54.4150 104.6519 0.0000 0.0000 0.0000
# 4 0.0000 0.0000 0.0000 36.9669 0.0000 0.0000
# 5 0.0000 0.0000 0.0000 0.0000 29.3943 0.0000
# 6 0.0000 0.0000 0.0000 0.0000 0.0000 28.7246
#
#
#
# Elastic Compliance Matrix: (Units=1/GPa)
#
#
# Indices 1 2 3 4 5 6 
#
# 1 0.017234 -0.005431 -0.004646 0.000000 0.000000 0.000000
# 2 -0.005431 0.016245 -0.006093 0.000000 0.000000 0.000000
# 3 -0.004646 -0.006093 0.014737 0.000000 0.000000 0.000000
# 4 0.000000 0.000000 0.000000 0.027051 0.000000 0.000000
# 5 0.000000 0.000000 0.000000 0.000000 0.034020 0.000000
# 6 0.000000 0.000000 0.000000 0.000000 0.000000 0.034813
#
#
# Mechanical properties :
#
#
# Convention : Reuss Voigt Hill
#
# Bulk Modulus (GPa) = 62.98332 64.03848 63.51090
# Shear Modulus (GPa) = 27.51281 28.43223 27.97252
#
# Velocity S-wave (km/s) = 3.70915 3.77061 3.74001
# Velocity P-wave (km/s) = 7.05964 7.13997 7.09992
#
# Compressibility (1/GPa) = 0.01587722
#
# Stress axis : x y z
#
# Youngs Moduli (GPa) = 58.02320 61.55790 67.85435
#
# Poissons Ratio (x) = 0.33429 0.31527
# Poissons Ratio (y) = 0.31510 0.41343
# Poissons Ratio (z) = 0.26959 0.37507
#
# Static dielectric constant tensor:
#      x y z
#    x 3.549160 0.000000 0.000000 
#    y 0.000000 3.656060 0.000000 
#    z 0.000000 0.000000 3.891950 
# 
# 
# High freq. dielectric constant tensor:
#      x y z
#    x 1.778030 0.000000 0.000000 
#    y 0.000000 1.788520 0.000000 
#    z 0.000000 0.000000 1.772160 
# 
# From -- ./inp_files/11970.got.cif
#   From: 2010.03.12/outbox.cif.g09.slc.cpg/sg35_6_cif.got.tgz:11970.got - 2010.04.14 02:02:04.
