data_PCOD8173641
_publ_section_title
;
Structure prediction by ZEFSAII (Michael W. Deem and Ramdas Pophale) SiO2 
 PCOD8173641
Probable space group: C M M 2
;
_chemical_formula_sum "Si O2"
_cell_formula_units_Z 48
_cell_length_a 30.361304
_cell_length_b 9.061268
_cell_length_c 9.368825
_cell_angle_alpha 90.000000
_cell_angle_beta 90.000000
_cell_angle_gamma 90.000000
_cell_volume 2577.475362
_symmetry_space_group_name_H-M "C M M 2"
_symmetry_group_IT_number 35
_symmetry_cell_setting 'orthorhombic'
loop_
_space_group_symop_operation_xyz
x,y,z
-x,-y,z
-x,y,z
x,-y,z
1/2+x,1/2+y,z
1/2-x,1/2-y,z
1/2-x,1/2+y,z
1/2+x,1/2-y,z
loop_
_atom_site_type_symbol
_atom_site_label
_atom_site_fract_x
_atom_site_fract_y
_atom_site_fract_z
Si Si1 0.125044 0.826956 0.069310
Si Si2 0.549925 0.328393 0.283652
Si Si3 0.628443 0.826188 0.769705
Si Si4 0.295101 0.674584 0.594162
Si Si5 0.049478 0.672220 0.569952
Si Si6 0.206088 0.828375 0.267514
O O1 0.080148 0.784697 0.150425
O O2 0.165536 0.780738 0.169609
O O3 0.126643 0.000000 0.029339
O O4 0.127001 0.726367 0.931270
O O5 0.500000 0.282352 0.245260
O O6 0.554309 0.500000 0.317188
O O7 0.566683 0.247928 0.425727
O O8 0.666105 0.738492 0.688691
O O9 0.581531 0.785367 0.699421
O O10 0.638152 0.000000 0.762359
O O11 0.291666 0.500000 0.617468
O O12 0.250000 0.750000 0.645756
O O13 0.304729 0.717222 0.430003
O O14 0.050049 0.500000 0.539695
O O15 0.000000 0.726699 0.608802
O O16 0.250000 0.750000 0.210615
O O17 0.215424 0.000000 0.257182
#
# Coordination Sequence:
#
# PCOD8173641 Si02
#       6
#     8   8   8   8   8   8
#     4  10  21  36  52  75 109 143 173 213 267 319
#     4   9  18  34  57  82 105 133 175 224 271 321
#     4  11  23  36  52  78 110 145 183 220 263 317
#     4  10  20  37  60  83 107 137 175 220 269 318
#     4   9  19  36  56  78 106 140 179 224 271 319
#     4   9  19  35  56  79 102 132 171 214 259 309
#
# _framework density 18.622876000000002
#
# number of rings (size 3 to 8) (size 9 to 14) (size 15 to 20)
#    0.000    2.333    0.000    2.000    0.000    6.000 
#    0.000    1.667    0.000    0.000    0.000    0.000 
#    0.000    0.000    0.000    0.000    0.000    0.000 
#
# Total GULP energy -297663.491986 kJ/mol
# GULP energy per Si atom -12402.645499 kJ/mol
# Density = 1.858049 g / cm^3
# Si number density = 18.622876 Si / 1000 Ang^3
#
#
#
# Elastic Constant Matrix: (Units=GPa)
#
#
# Indices 1 2 3 4 5 6 
#
# 1 124.8829 49.9176 71.0573 0.0000 0.0000 0.0000
# 2 49.9176 58.9920 47.1452 0.0000 0.0000 0.0000
# 3 71.0573 47.1452 111.7144 0.0000 0.0000 0.0000
# 4 0.0000 0.0000 0.0000 34.0060 0.0000 0.0000
# 5 0.0000 0.0000 0.0000 0.0000 -2.2869 0.0000
# 6 0.0000 0.0000 0.0000 0.0000 0.0000 29.3317
#
#
#
# Elastic Compliance Matrix: (Units=1/GPa)
#
#
# Indices 1 2 3 4 5 6 
#
# 1 0.014383 -0.007332 -0.006054 0.000000 0.000000 0.000000
# 2 -0.007332 0.029316 -0.007708 0.000000 0.000000 0.000000
# 3 -0.006054 -0.007708 0.016055 0.000000 0.000000 0.000000
# 4 0.000000 0.000000 0.000000 0.029407 0.000000 0.000000
# 5 0.000000 0.000000 0.000000 0.000000 -0.437276 0.000000
# 6 0.000000 0.000000 0.000000 0.000000 0.000000 0.034093
#
#
# Mechanical properties :
#
#
# Convention : Reuss Voigt Hill
#
# Bulk Modulus (GPa) = 56.93065 70.20328 63.56696
# Shear Modulus (GPa) = -18.79851 20.70810 0.95479
#
# Velocity S-wave (km/s) = -3.18060 3.33824 0.71681
# Velocity P-wave (km/s) = 4.14106 7.25518 5.90703
#
# Compressibility (1/GPa) = 0.01756523
#
# Stress axis : x y z
#
# Youngs Moduli (GPa) = 69.52602 34.11116 62.28517
#
# Poissons Ratio (x) = 0.25011 0.37709
# Poissons Ratio (y) = 0.50978 0.48010
# Poissons Ratio (z) = 0.42093 0.26293
#
# Static dielectric constant tensor:
#      x y z
#    x 3.760430 0.000000 0.000000 
#    y 0.000000 3.385250 0.000000 
#    z 0.000000 0.000000 3.375490 
# 
# 
# High freq. dielectric constant tensor:
#      x y z
#    x 1.736510 0.000000 0.000000 
#    y 0.000000 1.722110 0.000000 
#    z 0.000000 0.000000 1.717060 
# 
# From -- ./inp_files/5271.got.cif
#   From: 2010.03.12/outbox.cif.g09.slc.cpg/sg35_3_cif.got.tgz:5271.got - 2010.04.14 02:02:04.
