data_PCOD8173319
_publ_section_title
;
Structure prediction by ZEFSAII (Michael W. Deem and Ramdas Pophale) SiO2 
 PCOD8173319
Probable space group: C M M 2
;
_chemical_formula_sum "Si O2"
_cell_formula_units_Z 56
_cell_length_a 14.132002
_cell_length_b 13.817433
_cell_length_c 13.307610
_cell_angle_alpha 90.000000
_cell_angle_beta 90.000000
_cell_angle_gamma 90.000000
_cell_volume 2598.550267
_symmetry_space_group_name_H-M "C M M 2"
_symmetry_group_IT_number 35
_symmetry_cell_setting 'orthorhombic'
loop_
_space_group_symop_operation_xyz
x,y,z
-x,-y,z
-x,y,z
x,-y,z
1/2+x,1/2+y,z
1/2-x,1/2-y,z
1/2-x,1/2+y,z
1/2+x,1/2-y,z
loop_
_atom_site_type_symbol
_atom_site_label
_atom_site_fract_x
_atom_site_fract_y
_atom_site_fract_z
Si Si1 0.607671 0.613938 0.304480
Si Si2 0.214432 0.115080 0.498373
Si Si3 0.393543 0.790826 0.024549
Si Si4 0.291187 0.386833 0.097454
Si Si5 0.395223 0.114723 0.605387
Si Si6 0.644981 0.222609 0.806912
Si Si7 0.896994 0.104812 0.685727
O O1 0.500000 0.656729 0.296945
O O2 0.599179 0.500000 0.317420
O O3 0.665823 0.659038 0.398876
O O4 0.671441 0.639149 0.208461
O O5 0.324032 0.147656 0.514876
O O6 0.163009 0.155891 0.597850
O O7 0.204162 0.000000 0.496459
O O8 0.500000 0.799897 0.070603
O O9 0.356113 0.679366 0.025161
O O10 0.320105 0.858540 0.086839
O O11 0.400209 0.822811 0.907617
O O12 0.305249 0.500000 0.071450
O O13 0.500000 0.156730 0.582090
O O14 0.361238 0.147342 0.715629
O O15 0.397190 0.000000 0.609097
O O16 0.750000 0.250000 0.835074
O O17 0.594642 0.323601 0.779596
O O18 0.000000 0.087705 0.639684
O O19 0.853911 0.000000 0.718391
#
# Coordination Sequence:
#
# PCOD8173319 Si02
#       7
#     8   8   8   8   8   8   8
#     4   9  17  33  60  90 118 152 193 241 301 360
#     4   9  17  31  54  84 117 151 192 238 286 344
#     4  11  24  43  63  87 121 161 203 253 309 364
#     4  10  22  41  64  91 120 153 200 256 309 363
#     4  10  21  37  57  82 117 161 201 235 280 344
#     4  12  22  39  59  81 116 158 194 244 291 347
#     4  10  20  34  55  84 116 148 186 236 290 342
#
# _framework density 21.550477999999998
#
# number of rings (size 3 to 8) (size 9 to 14) (size 15 to 20)
#    0.000    1.857    2.857    2.143    0.000    4.000 
#    0.000    3.571    0.000    2.571    0.000    0.000 
#    0.000    0.000    0.000    0.000    0.000    0.000 
#
# Total GULP energy -346942.911321 kJ/mol
# GULP energy per Si atom -12390.818261 kJ/mol
# Density = 2.150143 g / cm^3
# Si number density = 21.550478 Si / 1000 Ang^3
#
#
#
# Elastic Constant Matrix: (Units=GPa)
#
#
# Indices 1 2 3 4 5 6 
#
# 1 169.5004 15.0714 64.8034 0.0000 0.0000 0.0000
# 2 15.0714 47.9865 19.9123 0.0000 0.0000 0.0000
# 3 64.8034 19.9123 123.2380 0.0000 0.0000 0.0000
# 4 0.0000 0.0000 0.0000 25.1233 0.0000 0.0000
# 5 0.0000 0.0000 0.0000 0.0000 34.2582 0.0000
# 6 0.0000 0.0000 0.0000 0.0000 0.0000 16.5830
#
#
#
# Elastic Compliance Matrix: (Units=1/GPa)
#
#
# Indices 1 2 3 4 5 6 
#
# 1 0.007410 -0.000761 -0.003773 0.000000 0.000000 0.000000
# 2 -0.000761 0.022415 -0.003221 0.000000 0.000000 0.000000
# 3 -0.003773 -0.003221 0.010619 0.000000 0.000000 0.000000
# 4 0.000000 0.000000 0.000000 0.039804 0.000000 0.000000
# 5 0.000000 0.000000 0.000000 0.000000 0.029190 0.000000
# 6 0.000000 0.000000 0.000000 0.000000 0.000000 0.060303
#
#
# Mechanical properties :
#
#
# Convention : Reuss Voigt Hill
#
# Bulk Modulus (GPa) = 40.10958 60.03323 50.07140
# Shear Modulus (GPa) = 25.83124 31.25540 28.54332
#
# Velocity S-wave (km/s) = 3.46589 3.81246 3.64330
# Velocity P-wave (km/s) = 5.88803 6.87730 6.40180
#
# Compressibility (1/GPa) = 0.02493170
#
# Stress axis : x y z
#
# Youngs Moduli (GPa) = 134.95148 44.61282 94.16991
#
# Poissons Ratio (x) = 0.03397 0.35535
# Poissons Ratio (y) = 0.10276 0.30335
# Poissons Ratio (z) = 0.50923 0.14371
#
# Static dielectric constant tensor:
#      x y z
#    x 4.148710 0.000000 0.000000 
#    y 0.000000 3.747090 0.000000 
#    z 0.000000 0.000000 3.806360 
# 
# 
# High freq. dielectric constant tensor:
#      x y z
#    x 1.863180 0.000000 0.000000 
#    y 0.000000 1.830290 0.000000 
#    z 0.000000 0.000000 1.826120 
# 
# From -- ./inp_files/12960.got.cif
#   From: 2010.03.12/outbox.cif.g09.slc.cpg/sg35_7_cif.got.tgz:12960.got - 2010.04.14 02:02:04.
