data_PCOD8173335
_publ_section_title
;
Structure prediction by ZEFSAII (Michael W. Deem and Ramdas Pophale) SiO2 
 PCOD8173335
Probable space group: C M M 2
;
_chemical_formula_sum "Si O2"
_cell_formula_units_Z 56
_cell_length_a 8.929680
_cell_length_b 18.587924
_cell_length_c 17.858039
_cell_angle_alpha 90.000000
_cell_angle_beta 90.000000
_cell_angle_gamma 90.000000
_cell_volume 2964.152552
_symmetry_space_group_name_H-M "C M M 2"
_symmetry_group_IT_number 35
_symmetry_cell_setting 'orthorhombic'
loop_
_space_group_symop_operation_xyz
x,y,z
-x,-y,z
-x,y,z
x,-y,z
1/2+x,1/2+y,z
1/2-x,1/2-y,z
1/2-x,1/2+y,z
1/2+x,1/2-y,z
loop_
_atom_site_type_symbol
_atom_site_label
_atom_site_fract_x
_atom_site_fract_y
_atom_site_fract_z
Si Si1 0.174270 0.173136 0.371730
Si Si2 0.676170 0.173077 0.807831
Si Si3 0.324782 0.082805 0.663957
Si Si4 0.173979 0.827208 0.537556
Si Si5 0.826221 0.082172 0.932634
Si Si6 0.323792 0.172159 0.227974
Si Si7 0.669315 0.583909 0.104686
O O1 0.250000 0.250000 0.375350
O O2 0.199150 0.139170 0.454104
O O3 0.256328 0.132227 0.302705
O O4 0.000000 0.179908 0.352432
O O5 0.500000 0.183542 0.810837
O O6 0.750000 0.250000 0.797507
O O7 0.726754 0.123821 0.738534
O O8 0.727538 0.135864 0.884118
O O9 0.500000 0.092290 0.649475
O O10 0.238559 0.114156 0.593290
O O11 0.279462 0.000000 0.673923
O O12 0.250000 0.750000 0.549086
O O13 0.000000 0.815094 0.553767
O O14 0.000000 0.092871 0.912988
O O15 0.777930 0.000000 0.916481
O O16 0.795082 0.101996 0.018670
O O17 0.500000 0.180113 0.236480
O O18 0.250000 0.250000 0.218397
O O19 0.287413 0.125559 0.155324
O O20 0.500000 0.607999 0.124309
O O21 0.688836 0.500000 0.119749
#
# Coordination Sequence:
#
# PCOD8173335 Si02
#       7
#     8   8   8   8   8   8   8
#     4   9  17  31  51  76 106 139 177 221 269 318
#     4  11  23  38  57  82 111 142 178 220 266 315
#     4  10  22  39  57  79 109 143 178 219 268 318
#     4  10  20  34  56  83 108 139 179 222 268 318
#     4   9  19  37  60  83 107 139 178 219 267 321
#     4  11  21  33  53  80 109 142 182 224 267 317
#     4   9  19  37  58  79 107 142 178 219 269 321
#
# _framework density 18.892413999999999
#
# number of rings (size 3 to 8) (size 9 to 14) (size 15 to 20)
#    0.000    2.143    0.000    5.143    0.000    6.571 
#    0.000    2.143    0.000    0.857    0.000    0.000 
#    0.000    0.000    0.000    0.000    0.000    0.000 
#
# Total GULP energy -347163.518398 kJ/mol
# GULP energy per Si atom -12398.697086 kJ/mol
# Density = 1.884941 g / cm^3
# Si number density = 18.892414 Si / 1000 Ang^3
#
#
#
# Elastic Constant Matrix: (Units=GPa)
#
#
# Indices 1 2 3 4 5 6 
#
# 1 112.2891 55.8285 72.8582 0.0000 0.0000 0.0000
# 2 55.8285 100.2559 72.4426 0.0000 0.0000 0.0000
# 3 72.8582 72.4426 142.0989 0.0000 0.0000 0.0000
# 4 0.0000 0.0000 0.0000 5.9994 0.0000 0.0000
# 5 0.0000 0.0000 0.0000 0.0000 30.2310 0.0000
# 6 0.0000 0.0000 0.0000 0.0000 0.0000 24.0547
#
#
#
# Elastic Compliance Matrix: (Units=1/GPa)
#
#
# Indices 1 2 3 4 5 6 
#
# 1 0.014405 -0.004251 -0.005219 0.000000 0.000000 0.000000
# 2 -0.004251 0.017046 -0.006511 0.000000 0.000000 0.000000
# 3 -0.005219 -0.006511 0.013032 0.000000 0.000000 0.000000
# 4 0.000000 0.000000 0.000000 0.166683 0.000000 0.000000
# 5 0.000000 0.000000 0.000000 0.000000 0.033079 0.000000
# 6 0.000000 0.000000 0.000000 0.000000 0.000000 0.041572
#
#
# Mechanical properties :
#
#
# Convention : Reuss Voigt Hill
#
# Bulk Modulus (GPa) = 79.85261 84.10029 81.97645
# Shear Modulus (GPa) = 15.53026 22.29131 18.91078
#
# Velocity S-wave (km/s) = 2.87023 3.43871 3.16725
# Velocity P-wave (km/s) = 7.30363 7.77035 7.54060
#
# Compressibility (1/GPa) = 0.01252307
#
# Stress axis : x y z
#
# Youngs Moduli (GPa) = 69.41912 58.66507 76.73135
#
# Poissons Ratio (x) = 0.24936 0.40046
# Poissons Ratio (y) = 0.29507 0.49957
# Poissons Ratio (z) = 0.36230 0.38195
#
# Static dielectric constant tensor:
#      x y z
#    x 3.479400 0.000000 0.000000 
#    y 0.000000 3.225010 0.000000 
#    z 0.000000 0.000000 3.982710 
# 
# 
# High freq. dielectric constant tensor:
#      x y z
#    x 1.740250 0.000000 0.000000 
#    y 0.000000 1.710950 0.000000 
#    z 0.000000 0.000000 1.753540 
# 
# From -- ./inp_files/15626.got.cif
#   From: 2010.03.12/outbox.cif.g09.slc.cpg/sg35_8_cif.got.tgz:15626.got - 2010.04.14 02:02:04.
