data_PCOD8173945
_publ_section_title
;
Structure prediction by ZEFSAII (Michael W. Deem and Ramdas Pophale) SiO2 
 PCOD8173945
Probable space group: C M M 2
;
_chemical_formula_sum "Si O2"
_cell_formula_units_Z 56
_cell_length_a 21.774404
_cell_length_b 14.020857
_cell_length_c 9.513569
_cell_angle_alpha 90.000000
_cell_angle_beta 90.000000
_cell_angle_gamma 90.000000
_cell_volume 2904.452704
_symmetry_space_group_name_H-M "C M M 2"
_symmetry_group_IT_number 35
_symmetry_cell_setting 'orthorhombic'
loop_
_space_group_symop_operation_xyz
x,y,z
-x,-y,z
-x,y,z
x,-y,z
1/2+x,1/2+y,z
1/2-x,1/2-y,z
1/2-x,1/2+y,z
1/2+x,1/2-y,z
loop_
_atom_site_type_symbol
_atom_site_label
_atom_site_fract_x
_atom_site_fract_y
_atom_site_fract_z
Si Si1 0.248782 0.387017 0.372870
Si Si2 0.427537 0.255842 0.725000
Si Si3 0.871467 0.886860 0.954832
Si Si4 0.241077 0.611358 0.054216
Si Si5 0.430795 0.254306 0.171134
Si Si6 0.390834 0.887600 0.947082
Si Si7 0.148196 0.248852 0.443834
O O1 0.245267 0.500000 0.391282
O O2 0.240663 0.348718 0.212977
O O3 0.194432 0.338291 0.462827
O O4 0.314162 0.350141 0.430474
O O5 0.500000 0.270234 0.709510
O O6 0.399877 0.342846 0.814535
O O7 0.412731 0.154589 0.798502
O O8 0.397207 0.257670 0.573720
O O9 0.878309 0.000000 0.948911
O O10 0.800424 0.852388 0.968344
O O11 0.906953 0.848373 0.091180
O O12 0.245645 0.500000 0.071740
O O13 0.180446 0.640994 0.969509
O O14 0.500000 0.274172 0.217932
O O15 0.391882 0.231878 0.307347
O O16 0.429407 0.161496 0.070862
O O17 0.402626 0.000000 0.949653
#
# Coordination Sequence:
#
# PCOD8173945 Si02
#       7
#     8   8   8   8   8   8   8
#     4  10  21  39  63  94 121 148 190 248 308 358
#     4  11  26  42  56  83 125 167 203 237 286 354
#     4  10  21  39  63  88 117 155 198 249 300 348
#     4   9  17  33  62  93 117 139 185 250 305 349
#     4  11  22  35  58  88 116 155 208 248 284 345
#     4  10  21  39  63  88 117 155 198 249 300 348
#     4  11  23  39  62  87 122 161 191 243 302 350
#
# _framework density 19.280740000000002
#
# number of rings (size 3 to 8) (size 9 to 14) (size 15 to 20)
#    0.000    1.714    2.857    2.143    0.000    8.000 
#    0.000    1.429    0.000    5.143    0.000    0.000 
#    0.000    0.000    0.000    0.000    0.000    0.000 
#
# Total GULP energy -347203.172885 kJ/mol
# GULP energy per Si atom -12400.113317 kJ/mol
# Density = 1.923686 g / cm^3
# Si number density = 19.280740 Si / 1000 Ang^3
#
#
#
# Elastic Constant Matrix: (Units=GPa)
#
#
# Indices 1 2 3 4 5 6 
#
# 1 127.5130 17.5967 31.9320 0.0000 0.0000 0.0000
# 2 17.5967 92.6019 22.3331 0.0000 0.0000 0.0000
# 3 31.9320 22.3331 96.4255 0.0000 0.0000 0.0000
# 4 0.0000 0.0000 0.0000 9.9981 0.0000 0.0000
# 5 0.0000 0.0000 0.0000 0.0000 12.0547 0.0000
# 6 0.0000 0.0000 0.0000 0.0000 0.0000 22.2370
#
#
#
# Elastic Compliance Matrix: (Units=1/GPa)
#
#
# Indices 1 2 3 4 5 6 
#
# 1 0.008639 -0.001008 -0.002628 0.000000 0.000000 0.000000
# 2 -0.001008 0.011555 -0.002343 0.000000 0.000000 0.000000
# 3 -0.002628 -0.002343 0.011783 0.000000 0.000000 0.000000
# 4 0.000000 0.000000 0.000000 0.100019 0.000000 0.000000
# 5 0.000000 0.000000 0.000000 0.000000 0.082955 0.000000
# 6 0.000000 0.000000 0.000000 0.000000 0.000000 0.044970
#
#
# Mechanical properties :
#
#
# Convention : Reuss Voigt Hill
#
# Bulk Modulus (GPa) = 49.94494 51.14043 50.54269
# Shear Modulus (GPa) = 17.94996 25.16988 21.55992
#
# Velocity S-wave (km/s) = 3.05450 3.61701 3.34759
# Velocity P-wave (km/s) = 6.19680 6.63516 6.41972
#
# Compressibility (1/GPa) = 0.02002205
#
# Stress axis : x y z
#
# Youngs Moduli (GPa) = 115.74832 86.53945 84.86522
#
# Poissons Ratio (x) = 0.08723 0.22299
# Poissons Ratio (y) = 0.11668 0.19880
# Poissons Ratio (z) = 0.30413 0.20272
#
# Static dielectric constant tensor:
#      x y z
#    x 3.790050 0.000000 0.000000 
#    y 0.000000 3.563350 0.000000 
#    z 0.000000 0.000000 3.504860 
# 
# 
# High freq. dielectric constant tensor:
#      x y z
#    x 1.765030 0.000000 0.000000 
#    y 0.000000 1.754390 0.000000 
#    z 0.000000 0.000000 1.734620 
# 
# From -- ./inp_files/7605.got.cif
#   From: 2010.03.12/outbox.cif.g09.slc.cpg/sg35_4_cif.got.tgz:7605.got - 2010.04.14 02:02:04.
