data_PCOD8173138
_publ_section_title
;
Structure prediction by ZEFSAII (Michael W. Deem and Ramdas Pophale) SiO2 
 PCOD8173138
Probable space group: C M M 2
;
_chemical_formula_sum "Si O2"
_cell_formula_units_Z 40
_cell_length_a 8.716234
_cell_length_b 25.740040
_cell_length_c 9.934857
_cell_angle_alpha 90.000000
_cell_angle_beta 90.000000
_cell_angle_gamma 90.000000
_cell_volume 2228.946881
_symmetry_space_group_name_H-M "C M M 2"
_symmetry_group_IT_number 35
_symmetry_cell_setting 'orthorhombic'
loop_
_space_group_symop_operation_xyz
x,y,z
-x,-y,z
-x,y,z
x,-y,z
1/2+x,1/2+y,z
1/2-x,1/2-y,z
1/2-x,1/2+y,z
1/2+x,1/2-y,z
loop_
_atom_site_type_symbol
_atom_site_label
_atom_site_fract_x
_atom_site_fract_y
_atom_site_fract_z
Si Si1 0.180206 0.606674 0.415320
Si Si2 0.169316 0.000000 0.429218
Si Si3 0.316641 0.610663 0.126832
Si Si4 0.317900 0.304957 0.911655
Si Si5 0.332554 0.500000 0.110414
Si Si6 0.818933 0.695078 0.626041
O O1 0.242169 0.552111 0.474119
O O2 0.251454 0.623557 0.273200
O O3 0.226783 0.651616 0.518813
O O4 0.000000 0.601495 0.397347
O O5 0.152899 0.000000 0.270390
O O6 0.000000 0.000000 0.495869
O O7 0.500000 0.607149 0.138845
O O8 0.250090 0.554566 0.072561
O O9 0.262121 0.653930 0.022548
O O10 0.500000 0.301389 0.903166
O O11 0.250000 0.250000 0.957188
O O12 0.252208 0.322210 0.768108
O O13 0.500000 0.500000 0.041947
O O14 0.750000 0.750000 0.577929
O O15 0.000000 0.701233 0.642751
#
# Coordination Sequence:
#
# PCOD8173138 Si02
#       6
#     8   4   8   8   4   8
#     4  10  20  33  52  78 105 133 167 209 254 298
#     4   9  17  31  52  75 102 136 168 202 248 301
#     4   9  18  32  52  76 100 129 166 207 249 297
#     4  10  20  34  52  73  99 133 170 208 252 302
#     4   7  12  27  48  69  94 122 154 194 238 283
#     4  10  21  36  53  73 100 135 172 211 255 303
#
# _framework density 17.945695000000001
#
# number of rings (size 3 to 8) (size 9 to 14) (size 15 to 20)
#    0.000    2.600    0.000    4.500    0.000    5.600 
#    0.000    5.000    0.000    1.200    0.000    0.000 
#    0.000    0.000    0.000    0.000    0.000    0.000 
#
# Total GULP energy -247892.746035 kJ/mol
# GULP energy per Si atom -12394.637302 kJ/mol
# Density = 1.790485 g / cm^3
# Si number density = 17.945695 Si / 1000 Ang^3
#
#
#
# Elastic Constant Matrix: (Units=GPa)
#
#
# Indices 1 2 3 4 5 6 
#
# 1 71.9731 56.1679 41.7777 0.0000 0.0000 0.0000
# 2 56.1679 179.3317 103.5244 0.0000 0.0000 0.0000
# 3 41.7777 103.5244 100.9122 0.0000 0.0000 0.0000
# 4 0.0000 0.0000 0.0000 8.9378 0.0000 0.0000
# 5 0.0000 0.0000 0.0000 0.0000 25.2120 0.0000
# 6 0.0000 0.0000 0.0000 0.0000 0.0000 26.8767
#
#
#
# Elastic Compliance Matrix: (Units=1/GPa)
#
#
# Indices 1 2 3 4 5 6 
#
# 1 0.019137 -0.003483 -0.004350 0.000000 0.000000 0.000000
# 2 -0.003483 0.014309 -0.013237 0.000000 0.000000 0.000000
# 3 -0.004350 -0.013237 0.025290 0.000000 0.000000 0.000000
# 4 0.000000 0.000000 0.000000 0.111884 0.000000 0.000000
# 5 0.000000 0.000000 0.000000 0.000000 0.039664 0.000000
# 6 0.000000 0.000000 0.000000 0.000000 0.000000 0.037207
#
#
# Mechanical properties :
#
#
# Convention : Reuss Voigt Hill
#
# Bulk Modulus (GPa) = 60.25411 83.90633 72.08022
# Shear Modulus (GPa) = 16.93987 22.25510 19.59748
#
# Velocity S-wave (km/s) = 3.07571 3.52538 3.30819
# Velocity P-wave (km/s) = 6.80162 7.96418 7.40575
#
# Compressibility (1/GPa) = 0.01659638
#
# Stress axis : x y z
#
# Youngs Moduli (GPa) = 52.25498 69.88810 39.54104
#
# Poissons Ratio (x) = 0.24340 0.17199
# Poissons Ratio (y) = 0.18199 0.52341
# Poissons Ratio (z) = 0.22730 0.92512
#
# Static dielectric constant tensor:
#      x y z
#    x 3.317140 0.000000 0.000000 
#    y 0.000000 3.773530 0.000000 
#    z 0.000000 0.000000 3.112890 
# 
# 
# High freq. dielectric constant tensor:
#      x y z
#    x 1.694860 0.000000 0.000000 
#    y 0.000000 1.712750 0.000000 
#    z 0.000000 0.000000 1.668630 
# 
# From -- ./inp_files/5014.got.cif
#   From: 2010.03.12/outbox.cif.g09.slc.cpg/sg35_3_cif.got.tgz:5014.got - 2010.04.14 02:02:04.
