data_PCOD8173833
_publ_section_title
;
Structure prediction by ZEFSAII (Michael W. Deem and Ramdas Pophale) SiO2 
 PCOD8173833
Probable space group: C M M 2
;
_chemical_formula_sum "Si O2"
_cell_formula_units_Z 64
_cell_length_a 8.835976
_cell_length_b 28.593176
_cell_length_c 12.571462
_cell_angle_alpha 90.000000
_cell_angle_beta 90.000000
_cell_angle_gamma 90.000000
_cell_volume 3176.162487
_symmetry_space_group_name_H-M "C M M 2"
_symmetry_group_IT_number 35
_symmetry_cell_setting 'orthorhombic'
loop_
_space_group_symop_operation_xyz
x,y,z
-x,-y,z
-x,y,z
x,-y,z
1/2+x,1/2+y,z
1/2-x,1/2-y,z
1/2-x,1/2+y,z
1/2+x,1/2-y,z
loop_
_atom_site_type_symbol
_atom_site_label
_atom_site_fract_x
_atom_site_fract_y
_atom_site_fract_z
Si Si1 0.820861 0.639586 0.813290
Si Si2 0.668740 0.055156 0.111248
Si Si3 0.179139 0.360414 0.409204
Si Si4 0.178846 0.699019 0.611247
Si Si5 0.178559 0.053496 0.329215
Si Si6 0.178559 0.053496 0.893280
Si Si7 0.176512 0.798929 0.234447
Si Si8 0.676512 0.701071 0.988047
O O1 0.764998 0.670432 0.714029
O O2 0.752940 0.587028 0.803901
O O3 0.000000 0.636424 0.817131
O O4 0.757120 0.660979 0.921673
O O5 0.500000 0.077502 0.111248
O O6 0.760058 0.070933 0.215235
O O7 0.654976 0.000000 0.111247
O O8 0.760056 0.070934 0.007260
O O9 0.235002 0.329568 0.508464
O O10 0.247060 0.412972 0.418593
O O11 0.242880 0.339021 0.300820
O O12 0.000000 0.363576 0.405362
O O13 0.250000 0.750000 0.611248
O O14 0.000000 0.704865 0.611247
O O15 0.000000 0.059586 0.329101
O O16 0.225351 0.000000 0.354109
O O17 0.000000 0.059586 0.893396
O O18 0.225350 0.000000 0.868387
O O19 0.250000 0.750000 0.267666
O O20 0.206070 0.810225 0.111247
O O21 0.000000 0.796853 0.262012
O O22 0.500000 0.703147 0.960482
O O23 0.750000 0.750000 0.954827
#
# Coordination Sequence:
#
# PCOD8173833 Si02
#       8
#     8   8   8   8   8   8   8   8
#     4  11  23  39  61  87 117 154 201 247 299 359
#     4   9  17  31  53  81 114 155 198 239 287 343
#     4  11  23  39  61  87 117 154 201 247 299 359
#     4  10  24  44  65  90 117 151 196 251 303 354
#     4  10  21  37  57  84 120 159 200 246 296 351
#     4  10  21  37  57  84 120 159 200 246 296 351
#     4  10  21  37  57  84 119 154 190 237 296 358
#     4  10  21  37  57  84 119 154 190 237 296 358
#
# _framework density 20.150100999999999
#
# number of rings (size 3 to 8) (size 9 to 14) (size 15 to 20)
#    0.000    1.875    0.000    3.375    1.750    8.500 
#    0.000    0.625    0.000    3.750    0.000    0.000 
#    0.000    0.000    0.000    0.000    0.000    0.000 
#
# Total GULP energy -396883.817848 kJ/mol
# GULP energy per Si atom -12402.619308 kJ/mol
# Density = 2.010424 g / cm^3
# Si number density = 20.150101 Si / 1000 Ang^3
#
#
#
# Elastic Constant Matrix: (Units=GPa)
#
#
# Indices 1 2 3 4 5 6 
#
# 1 98.2955 59.7890 43.7035 0.0000 0.0000 0.0000
# 2 59.7890 151.7122 75.3004 0.0000 0.0000 0.0000
# 3 43.7035 75.3004 85.5647 0.0000 0.0000 0.0000
# 4 0.0000 0.0000 0.0000 37.7299 0.0000 0.0000
# 5 0.0000 0.0000 0.0000 0.0000 23.9094 0.0000
# 6 0.0000 0.0000 0.0000 0.0000 0.0000 39.5629
#
#
#
# Elastic Compliance Matrix: (Units=1/GPa)
#
#
# Indices 1 2 3 4 5 6 
#
# 1 0.014154 -0.003533 -0.004120 0.000000 0.000000 0.000000
# 2 -0.003533 0.012585 -0.009271 0.000000 0.000000 0.000000
# 3 -0.004120 -0.009271 0.021950 0.000000 0.000000 0.000000
# 4 0.000000 0.000000 0.000000 0.026504 0.000000 0.000000
# 5 0.000000 0.000000 0.000000 0.000000 0.041825 0.000000
# 6 0.000000 0.000000 0.000000 0.000000 0.000000 0.025276
#
#
# Mechanical properties :
#
#
# Convention : Reuss Voigt Hill
#
# Bulk Modulus (GPa) = 67.37944 77.01755 72.19850
# Shear Modulus (GPa) = 27.61039 30.69239 29.15139
#
# Velocity S-wave (km/s) = 3.70569 3.90704 3.80769
# Velocity P-wave (km/s) = 7.19867 7.65886 7.43233
#
# Compressibility (1/GPa) = 0.01484132
#
# Stress axis : x y z
#
# Youngs Moduli (GPa) = 70.64943 79.45733 45.55712
#
# Poissons Ratio (x) = 0.28073 0.18771
# Poissons Ratio (y) = 0.24961 0.42236
# Poissons Ratio (z) = 0.29110 0.73665
#
# Static dielectric constant tensor:
#      x y z
#    x 3.714150 0.000000 0.000000 
#    y 0.000000 3.758890 0.000000 
#    z 0.000000 0.000000 3.632530 
# 
# 
# High freq. dielectric constant tensor:
#      x y z
#    x 1.796810 0.000000 0.000000 
#    y 0.000000 1.799550 0.000000 
#    z 0.000000 0.000000 1.765800 
# 
# From -- ./inp_files/12016.got.cif
#   From: 2010.03.12/outbox.cif.g09.slc.cpg/sg35_7_cif.got.tgz:12016.got - 2010.04.14 02:02:04.
