data_PCOD8173268
_publ_section_title
;
Structure prediction by ZEFSAII (Michael W. Deem and Ramdas Pophale) SiO2 
 PCOD8173268
Probable space group: C M M 2
;
_chemical_formula_sum "Si O2"
_cell_formula_units_Z 64
_cell_length_a 9.084854
_cell_length_b 19.305525
_cell_length_c 19.968956
_cell_angle_alpha 90.000000
_cell_angle_beta 90.000000
_cell_angle_gamma 90.000000
_cell_volume 3502.312779
_symmetry_space_group_name_H-M "C M M 2"
_symmetry_group_IT_number 35
_symmetry_cell_setting 'orthorhombic'
loop_
_space_group_symop_operation_xyz
x,y,z
-x,-y,z
-x,y,z
x,-y,z
1/2+x,1/2+y,z
1/2-x,1/2-y,z
1/2-x,1/2+y,z
1/2+x,1/2-y,z
loop_
_atom_site_type_symbol
_atom_site_label
_atom_site_fract_x
_atom_site_fract_y
_atom_site_fract_z
Si Si1 0.670521 0.179990 0.223810
Si Si2 0.672605 0.319630 0.858575
Si Si3 0.671859 0.319701 0.009457
Si Si4 0.170067 0.081841 0.478972
Si Si5 0.328854 0.179912 0.380483
Si Si6 0.327576 0.579774 0.126695
Si Si7 0.666325 0.082409 0.611096
Si Si8 0.671647 0.420362 0.742436
O O1 0.500000 0.187041 0.205280
O O2 0.750000 0.250000 0.199221
O O3 0.695689 0.167939 0.302097
O O4 0.739071 0.113797 0.187412
O O5 0.500000 0.307002 0.855098
O O6 0.750000 0.250000 0.833891
O O7 0.721783 0.380931 0.809347
O O8 0.722287 0.339154 0.934058
O O9 0.500000 0.304647 0.012294
O O10 0.750000 0.250000 0.034915
O O11 0.716204 0.383213 0.057147
O O12 0.254860 0.115173 0.416905
O O13 0.241369 0.109846 0.547795
O O14 0.000000 0.103799 0.477987
O O15 0.189406 0.000000 0.472078
O O16 0.500000 0.184529 0.399209
O O17 0.250000 0.250000 0.404632
O O18 0.500000 0.587491 0.141794
O O19 0.280395 0.500000 0.120633
O O20 0.500000 0.110630 0.606155
O O21 0.740174 0.110470 0.679144
O O22 0.670047 0.000000 0.611773
O O23 0.500000 0.410532 0.726958
O O24 0.711714 0.500000 0.754902
#
# Coordination Sequence:
#
# PCOD8173268 Si02
#       8
#     8   8   8   8   8   8   8   8
#     4  10  21  37  57  78 102 136 175 212 253 306
#     4   9  18  32  50  72  99 131 166 207 253 301
#     4   9  18  33  52  73  98 132 172 209 250 303
#     4  10  20  34  54  79 106 137 173 213 256 304
#     4  10  21  37  56  78 105 136 171 212 257 306
#     4  10  21  35  52  77 108 138 170 213 260 304
#     4   9  17  30  49  73 101 133 169 209 253 302
#     4   9  17  30  49  72  97 127 165 208 253 302
#
# _framework density 18.27364
#
# number of rings (size 3 to 8) (size 9 to 14) (size 15 to 20)
#    0.000    2.500    0.000    1.875    0.000    7.000 
#    0.000    5.625    0.000    1.500    0.000    5.250 
#    0.000    0.000    0.000    0.000    0.000    0.000 
#
# Total GULP energy -396879.370125 kJ/mol
# GULP energy per Si atom -12402.480316 kJ/mol
# Density = 1.823205 g / cm^3
# Si number density = 18.273640 Si / 1000 Ang^3
#
#
#
# Elastic Constant Matrix: (Units=GPa)
#
#
# Indices 1 2 3 4 5 6 
#
# 1 97.6029 55.4414 61.5404 0.0000 0.0000 0.0000
# 2 55.4414 102.9988 65.9325 0.0000 0.0000 0.0000
# 3 61.5404 65.9325 102.4251 0.0000 0.0000 0.0000
# 4 0.0000 0.0000 0.0000 24.8225 0.0000 0.0000
# 5 0.0000 0.0000 0.0000 0.0000 29.9554 0.0000
# 6 0.0000 0.0000 0.0000 0.0000 0.0000 30.0278
#
#
#
# Elastic Compliance Matrix: (Units=1/GPa)
#
#
# Indices 1 2 3 4 5 6 
#
# 1 0.017702 -0.004627 -0.007658 0.000000 0.000000 0.000000
# 2 -0.004627 0.017723 -0.008628 0.000000 0.000000 0.000000
# 3 -0.007658 -0.008628 0.019919 0.000000 0.000000 0.000000
# 4 0.000000 0.000000 0.000000 0.040286 0.000000 0.000000
# 5 0.000000 0.000000 0.000000 0.000000 0.033383 0.000000
# 6 0.000000 0.000000 0.000000 0.000000 0.000000 0.033302
#
#
# Mechanical properties :
#
#
# Convention : Reuss Voigt Hill
#
# Bulk Modulus (GPa) = 73.97817 74.31727 74.14772
# Shear Modulus (GPa) = 23.96406 24.96865 24.46635
#
# Velocity S-wave (km/s) = 3.62525 3.70046 3.66305
# Velocity P-wave (km/s) = 7.62199 7.68214 7.65212
#
# Compressibility (1/GPa) = 0.01351750
#
# Stress axis : x y z
#
# Youngs Moduli (GPa) = 56.49088 56.42542 50.20440
#
# Poissons Ratio (x) = 0.26105 0.38445
# Poissons Ratio (y) = 0.26136 0.43319
# Poissons Ratio (z) = 0.43260 0.48687
#
# Static dielectric constant tensor:
#      x y z
#    x 3.436740 0.000000 0.000000 
#    y 0.000000 3.255270 0.000000 
#    z 0.000000 0.000000 3.522500 
# 
# 
# High freq. dielectric constant tensor:
#      x y z
#    x 1.712720 0.000000 0.000000 
#    y 0.000000 1.689320 0.000000 
#    z 0.000000 0.000000 1.717140 
# 
# From -- ./inp_files/18356.got.cif
#   From: 2010.03.12/outbox.cif.g09.slc.cpg/sg35_10_cif.got.tgz:18356.got - 2010.04.14 02:02:04.
