data_PCOD8173919
_publ_section_title
;
Structure prediction by ZEFSAII (Michael W. Deem and Ramdas Pophale) SiO2 
 PCOD8173919
Probable space group: C M M 2
;
_chemical_formula_sum "Si O2"
_cell_formula_units_Z 64
_cell_length_a 17.277561
_cell_length_b 14.739622
_cell_length_c 12.071599
_cell_angle_alpha 90.000000
_cell_angle_beta 90.000000
_cell_angle_gamma 90.000000
_cell_volume 3074.210358
_symmetry_space_group_name_H-M "C M M 2"
_symmetry_group_IT_number 35
_symmetry_cell_setting 'orthorhombic'
loop_
_space_group_symop_operation_xyz
x,y,z
-x,-y,z
-x,y,z
x,-y,z
1/2+x,1/2+y,z
1/2-x,1/2-y,z
1/2-x,1/2+y,z
1/2+x,1/2-y,z
loop_
_atom_site_type_symbol
_atom_site_label
_atom_site_fract_x
_atom_site_fract_y
_atom_site_fract_z
Si Si1 0.089051 0.397288 0.616780
Si Si2 0.644797 0.893930 0.089770
Si Si3 0.410725 0.261919 0.236986
Si Si4 0.409362 0.606463 0.642355
Si Si5 0.175457 0.894375 0.077393
Si Si6 0.298181 0.342911 0.839069
Si Si7 0.840608 0.754673 0.475166
Si Si8 0.138582 0.402091 0.845912
O O1 0.123014 0.500000 0.615527
O O2 0.129174 0.340195 0.522083
O O3 0.103672 0.350439 0.738428
O O4 0.000000 0.397663 0.588111
O O5 0.596798 0.835232 0.176571
O O6 0.735590 0.879218 0.112406
O O7 0.622910 0.000000 0.101727
O O8 0.623268 0.856186 0.965724
O O9 0.500000 0.279055 0.266207
O O10 0.380128 0.344025 0.162641
O O11 0.360116 0.260708 0.346918
O O12 0.500000 0.627048 0.659640
O O13 0.394190 0.500000 0.624964
O O14 0.363539 0.644036 0.747824
O O15 0.378740 0.658718 0.534563
O O16 0.153303 0.000000 0.076528
O O17 0.159681 0.850253 0.957385
O O18 0.250000 0.250000 0.823578
O O19 0.231069 0.418453 0.831317
O O20 0.750000 0.750000 0.494343
O O21 0.097811 0.500000 0.848067
#
# Coordination Sequence:
#
# PCOD8173919 Si02
#       8
#     8   8   8   8   8   8   8   8
#     4  10  21  38  62  93 127 158 193 247 314 378
#     4   9  19  38  64  92 123 160 201 250 308 371
#     4  12  26  42  61  87 121 158 203 260 317 377
#     4  11  24  41  62  91 129 168 206 255 314 373
#     4  10  21  40  65  90 121 162 208 253 295 353
#     4  11  20  35  62  93 125 161 201 248 299 356
#     4  12  26  44  65  85 113 159 213 265 311 370
#     4   9  17  32  57  88 121 156 194 235 285 355
#
# _framework density 20.818353999999999
#
# number of rings (size 3 to 8) (size 9 to 14) (size 15 to 20)
#    0.000    1.500    0.000    7.500    0.000    4.000 
#    0.000    1.250    0.000    0.000    0.000    0.000 
#    0.000    0.000    0.000    0.000    0.000    0.000 
#
# Total GULP energy -396690.533820 kJ/mol
# GULP energy per Si atom -12396.579182 kJ/mol
# Density = 2.077097 g / cm^3
# Si number density = 20.818354 Si / 1000 Ang^3
#
#
#
# Elastic Constant Matrix: (Units=GPa)
#
#
# Indices 1 2 3 4 5 6 
#
# 1 89.0858 42.9654 39.7261 0.0000 0.0000 0.0000
# 2 42.9654 124.6682 54.8775 0.0000 0.0000 0.0000
# 3 39.7261 54.8775 131.0313 0.0000 0.0000 0.0000
# 4 0.0000 0.0000 0.0000 18.7027 0.0000 0.0000
# 5 0.0000 0.0000 0.0000 0.0000 10.6404 0.0000
# 6 0.0000 0.0000 0.0000 0.0000 0.0000 25.5248
#
#
#
# Elastic Compliance Matrix: (Units=1/GPa)
#
#
# Indices 1 2 3 4 5 6 
#
# 1 0.014240 -0.003687 -0.002773 0.000000 0.000000 0.000000
# 2 -0.003687 0.010789 -0.003401 0.000000 0.000000 0.000000
# 3 -0.002773 -0.003401 0.009897 0.000000 0.000000 0.000000
# 4 0.000000 0.000000 0.000000 0.053468 0.000000 0.000000
# 5 0.000000 0.000000 0.000000 0.000000 0.093981 0.000000
# 6 0.000000 0.000000 0.000000 0.000000 0.000000 0.039178
#
#
# Mechanical properties :
#
#
# Convention : Reuss Voigt Hill
#
# Bulk Modulus (GPa) = 65.77190 68.88037 67.32613
# Shear Modulus (GPa) = 20.29697 24.78801 22.54249
#
# Velocity S-wave (km/s) = 3.12582 3.45437 3.29419
# Velocity P-wave (km/s) = 6.68502 7.00488 6.84682
#
# Compressibility (1/GPa) = 0.01520406
#
# Stress axis : x y z
#
# Youngs Moduli (GPa) = 70.22505 92.68777 101.04286
#
# Poissons Ratio (x) = 0.34173 0.28021
# Poissons Ratio (y) = 0.25891 0.34362
# Poissons Ratio (z) = 0.19474 0.31521
#
# Static dielectric constant tensor:
#      x y z
#    x 3.822350 0.000000 0.000000 
#    y 0.000000 4.014870 0.000000 
#    z 0.000000 0.000000 3.787430 
# 
# 
# High freq. dielectric constant tensor:
#      x y z
#    x 1.808290 0.000000 0.000000 
#    y 0.000000 1.824690 0.000000 
#    z 0.000000 0.000000 1.816110 
# 
# From -- ./inp_files/13583.got.cif
#   From: 2010.03.12/outbox.cif.g09.slc.cpg/sg35_7_cif.got.tgz:13583.got - 2010.04.14 02:02:04.
