data_PCOD8173165
_publ_section_title
;
Structure prediction by ZEFSAII (Michael W. Deem and Ramdas Pophale) SiO2 
 PCOD8173165
Probable space group: C M M 2
;
_chemical_formula_sum "Si O2"
_cell_formula_units_Z 52
_cell_length_a 22.053941
_cell_length_b 14.077078
_cell_length_c 8.743878
_cell_angle_alpha 90.000000
_cell_angle_beta 90.000000
_cell_angle_gamma 90.000000
_cell_volume 2714.581061
_symmetry_space_group_name_H-M "C M M 2"
_symmetry_group_IT_number 35
_symmetry_cell_setting 'orthorhombic'
loop_
_space_group_symop_operation_xyz
x,y,z
-x,-y,z
-x,y,z
x,-y,z
1/2+x,1/2+y,z
1/2-x,1/2-y,z
1/2-x,1/2+y,z
1/2+x,1/2-y,z
loop_
_atom_site_type_symbol
_atom_site_label
_atom_site_fract_x
_atom_site_fract_y
_atom_site_fract_z
Si Si1 0.648304 0.752515 0.021850
Si Si2 0.710291 0.889816 0.784520
Si Si3 0.568882 0.607772 0.486623
Si Si4 0.930776 0.287424 0.288978
Si Si5 0.250000 0.250000 0.253422
Si Si6 0.673605 0.889375 0.449491
Si Si7 0.149891 0.889842 0.773345
O O1 0.590881 0.794658 0.113156
O O2 0.695629 0.711616 0.146884
O O3 0.680320 0.834764 0.924390
O O4 0.622942 0.668390 0.915692
O O5 0.675256 0.865104 0.628967
O O6 0.779988 0.859396 0.758512
O O7 0.706118 0.000000 0.826548
O O8 0.500000 0.615311 0.549002
O O9 0.582841 0.500000 0.431792
O O10 0.578746 0.678888 0.345586
O O11 0.614712 0.639028 0.620080
O O12 0.892784 0.359704 0.392989
O O13 0.000000 0.320213 0.299605
O O14 0.273072 0.164091 0.358771
O O15 0.685124 0.000000 0.420629
O O16 0.140976 0.000000 0.808894
#
# Coordination Sequence:
#
# PCOD8173165 Si02
#       7
#     8   8   8   8   4   8   8
#     4  11  21  35  55  82 119 153 183 235 286 347
#     4  10  21  37  58  85 116 150 188 235 289 344
#     4   9  19  37  59  84 115 152 197 245 289 340
#     4  10  23  40  59  84 115 156 200 243 293 343
#     4  10  22  34  56  86 116 150 186 232 288 350
#     4  10  23  40  61  86 114 152 197 244 287 337
#     4  10  20  33  54  84 116 153 190 232 288 347
#
# _framework density 19.155811
#
# number of rings (size 3 to 8) (size 9 to 14) (size 15 to 20)
#    0.000    2.000    1.538    0.923    6.462    4.615 
#    0.000    0.769    0.000    0.923    0.000    0.000 
#    0.000    0.000    0.000    0.000    0.000    0.000 
#
# Total GULP energy -322447.601044 kJ/mol
# GULP energy per Si atom -12401.830809 kJ/mol
# Density = 1.911221 g / cm^3
# Si number density = 19.155811 Si / 1000 Ang^3
#
#
#
# Elastic Constant Matrix: (Units=GPa)
#
#
# Indices 1 2 3 4 5 6 
#
# 1 103.9214 41.3551 63.6755 0.0000 0.0000 0.0000
# 2 41.3551 72.4124 50.3701 0.0000 0.0000 0.0000
# 3 63.6755 50.3701 112.9422 0.0000 0.0000 0.0000
# 4 0.0000 0.0000 0.0000 24.1283 0.0000 0.0000
# 5 0.0000 0.0000 0.0000 0.0000 28.7535 0.0000
# 6 0.0000 0.0000 0.0000 0.0000 0.0000 27.3973
#
#
#
# Elastic Compliance Matrix: (Units=1/GPa)
#
#
# Indices 1 2 3 4 5 6 
#
# 1 0.015465 -0.004012 -0.006930 0.000000 0.000000 0.000000
# 2 -0.004012 0.021061 -0.007131 0.000000 0.000000 0.000000
# 3 -0.006930 -0.007131 0.015941 0.000000 0.000000 0.000000
# 4 0.000000 0.000000 0.000000 0.041445 0.000000 0.000000
# 5 0.000000 0.000000 0.000000 0.000000 0.034778 0.000000
# 6 0.000000 0.000000 0.000000 0.000000 0.000000 0.036500
#
#
# Mechanical properties :
#
#
# Convention : Reuss Voigt Hill
#
# Bulk Modulus (GPa) = 61.26596 66.67528 63.97062
# Shear Modulus (GPa) = 24.18048 24.98084 24.58066
#
# Velocity S-wave (km/s) = 3.55675 3.61513 3.58606
# Velocity P-wave (km/s) = 6.99426 7.23242 7.11434
#
# Compressibility (1/GPa) = 0.01632228
#
# Stress axis : x y z
#
# Youngs Moduli (GPa) = 64.66073 47.48024 62.72941
#
# Poissons Ratio (x) = 0.19048 0.43471
# Poissons Ratio (y) = 0.25941 0.44733
# Poissons Ratio (z) = 0.44810 0.33859
#
# Static dielectric constant tensor:
#      x y z
#    x 3.567990 0.000000 0.000000 
#    y 0.000000 3.466770 0.000000 
#    z 0.000000 0.000000 3.573820 
# 
# 
# High freq. dielectric constant tensor:
#      x y z
#    x 1.738610 0.000000 0.000000 
#    y 0.000000 1.745540 0.000000 
#    z 0.000000 0.000000 1.748200 
# 
# From -- ./inp_files/9840.got.cif
#   From: 2010.03.12/outbox.cif.g09.slc.cpg/sg35_5_cif.got.tgz:9840.got - 2010.04.14 02:02:04.
