data_PCOD8173222
_publ_section_title
;
Structure prediction by ZEFSAII (Michael W. Deem and Ramdas Pophale) SiO2 
 PCOD8173222
Probable space group: C M M 2
;
_chemical_formula_sum "Si O2"
_cell_formula_units_Z 64
_cell_length_a 9.029589
_cell_length_b 18.606358
_cell_length_c 20.298174
_cell_angle_alpha 90.000000
_cell_angle_beta 90.000000
_cell_angle_gamma 90.000000
_cell_volume 3410.250858
_symmetry_space_group_name_H-M "C M M 2"
_symmetry_group_IT_number 35
_symmetry_cell_setting 'orthorhombic'
loop_
_space_group_symop_operation_xyz
x,y,z
-x,-y,z
-x,y,z
x,-y,z
1/2+x,1/2+y,z
1/2-x,1/2-y,z
1/2-x,1/2+y,z
1/2+x,1/2-y,z
loop_
_atom_site_type_symbol
_atom_site_label
_atom_site_fract_x
_atom_site_fract_y
_atom_site_fract_z
Si Si1 0.325582 0.174115 0.990330
Si Si2 0.328653 0.083148 0.863116
Si Si3 0.673407 0.677102 0.608632
Si Si4 0.324979 0.079420 0.109021
Si Si5 0.325966 0.323979 0.758571
Si Si6 0.324468 0.672913 0.368032
Si Si7 0.324264 0.420044 0.491124
Si Si8 0.329051 0.084055 0.257752
O O1 0.500000 0.185958 0.995278
O O2 0.250000 0.250000 0.980375
O O3 0.282282 0.124318 0.929064
O O4 0.261594 0.136300 0.056365
O O5 0.500000 0.095928 0.846018
O O6 0.231539 0.110739 0.802376
O O7 0.292945 0.000000 0.874524
O O8 0.500000 0.689842 0.601542
O O9 0.750000 0.750000 0.585329
O O10 0.717095 0.657231 0.683325
O O11 0.728265 0.613751 0.560523
O O12 0.500000 0.073871 0.100621
O O13 0.285758 0.104434 0.182855
O O14 0.257562 0.000000 0.095444
O O15 0.500000 0.314640 0.767893
O O16 0.250000 0.250000 0.781482
O O17 0.500000 0.682429 0.368625
O O18 0.250000 0.750000 0.369751
O O19 0.266052 0.628220 0.430922
O O20 0.278060 0.630595 0.302819
O O21 0.500000 0.424458 0.488358
O O22 0.255764 0.500000 0.485500
O O23 0.500000 0.103496 0.272028
O O24 0.300961 0.000000 0.270693
#
# Coordination Sequence:
#
# PCOD8173222 Si02
#       8
#     8   8   8   8   8   8   8   8
#     4  10  20  34  53  76 102 133 171 212 254 303
#     4  10  21  36  54  76 103 136 173 215 261 307
#     4   9  18  33  54  77 102 133 168 207 250 300
#     4   8  15  31  55  78 100 131 170 208 248 299
#     4  10  20  34  54  79 106 138 173 210 254 304
#     4  11  22  35  53  76 104 138 175 215 258 305
#     4   9  18  33  53  76 101 131 169 212 257 305
#     4   9  18  34  56  80 106 136 170 210 256 306
#
# _framework density 18.766947999999999
#
# number of rings (size 3 to 8) (size 9 to 14) (size 15 to 20)
#    0.000    2.500    0.000    3.000    0.000    5.500 
#    0.000    3.750    0.000    3.750    0.000    0.000 
#    0.000    0.000    0.000    0.000    0.000    0.000 
#
# Total GULP energy -396828.610617 kJ/mol
# GULP energy per Si atom -12400.894082 kJ/mol
# Density = 1.872423 g / cm^3
# Si number density = 18.766948 Si / 1000 Ang^3
#
#
#
# Elastic Constant Matrix: (Units=GPa)
#
#
# Indices 1 2 3 4 5 6 
#
# 1 44.2848 44.3683 40.4001 0.0000 0.0000 0.0000
# 2 44.3683 148.0073 87.9464 0.0000 0.0000 0.0000
# 3 40.4001 87.9464 134.0247 0.0000 0.0000 0.0000
# 4 0.0000 0.0000 0.0000 37.5715 0.0000 0.0000
# 5 0.0000 0.0000 0.0000 0.0000 20.9560 0.0000
# 6 0.0000 0.0000 0.0000 0.0000 0.0000 23.9369
#
#
#
# Elastic Compliance Matrix: (Units=1/GPa)
#
#
# Indices 1 2 3 4 5 6 
#
# 1 0.034996 -0.006921 -0.006007 0.000000 0.000000 0.000000
# 2 -0.006921 0.012443 -0.006079 0.000000 0.000000 0.000000
# 3 -0.006007 -0.006079 0.013261 0.000000 0.000000 0.000000
# 4 0.000000 0.000000 0.000000 0.026616 0.000000 0.000000
# 5 0.000000 0.000000 0.000000 0.000000 0.047719 0.000000
# 6 0.000000 0.000000 0.000000 0.000000 0.000000 0.041777
#
#
# Mechanical properties :
#
#
# Convention : Reuss Voigt Hill
#
# Bulk Modulus (GPa) = 44.08157 74.63848 59.36003
# Shear Modulus (GPa) = 22.48320 26.73301 24.60811
#
# Velocity S-wave (km/s) = 3.46500 3.77831 3.62504
# Velocity P-wave (km/s) = 6.28874 7.67410 7.01570
#
# Compressibility (1/GPa) = 0.02268522
#
# Stress axis : x y z
#
# Youngs Moduli (GPa) = 28.57493 80.36453 75.40808
#
# Poissons Ratio (x) = 0.55621 0.45301
# Poissons Ratio (y) = 0.19777 0.45840
# Poissons Ratio (z) = 0.17166 0.48853
#
# Static dielectric constant tensor:
#      x y z
#    x 3.162200 0.000000 0.000000 
#    y 0.000000 3.593470 0.000000 
#    z 0.000000 0.000000 3.669030 
# 
# 
# High freq. dielectric constant tensor:
#      x y z
#    x 1.699730 0.000000 0.000000 
#    y 0.000000 1.733080 0.000000 
#    z 0.000000 0.000000 1.743120 
# 
# From -- ./inp_files/18337.got.cif
#   From: 2010.03.12/outbox.cif.g09.slc.cpg/sg35_10_cif.got.tgz:18337.got - 2010.04.14 02:02:04.
