data_PCOD8173010
_publ_section_title
;
Structure prediction by ZEFSAII (Michael W. Deem and Ramdas Pophale) SiO2 
 PCOD8173010
Probable space group: C M M 2
;
_chemical_formula_sum "Si O2"
_cell_formula_units_Z 64
_cell_length_a 9.056730
_cell_length_b 18.371518
_cell_length_c 20.615651
_cell_angle_alpha 90.000000
_cell_angle_beta 90.000000
_cell_angle_gamma 90.000000
_cell_volume 3430.153197
_symmetry_space_group_name_H-M "C M M 2"
_symmetry_group_IT_number 35
_symmetry_cell_setting 'orthorhombic'
loop_
_space_group_symop_operation_xyz
x,y,z
-x,-y,z
-x,y,z
x,-y,z
1/2+x,1/2+y,z
1/2-x,1/2-y,z
1/2-x,1/2+y,z
1/2+x,1/2-y,z
loop_
_atom_site_type_symbol
_atom_site_label
_atom_site_fract_x
_atom_site_fract_y
_atom_site_fract_z
Si Si1 0.327248 0.173315 0.155310
Si Si2 0.675415 0.581322 0.652253
Si Si3 0.675178 0.418576 0.795867
Si Si4 0.328466 0.416139 0.407396
Si Si5 0.329777 0.914829 0.027102
Si Si6 0.675155 0.673218 0.532397
Si Si7 0.175396 0.827429 0.916838
Si Si8 0.174710 0.417133 0.277925
O O1 0.500000 0.187720 0.161058
O O2 0.250000 0.250000 0.145363
O O3 0.289491 0.121619 0.095229
O O4 0.266854 0.133278 0.219635
O O5 0.500000 0.579967 0.648395
O O6 0.735680 0.500000 0.639036
O O7 0.726896 0.607236 0.724089
O O8 0.738208 0.635043 0.597480
O O9 0.500000 0.421793 0.798864
O O10 0.736919 0.500000 0.810333
O O11 0.733722 0.361502 0.849011
O O12 0.500000 0.403669 0.394033
O O13 0.290895 0.500000 0.420329
O O14 0.274663 0.373364 0.470575
O O15 0.241779 0.386474 0.344754
O O16 0.500000 0.899839 0.008263
O O17 0.297465 0.000000 0.033458
O O18 0.222751 0.881916 0.973276
O O19 0.500000 0.681715 0.535458
O O20 0.750000 0.750000 0.525853
O O21 0.250000 0.750000 0.927743
O O22 0.000000 0.817909 0.918057
O O23 0.228301 0.500000 0.265635
O O24 0.000000 0.413980 0.282821
#
# Coordination Sequence:
#
# PCOD8173010 Si02
#       8
#     8   8   8   8   8   8   8   8
#     4  10  21  36  54  77 105 135 167 205 249 299
#     4   8  14  28  51  74  95 126 170 212 248 292
#     4   8  15  29  50  75 100 128 167 213 255 297
#     4   9  18  33  52  73  97 127 166 209 247 287
#     4  10  21  38  59  80 103 134 172 214 259 306
#     4  10  20  32  48  72 101 131 163 203 250 298
#     4  11  22  35  52  77 109 141 173 211 256 305
#     4   9  18  34  55  76  98 128 166 205 247 296
#
# _framework density 18.658058
#
# number of rings (size 3 to 8) (size 9 to 14) (size 15 to 20)
#    0.000    2.625    0.000    2.625    0.000    7.250 
#    0.000    2.500    0.000    4.125    0.000    3.500 
#    0.000    0.000    0.000    0.000    0.000    0.000 
#
# Total GULP energy -396776.492179 kJ/mol
# GULP energy per Si atom -12399.265381 kJ/mol
# Density = 1.861559 g / cm^3
# Si number density = 18.658058 Si / 1000 Ang^3
#
#
#
# Elastic Constant Matrix: (Units=GPa)
#
#
# Indices 1 2 3 4 5 6 
#
# 1 31.9730 35.3447 41.0726 0.0000 0.0000 0.0000
# 2 35.3447 124.3544 82.2587 0.0000 0.0000 0.0000
# 3 41.0726 82.2587 161.4436 0.0000 0.0000 0.0000
# 4 0.0000 0.0000 0.0000 13.9235 0.0000 0.0000
# 5 0.0000 0.0000 0.0000 0.0000 15.5045 0.0000
# 6 0.0000 0.0000 0.0000 0.0000 0.0000 24.1822
#
#
#
# Elastic Compliance Matrix: (Units=1/GPa)
#
#
# Indices 1 2 3 4 5 6 
#
# 1 0.052625 -0.009203 -0.008699 0.000000 0.000000 0.000000
# 2 -0.009203 0.013739 -0.004659 0.000000 0.000000 0.000000
# 3 -0.008699 -0.004659 0.010781 0.000000 0.000000 0.000000
# 4 0.000000 0.000000 0.000000 0.071821 0.000000 0.000000
# 5 0.000000 0.000000 0.000000 0.000000 0.064497 0.000000
# 6 0.000000 0.000000 0.000000 0.000000 0.000000 0.041353
#
#
# Mechanical properties :
#
#
# Convention : Reuss Voigt Hill
#
# Bulk Modulus (GPa) = 31.22782 70.56923 50.89853
# Shear Modulus (GPa) = 16.09723 21.32837 18.71280
#
# Velocity S-wave (km/s) = 2.94045 3.38467 3.17035
# Velocity P-wave (km/s) = 5.31992 7.29240 6.38282
#
# Compressibility (1/GPa) = 0.03202273
#
# Stress axis : x y z
#
# Youngs Moduli (GPa) = 19.00250 72.78466 92.75490
#
# Poissons Ratio (x) = 0.66984 0.80688
# Poissons Ratio (y) = 0.17488 0.43215
# Poissons Ratio (z) = 0.16530 0.33911
#
# Static dielectric constant tensor:
#      x y z
#    x 3.103170 0.000000 0.000000 
#    y 0.000000 3.465490 0.000000 
#    z 0.000000 0.000000 3.804910 
# 
# 
# High freq. dielectric constant tensor:
#      x y z
#    x 1.689600 0.000000 0.000000 
#    y 0.000000 1.726240 0.000000 
#    z 0.000000 0.000000 1.742470 
# 
# From -- ./inp_files/18446.got.cif
#   From: 2010.03.12/outbox.cif.g09.slc.cpg/sg35_10_cif.got.tgz:18446.got - 2010.04.14 02:02:04.
