data_PCOD8173213
_publ_section_title
;
Structure prediction by ZEFSAII (Michael W. Deem and Ramdas Pophale) SiO2 
 PCOD8173213
Probable space group: C M M 2
;
_chemical_formula_sum "Si O2"
_cell_formula_units_Z 48
_cell_length_a 7.903449
_cell_length_b 19.835451
_cell_length_c 16.969899
_cell_angle_alpha 90.000000
_cell_angle_beta 90.000000
_cell_angle_gamma 90.000000
_cell_volume 2660.345193
_symmetry_space_group_name_H-M "C M M 2"
_symmetry_group_IT_number 35
_symmetry_cell_setting 'orthorhombic'
loop_
_space_group_symop_operation_xyz
x,y,z
-x,-y,z
-x,y,z
x,-y,z
1/2+x,1/2+y,z
1/2-x,1/2-y,z
1/2-x,1/2+y,z
1/2+x,1/2-y,z
loop_
_atom_site_type_symbol
_atom_site_label
_atom_site_fract_x
_atom_site_fract_y
_atom_site_fract_z
Si Si1 0.500000 0.419360 0.598410
Si Si2 0.304612 0.823254 0.026575
Si Si3 0.309545 0.325025 0.198185
Si Si4 0.193879 0.572866 0.323402
Si Si5 0.193549 0.421307 0.884229
Si Si6 0.190472 0.419744 0.494638
Si Si7 0.000000 0.920374 0.774988
O O1 0.500000 0.500000 0.597930
O O2 0.328827 0.391751 0.556753
O O3 0.500000 0.390058 0.687278
O O4 0.500000 0.820719 0.049351
O O5 0.250000 0.750000 0.993822
O O6 0.206161 0.842480 0.106012
O O7 0.263774 0.879949 0.962722
O O8 0.500000 0.332927 0.225713
O O9 0.250000 0.250000 0.215834
O O10 0.206487 0.376745 0.250822
O O11 0.280217 0.500000 0.303166
O O12 0.259560 0.602065 0.407450
O O13 0.000000 0.558822 0.339905
O O14 0.217599 0.500000 0.904140
O O15 0.327709 0.396697 0.818729
O O16 0.000000 0.407009 0.855782
O O17 0.185058 0.500000 0.498649
O O18 0.000000 0.391466 0.513501
O O19 0.000000 0.000000 0.770394
#
# Coordination Sequence:
#
# PCOD8173213 Si02
#       7
#     4   8   8   8   8   8   4
#     4   9  16  26  44  71 101 131 163 201 250 301
#     4  10  20  34  53  73  97 130 168 211 250 293
#     4  11  22  34  50  72 101 134 170 213 252 297
#     4   9  18  33  51  72 102 135 168 211 256 298
#     4   9  19  34  51  73 103 135 167 205 253 306
#     4   8  15  27  44  68 100 134 165 203 246 293
#     4   9  18  30  48  73 103 135 162 205 254 299
#
# _framework density 18.042770999999998
#
# number of rings (size 3 to 8) (size 9 to 14) (size 15 to 20)
#    0.000    2.667    0.000    4.000    3.500    1.667 
#    0.000    5.000    0.000    0.000    0.000    1.167 
#    0.000    0.000    0.000    0.000    0.000    0.000 
#
# Total GULP energy -297434.527394 kJ/mol
# GULP energy per Si atom -12393.105308 kJ/mol
# Density = 1.800171 g / cm^3
# Si number density = 18.042771 Si / 1000 Ang^3
#
#
#
# Elastic Constant Matrix: (Units=GPa)
#
#
# Indices 1 2 3 4 5 6 
#
# 1 93.0338 25.7444 53.2091 0.0000 0.0000 0.0000
# 2 25.7444 53.0611 56.5425 0.0000 0.0000 0.0000
# 3 53.2091 56.5425 129.3438 0.0000 0.0000 0.0000
# 4 0.0000 0.0000 0.0000 1.8915 0.0000 0.0000
# 5 0.0000 0.0000 0.0000 0.0000 32.2937 0.0000
# 6 0.0000 0.0000 0.0000 0.0000 0.0000 17.2450
#
#
#
# Elastic Compliance Matrix: (Units=1/GPa)
#
#
# Indices 1 2 3 4 5 6 
#
# 1 0.014099 -0.001236 -0.005260 0.000000 0.000000 0.000000
# 2 -0.001236 0.035390 -0.014962 0.000000 0.000000 0.000000
# 3 -0.005260 -0.014962 0.016436 0.000000 0.000000 0.000000
# 4 0.000000 0.000000 0.000000 0.528668 0.000000 0.000000
# 5 0.000000 0.000000 0.000000 0.000000 0.030966 0.000000
# 6 0.000000 0.000000 0.000000 0.000000 0.000000 0.057988
#
#
# Mechanical properties :
#
#
# Convention : Reuss Voigt Hill
#
# Bulk Modulus (GPa) = 43.46124 60.71454 52.08789
# Shear Modulus (GPa) = 6.81077 19.61555 13.21316
#
# Velocity S-wave (km/s) = 1.94499 3.30080 2.70908
# Velocity P-wave (km/s) = 5.40224 6.94625 6.22232
#
# Compressibility (1/GPa) = 0.02300901
#
# Stress axis : x y z
#
# Youngs Moduli (GPa) = 70.92702 28.25687 60.84273
#
# Poissons Ratio (x) = 0.03492 0.32002
# Poissons Ratio (y) = 0.08764 0.91034
# Poissons Ratio (z) = 0.37306 0.42278
#
# Static dielectric constant tensor:
#      x y z
#    x 3.558140 0.000000 0.000000 
#    y 0.000000 2.947830 0.000000 
#    z 0.000000 0.000000 3.393080 
# 
# 
# High freq. dielectric constant tensor:
#      x y z
#    x 1.713150 0.000000 0.000000 
#    y 0.000000 1.653470 0.000000 
#    z 0.000000 0.000000 1.694260 
# 
# From -- ./inp_files/15269.got.cif
#   From: 2010.03.12/outbox.cif.g09.slc.cpg/sg35_8_cif.got.tgz:15269.got - 2010.04.14 02:02:04.
