data_PCOD8173529
_publ_section_title
;
Structure prediction by ZEFSAII (Michael W. Deem and Ramdas Pophale) SiO2 
 PCOD8173529
Probable space group: C M M 2
;
_chemical_formula_sum "Si O2"
_cell_formula_units_Z 56
_cell_length_a 8.885717
_cell_length_b 18.526374
_cell_length_c 17.954166
_cell_angle_alpha 90.000000
_cell_angle_beta 90.000000
_cell_angle_gamma 90.000000
_cell_volume 2955.616897
_symmetry_space_group_name_H-M "C M M 2"
_symmetry_group_IT_number 35
_symmetry_cell_setting 'orthorhombic'
loop_
_space_group_symop_operation_xyz
x,y,z
-x,-y,z
-x,y,z
x,-y,z
1/2+x,1/2+y,z
1/2-x,1/2-y,z
1/2-x,1/2+y,z
1/2+x,1/2-y,z
loop_
_atom_site_type_symbol
_atom_site_label
_atom_site_fract_x
_atom_site_fract_y
_atom_site_fract_z
Si Si1 0.673494 0.916221 0.935200
Si Si2 0.677764 0.327961 0.806864
Si Si3 0.676081 0.174624 0.079143
Si Si4 0.322582 0.418590 0.667312
Si Si5 0.177454 0.826015 0.232148
Si Si6 0.827562 0.585115 0.356376
Si Si7 0.832460 0.585702 0.520842
O O1 0.500000 0.903901 0.912654
O O2 0.779595 0.875954 0.877364
O O3 0.716608 0.000000 0.935754
O O4 0.705751 0.885284 0.016959
O O5 0.500000 0.318792 0.804423
O O6 0.750000 0.250000 0.813755
O O7 0.739929 0.367691 0.732841
O O8 0.500000 0.187617 0.093209
O O9 0.750000 0.250000 0.053610
O O10 0.752124 0.145702 0.154767
O O11 0.500000 0.420683 0.669653
O O12 0.258247 0.500000 0.678567
O O13 0.272837 0.385682 0.587545
O O14 0.250000 0.750000 0.253962
O O15 0.214022 0.881558 0.297336
O O16 0.000000 0.817866 0.222998
O O17 0.810752 0.500000 0.350870
O O18 0.779461 0.612772 0.439206
O O19 0.000000 0.608051 0.340008
O O20 0.830483 0.500000 0.519099
O O21 0.000000 0.614266 0.537122
#
# Coordination Sequence:
#
# PCOD8173529 Si02
#       7
#     8   8   8   8   8   8   8
#     4  10  22  39  59  84 111 140 176 217 263 316
#     4  11  23  38  56  79 109 145 182 220 266 317
#     4  10  20  36  57  79 106 141 179 219 266 318
#     4   9  18  33  53  77 105 137 175 220 268 316
#     4  11  22  36  55  79 108 143 183 222 265 318
#     4   9  18  34  55  79 109 143 179 221 269 319
#     4   8  15  29  51  78 105 136 174 215 263 318
#
# _framework density 18.946974999999998
#
# number of rings (size 3 to 8) (size 9 to 14) (size 15 to 20)
#    0.000    2.286    0.000    4.714    0.000    5.714 
#    0.000    5.000    0.000    1.714    0.000    0.000 
#    0.000    0.000    0.000    0.000    0.000    0.000 
#
# Total GULP energy -347180.036464 kJ/mol
# GULP energy per Si atom -12399.287017 kJ/mol
# Density = 1.890385 g / cm^3
# Si number density = 18.946975 Si / 1000 Ang^3
#
#
#
# Elastic Constant Matrix: (Units=GPa)
#
#
# Indices 1 2 3 4 5 6 
#
# 1 85.8049 38.4153 54.1136 0.0000 0.0000 0.0000
# 2 38.4153 85.6610 63.2331 0.0000 0.0000 0.0000
# 3 54.1136 63.2331 138.7018 0.0000 0.0000 0.0000
# 4 0.0000 0.0000 0.0000 12.5385 0.0000 0.0000
# 5 0.0000 0.0000 0.0000 0.0000 35.9858 0.0000
# 6 0.0000 0.0000 0.0000 0.0000 0.0000 21.9864
#
#
#
# Elastic Compliance Matrix: (Units=1/GPa)
#
#
# Indices 1 2 3 4 5 6 
#
# 1 0.016295 -0.003941 -0.004561 0.000000 0.000000 0.000000
# 2 -0.003941 0.018548 -0.006919 0.000000 0.000000 0.000000
# 3 -0.004561 -0.006919 0.012143 0.000000 0.000000 0.000000
# 4 0.000000 0.000000 0.000000 0.079754 0.000000 0.000000
# 5 0.000000 0.000000 0.000000 0.000000 0.027789 0.000000
# 6 0.000000 0.000000 0.000000 0.000000 0.000000 0.045483
#
#
# Mechanical properties :
#
#
# Convention : Reuss Voigt Hill
#
# Bulk Modulus (GPa) = 61.93451 69.07685 65.50568
# Shear Modulus (GPa) = 21.16539 24.39585 22.78062
#
# Velocity S-wave (km/s) = 3.34591 3.59219 3.47123
# Velocity P-wave (km/s) = 6.90551 7.33091 7.12139
#
# Compressibility (1/GPa) = 0.01614609
#
# Stress axis : x y z
#
# Youngs Moduli (GPa) = 61.36845 53.91302 82.35090
#
# Poissons Ratio (x) = 0.21247 0.37558
# Poissons Ratio (y) = 0.24185 0.56975
# Poissons Ratio (z) = 0.27989 0.37300
#
# Static dielectric constant tensor:
#      x y z
#    x 3.465730 0.000000 0.000000 
#    y 0.000000 3.391820 0.000000 
#    z 0.000000 0.000000 3.752290 
# 
# 
# High freq. dielectric constant tensor:
#      x y z
#    x 1.734210 0.000000 0.000000 
#    y 0.000000 1.716520 0.000000 
#    z 0.000000 0.000000 1.752730 
# 
# From -- ./inp_files/15657.got.cif
#   From: 2010.03.12/outbox.cif.g09.slc.cpg/sg35_8_cif.got.tgz:15657.got - 2010.04.14 02:02:04.
