data_PCOD8173430
_publ_section_title
;
Structure prediction by ZEFSAII (Michael W. Deem and Ramdas Pophale) SiO2 
 PCOD8173430
Probable space group: C M M 2
;
_chemical_formula_sum "Si O2"
_cell_formula_units_Z 48
_cell_length_a 9.064471
_cell_length_b 17.748982
_cell_length_c 15.251292
_cell_angle_alpha 90.000000
_cell_angle_beta 90.000000
_cell_angle_gamma 90.000000
_cell_volume 2453.706136
_symmetry_space_group_name_H-M "C M M 2"
_symmetry_group_IT_number 35
_symmetry_cell_setting 'orthorhombic'
loop_
_space_group_symop_operation_xyz
x,y,z
-x,-y,z
-x,y,z
x,-y,z
1/2+x,1/2+y,z
1/2-x,1/2-y,z
1/2-x,1/2+y,z
1/2+x,1/2-y,z
loop_
_atom_site_type_symbol
_atom_site_label
_atom_site_fract_x
_atom_site_fract_y
_atom_site_fract_z
Si Si1 0.671239 0.672335 0.597030
Si Si2 0.829249 0.413554 0.444669
Si Si3 0.330401 0.587221 0.773649
Si Si4 0.828671 0.672124 0.268358
Si Si5 0.325648 0.170448 0.927498
Si Si6 0.675176 0.084147 0.100427
O O1 0.500000 0.689279 0.583024
O O2 0.750000 0.750000 0.620858
O O3 0.733066 0.637467 0.508250
O O4 0.700001 0.613914 0.675109
O O5 0.778538 0.500000 0.452015
O O6 0.800118 0.386742 0.345986
O O7 0.000000 0.404276 0.470363
O O8 0.500000 0.601859 0.800266
O O9 0.288623 0.500000 0.779176
O O10 0.224356 0.632623 0.837587
O O11 0.750000 0.750000 0.289896
O O12 0.762846 0.635151 0.179727
O O13 0.000000 0.690071 0.256844
O O14 0.500000 0.181706 0.924996
O O15 0.250000 0.250000 0.939879
O O16 0.274038 0.118667 0.008161
O O17 0.500000 0.080503 0.106913
O O18 0.741460 0.000000 0.107462
#
# Coordination Sequence:
#
# PCOD8173430 Si02
#       6
#     8   8   8   8   8   8
#     4  11  23  39  59  83 112 147 185 226 276 330
#     4  10  21  37  58  84 112 145 186 230 277 328
#     4  10  22  40  60  83 112 145 182 227 279 331
#     4  10  20  35  56  81 111 146 183 225 273 326
#     4  11  22  36  57  84 113 147 187 229 275 327
#     4   9  18  34  56  81 109 143 184 228 274 326
#
# _framework density 19.562245000000001
#
# number of rings (size 3 to 8) (size 9 to 14) (size 15 to 20)
#    0.000    1.833    0.000    4.000    0.000    8.667 
#    0.000    0.833    0.000    3.500    0.000    0.000 
#    0.000    0.000    0.000    0.000    0.000    0.000 
#
# Total GULP energy -297720.572832 kJ/mol
# GULP energy per Si atom -12405.023868 kJ/mol
# Density = 1.951772 g / cm^3
# Si number density = 19.562245 Si / 1000 Ang^3
#
#
#
# Elastic Constant Matrix: (Units=GPa)
#
#
# Indices 1 2 3 4 5 6 
#
# 1 65.9960 37.1338 35.4493 0.0000 0.0000 0.0000
# 2 37.1338 113.8486 14.8110 0.0000 0.0000 0.0000
# 3 35.4493 14.8110 84.1465 0.0000 0.0000 0.0000
# 4 0.0000 0.0000 0.0000 40.1888 0.0000 0.0000
# 5 0.0000 0.0000 0.0000 0.0000 20.2447 0.0000
# 6 0.0000 0.0000 0.0000 0.0000 0.0000 22.3780
#
#
#
# Elastic Compliance Matrix: (Units=1/GPa)
#
#
# Indices 1 2 3 4 5 6 
#
# 1 0.023539 -0.006537 -0.008766 0.000000 0.000000 0.000000
# 2 -0.006537 0.010805 0.000852 0.000000 0.000000 0.000000
# 3 -0.008766 0.000852 0.015427 0.000000 0.000000 0.000000
# 4 0.000000 0.000000 0.000000 0.024883 0.000000 0.000000
# 5 0.000000 0.000000 0.000000 0.000000 0.049396 0.000000
# 6 0.000000 0.000000 0.000000 0.000000 0.000000 0.044687
#
#
# Mechanical properties :
#
#
# Convention : Reuss Voigt Hill
#
# Bulk Modulus (GPa) = 47.91784 48.75325 48.33555
# Shear Modulus (GPa) = 24.43850 28.33543 26.38696
#
# Velocity S-wave (km/s) = 3.53833 3.81001 3.67668
# Velocity P-wave (km/s) = 6.42194 6.65816 6.54112
#
# Compressibility (1/GPa) = 0.02086905
#
# Stress axis : x y z
#
# Youngs Moduli (GPa) = 42.48193 92.54962 64.82153
#
# Poissons Ratio (x) = 0.60503 0.56823
# Poissons Ratio (y) = 0.27772 -0.05524
# Poissons Ratio (z) = 0.37240 -0.07887
#
# Static dielectric constant tensor:
#      x y z
#    x 3.414590 0.000000 0.000000 
#    y 0.000000 3.777100 0.000000 
#    z 0.000000 0.000000 3.656050 
# 
# 
# High freq. dielectric constant tensor:
#      x y z
#    x 1.743110 0.000000 0.000000 
#    y 0.000000 1.779870 0.000000 
#    z 0.000000 0.000000 1.776530 
# 
# From -- ./inp_files/15085.got.cif
#   From: 2010.03.12/outbox.cif.g09.slc.cpg/sg35_8_cif.got.tgz:15085.got - 2010.04.14 02:02:04.
