data_PCOD8173116
_publ_section_title
;
Structure prediction by ZEFSAII (Michael W. Deem and Ramdas Pophale) SiO2 
 PCOD8173116
Probable space group: C M M 2
;
_chemical_formula_sum "Si O2"
_cell_formula_units_Z 48
_cell_length_a 8.809987
_cell_length_b 19.309654
_cell_length_c 15.529937
_cell_angle_alpha 90.000000
_cell_angle_beta 90.000000
_cell_angle_gamma 90.000000
_cell_volume 2641.918728
_symmetry_space_group_name_H-M "C M M 2"
_symmetry_group_IT_number 35
_symmetry_cell_setting 'orthorhombic'
loop_
_space_group_symop_operation_xyz
x,y,z
-x,-y,z
-x,y,z
x,-y,z
1/2+x,1/2+y,z
1/2-x,1/2-y,z
1/2-x,1/2+y,z
1/2+x,1/2-y,z
loop_
_atom_site_type_symbol
_atom_site_label
_atom_site_fract_x
_atom_site_fract_y
_atom_site_fract_z
Si Si1 0.820417 0.823373 0.576940
Si Si2 0.821192 0.578420 0.243227
Si Si3 0.830393 0.082378 0.886201
Si Si4 0.678271 0.421028 0.072987
Si Si5 0.319148 0.823533 0.396338
Si Si6 0.826071 0.418462 0.714697
O O1 0.750000 0.750000 0.605266
O O2 0.748223 0.848578 0.487243
O O3 0.782526 0.880515 0.647881
O O4 0.000000 0.815461 0.566969
O O5 0.759293 0.500000 0.254561
O O6 0.758841 0.614396 0.155287
O O7 0.764738 0.621928 0.324949
O O8 0.000000 0.579378 0.237905
O O9 0.716724 0.106458 0.811191
O O10 0.000000 0.109502 0.864705
O O11 0.834998 0.000000 0.893982
O O12 0.775953 0.112009 0.979796
O O13 0.500000 0.414782 0.085515
O O14 0.733918 0.500000 0.073483
O O15 0.500000 0.818187 0.403619
O O16 0.250000 0.750000 0.370073
O O17 0.797684 0.500000 0.704627
O O18 0.000000 0.398520 0.697141
#
# Coordination Sequence:
#
# PCOD8173116 Si02
#       6
#     8   8   8   8   8   8
#     4  11  22  37  56  75  98 130 168 207 250 302
#     4   9  18  31  48  72 100 128 159 199 246 291
#     4   8  14  26  44  68  99 132 164 199 242 291
#     4   8  14  25  43  68  98 130 162 198 240 286
#     4  10  20  35  53  72  96 128 165 202 244 295
#     4  10  20  33  51  77 106 134 166 206 250 294
#
# _framework density 18.168613000000001
#
# number of rings (size 3 to 8) (size 9 to 14) (size 15 to 20)
#    0.000    2.667    0.000    4.500    0.000    3.667 
#    0.000    5.000    0.000    1.000    0.000    2.333 
#    0.000    0.000    0.000    0.000    0.000    0.000 
#
# Total GULP energy -297480.095920 kJ/mol
# GULP energy per Si atom -12395.003997 kJ/mol
# Density = 1.812726 g / cm^3
# Si number density = 18.168613 Si / 1000 Ang^3
#
#
#
# Elastic Constant Matrix: (Units=GPa)
#
#
# Indices 1 2 3 4 5 6 
#
# 1 74.0965 26.1315 49.5794 0.0000 0.0000 0.0000
# 2 26.1315 45.3173 57.5506 0.0000 0.0000 0.0000
# 3 49.5794 57.5506 157.9146 0.0000 0.0000 0.0000
# 4 0.0000 0.0000 0.0000 1.9241 0.0000 0.0000
# 5 0.0000 0.0000 0.0000 0.0000 36.7151 0.0000
# 6 0.0000 0.0000 0.0000 0.0000 0.0000 21.5359
#
#
#
# Elastic Compliance Matrix: (Units=1/GPa)
#
#
# Indices 1 2 3 4 5 6 
#
# 1 0.017902 -0.005929 -0.003460 0.000000 0.000000 0.000000
# 2 -0.005929 0.043042 -0.013825 0.000000 0.000000 0.000000
# 3 -0.003460 -0.013825 0.012457 0.000000 0.000000 0.000000
# 4 0.000000 0.000000 0.000000 0.519730 0.000000 0.000000
# 5 0.000000 0.000000 0.000000 0.000000 0.027237 0.000000
# 6 0.000000 0.000000 0.000000 0.000000 0.000000 0.046434
#
#
# Mechanical properties :
#
#
# Convention : Reuss Voigt Hill
#
# Bulk Modulus (GPa) = 37.07287 60.42791 48.75039
# Shear Modulus (GPa) = 6.92309 21.63948 14.28128
#
# Velocity S-wave (km/s) = 1.95416 3.45488 2.80668
# Velocity P-wave (km/s) = 5.05380 7.01760 6.11504
#
# Compressibility (1/GPa) = 0.02697390
#
# Stress axis : x y z
#
# Youngs Moduli (GPa) = 55.85996 23.23287 80.27547
#
# Poissons Ratio (x) = 0.13775 0.27773
# Poissons Ratio (y) = 0.33121 1.10980
# Poissons Ratio (z) = 0.19326 0.32119
#
# Static dielectric constant tensor:
#      x y z
#    x 3.316070 0.000000 0.000000 
#    y 0.000000 3.032370 0.000000 
#    z 0.000000 0.000000 3.739830 
# 
# 
# High freq. dielectric constant tensor:
#      x y z
#    x 1.706110 0.000000 0.000000 
#    y 0.000000 1.654570 0.000000 
#    z 0.000000 0.000000 1.724310 
# 
# From -- ./inp_files/15375.got.cif
#   From: 2010.03.12/outbox.cif.g09.slc.cpg/sg35_8_cif.got.tgz:15375.got - 2010.04.14 02:02:04.
