data_PCOD8173980
_publ_section_title
;
Structure prediction by ZEFSAII (Michael W. Deem and Ramdas Pophale) SiO2 
 PCOD8173980
Probable space group: C M M 2
;
_chemical_formula_sum "Si O2"
_cell_formula_units_Z 48
_cell_length_a 10.138817
_cell_length_b 17.647236
_cell_length_c 13.733981
_cell_angle_alpha 90.000000
_cell_angle_beta 90.000000
_cell_angle_gamma 90.000000
_cell_volume 2457.312672
_symmetry_space_group_name_H-M "C M M 2"
_symmetry_group_IT_number 35
_symmetry_cell_setting 'orthorhombic'
loop_
_space_group_symop_operation_xyz
x,y,z
-x,-y,z
-x,y,z
x,-y,z
1/2+x,1/2+y,z
1/2-x,1/2-y,z
1/2-x,1/2+y,z
1/2+x,1/2-y,z
loop_
_atom_site_type_symbol
_atom_site_label
_atom_site_fract_x
_atom_site_fract_y
_atom_site_fract_z
Si Si1 0.500000 0.409650 0.897711
Si Si2 0.651465 0.087161 0.605982
Si Si3 0.000000 0.416075 0.877753
Si Si4 0.000000 0.583559 0.105120
Si Si5 0.761705 0.338772 0.204208
Si Si6 0.652727 0.818562 0.416428
Si Si7 0.000000 0.910448 0.124140
Si Si8 0.250898 0.339880 0.791250
O O1 0.500000 0.500000 0.886044
O O2 0.375663 0.373970 0.844993
O O3 0.500000 0.385564 0.011084
O O4 0.500000 0.097932 0.640598
O O5 0.670801 0.117545 0.497411
O O6 0.746333 0.132464 0.679356
O O7 0.693605 0.000000 0.605994
O O8 0.873609 0.369391 0.848763
O O9 0.000000 0.500000 0.828067
O O10 0.000000 0.427014 0.991441
O O11 0.129453 0.629210 0.132491
O O12 0.000000 0.500000 0.154560
O O13 0.750000 0.250000 0.185746
O O14 0.804784 0.356086 0.314686
O O15 0.624829 0.378495 0.181067
O O16 0.500000 0.790405 0.411088
O O17 0.750000 0.750000 0.442707
O O18 0.000000 0.000000 0.132374
O O19 0.250000 0.250000 0.793332
#
# Coordination Sequence:
#
# PCOD8173980 Si02
#       8
#     4   8   4   4   8   8   4   8
#     4  11  25  43  62  89 130 171 209 262 324 373
#     4  10  21  40  66  93 124 165 211 258 311 374
#     4  11  23  41  64  87 122 167 215 258 310 379
#     4  11  23  39  62  93 122 161 215 266 306 369
#     4  11  23  40  64  92 126 166 208 259 316 373
#     4  10  22  41  66  94 127 165 208 259 316 373
#     4  11  25  43  62  89 130 173 209 260 324 375
#     4  12  24  40  64  95 125 164 211 262 317 373
#
# _framework density 19.533532999999998
#
# number of rings (size 3 to 8) (size 9 to 14) (size 15 to 20)
#    0.000    1.167    1.667    4.500    3.500    8.000 
#    1.500    0.000    0.000    0.000    0.000    0.000 
#    0.000    0.000    0.000    0.000    0.000    0.000 
#
# Total GULP energy -297688.177077 kJ/mol
# GULP energy per Si atom -12403.674045 kJ/mol
# Density = 1.948907 g / cm^3
# Si number density = 19.533533 Si / 1000 Ang^3
#
#
#
# Elastic Constant Matrix: (Units=GPa)
#
#
# Indices 1 2 3 4 5 6 
#
# 1 164.5724 67.6752 63.2969 0.0000 0.0000 0.0000
# 2 67.6752 148.2497 68.5928 0.0000 0.0000 0.0000
# 3 63.2969 68.5928 115.7438 0.0000 0.0000 0.0000
# 4 0.0000 0.0000 0.0000 31.0067 0.0000 0.0000
# 5 0.0000 0.0000 0.0000 0.0000 34.4689 0.0000
# 6 0.0000 0.0000 0.0000 0.0000 0.0000 12.1771
#
#
#
# Elastic Compliance Matrix: (Units=1/GPa)
#
#
# Indices 1 2 3 4 5 6 
#
# 1 0.008230 -0.002307 -0.003134 0.000000 0.000000 0.000000
# 2 -0.002307 0.009941 -0.004629 0.000000 0.000000 0.000000
# 3 -0.003134 -0.004629 0.013097 0.000000 0.000000 0.000000
# 4 0.000000 0.000000 0.000000 0.032251 0.000000 0.000000
# 5 0.000000 0.000000 0.000000 0.000000 0.029012 0.000000
# 6 0.000000 0.000000 0.000000 0.000000 0.000000 0.082121
#
#
# Mechanical properties :
#
#
# Convention : Reuss Voigt Hill
#
# Bulk Modulus (GPa) = 89.86714 91.96618 90.91666
# Shear Modulus (GPa) = 25.18879 30.79729 27.99304
#
# Velocity S-wave (km/s) = 3.59488 3.97500 3.78971
# Velocity P-wave (km/s) = 7.95848 8.26141 8.11136
#
# Compressibility (1/GPa) = 0.01112754
#
# Stress axis : x y z
#
# Youngs Moduli (GPa) = 121.50128 100.59856 76.35419
#
# Poissons Ratio (x) = 0.23211 0.23926
# Poissons Ratio (y) = 0.28033 0.35346
# Poissons Ratio (z) = 0.38074 0.46569
#
# Static dielectric constant tensor:
#      x y z
#    x 3.563560 0.000000 0.000000 
#    y 0.000000 3.915890 0.000000 
#    z 0.000000 0.000000 3.749810 
# 
# 
# High freq. dielectric constant tensor:
#      x y z
#    x 1.768990 0.000000 0.000000 
#    y 0.000000 1.771490 0.000000 
#    z 0.000000 0.000000 1.777660 
# 
# From -- ./inp_files/15300.got.cif
#   From: 2010.03.12/outbox.cif.g09.slc.cpg/sg35_8_cif.got.tgz:15300.got - 2010.04.14 02:02:04.
