data_PCOD8173777
_publ_section_title
;
Structure prediction by ZEFSAII (Michael W. Deem and Ramdas Pophale) SiO2 
 PCOD8173777
Probable space group: C M M 2
;
_chemical_formula_sum "Si O2"
_cell_formula_units_Z 56
_cell_length_a 18.006981
_cell_length_b 9.170684
_cell_length_c 18.028041
_cell_angle_alpha 90.000000
_cell_angle_beta 90.000000
_cell_angle_gamma 90.000000
_cell_volume 2977.084574
_symmetry_space_group_name_H-M "C M M 2"
_symmetry_group_IT_number 35
_symmetry_cell_setting 'orthorhombic'
loop_
_space_group_symop_operation_xyz
x,y,z
-x,-y,z
-x,y,z
x,-y,z
1/2+x,1/2+y,z
1/2-x,1/2-y,z
1/2-x,1/2+y,z
1/2+x,1/2-y,z
loop_
_atom_site_type_symbol
_atom_site_label
_atom_site_fract_x
_atom_site_fract_y
_atom_site_fract_z
Si Si1 0.085825 0.670454 0.216240
Si Si2 0.588478 0.664639 0.361631
Si Si3 0.085320 0.830446 0.649022
Si Si4 0.172849 0.670469 0.071268
Si Si5 0.588452 0.164498 0.503904
Si Si6 0.328233 0.328018 0.796727
Si Si7 0.086994 0.332858 0.923268
O O1 0.096441 0.500000 0.231808
O O2 0.116999 0.756534 0.287369
O O3 0.131872 0.724774 0.145428
O O4 0.000000 0.707487 0.201124
O O5 0.500000 0.667396 0.363901
O O6 0.618933 0.500000 0.362814
O O7 0.620719 0.749205 0.433091
O O8 0.116413 0.741062 0.579015
O O9 0.134640 0.785306 0.718923
O O10 0.000000 0.789739 0.666779
O O11 0.092621 0.000000 0.629642
O O12 0.188379 0.500000 0.075674
O O13 0.250000 0.750000 0.061369
O O14 0.121438 0.710504 0.001982
O O15 0.500000 0.166896 0.501567
O O16 0.619091 0.000000 0.501955
O O17 0.317026 0.500000 0.804536
O O18 0.250000 0.250000 0.804019
O O19 0.381757 0.274359 0.861432
O O20 0.106018 0.500000 0.902401
O O21 0.000000 0.307653 0.929659
#
# Coordination Sequence:
#
# PCOD8173777 Si02
#       7
#     8   8   8   8   8   8   8
#     4   9  17  31  51  73  99 133 174 217 259 306
#     4   9  16  26  43  70 103 135 168 210 260 309
#     4   9  18  33  52  74 102 136 174 217 264 312
#     4  10  21  36  54  77 106 140 175 213 260 312
#     4   9  16  26  44  72 103 134 170 212 258 308
#     4  11  23  38  56  79 109 144 180 218 264 317
#     4  10  21  38  60  84 109 138 175 219 266 316
#
# _framework density 18.810348000000001
#
# number of rings (size 3 to 8) (size 9 to 14) (size 15 to 20)
#    0.000    2.429    0.000    2.571    0.000    9.429 
#    0.000    1.429    0.000    3.429    0.000    6.000 
#    0.000    0.000    0.000    0.000    0.000    0.000 
#
# Total GULP energy -347267.826129 kJ/mol
# GULP energy per Si atom -12402.422362 kJ/mol
# Density = 1.876754 g / cm^3
# Si number density = 18.810348 Si / 1000 Ang^3
#
#
#
# Elastic Constant Matrix: (Units=GPa)
#
#
# Indices 1 2 3 4 5 6 
#
# 1 75.1338 38.2578 55.4095 0.0000 0.0000 0.0000
# 2 38.2578 96.0931 82.5435 0.0000 0.0000 0.0000
# 3 55.4095 82.5435 176.2497 0.0000 0.0000 0.0000
# 4 0.0000 0.0000 0.0000 43.5329 0.0000 0.0000
# 5 0.0000 0.0000 0.0000 0.0000 -15.8121 0.0000
# 6 0.0000 0.0000 0.0000 0.0000 0.0000 20.0983
#
#
#
# Elastic Compliance Matrix: (Units=1/GPa)
#
#
# Indices 1 2 3 4 5 6 
#
# 1 0.018156 -0.003891 -0.003886 0.000000 0.000000 0.000000
# 2 -0.003891 0.018245 -0.007321 0.000000 0.000000 0.000000
# 3 -0.003886 -0.007321 0.010324 0.000000 0.000000 0.000000
# 4 0.000000 0.000000 0.000000 0.022971 0.000000 0.000000
# 5 0.000000 0.000000 0.000000 0.000000 -0.063243 0.000000
# 6 0.000000 0.000000 0.000000 0.000000 0.000000 0.049755
#
#
# Mechanical properties :
#
#
# Convention : Reuss Voigt Hill
#
# Bulk Modulus (GPa) = 60.49836 77.76646 69.13241
# Shear Modulus (GPa) = 54.39803 20.98154 37.68979
#
# Velocity S-wave (km/s) = 5.38349 3.34342 4.48110
# Velocity P-wave (km/s) = 8.41871 7.50578 7.97532
#
# Compressibility (1/GPa) = 0.01652937
#
# Stress axis : x y z
#
# Youngs Moduli (GPa) = 55.07671 54.81065 96.85918
#
# Poissons Ratio (x) = 0.21325 0.37639
# Poissons Ratio (y) = 0.21429 0.70914
# Poissons Ratio (z) = 0.21402 0.40129
#
# Static dielectric constant tensor:
#      x y z
#    x 3.152620 0.000000 0.000000 
#    y 0.000000 3.482650 0.000000 
#    z 0.000000 0.000000 3.659940 
# 
# 
# High freq. dielectric constant tensor:
#      x y z
#    x 1.698550 0.000000 0.000000 
#    y 0.000000 1.732580 0.000000 
#    z 0.000000 0.000000 1.748240 
# 
# From -- ./inp_files/17402.got.cif
#   From: 2010.03.12/outbox.cif.g09.slc.cpg/sg35_9_cif.got.tgz:17402.got - 2010.04.14 02:02:04.
