data_PCOD8173074
_publ_section_title
;
Structure prediction by ZEFSAII (Michael W. Deem and Ramdas Pophale) SiO2 
 PCOD8173074
Probable space group: C M M 2
;
_chemical_formula_sum "Si O2"
_cell_formula_units_Z 64
_cell_length_a 9.084808
_cell_length_b 18.964351
_cell_length_c 20.268232
_cell_angle_alpha 90.000000
_cell_angle_beta 90.000000
_cell_angle_gamma 90.000000
_cell_volume 3491.962771
_symmetry_space_group_name_H-M "C M M 2"
_symmetry_group_IT_number 35
_symmetry_cell_setting 'orthorhombic'
loop_
_space_group_symop_operation_xyz
x,y,z
-x,-y,z
-x,y,z
x,-y,z
1/2+x,1/2+y,z
1/2-x,1/2-y,z
1/2-x,1/2+y,z
1/2+x,1/2-y,z
loop_
_atom_site_type_symbol
_atom_site_label
_atom_site_fract_x
_atom_site_fract_y
_atom_site_fract_z
Si Si1 0.326129 0.175068 0.827810
Si Si2 0.334360 0.083194 0.563306
Si Si3 0.171007 0.179325 0.465783
Si Si4 0.674760 0.078437 0.710307
Si Si5 0.331345 0.916380 0.211997
Si Si6 0.671333 0.081180 0.952385
Si Si7 0.665953 0.583828 0.082676
Si Si8 0.173042 0.822011 0.313717
O O1 0.500000 0.186268 0.823527
O O2 0.250000 0.250000 0.833452
O O3 0.264508 0.134371 0.763319
O O4 0.282017 0.128171 0.890509
O O5 0.500000 0.111323 0.551137
O O6 0.225074 0.114855 0.509771
O O7 0.280091 0.103932 0.636964
O O8 0.330397 0.000000 0.555223
O O9 0.250000 0.250000 0.489989
O O10 0.208645 0.162499 0.389991
O O11 0.000000 0.190526 0.476761
O O12 0.500000 0.073637 0.715356
O O13 0.739117 0.000000 0.724814
O O14 0.500000 0.891017 0.214519
O O15 0.259233 0.887358 0.144499
O O16 0.241493 0.886341 0.273516
O O17 0.319693 0.000000 0.216193
O O18 0.500000 0.088495 0.969143
O O19 0.711105 0.000000 0.936330
O O20 0.760638 0.110521 0.015103
O O21 0.500000 0.613340 0.087257
O O22 0.667300 0.500000 0.083692
O O23 0.250000 0.750000 0.290511
O O24 0.000000 0.816365 0.300121
#
# Coordination Sequence:
#
# PCOD8173074 Si02
#       8
#     8   8   8   8   8   8   8   8
#     4  10  20  33  50  73 102 133 165 206 253 299
#     4   9  18  33  54  79 106 135 169 212 259 307
#     4  10  21  36  54  75 102 137 175 214 256 306
#     4   8  15  31  54  76  98 130 172 210 246 295
#     4  10  20  34  54  80 108 137 171 212 255 302
#     4   9  17  31  52  74  95 126 169 210 248 297
#     4   9  17  30  50  76 104 132 164 207 257 304
#     4  10  21  37  55  75 102 137 175 214 257 307
#
# _framework density 18.327801000000001
#
# number of rings (size 3 to 8) (size 9 to 14) (size 15 to 20)
#    0.000    2.625    0.000    2.625    0.000    7.000 
#    0.000    5.000    0.000    3.375    0.000    0.000 
#    0.000    0.000    0.000    0.000    0.000    0.000 
#
# Total GULP energy -396821.708892 kJ/mol
# GULP energy per Si atom -12400.678403 kJ/mol
# Density = 1.828609 g / cm^3
# Si number density = 18.327801 Si / 1000 Ang^3
#
#
#
# Elastic Constant Matrix: (Units=GPa)
#
#
# Indices 1 2 3 4 5 6 
#
# 1 85.5759 38.8562 61.1707 0.0000 0.0000 0.0000
# 2 38.8562 69.2570 58.3258 0.0000 0.0000 0.0000
# 3 61.1707 58.3258 128.0331 0.0000 0.0000 0.0000
# 4 0.0000 0.0000 0.0000 11.3384 0.0000 0.0000
# 5 0.0000 0.0000 0.0000 0.0000 25.9536 0.0000
# 6 0.0000 0.0000 0.0000 0.0000 0.0000 30.5234
#
#
#
# Elastic Compliance Matrix: (Units=1/GPa)
#
#
# Indices 1 2 3 4 5 6 
#
# 1 0.018684 -0.004810 -0.006736 0.000000 0.000000 0.000000
# 2 -0.004810 0.024665 -0.008938 0.000000 0.000000 0.000000
# 3 -0.006736 -0.008938 0.015100 0.000000 0.000000 0.000000
# 4 0.000000 0.000000 0.000000 0.088196 0.000000 0.000000
# 5 0.000000 0.000000 0.000000 0.000000 0.038530 0.000000
# 6 0.000000 0.000000 0.000000 0.000000 0.000000 0.032762
#
#
# Mechanical properties :
#
#
# Convention : Reuss Voigt Hill
#
# Bulk Modulus (GPa) = 57.20174 66.61905 61.91040
# Shear Modulus (GPa) = 18.88700 21.86396 20.37548
#
# Velocity S-wave (km/s) = 3.21364 3.45764 3.33787
# Velocity P-wave (km/s) = 6.71179 7.23657 6.97911
#
# Compressibility (1/GPa) = 0.01748199
#
# Stress axis : x y z
#
# Youngs Moduli (GPa) = 53.52091 40.54329 66.22410
#
# Poissons Ratio (x) = 0.19502 0.44605
# Poissons Ratio (y) = 0.25745 0.59191
# Poissons Ratio (z) = 0.36049 0.36238
#
# Static dielectric constant tensor:
#      x y z
#    x 3.338030 0.000000 0.000000 
#    y 0.000000 3.206530 0.000000 
#    z 0.000000 0.000000 3.562630 
# 
# 
# High freq. dielectric constant tensor:
#      x y z
#    x 1.702300 0.000000 0.000000 
#    y 0.000000 1.691650 0.000000 
#    z 0.000000 0.000000 1.721710 
# 
# From -- ./inp_files/18305.got.cif
#   From: 2010.03.12/outbox.cif.g09.slc.cpg/sg35_10_cif.got.tgz:18305.got - 2010.04.14 02:02:04.
