data_PCOD8173407
_publ_section_title
;
Structure prediction by ZEFSAII (Michael W. Deem and Ramdas Pophale) SiO2 
 PCOD8173407
Probable space group: C M M 2
;
_chemical_formula_sum "Si O2"
_cell_formula_units_Z 64
_cell_length_a 28.029605
_cell_length_b 8.874698
_cell_length_c 12.852779
_cell_angle_alpha 90.000000
_cell_angle_beta 90.000000
_cell_angle_gamma 90.000000
_cell_volume 3197.183779
_symmetry_space_group_name_H-M "C M M 2"
_symmetry_group_IT_number 35
_symmetry_cell_setting 'orthorhombic'
loop_
_space_group_symop_operation_xyz
x,y,z
-x,-y,z
-x,y,z
x,-y,z
1/2+x,1/2+y,z
1/2-x,1/2-y,z
1/2-x,1/2+y,z
1/2+x,1/2-y,z
loop_
_atom_site_type_symbol
_atom_site_label
_atom_site_fract_x
_atom_site_fract_y
_atom_site_fract_z
Si Si1 0.555263 0.824825 0.349730
Si Si2 0.801756 0.678317 0.629166
Si Si3 0.946453 0.821372 0.912632
Si Si4 0.556325 0.666019 0.142332
Si Si5 0.199534 0.174968 0.242643
Si Si6 0.860458 0.825750 0.447719
Si Si7 0.141941 0.322924 0.831511
Si Si8 0.198376 0.321171 0.035218
O O1 0.500000 0.784745 0.368345
O O2 0.571901 0.779126 0.233352
O O3 0.585331 0.732527 0.435273
O O4 0.565535 0.000000 0.364224
O O5 0.795764 0.500000 0.627325
O O6 0.750000 0.750000 0.619269
O O7 0.834366 0.728445 0.534148
O O8 0.826749 0.735330 0.734940
O O9 0.910570 0.750997 0.828158
O O10 0.000000 0.762280 0.888911
O O11 0.945166 0.000000 0.905270
O O12 0.929146 0.770396 0.028586
O O13 0.500000 0.646108 0.140460
O O14 0.579356 0.500000 0.163724
O O15 0.250000 0.250000 0.268629
O O16 0.165232 0.202967 0.338769
O O17 0.175509 0.252059 0.140778
O O18 0.208197 0.000000 0.220001
O O19 0.860223 0.000000 0.480581
O O20 0.135207 0.500000 0.825084
O O21 0.167422 0.270691 0.937004
O O22 0.202322 0.500000 0.044428
O O23 0.250000 0.250000 0.019919
#
# Coordination Sequence:
#
# PCOD8173407 Si02
#       8
#     8   8   8   8   8   8   8   8
#     4  10  21  36  56  85 120 158 200 245 295 351
#     4  11  24  44  67  90 118 151 196 249 301 356
#     4   9  19  35  56  84 118 157 201 245 289 344
#     4   8  15  30  51  77 113 155 196 239 286 339
#     4  10  21  36  55  82 115 149 186 232 288 350
#     4  11  24  40  61  88 117 153 200 246 298 356
#     4  10  23  39  58  87 118 152 195 243 295 351
#     4  10  20  35  55  82 116 150 187 231 285 349
#
# _framework density 20.017617999999999
#
# number of rings (size 3 to 8) (size 9 to 14) (size 15 to 20)
#    0.000    2.125    0.000    4.125    1.750    6.500 
#    0.000    1.875    0.000    0.750    0.000    0.000 
#    0.000    0.000    0.000    0.000    0.000    0.000 
#
# Total GULP energy -396824.426173 kJ/mol
# GULP energy per Si atom -12400.763318 kJ/mol
# Density = 1.997206 g / cm^3
# Si number density = 20.017618 Si / 1000 Ang^3
#
#
#
# Elastic Constant Matrix: (Units=GPa)
#
#
# Indices 1 2 3 4 5 6 
#
# 1 86.4023 37.9644 56.0380 0.0000 0.0000 0.0000
# 2 37.9644 73.2488 42.1968 0.0000 0.0000 0.0000
# 3 56.0380 42.1968 95.7993 0.0000 0.0000 0.0000
# 4 0.0000 0.0000 0.0000 23.1357 0.0000 0.0000
# 5 0.0000 0.0000 0.0000 0.0000 33.2744 0.0000
# 6 0.0000 0.0000 0.0000 0.0000 0.0000 26.9732
#
#
#
# Elastic Compliance Matrix: (Units=1/GPa)
#
#
# Indices 1 2 3 4 5 6 
#
# 1 0.019843 -0.004821 -0.009484 0.000000 0.000000 0.000000
# 2 -0.004821 0.019466 -0.005754 0.000000 0.000000 0.000000
# 3 -0.009484 -0.005754 0.018520 0.000000 0.000000 0.000000
# 4 0.000000 0.000000 0.000000 0.043223 0.000000 0.000000
# 5 0.000000 0.000000 0.000000 0.000000 0.030053 0.000000
# 6 0.000000 0.000000 0.000000 0.000000 0.000000 0.037074
#
#
# Mechanical properties :
#
#
# Convention : Reuss Voigt Hill
#
# Bulk Modulus (GPa) = 56.46027 58.64988 57.55508
# Shear Modulus (GPa) = 23.34266 24.62673 23.98470
#
# Velocity S-wave (km/s) = 3.41853 3.51130 3.46523
# Velocity P-wave (km/s) = 6.62181 6.76770 6.69515
#
# Compressibility (1/GPa) = 0.01771157
#
# Stress axis : x y z
#
# Youngs Moduli (GPa) = 50.39573 51.37284 53.99482
#
# Poissons Ratio (x) = 0.24768 0.51206
# Poissons Ratio (y) = 0.24297 0.31068
# Poissons Ratio (z) = 0.47793 0.29559
#
# Static dielectric constant tensor:
#      x y z
#    x 3.678190 0.000000 0.000000 
#    y 0.000000 3.591830 0.000000 
#    z 0.000000 0.000000 3.759210 
# 
# 
# High freq. dielectric constant tensor:
#      x y z
#    x 1.789300 0.000000 0.000000 
#    y 0.000000 1.781860 0.000000 
#    z 0.000000 0.000000 1.769230 
# 
# From -- ./inp_files/14516.got.cif
#   From: 2010.03.12/outbox.cif.g09.slc.cpg/sg35_8_cif.got.tgz:14516.got - 2010.04.14 02:02:04.
