data_PCOD8173612
_publ_section_title
;
Structure prediction by ZEFSAII (Michael W. Deem and Ramdas Pophale) SiO2 
 PCOD8173612
Probable space group: C M M 2
;
_chemical_formula_sum "Si O2"
_cell_formula_units_Z 48
_cell_length_a 15.728983
_cell_length_b 8.613286
_cell_length_c 17.169731
_cell_angle_alpha 90.000000
_cell_angle_beta 90.000000
_cell_angle_gamma 90.000000
_cell_volume 2326.124749
_symmetry_space_group_name_H-M "C M M 2"
_symmetry_group_IT_number 35
_symmetry_cell_setting 'orthorhombic'
loop_
_space_group_symop_operation_xyz
x,y,z
-x,-y,z
-x,y,z
x,-y,z
1/2+x,1/2+y,z
1/2-x,1/2-y,z
1/2-x,1/2+y,z
1/2+x,1/2-y,z
loop_
_atom_site_type_symbol
_atom_site_label
_atom_site_fract_x
_atom_site_fract_y
_atom_site_fract_z
Si Si1 0.844238 0.183698 0.965300
Si Si2 0.337556 0.682988 0.601873
Si Si3 0.597693 0.330342 0.274586
Si Si4 0.160231 0.680426 0.127706
Si Si5 0.500000 0.683669 0.702172
Si Si6 0.905277 0.184881 0.441373
Si Si7 0.500000 0.817832 0.870932
O O1 0.750000 0.250000 0.947488
O O2 0.913863 0.245690 0.905623
O O3 0.839572 0.000000 0.959096
O O4 0.875465 0.232573 0.051628
O O5 0.331349 0.500000 0.602140
O O6 0.250000 0.750000 0.636741
O O7 0.416620 0.735219 0.654722
O O8 0.349714 0.748208 0.513676
O O9 0.500000 0.355604 0.294425
O O10 0.637241 0.500000 0.251759
O O11 0.603671 0.209213 0.203851
O O12 0.636215 0.266840 0.357013
O O13 0.165330 0.500000 0.107516
O O14 0.250000 0.750000 0.151432
O O15 0.500000 0.500000 0.720164
O O16 0.500000 0.782380 0.780338
O O17 0.000000 0.254454 0.451302
O O18 0.909607 0.000000 0.445643
O O19 0.500000 0.000000 0.887546
#
# Coordination Sequence:
#
# PCOD8173612 Si02
#       7
#     8   8   8   8   4   8   4
#     4  11  23  43  68  95 127 162 205 254 307 366
#     4  10  20  36  61  89 118 155 201 246 300 360
#     4   9  18  32  53  81 114 154 202 247 294 351
#     4  11  22  37  56  80 116 157 200 248 301 354
#     4  10  22  42  64  87 120 159 198 243 298 369
#     4   8  14  30  55  80 110 154 202 247 293 352
#     4  12  26  44  68  97 126 161 202 247 306 373
#
# _framework density 20.635178
#
# number of rings (size 3 to 8) (size 9 to 14) (size 15 to 20)
#    0.000    2.000    0.833    5.750    1.167    2.333 
#    0.000    4.167    0.000    1.000    0.000    0.000 
#    0.000    0.000    0.000    0.000    0.000    0.000 
#
# Total GULP energy -297463.071683 kJ/mol
# GULP energy per Si atom -12394.294653 kJ/mol
# Density = 2.058821 g / cm^3
# Si number density = 20.635178 Si / 1000 Ang^3
#
#
#
# Elastic Constant Matrix: (Units=GPa)
#
#
# Indices 1 2 3 4 5 6 
#
# 1 115.4013 39.0886 67.4401 0.0000 0.0000 0.0000
# 2 39.0886 107.8553 49.0665 0.0000 0.0000 0.0000
# 3 67.4401 49.0665 150.8927 0.0000 0.0000 0.0000
# 4 0.0000 0.0000 0.0000 20.2374 0.0000 0.0000
# 5 0.0000 0.0000 0.0000 0.0000 10.2794 0.0000
# 6 0.0000 0.0000 0.0000 0.0000 0.0000 28.5773
#
#
#
# Elastic Compliance Matrix: (Units=1/GPa)
#
#
# Indices 1 2 3 4 5 6 
#
# 1 0.012187 -0.002275 -0.004707 0.000000 0.000000 0.000000
# 2 -0.002275 0.011306 -0.002660 0.000000 0.000000 0.000000
# 3 -0.004707 -0.002660 0.009596 0.000000 0.000000 0.000000
# 4 0.000000 0.000000 0.000000 0.049413 0.000000 0.000000
# 5 0.000000 0.000000 0.000000 0.000000 0.097282 0.000000
# 6 0.000000 0.000000 0.000000 0.000000 0.000000 0.034993
#
#
# Mechanical properties :
#
#
# Convention : Reuss Voigt Hill
#
# Bulk Modulus (GPa) = 72.43676 76.14883 74.29280
# Shear Modulus (GPa) = 20.95012 26.38911 23.66962
#
# Velocity S-wave (km/s) = 3.18978 3.57997 3.39049
# Velocity P-wave (km/s) = 6.98183 7.35328 7.16996
#
# Compressibility (1/GPa) = 0.01380514
#
# Stress axis : x y z
#
# Youngs Moduli (GPa) = 82.05586 88.44691 104.21305
#
# Poissons Ratio (x) = 0.20125 0.49052
# Poissons Ratio (y) = 0.18671 0.27716
# Poissons Ratio (z) = 0.38623 0.23523
#
# Static dielectric constant tensor:
#      x y z
#    x 3.992530 0.000000 0.000000 
#    y 0.000000 3.530260 0.000000 
#    z 0.000000 0.000000 3.934500 
# 
# 
# High freq. dielectric constant tensor:
#      x y z
#    x 1.799990 0.000000 0.000000 
#    y 0.000000 1.786480 0.000000 
#    z 0.000000 0.000000 1.817300 
# 
# From -- ./inp_files/18757.got.cif
#   From: 2010.03.12/outbox.cif.g09.slc.cpg/sg35_10_cif.got.tgz:18757.got - 2010.04.14 02:02:04.
