data_PCOD8173496
_publ_section_title
;
Structure prediction by ZEFSAII (Michael W. Deem and Ramdas Pophale) SiO2 
 PCOD8173496
Probable space group: C M M 2
;
_chemical_formula_sum "Si O2"
_cell_formula_units_Z 56
_cell_length_a 8.733842
_cell_length_b 21.768486
_cell_length_c 14.628546
_cell_angle_alpha 90.000000
_cell_angle_beta 90.000000
_cell_angle_gamma 90.000000
_cell_volume 2781.215990
_symmetry_space_group_name_H-M "C M M 2"
_symmetry_group_IT_number 35
_symmetry_cell_setting 'orthorhombic'
loop_
_space_group_symop_operation_xyz
x,y,z
-x,-y,z
-x,y,z
x,-y,z
1/2+x,1/2+y,z
1/2-x,1/2-y,z
1/2-x,1/2+y,z
1/2+x,1/2-y,z
loop_
_atom_site_type_symbol
_atom_site_label
_atom_site_fract_x
_atom_site_fract_y
_atom_site_fract_z
Si Si1 0.680328 0.929798 0.046240
Si Si2 0.680269 0.500000 0.528322
Si Si3 0.180762 0.389926 0.418022
Si Si4 0.175292 0.929501 0.238849
Si Si5 0.320434 0.315550 0.936395
Si Si6 0.824951 0.500000 0.720506
Si Si7 0.677379 0.187597 0.581063
Si Si8 0.175765 0.631377 0.766708
O O1 0.500000 0.924866 0.032681
O O2 0.721838 0.916199 0.151098
O O3 0.735516 0.000000 0.020970
O O4 0.756396 0.875878 0.987461
O O5 0.500000 0.500000 0.507486
O O6 0.761360 0.556753 0.482209
O O7 0.707987 0.500000 0.636520
O O8 0.266024 0.386679 0.321080
O O9 0.227630 0.330671 0.478331
O O10 0.000000 0.396048 0.400983
O O11 0.000000 0.913290 0.215633
O O12 0.192276 0.000000 0.271039
O O13 0.500000 0.311641 0.953081
O O14 0.250000 0.250000 0.969667
O O15 0.282529 0.326234 0.829784
O O16 0.798306 0.441079 0.786058
O O17 0.000000 0.500000 0.682357
O O18 0.500000 0.197623 0.580461
O O19 0.750000 0.250000 0.612630
O O20 0.721457 0.138950 0.660078
O O21 0.000000 0.650530 0.786151
#
# Coordination Sequence:
#
# PCOD8173496 Si02
#       8
#     8   4   8   8   8   4   8   8
#     4  10  22  42  68  96 126 164 205 251 312 380
#     4  12  22  32  52  85 118 151 192 242 296 346
#     4  11  21  36  57  82 116 160 202 242 293 358
#     4  10  20  35  58  92 126 154 193 249 305 359
#     4  12  26  44  66  93 125 163 208 260 313 374
#     4  10  20  38  60  85 122 161 198 244 302 366
#     4  10  22  38  57  80 112 156 204 250 295 349
#     4  10  21  39  62  89 120 160 203 248 304 367
#
# _framework density 20.135078
#
# number of rings (size 3 to 8) (size 9 to 14) (size 15 to 20)
#    0.000    1.429    2.143    3.643    1.000    4.857 
#    0.000    0.714    0.000    1.714    0.000    0.000 
#    0.000    0.000    0.000    0.000    0.000    0.000 
#
# Total GULP energy -347090.701901 kJ/mol
# GULP energy per Si atom -12396.096496 kJ/mol
# Density = 2.008925 g / cm^3
# Si number density = 20.135078 Si / 1000 Ang^3
#
#
#
# Elastic Constant Matrix: (Units=GPa)
#
#
# Indices 1 2 3 4 5 6 
#
# 1 67.0962 42.9030 37.0178 0.0000 0.0000 0.0000
# 2 42.9030 120.7192 43.0431 0.0000 0.0000 0.0000
# 3 37.0178 43.0431 90.3074 0.0000 0.0000 0.0000
# 4 0.0000 0.0000 0.0000 28.3263 0.0000 0.0000
# 5 0.0000 0.0000 0.0000 0.0000 36.3384 0.0000
# 6 0.0000 0.0000 0.0000 0.0000 0.0000 28.9715
#
#
#
# Elastic Compliance Matrix: (Units=1/GPa)
#
#
# Indices 1 2 3 4 5 6 
#
# 1 0.021952 -0.005534 -0.006361 0.000000 0.000000 0.000000
# 2 -0.005534 0.011375 -0.003153 0.000000 0.000000 0.000000
# 3 -0.006361 -0.003153 0.015183 0.000000 0.000000 0.000000
# 4 0.000000 0.000000 0.000000 0.035303 0.000000 0.000000
# 5 0.000000 0.000000 0.000000 0.000000 0.027519 0.000000
# 6 0.000000 0.000000 0.000000 0.000000 0.000000 0.034517
#
#
# Mechanical properties :
#
#
# Convention : Reuss Voigt Hill
#
# Bulk Modulus (GPa) = 54.30424 58.22782 56.26603
# Shear Modulus (GPa) = 27.46027 29.07118 28.26572
#
# Velocity S-wave (km/s) = 3.69698 3.80387 3.75080
# Velocity P-wave (km/s) = 6.72696 6.94794 6.83835
#
# Compressibility (1/GPa) = 0.01841477
#
# Stress axis : x y z
#
# Youngs Moduli (GPa) = 45.55493 87.91552 65.86097
#
# Poissons Ratio (x) = 0.48648 0.41892
# Poissons Ratio (y) = 0.25208 0.20767
# Poissons Ratio (z) = 0.28976 0.27722
#
# Static dielectric constant tensor:
#      x y z
#    x 3.629440 0.000000 0.000000 
#    y 0.000000 3.432620 0.000000 
#    z 0.000000 0.000000 3.743990 
# 
# 
# High freq. dielectric constant tensor:
#      x y z
#    x 1.784890 0.000000 0.000000 
#    y 0.000000 1.780740 0.000000 
#    z 0.000000 0.000000 1.785920 
# 
# From -- ./inp_files/15705.got.cif
#   From: 2010.03.12/outbox.cif.g09.slc.cpg/sg35_8_cif.got.tgz:15705.got - 2010.04.14 02:02:04.
