data_PCOD8173570
_publ_section_title
;
Structure prediction by ZEFSAII (Michael W. Deem and Ramdas Pophale) SiO2 
 PCOD8173570
Probable space group: C M M 2
;
_chemical_formula_sum "Si O2"
_cell_formula_units_Z 56
_cell_length_a 13.469737
_cell_length_b 14.794381
_cell_length_c 13.352558
_cell_angle_alpha 90.000000
_cell_angle_beta 90.000000
_cell_angle_gamma 90.000000
_cell_volume 2660.849971
_symmetry_space_group_name_H-M "C M M 2"
_symmetry_group_IT_number 35
_symmetry_cell_setting 'orthorhombic'
loop_
_space_group_symop_operation_xyz
x,y,z
-x,-y,z
-x,y,z
x,-y,z
1/2+x,1/2+y,z
1/2-x,1/2-y,z
1/2-x,1/2+y,z
1/2+x,1/2-y,z
loop_
_atom_site_type_symbol
_atom_site_label
_atom_site_fract_x
_atom_site_fract_y
_atom_site_fract_z
Si Si1 0.788169 0.892852 0.760720
Si Si2 0.214742 0.152454 0.349784
Si Si3 0.615514 0.218714 0.839792
Si Si4 0.112522 0.896204 0.548137
Si Si5 0.892093 0.400371 0.243085
Si Si6 0.883849 0.901822 0.154918
Si Si7 0.882491 0.278759 0.065283
O O1 0.676902 0.851239 0.769697
O O2 0.859044 0.825492 0.824543
O O3 0.823258 0.882655 0.647131
O O4 0.794174 0.000000 0.793549
O O5 0.250000 0.250000 0.316601
O O6 0.169936 0.155375 0.460451
O O7 0.317096 0.095593 0.337831
O O8 0.132231 0.116937 0.272767
O O9 0.500000 0.203320 0.817273
O O10 0.645862 0.192209 0.953172
O O11 0.000000 0.858606 0.563019
O O12 0.107437 0.000000 0.516671
O O13 0.908540 0.500000 0.201676
O O14 0.841621 0.346834 0.150168
O O15 0.000000 0.359618 0.275622
O O16 0.837609 0.821691 0.086332
O O17 0.000000 0.905953 0.135810
O O18 0.836701 0.000000 0.126544
O O19 0.000000 0.276503 0.076808
#
# Coordination Sequence:
#
# PCOD8173570 Si02
#       7
#     8   8   8   8   8   8   8
#     4  10  23  42  64  91 123 157 204 260 319 377
#     4  12  23  34  58  88 120 154 197 248 297 358
#     4  10  22  40  65  92 126 164 208 260 312 368
#     4  10  22  42  65  88 116 152 197 250 308 373
#     4  10  21  38  57  80 120 166 202 237 283 347
#     4  10  20  36  58  85 120 159 201 250 297 346
#     4   9  19  37  57  85 121 161 206 246 290 351
#
# _framework density 21.045907
#
# number of rings (size 3 to 8) (size 9 to 14) (size 15 to 20)
#    0.000    1.857    1.429    2.143    2.000    6.286 
#    0.000    3.571    0.000    0.857    0.000    0.000 
#    0.000    0.000    0.000    0.000    0.000    0.000 
#
# Total GULP energy -346923.882507 kJ/mol
# GULP energy per Si atom -12390.138661 kJ/mol
# Density = 2.099801 g / cm^3
# Si number density = 21.045907 Si / 1000 Ang^3
#
#
#
# Elastic Constant Matrix: (Units=GPa)
#
#
# Indices 1 2 3 4 5 6 
#
# 1 118.5199 23.5969 43.6702 0.0000 0.0000 0.0000
# 2 23.5969 119.1724 31.2630 0.0000 0.0000 0.0000
# 3 43.6702 31.2630 94.7286 0.0000 0.0000 0.0000
# 4 0.0000 0.0000 0.0000 46.2171 0.0000 0.0000
# 5 0.0000 0.0000 0.0000 0.0000 27.7987 0.0000
# 6 0.0000 0.0000 0.0000 0.0000 0.0000 23.0913
#
#
#
# Elastic Compliance Matrix: (Units=1/GPa)
#
#
# Indices 1 2 3 4 5 6 
#
# 1 0.010245 -0.000864 -0.004438 0.000000 0.000000 0.000000
# 2 -0.000864 0.009259 -0.002657 0.000000 0.000000 0.000000
# 3 -0.004438 -0.002657 0.013479 0.000000 0.000000 0.000000
# 4 0.000000 0.000000 0.000000 0.021637 0.000000 0.000000
# 5 0.000000 0.000000 0.000000 0.000000 0.035973 0.000000
# 6 0.000000 0.000000 0.000000 0.000000 0.000000 0.043306
#
#
# Mechanical properties :
#
#
# Convention : Reuss Voigt Hill
#
# Bulk Modulus (GPa) = 58.60061 58.83122 58.71592
# Shear Modulus (GPa) = 32.15304 35.01413 33.58359
#
# Velocity S-wave (km/s) = 3.91289 4.08328 3.99899
# Velocity P-wave (km/s) = 6.95118 7.08839 7.02012
#
# Compressibility (1/GPa) = 0.01706467
#
# Stress axis : x y z
#
# Youngs Moduli (GPa) = 97.61280 107.99739 74.18845
#
# Poissons Ratio (x) = 0.09335 0.32921
# Poissons Ratio (y) = 0.08437 0.19715
# Poissons Ratio (z) = 0.43316 0.28699
#
# Static dielectric constant tensor:
#      x y z
#    x 4.449160 0.000000 0.000000 
#    y 0.000000 3.855080 0.000000 
#    z 0.000000 0.000000 3.579880 
# 
# 
# High freq. dielectric constant tensor:
#      x y z
#    x 1.842490 0.000000 0.000000 
#    y 0.000000 1.827220 0.000000 
#    z 0.000000 0.000000 1.801690 
# 
# From -- ./inp_files/12980.got.cif
#   From: 2010.03.12/outbox.cif.g09.slc.cpg/sg35_7_cif.got.tgz:12980.got - 2010.04.14 02:02:04.
