data_PCOD8173444
_publ_section_title
;
Structure prediction by ZEFSAII (Michael W. Deem and Ramdas Pophale) SiO2 
 PCOD8173444
Probable space group: C M M 2
;
_chemical_formula_sum "Si O2"
_cell_formula_units_Z 56
_cell_length_a 8.626464
_cell_length_b 23.200227
_cell_length_c 15.311931
_cell_angle_alpha 90.000000
_cell_angle_beta 90.000000
_cell_angle_gamma 90.000000
_cell_volume 3064.467444
_symmetry_space_group_name_H-M "C M M 2"
_symmetry_group_IT_number 35
_symmetry_cell_setting 'orthorhombic'
loop_
_space_group_symop_operation_xyz
x,y,z
-x,-y,z
-x,y,z
x,-y,z
1/2+x,1/2+y,z
1/2-x,1/2-y,z
1/2-x,1/2+y,z
1/2+x,1/2-y,z
loop_
_atom_site_type_symbol
_atom_site_label
_atom_site_fract_x
_atom_site_fract_y
_atom_site_fract_z
Si Si1 0.181899 0.117815 0.556080
Si Si2 0.182384 0.500000 0.622373
Si Si3 0.320200 0.500000 0.813629
Si Si4 0.182828 0.814336 0.034535
Si Si5 0.820870 0.387447 0.879047
Si Si6 0.319975 0.186256 0.401465
Si Si7 0.820935 0.312184 0.208101
Si Si8 0.679326 0.810905 0.709998
O O1 0.257804 0.056246 0.573303
O O2 0.232864 0.140773 0.462039
O O3 0.231409 0.164560 0.627192
O O4 0.000000 0.109491 0.559214
O O5 0.226901 0.500000 0.723642
O O6 0.000000 0.500000 0.617550
O O7 0.500000 0.500000 0.789927
O O8 0.278186 0.554699 0.872414
O O9 0.250000 0.750000 0.029979
O O10 0.228143 0.842968 0.128661
O O11 0.000000 0.813271 0.021180
O O12 0.260563 0.851653 0.960169
O O13 0.794389 0.352350 0.791028
O O14 0.000000 0.402909 0.892860
O O15 0.500000 0.190399 0.427248
O O16 0.250000 0.250000 0.411945
O O17 0.300605 0.159297 0.303620
O O18 0.750000 0.250000 0.220188
O O19 0.000000 0.308025 0.180574
O O20 0.500000 0.804338 0.685572
O O21 0.750000 0.750000 0.736631
#
# Coordination Sequence:
#
# PCOD8173444 Si02
#       8
#     8   4   4   8   8   8   8   8
#     4  12  24  38  58  82 111 146 188 234 279 332
#     4  12  24  42  62  81 108 145 192 236 278 328
#     4  12  24  40  62  85 110 143 190 236 280 330
#     4  11  21  34  55  84 118 151 188 233 282 337
#     4  11  23  39  59  81 111 149 190 233 278 330
#     4  10  20  35  56  84 117 151 188 231 280 337
#     4   9  17  31  53  80 112 149 187 227 277 336
#     4  11  23  37  55  79 112 148 184 226 278 333
#
# _framework density 18.273975
#
# number of rings (size 3 to 8) (size 9 to 14) (size 15 to 20)
#    0.000    1.143    1.429    7.286    0.000    4.571 
#    0.000    0.000    0.000    0.857    0.000    1.000 
#    0.000    0.000    0.000    0.000    0.000    0.000 
#
# Total GULP energy -347229.839846 kJ/mol
# GULP energy per Si atom -12401.065709 kJ/mol
# Density = 1.823238 g / cm^3
# Si number density = 18.273975 Si / 1000 Ang^3
#
#
#
# Elastic Constant Matrix: (Units=GPa)
#
#
# Indices 1 2 3 4 5 6 
#
# 1 124.6525 38.7898 40.2430 0.0000 0.0000 0.0000
# 2 38.7898 80.5322 27.5454 0.0000 0.0000 0.0000
# 3 40.2430 27.5454 108.9291 0.0000 0.0000 0.0000
# 4 0.0000 0.0000 0.0000 -14.7109 0.0000 0.0000
# 5 0.0000 0.0000 0.0000 0.0000 63.7341 0.0000
# 6 0.0000 0.0000 0.0000 0.0000 0.0000 30.4092
#
#
#
# Elastic Compliance Matrix: (Units=1/GPa)
#
#
# Indices 1 2 3 4 5 6 
#
# 1 0.010136 -0.003942 -0.002748 0.000000 0.000000 0.000000
# 2 -0.003942 0.015126 -0.002369 0.000000 0.000000 0.000000
# 3 -0.002748 -0.002369 0.010794 0.000000 0.000000 0.000000
# 4 0.000000 0.000000 0.000000 -0.067977 0.000000 0.000000
# 5 0.000000 0.000000 0.000000 0.000000 0.015690 0.000000
# 6 0.000000 0.000000 0.000000 0.000000 0.000000 0.032885
#
#
# Mechanical properties :
#
#
# Convention : Reuss Voigt Hill
#
# Bulk Modulus (GPa) = 55.74314 58.58558 57.16436
# Shear Modulus (GPa) = 122.69024 29.72217 76.20620
#
# Velocity S-wave (km/s) = 8.20275 4.03733 6.46472
# Velocity P-wave (km/s) = 10.96740 7.33911 9.33130
#
# Compressibility (1/GPa) = 0.01793943
#
# Stress axis : x y z
#
# Youngs Moduli (GPa) = 98.65597 66.10916 92.64059
#
# Poissons Ratio (x) = 0.26063 0.25456
# Poissons Ratio (y) = 0.38894 0.21943
# Poissons Ratio (z) = 0.27109 0.15659
#
# Static dielectric constant tensor:
#      x y z
#    x 3.375260 0.000000 0.000000 
#    y 0.000000 3.245330 0.000000 
#    z 0.000000 0.000000 3.840010 
# 
# 
# High freq. dielectric constant tensor:
#      x y z
#    x 1.732350 0.000000 0.000000 
#    y 0.000000 1.683460 0.000000 
#    z 0.000000 0.000000 1.720750 
# 
# From -- ./inp_files/15765.got.cif
#   From: 2010.03.12/outbox.cif.g09.slc.cpg/sg35_8_cif.got.tgz:15765.got - 2010.04.14 02:02:04.
