data_PCOD8173374
_publ_section_title
;
Structure prediction by ZEFSAII (Michael W. Deem and Ramdas Pophale) SiO2 
 PCOD8173374
Probable space group: C M M 2
;
_chemical_formula_sum "Si O2"
_cell_formula_units_Z 48
_cell_length_a 30.627112
_cell_length_b 8.780897
_cell_length_c 9.382176
_cell_angle_alpha 90.000000
_cell_angle_beta 90.000000
_cell_angle_gamma 90.000000
_cell_volume 2523.181578
_symmetry_space_group_name_H-M "C M M 2"
_symmetry_group_IT_number 35
_symmetry_cell_setting 'orthorhombic'
loop_
_space_group_symop_operation_xyz
x,y,z
-x,-y,z
-x,y,z
x,-y,z
1/2+x,1/2+y,z
1/2-x,1/2-y,z
1/2-x,1/2+y,z
1/2+x,1/2-y,z
loop_
_atom_site_type_symbol
_atom_site_label
_atom_site_fract_x
_atom_site_fract_y
_atom_site_fract_z
Si Si1 0.125142 0.818992 0.069310
Si Si2 0.548020 0.319153 0.269089
Si Si3 0.626006 0.821162 0.761073
Si Si4 0.295385 0.680119 0.586672
Si Si5 0.050712 0.823456 0.589372
Si Si6 0.205539 0.821296 0.262815
O O1 0.082650 0.759998 0.154536
O O2 0.166514 0.768019 0.162101
O O3 0.123871 0.000000 0.042928
O O4 0.126981 0.729553 0.923563
O O5 0.500000 0.256845 0.226635
O O6 0.547317 0.500000 0.271811
O O7 0.560331 0.265535 0.428693
O O8 0.664913 0.738349 0.680082
O O9 0.579366 0.776268 0.695943
O O10 0.632924 0.000000 0.749762
O O11 0.292642 0.500000 0.600421
O O12 0.250000 0.750000 0.643802
O O13 0.303724 0.733753 0.424129
O O14 0.000000 0.799814 0.628202
O O15 0.063909 0.000000 0.606674
O O16 0.250000 0.750000 0.202588
O O17 0.210998 0.000000 0.259572
#
# Coordination Sequence:
#
# PCOD8173374 Si02
#       6
#     8   8   8   8   8   8
#     4  10  20  35  54  78 109 144 180 221 270 322
#     4   8  15  31  58  86 105 128 173 228 276 325
#     4  12  25  37  51  78 116 154 187 222 268 321
#     4  10  20  38  62  86 110 139 180 227 275 326
#     4   9  18  36  62  86 107 138 182 230 278 327
#     4   9  19  35  58  83 106 135 175 224 272 321
#
# _framework density 19.023600999999999
#
# number of rings (size 3 to 8) (size 9 to 14) (size 15 to 20)
#    0.000    2.333    0.000    4.000    0.000    5.667 
#    0.000    5.833    0.000    1.000    0.000    0.000 
#    0.000    0.000    0.000    0.000    0.000    0.000 
#
# Total GULP energy -297620.677107 kJ/mol
# GULP energy per Si atom -12400.861546 kJ/mol
# Density = 1.898030 g / cm^3
# Si number density = 19.023601 Si / 1000 Ang^3
#
#
#
# Elastic Constant Matrix: (Units=GPa)
#
#
# Indices 1 2 3 4 5 6 
#
# 1 141.1891 37.8555 77.5592 0.0000 0.0000 0.0000
# 2 37.8555 55.9499 33.9681 0.0000 0.0000 0.0000
# 3 77.5592 33.9681 114.9920 0.0000 0.0000 0.0000
# 4 0.0000 0.0000 0.0000 18.8632 0.0000 0.0000
# 5 0.0000 0.0000 0.0000 0.0000 6.1865 0.0000
# 6 0.0000 0.0000 0.0000 0.0000 0.0000 29.5735
#
#
#
# Elastic Compliance Matrix: (Units=1/GPa)
#
#
# Indices 1 2 3 4 5 6 
#
# 1 0.011903 -0.003874 -0.006884 0.000000 0.000000 0.000000
# 2 -0.003874 0.023040 -0.004193 0.000000 0.000000 0.000000
# 3 -0.006884 -0.004193 0.014578 0.000000 0.000000 0.000000
# 4 0.000000 0.000000 0.000000 0.053013 0.000000 0.000000
# 5 0.000000 0.000000 0.000000 0.000000 0.161641 0.000000
# 6 0.000000 0.000000 0.000000 0.000000 0.000000 0.033814
#
#
# Mechanical properties :
#
#
# Convention : Reuss Voigt Hill
#
# Bulk Modulus (GPa) = 50.97114 67.87739 59.42426
# Shear Modulus (GPa) = 14.95079 21.77453 18.36266
#
# Velocity S-wave (km/s) = 2.80645 3.38687 3.11023
# Velocity P-wave (km/s) = 6.11174 7.14511 6.64853
#
# Compressibility (1/GPa) = 0.01961895
#
# Stress axis : x y z
#
# Youngs Moduli (GPa) = 84.01301 43.40283 68.59777
#
# Poissons Ratio (x) = 0.16815 0.47221
# Poissons Ratio (y) = 0.32549 0.28762
# Poissons Ratio (z) = 0.57833 0.18198
#
# Static dielectric constant tensor:
#      x y z
#    x 3.866720 0.000000 0.000000 
#    y 0.000000 3.236510 0.000000 
#    z 0.000000 0.000000 3.544730 
# 
# 
# High freq. dielectric constant tensor:
#      x y z
#    x 1.755990 0.000000 0.000000 
#    y 0.000000 1.715080 0.000000 
#    z 0.000000 0.000000 1.738530 
# 
# From -- ./inp_files/5279.got.cif
#   From: 2010.03.12/outbox.cif.g09.slc.cpg/sg35_3_cif.got.tgz:5279.got - 2010.04.14 02:02:04.
