data_PCOD8173390
_publ_section_title
;
Structure prediction by ZEFSAII (Michael W. Deem and Ramdas Pophale) SiO2 
 PCOD8173390
Probable space group: C M M 2
;
_chemical_formula_sum "Si O2"
_cell_formula_units_Z 56
_cell_length_a 8.825775
_cell_length_b 19.123555
_cell_length_c 17.793552
_cell_angle_alpha 90.000000
_cell_angle_beta 90.000000
_cell_angle_gamma 90.000000
_cell_volume 3003.199152
_symmetry_space_group_name_H-M "C M M 2"
_symmetry_group_IT_number 35
_symmetry_cell_setting 'orthorhombic'
loop_
_space_group_symop_operation_xyz
x,y,z
-x,-y,z
-x,y,z
x,-y,z
1/2+x,1/2+y,z
1/2-x,1/2-y,z
1/2-x,1/2+y,z
1/2+x,1/2-y,z
loop_
_atom_site_type_symbol
_atom_site_label
_atom_site_fract_x
_atom_site_fract_y
_atom_site_fract_z
Si Si1 0.320170 0.673270 0.554780
Si Si2 0.821902 0.677841 0.131876
Si Si3 0.327295 0.418201 0.839524
Si Si4 0.678203 0.080830 0.683164
Si Si5 0.679307 0.823628 0.961491
Si Si6 0.178953 0.079542 0.416074
Si Si7 0.178616 0.420768 0.262788
O O1 0.500000 0.679808 0.557312
O O2 0.250000 0.750000 0.552722
O O3 0.265560 0.631223 0.627097
O O4 0.263647 0.629930 0.482323
O O5 0.750000 0.750000 0.157810
O O6 0.761097 0.619827 0.189661
O O7 0.000000 0.685974 0.137363
O O8 0.774019 0.658033 0.047132
O O9 0.500000 0.392302 0.829915
O O10 0.320827 0.500000 0.854505
O O11 0.232814 0.397778 0.765881
O O12 0.249668 0.383558 0.910932
O O13 0.500000 0.093850 0.676788
O O14 0.720027 0.000000 0.665769
O O15 0.500000 0.820537 0.950726
O O16 0.750000 0.750000 0.936865
O O17 0.247151 0.109448 0.338635
O O18 0.000000 0.080970 0.410047
O O19 0.236300 0.000000 0.431454
O O20 0.231338 0.500000 0.251087
O O21 0.000000 0.413777 0.271424
#
# Coordination Sequence:
#
# PCOD8173390 Si02
#       7
#     8   8   8   8   8   8   8
#     4  11  23  38  56  80 111 143 178 221 267 315
#     4   9  19  34  52  75 104 139 176 216 263 314
#     4  10  21  37  57  82 111 141 176 219 266 316
#     4  10  21  38  60  84 109 139 177 218 263 318
#     4  10  20  35  55  78 107 143 182 223 268 319
#     4   9  19  36  56  77 103 138 177 216 263 317
#     4   9  18  33  53  77 104 135 174 218 262 310
#
# _framework density 18.646781000000001
#
# number of rings (size 3 to 8) (size 9 to 14) (size 15 to 20)
#    0.000    2.286    0.000    2.143    0.000    6.286 
#    0.000    8.571    0.000    1.714    0.000    0.000 
#    0.000    0.000    0.000    0.000    0.000    0.000 
#
# Total GULP energy -347257.186288 kJ/mol
# GULP energy per Si atom -12402.042367 kJ/mol
# Density = 1.860434 g / cm^3
# Si number density = 18.646781 Si / 1000 Ang^3
#
#
#
# Elastic Constant Matrix: (Units=GPa)
#
#
# Indices 1 2 3 4 5 6 
#
# 1 54.4214 37.6611 36.0816 0.0000 0.0000 0.0000
# 2 37.6611 97.4753 80.9375 0.0000 0.0000 0.0000
# 3 36.0816 80.9375 136.3195 0.0000 0.0000 0.0000
# 4 0.0000 0.0000 0.0000 132.1811 0.0000 0.0000
# 5 0.0000 0.0000 0.0000 0.0000 34.1184 0.0000
# 6 0.0000 0.0000 0.0000 0.0000 0.0000 29.7706
#
#
#
# Elastic Compliance Matrix: (Units=1/GPa)
#
#
# Indices 1 2 3 4 5 6 
#
# 1 0.025294 -0.008311 -0.001760 0.000000 0.000000 0.000000
# 2 -0.008311 0.022965 -0.011436 0.000000 0.000000 0.000000
# 3 -0.001760 -0.011436 0.014591 0.000000 0.000000 0.000000
# 4 0.000000 0.000000 0.000000 0.007565 0.000000 0.000000
# 5 0.000000 0.000000 0.000000 0.000000 0.029310 0.000000
# 6 0.000000 0.000000 0.000000 0.000000 0.000000 0.033590
#
#
# Mechanical properties :
#
#
# Convention : Reuss Voigt Hill
#
# Bulk Modulus (GPa) = 50.41157 66.39739 58.40448
# Shear Modulus (GPa) = 27.33111 48.11642 37.72377
#
# Velocity S-wave (km/s) = 3.83264 5.08529 4.50274
# Velocity P-wave (km/s) = 6.83221 8.37648 7.64345
#
# Compressibility (1/GPa) = 0.01983672
#
# Stress axis : x y z
#
# Youngs Moduli (GPa) = 39.53568 43.54361 68.53367
#
# Poissons Ratio (x) = 0.36189 0.12064
# Poissons Ratio (y) = 0.32858 0.78373
# Poissons Ratio (z) = 0.06960 0.49795
#
# Static dielectric constant tensor:
#      x y z
#    x 3.438730 0.000000 0.000000 
#    y 0.000000 3.146070 0.000000 
#    z 0.000000 0.000000 3.615470 
# 
# 
# High freq. dielectric constant tensor:
#      x y z
#    x 1.727930 0.000000 0.000000 
#    y 0.000000 1.719900 0.000000 
#    z 0.000000 0.000000 1.734720 
# 
# From -- ./inp_files/15601.got.cif
#   From: 2010.03.12/outbox.cif.g09.slc.cpg/sg35_8_cif.got.tgz:15601.got - 2010.04.14 02:02:04.
