data_PCOD8173623
_publ_section_title
;
Structure prediction by ZEFSAII (Michael W. Deem and Ramdas Pophale) SiO2 
 PCOD8173623
Probable space group: C M M 2
;
_chemical_formula_sum "Si O2"
_cell_formula_units_Z 48
_cell_length_a 8.810966
_cell_length_b 15.536792
_cell_length_c 17.145354
_cell_angle_alpha 90.000000
_cell_angle_beta 90.000000
_cell_angle_gamma 90.000000
_cell_volume 2347.098595
_symmetry_space_group_name_H-M "C M M 2"
_symmetry_group_IT_number 35
_symmetry_cell_setting 'orthorhombic'
loop_
_space_group_symop_operation_xyz
x,y,z
-x,-y,z
-x,y,z
x,-y,z
1/2+x,1/2+y,z
1/2-x,1/2-y,z
1/2-x,1/2+y,z
1/2+x,1/2-y,z
loop_
_atom_site_type_symbol
_atom_site_label
_atom_site_fract_x
_atom_site_fract_y
_atom_site_fract_z
Si Si1 0.321951 0.656278 0.693480
Si Si2 0.324032 0.842517 0.843973
Si Si3 0.820810 0.662516 0.379939
Si Si4 0.179547 0.000000 0.110762
Si Si5 0.680012 0.000000 0.278679
Si Si6 0.669283 0.097681 0.543125
Si Si7 0.822106 0.655397 0.017331
O O1 0.500000 0.662896 0.701767
O O2 0.250000 0.750000 0.684983
O O3 0.256260 0.608001 0.771452
O O4 0.280426 0.603436 0.616570
O O5 0.500000 0.835104 0.824052
O O6 0.250000 0.750000 0.846853
O O7 0.297896 0.882963 0.929548
O O8 0.750000 0.750000 0.345986
O O9 0.767562 0.583836 0.326366
O O10 0.765422 0.650381 0.469436
O O11 0.000000 0.669166 0.378310
O O12 0.224720 0.000000 0.200243
O O13 0.245863 0.912983 0.073944
O O14 0.000000 0.000000 0.099994
O O15 0.500000 0.000000 0.261646
O O16 0.500000 0.130230 0.566319
O O17 0.660444 0.000000 0.514462
O O18 0.750000 0.750000 0.028357
O O19 0.000000 0.663268 0.036454
#
# Coordination Sequence:
#
# PCOD8173623 Si02
#       7
#     8   8   8   4   4   8   8
#     4  11  21  33  52  80 115 155 201 248 297 349
#     4   9  17  32  56  83 113 153 199 248 300 353
#     4  10  21  39  65  92 118 156 199 244 300 361
#     4  12  26  42  64  95 128 163 204 249 306 369
#     4  10  22  44  66  87 122 159 196 245 304 367
#     4  10  20  37  58  81 115 157 200 246 300 357
#     4  10  21  40  66  94 125 163 207 255 310 368
#
# _framework density 20.450782
#
# number of rings (size 3 to 8) (size 9 to 14) (size 15 to 20)
#    0.000    1.833    0.833    4.750    0.000    5.667 
#    1.500    1.667    0.000    0.000    0.000    0.000 
#    0.000    0.000    0.000    0.000    0.000    0.000 
#
# Total GULP energy -297509.874040 kJ/mol
# GULP energy per Si atom -12396.244752 kJ/mol
# Density = 2.040424 g / cm^3
# Si number density = 20.450782 Si / 1000 Ang^3
#
#
#
# Elastic Constant Matrix: (Units=GPa)
#
#
# Indices 1 2 3 4 5 6 
#
# 1 128.3244 44.3713 68.4086 0.0000 0.0000 0.0000
# 2 44.3713 113.7919 61.9491 0.0000 0.0000 0.0000
# 3 68.4086 61.9491 152.2377 0.0000 0.0000 0.0000
# 4 0.0000 0.0000 0.0000 22.6737 0.0000 0.0000
# 5 0.0000 0.0000 0.0000 0.0000 23.4422 0.0000
# 6 0.0000 0.0000 0.0000 0.0000 0.0000 28.6377
#
#
#
# Elastic Compliance Matrix: (Units=1/GPa)
#
#
# Indices 1 2 3 4 5 6 
#
# 1 0.010582 -0.001975 -0.003951 0.000000 0.000000 0.000000
# 2 -0.001975 0.011657 -0.003856 0.000000 0.000000 0.000000
# 3 -0.003951 -0.003856 0.009913 0.000000 0.000000 0.000000
# 4 0.000000 0.000000 0.000000 0.044104 0.000000 0.000000
# 5 0.000000 0.000000 0.000000 0.000000 0.042658 0.000000
# 6 0.000000 0.000000 0.000000 0.000000 0.000000 0.034919
#
#
# Mechanical properties :
#
#
# Convention : Reuss Voigt Hill
#
# Bulk Modulus (GPa) = 79.44318 82.64577 81.04447
# Shear Modulus (GPa) = 28.15387 29.59239 28.87313
#
# Velocity S-wave (km/s) = 3.71437 3.80808 3.76152
# Velocity P-wave (km/s) = 7.57138 7.73531 7.65378
#
# Compressibility (1/GPa) = 0.01258761
#
# Stress axis : x y z
#
# Youngs Moduli (GPa) = 94.49860 85.78191 100.87350
#
# Poissons Ratio (x) = 0.16943 0.39859
# Poissons Ratio (y) = 0.18665 0.38898
# Poissons Ratio (z) = 0.37340 0.33079
#
# Static dielectric constant tensor:
#      x y z
#    x 3.682770 0.000000 0.000000 
#    y 0.000000 3.762490 0.000000 
#    z 0.000000 0.000000 4.231510 
# 
# 
# High freq. dielectric constant tensor:
#      x y z
#    x 1.799230 0.000000 0.000000 
#    y 0.000000 1.785300 0.000000 
#    z 0.000000 0.000000 1.811070 
# 
# From -- ./inp_files/17838.got.cif
#   From: 2010.03.12/outbox.cif.g09.slc.cpg/sg35_9_cif.got.tgz:17838.got - 2010.04.14 02:02:04.
