data_PCOD8173856
_publ_section_title
;
Structure prediction by ZEFSAII (Michael W. Deem and Ramdas Pophale) SiO2 
 PCOD8173856
Probable space group: C M M 2
;
_chemical_formula_sum "Si O2"
_cell_formula_units_Z 56
_cell_length_a 18.007488
_cell_length_b 8.974880
_cell_length_c 17.775185
_cell_angle_alpha 90.000000
_cell_angle_beta 90.000000
_cell_angle_gamma 90.000000
_cell_volume 2872.737304
_symmetry_space_group_name_H-M "C M M 2"
_symmetry_group_IT_number 35
_symmetry_cell_setting 'orthorhombic'
loop_
_space_group_symop_operation_xyz
x,y,z
-x,-y,z
-x,y,z
x,-y,z
1/2+x,1/2+y,z
1/2-x,1/2-y,z
1/2-x,1/2+y,z
1/2+x,1/2-y,z
loop_
_atom_site_type_symbol
_atom_site_label
_atom_site_fract_x
_atom_site_fract_y
_atom_site_fract_z
Si Si1 0.413570 0.172231 0.616280
Si Si2 0.327645 0.673981 0.183177
Si Si3 0.829256 0.324984 0.466125
Si Si4 0.586173 0.328566 0.333738
Si Si5 0.585584 0.174571 0.050554
Si Si6 0.085153 0.827830 0.896849
Si Si7 0.670942 0.324607 0.748106
O O1 0.500000 0.202287 0.604469
O O2 0.373262 0.224174 0.540348
O O3 0.385260 0.271902 0.684298
O O4 0.396949 0.000000 0.634371
O O5 0.314548 0.500000 0.170773
O O6 0.250000 0.750000 0.202242
O O7 0.382891 0.707540 0.251430
O O8 0.362255 0.740450 0.108036
O O9 0.817951 0.500000 0.462248
O O10 0.750000 0.250000 0.467223
O O11 0.874432 0.276107 0.393377
O O12 0.500000 0.288723 0.332816
O O13 0.600691 0.500000 0.355535
O O14 0.500000 0.215961 0.066947
O O15 0.600114 0.000000 0.057440
O O16 0.608065 0.226837 0.967269
O O17 0.137223 0.777854 0.828300
O O18 0.000000 0.799060 0.873125
O O19 0.097467 0.000000 0.918316
O O20 0.680593 0.500000 0.741505
O O21 0.750000 0.250000 0.736101
#
# Coordination Sequence:
#
# PCOD8173856 Si02
#       7
#     8   8   8   8   8   8   8
#     4  10  22  40  61  86 116 150 190 236 286 340
#     4  11  23  39  59  84 116 152 190 235 287 340
#     4  11  23  39  60  87 119 154 191 233 284 338
#     4  10  22  40  62  88 116 149 191 236 284 339
#     4  10  21  37  59  87 116 149 191 235 282 339
#     4   9  19  37  59  82 111 149 192 237 286 340
#     4  11  23  38  58  85 116 152 193 236 285 339
#
# _framework density 19.493601000000002
#
# number of rings (size 3 to 8) (size 9 to 14) (size 15 to 20)
#    0.000    1.714    0.000    3.857    0.000    9.429 
#    0.000    2.857    0.000    0.000    0.000    0.000 
#    0.000    0.000    0.000    0.000    0.000    0.000 
#
# Total GULP energy -347376.571108 kJ/mol
# GULP energy per Si atom -12406.306111 kJ/mol
# Density = 1.944923 g / cm^3
# Si number density = 19.493601 Si / 1000 Ang^3
#
#
#
# Elastic Constant Matrix: (Units=GPa)
#
#
# Indices 1 2 3 4 5 6 
#
# 1 122.2539 49.4632 60.7107 0.0000 0.0000 0.0000
# 2 49.4632 84.4938 58.8229 0.0000 0.0000 0.0000
# 3 60.7107 58.8229 115.8166 0.0000 0.0000 0.0000
# 4 0.0000 0.0000 0.0000 36.3001 0.0000 0.0000
# 5 0.0000 0.0000 0.0000 0.0000 86.5933 0.0000
# 6 0.0000 0.0000 0.0000 0.0000 0.0000 23.7267
#
#
#
# Elastic Compliance Matrix: (Units=1/GPa)
#
#
# Indices 1 2 3 4 5 6 
#
# 1 0.011894 -0.004057 -0.004174 0.000000 0.000000 0.000000
# 2 -0.004057 0.019693 -0.007875 0.000000 0.000000 0.000000
# 3 -0.004174 -0.007875 0.014822 0.000000 0.000000 0.000000
# 4 0.000000 0.000000 0.000000 0.027548 0.000000 0.000000
# 5 0.000000 0.000000 0.000000 0.000000 0.011548 0.000000
# 6 0.000000 0.000000 0.000000 0.000000 0.000000 0.042147
#
#
# Mechanical properties :
#
#
# Convention : Reuss Voigt Hill
#
# Bulk Modulus (GPa) = 70.44141 73.39532 71.91836
# Shear Modulus (GPa) = 30.37722 39.56184 34.96953
#
# Velocity S-wave (km/s) = 3.95184 4.50986 4.24004
# Velocity P-wave (km/s) = 7.55227 8.05302 7.80666
#
# Compressibility (1/GPa) = 0.01419620
#
# Stress axis : x y z
#
# Youngs Moduli (GPa) = 84.07591 50.78040 67.46538
#
# Poissons Ratio (x) = 0.20600 0.28163
# Poissons Ratio (y) = 0.34107 0.53131
# Poissons Ratio (z) = 0.35097 0.39991
#
# Static dielectric constant tensor:
#      x y z
#    x 3.661660 0.000000 0.000000 
#    y 0.000000 3.530880 0.000000 
#    z 0.000000 0.000000 3.625670 
# 
# 
# High freq. dielectric constant tensor:
#      x y z
#    x 1.770410 0.000000 0.000000 
#    y 0.000000 1.764450 0.000000 
#    z 0.000000 0.000000 1.771650 
# 
# From -- ./inp_files/17397.got.cif
#   From: 2010.03.12/outbox.cif.g09.slc.cpg/sg35_9_cif.got.tgz:17397.got - 2010.04.14 02:02:04.
