data_PCOD8173638
_publ_section_title
;
Structure prediction by ZEFSAII (Michael W. Deem and Ramdas Pophale) SiO2 
 PCOD8173638
Probable space group: C M M 2
;
_chemical_formula_sum "Si O2"
_cell_formula_units_Z 56
_cell_length_a 20.613649
_cell_length_b 8.824640
_cell_length_c 14.490486
_cell_angle_alpha 90.000000
_cell_angle_beta 90.000000
_cell_angle_gamma 90.000000
_cell_volume 2635.935784
_symmetry_space_group_name_H-M "C M M 2"
_symmetry_group_IT_number 35
_symmetry_cell_setting 'orthorhombic'
loop_
_space_group_symop_operation_xyz
x,y,z
-x,-y,z
-x,y,z
x,-y,z
1/2+x,1/2+y,z
1/2-x,1/2-y,z
1/2-x,1/2+y,z
1/2+x,1/2-y,z
loop_
_atom_site_type_symbol
_atom_site_label
_atom_site_fract_x
_atom_site_fract_y
_atom_site_fract_z
Si Si1 0.315974 0.174310 0.164150
Si Si2 0.574084 0.323398 0.280809
Si Si3 0.373073 0.828435 0.976021
Si Si4 0.685021 0.679152 0.597554
Si Si5 0.425649 0.177576 0.476615
Si Si6 0.500000 0.670476 0.768887
Si Si7 0.000000 0.834529 0.987198
Si Si8 0.366773 0.179673 0.770023
O O1 0.250000 0.250000 0.200773
O O2 0.377818 0.261782 0.203300
O O3 0.317897 0.000000 0.196027
O O4 0.316658 0.186761 0.052139
O O5 0.500000 0.295015 0.247861
O O6 0.587054 0.500000 0.298663
O O7 0.589020 0.233207 0.373872
O O8 0.435172 0.747057 0.020321
O O9 0.351444 0.765678 0.875455
O O10 0.394895 0.000000 0.959502
O O11 0.689078 0.500000 0.593040
O O12 0.750000 0.750000 0.551659
O O13 0.621051 0.735084 0.545837
O O14 0.683777 0.736185 0.703657
O O15 0.500000 0.214854 0.503943
O O16 0.411211 0.000000 0.482531
O O17 0.500000 0.500000 0.725749
O O18 0.500000 0.656771 0.877903
O O19 0.562247 0.765634 0.737281
O O20 0.000000 0.000000 0.033236
O O21 0.360756 0.000000 0.757196
#
# Coordination Sequence:
#
# PCOD8173638 Si02
#       8
#     8   8   8   8   8   4   4   8
#     4  11  24  41  61  89 125 166 212 258 311 370
#     4  10  22  42  68  98 129 160 200 251 310 370
#     4   9  20  37  57  83 119 164 209 257 310 367
#     4  12  26  43  63  91 128 167 212 259 312 373
#     4  10  22  43  71 100 128 160 202 250 309 373
#     4   9  17  31  51  81 114 151 200 253 307 359
#     4   9  17  29  51  81 112 147 196 253 305 357
#     4  10  20  37  59  85 121 164 211 260 314 368
#
# _framework density 21.244826
#
# number of rings (size 3 to 8) (size 9 to 14) (size 15 to 20)
#    0.000    1.857    0.000    3.429    2.000    6.286 
#    0.000    4.286    0.000    0.000    0.000    0.000 
#    0.000    0.000    0.000    0.000    0.000    0.000 
#
# Total GULP energy -347208.033663 kJ/mol
# GULP energy per Si atom -12400.286917 kJ/mol
# Density = 2.119647 g / cm^3
# Si number density = 21.244826 Si / 1000 Ang^3
#
#
#
# Elastic Constant Matrix: (Units=GPa)
#
#
# Indices 1 2 3 4 5 6 
#
# 1 106.7466 55.1234 48.1982 0.0000 0.0000 0.0000
# 2 55.1234 133.6666 37.9087 0.0000 0.0000 0.0000
# 3 48.1982 37.9087 78.9346 0.0000 0.0000 0.0000
# 4 0.0000 0.0000 0.0000 30.9399 0.0000 0.0000
# 5 0.0000 0.0000 0.0000 0.0000 22.8355 0.0000
# 6 0.0000 0.0000 0.0000 0.0000 0.0000 35.6100
#
#
#
# Elastic Compliance Matrix: (Units=1/GPa)
#
#
# Indices 1 2 3 4 5 6 
#
# 1 0.014607 -0.004045 -0.006976 0.000000 0.000000 0.000000
# 2 -0.004045 0.009781 -0.002227 0.000000 0.000000 0.000000
# 3 -0.006976 -0.002227 0.017998 0.000000 0.000000 0.000000
# 4 0.000000 0.000000 0.000000 0.032321 0.000000 0.000000
# 5 0.000000 0.000000 0.000000 0.000000 0.043792 0.000000
# 6 0.000000 0.000000 0.000000 0.000000 0.000000 0.028082
#
#
# Mechanical properties :
#
#
# Convention : Reuss Voigt Hill
#
# Bulk Modulus (GPa) = 62.93917 66.86761 64.90339
# Shear Modulus (GPa) = 28.03086 29.75158 28.89122
#
# Velocity S-wave (km/s) = 3.63632 3.74627 3.69171
# Velocity P-wave (km/s) = 6.87898 7.08914 6.98485
#
# Compressibility (1/GPa) = 0.01588836
#
# Stress axis : x y z
#
# Youngs Moduli (GPa) = 68.46081 102.23634 55.56088
#
# Poissons Ratio (x) = 0.41357 0.38761
# Poissons Ratio (y) = 0.27694 0.12376
# Poissons Ratio (z) = 0.47761 0.22772
#
# Static dielectric constant tensor:
#      x y z
#    x 3.786210 0.000000 0.000000 
#    y 0.000000 3.931620 0.000000 
#    z 0.000000 0.000000 3.754190 
# 
# 
# High freq. dielectric constant tensor:
#      x y z
#    x 1.828780 0.000000 0.000000 
#    y 0.000000 1.842250 0.000000 
#    z 0.000000 0.000000 1.827290 
# 
# From -- ./inp_files/17473.got.cif
#   From: 2010.03.12/outbox.cif.g09.slc.cpg/sg35_9_cif.got.tgz:17473.got - 2010.04.14 02:02:04.
