data_PCOD8173462
_publ_section_title
;
Structure prediction by ZEFSAII (Michael W. Deem and Ramdas Pophale) SiO2 
 PCOD8173462
Probable space group: C M M 2
;
_chemical_formula_sum "Si O2"
_cell_formula_units_Z 40
_cell_length_a 9.093307
_cell_length_b 18.377948
_cell_length_c 12.522230
_cell_angle_alpha 90.000000
_cell_angle_beta 90.000000
_cell_angle_gamma 90.000000
_cell_volume 2092.669036
_symmetry_space_group_name_H-M "C M M 2"
_symmetry_group_IT_number 35
_symmetry_cell_setting 'orthorhombic'
loop_
_space_group_symop_operation_xyz
x,y,z
-x,-y,z
-x,y,z
x,-y,z
1/2+x,1/2+y,z
1/2-x,1/2-y,z
1/2-x,1/2+y,z
1/2+x,1/2-y,z
loop_
_atom_site_type_symbol
_atom_site_label
_atom_site_fract_x
_atom_site_fract_y
_atom_site_fract_z
Si Si1 0.173172 0.327247 0.812490
Si Si2 0.670709 0.416223 0.993710
Si Si3 0.826459 0.175658 0.433120
Si Si4 0.169348 0.821595 0.191362
Si Si5 0.830153 0.584008 0.602607
O O1 0.250000 0.250000 0.805720
O O2 0.229041 0.371034 0.914257
O O3 0.216040 0.372032 0.707509
O O4 0.000000 0.315786 0.823674
O O5 0.500000 0.405005 0.963736
O O6 0.717117 0.500000 0.987835
O O7 0.702891 0.389140 0.114021
O O8 0.750000 0.250000 0.472154
O O9 0.780326 0.157928 0.311199
O O10 0.768815 0.109314 0.503885
O O11 0.000000 0.183954 0.447879
O O12 0.250000 0.750000 0.147942
O O13 0.000000 0.800658 0.191510
O O14 0.796662 0.500000 0.625476
O O15 0.000000 0.597092 0.573584
#
# Coordination Sequence:
#
# PCOD8173462 Si02
#       5
#     8   8   8   8   8
#     4  11  23  39  59  82 109 142 182 226 272 323
#     4  10  21  37  57  82 113 146 180 222 272 324
#     4  10  20  35  57  83 111 145 185 226 268 319
#     4   9  19  35  55  80 110 144 182 225 270 317
#     4  10  22  39  57  80 112 145 178 223 276 325
#
# _framework density 19.114346999999999
#
# number of rings (size 3 to 8) (size 9 to 14) (size 15 to 20)
#    0.000    2.000    0.000    3.000    0.000    8.800 
#    0.000    2.000    0.000    0.000    0.000    0.000 
#    0.000    0.000    0.000    0.000    0.000    0.000 
#
# Total GULP energy -248090.773471 kJ/mol
# GULP energy per Si atom -12404.538674 kJ/mol
# Density = 1.907084 g / cm^3
# Si number density = 19.114347 Si / 1000 Ang^3
#
#
#
# Elastic Constant Matrix: (Units=GPa)
#
#
# Indices 1 2 3 4 5 6 
#
# 1 75.0037 60.2923 53.8023 0.0000 0.0000 0.0000
# 2 60.2923 152.6385 72.8735 0.0000 0.0000 0.0000
# 3 53.8023 72.8735 111.9760 0.0000 0.0000 0.0000
# 4 0.0000 0.0000 0.0000 31.0683 0.0000 0.0000
# 5 0.0000 0.0000 0.0000 0.0000 8.4499 0.0000
# 6 0.0000 0.0000 0.0000 0.0000 0.0000 23.4406
#
#
#
# Elastic Compliance Matrix: (Units=1/GPa)
#
#
# Indices 1 2 3 4 5 6 
#
# 1 0.023213 -0.005577 -0.007524 0.000000 0.000000 0.000000
# 2 -0.005577 0.010844 -0.004378 0.000000 0.000000 0.000000
# 3 -0.007524 -0.004378 0.015395 0.000000 0.000000 0.000000
# 4 0.000000 0.000000 0.000000 0.032187 0.000000 0.000000
# 5 0.000000 0.000000 0.000000 0.000000 0.118345 0.000000
# 6 0.000000 0.000000 0.000000 0.000000 0.000000 0.042661
#
#
# Mechanical properties :
#
#
# Convention : Reuss Voigt Hill
#
# Bulk Modulus (GPa) = 68.99163 79.28381 74.13772
# Shear Modulus (GPa) = 17.70326 22.76844 20.23585
#
# Velocity S-wave (km/s) = 3.04662 3.45508 3.25726
# Velocity P-wave (km/s) = 6.96766 7.58192 7.28127
#
# Compressibility (1/GPa) = 0.01449451
#
# Stress axis : x y z
#
# Youngs Moduli (GPa) = 43.07958 92.21288 64.95770
#
# Poissons Ratio (x) = 0.51427 0.48873
# Poissons Ratio (y) = 0.24026 0.28438
# Poissons Ratio (z) = 0.32412 0.40370
#
# Static dielectric constant tensor:
#      x y z
#    x 3.599320 0.000000 0.000000 
#    y 0.000000 3.556700 0.000000 
#    z 0.000000 0.000000 3.654980 
# 
# 
# High freq. dielectric constant tensor:
#      x y z
#    x 1.744540 0.000000 0.000000 
#    y 0.000000 1.746600 0.000000 
#    z 0.000000 0.000000 1.753760 
# 
# From -- ./inp_files/10997.got.cif
#   From: 2010.03.12/outbox.cif.g09.slc.cpg/sg35_6_cif.got.tgz:10997.got - 2010.04.14 02:02:04.
