data_PCOD8173420
_publ_section_title
;
Structure prediction by ZEFSAII (Michael W. Deem and Ramdas Pophale) SiO2 
 PCOD8173420
Probable space group: C M M 2
;
_chemical_formula_sum "Si O2"
_cell_formula_units_Z 56
_cell_length_a 8.780243
_cell_length_b 19.331638
_cell_length_c 17.567648
_cell_angle_alpha 90.000000
_cell_angle_beta 90.000000
_cell_angle_gamma 90.000000
_cell_volume 2981.870720
_symmetry_space_group_name_H-M "C M M 2"
_symmetry_group_IT_number 35
_symmetry_cell_setting 'orthorhombic'
loop_
_space_group_symop_operation_xyz
x,y,z
-x,-y,z
-x,y,z
x,-y,z
1/2+x,1/2+y,z
1/2-x,1/2-y,z
1/2-x,1/2+y,z
1/2+x,1/2-y,z
loop_
_atom_site_type_symbol
_atom_site_label
_atom_site_fract_x
_atom_site_fract_y
_atom_site_fract_z
Si Si1 0.824501 0.918789 0.873550
Si Si2 0.678034 0.420473 0.294283
Si Si3 0.820303 0.822433 0.156554
Si Si4 0.179271 0.679150 0.585811
Si Si5 0.679946 0.177203 0.995580
Si Si6 0.820475 0.677920 0.413875
Si Si7 0.676723 0.079671 0.717550
O O1 0.721011 0.881245 0.935250
O O2 0.773300 0.894592 0.789759
O O3 0.000000 0.898776 0.885729
O O4 0.795931 0.000000 0.883426
O O5 0.500000 0.413930 0.311063
O O6 0.729351 0.500000 0.286680
O O7 0.721743 0.381885 0.216399
O O8 0.766494 0.386368 0.364047
O O9 0.750000 0.750000 0.185176
O O10 0.000000 0.813173 0.146441
O O11 0.748137 0.845165 0.076688
O O12 0.250000 0.750000 0.616118
O O13 0.235180 0.662812 0.500112
O O14 0.234485 0.619235 0.642538
O O15 0.000000 0.686833 0.587035
O O16 0.500000 0.184848 0.002615
O O17 0.750000 0.250000 0.968608
O O18 0.750000 0.750000 0.383826
O O19 0.000000 0.684968 0.408036
O O20 0.500000 0.094305 0.734940
O O21 0.707839 0.000000 0.700340
#
# Coordination Sequence:
#
# PCOD8173420 Si02
#       7
#     8   8   8   8   8   8   8
#     4  10  21  37  56  79 109 144 181 220 265 318
#     4  10  22  38  55  79 111 144 178 219 267 316
#     4  10  20  36  57  79 106 141 179 219 266 318
#     4   9  19  34  53  78 106 137 174 219 268 316
#     4  11  22  37  58  83 110 140 178 221 266 316
#     4  10  20  35  56  80 107 142 182 222 267 319
#     4   9  18  34  54  75 103 140 180 220 264 315
#
# _framework density 18.780156999999999
#
# number of rings (size 3 to 8) (size 9 to 14) (size 15 to 20)
#    0.000    2.143    0.000    3.857    0.000    6.286 
#    0.000    4.286    0.000    1.714    0.000    0.000 
#    0.000    0.000    0.000    0.000    0.000    0.000 
#
# Total GULP energy -347294.468091 kJ/mol
# GULP energy per Si atom -12403.373860 kJ/mol
# Density = 1.873741 g / cm^3
# Si number density = 18.780157 Si / 1000 Ang^3
#
#
#
# Elastic Constant Matrix: (Units=GPa)
#
#
# Indices 1 2 3 4 5 6 
#
# 1 77.7457 46.4576 50.9547 0.0000 0.0000 0.0000
# 2 46.4576 117.6353 81.7799 0.0000 0.0000 0.0000
# 3 50.9547 81.7799 121.2955 0.0000 0.0000 0.0000
# 4 0.0000 0.0000 0.0000 36.1039 0.0000 0.0000
# 5 0.0000 0.0000 0.0000 0.0000 30.5790 0.0000
# 6 0.0000 0.0000 0.0000 0.0000 0.0000 31.2449
#
#
#
# Elastic Compliance Matrix: (Units=1/GPa)
#
#
# Indices 1 2 3 4 5 6 
#
# 1 0.018520 -0.003586 -0.005362 0.000000 0.000000 0.000000
# 2 -0.003586 0.016695 -0.009750 0.000000 0.000000 0.000000
# 3 -0.005362 -0.009750 0.017070 0.000000 0.000000 0.000000
# 4 0.000000 0.000000 0.000000 0.027698 0.000000 0.000000
# 5 0.000000 0.000000 0.000000 0.000000 0.032702 0.000000
# 6 0.000000 0.000000 0.000000 0.000000 0.000000 0.032005
#
#
# Mechanical properties :
#
#
# Convention : Reuss Voigt Hill
#
# Bulk Modulus (GPa) = 67.16248 75.00676 71.08462
# Shear Modulus (GPa) = 26.73098 28.75121 27.74110
#
# Velocity S-wave (km/s) = 3.77684 3.91696 3.84754
# Velocity P-wave (km/s) = 7.40672 7.77707 7.59415
#
# Compressibility (1/GPa) = 0.01488926
#
# Stress axis : x y z
#
# Youngs Moduli (GPa) = 53.99656 59.89772 58.58179
#
# Poissons Ratio (x) = 0.21482 0.31411
# Poissons Ratio (y) = 0.19365 0.57115
# Poissons Ratio (z) = 0.28952 0.58398
#
# Static dielectric constant tensor:
#      x y z
#    x 3.453030 0.000000 0.000000 
#    y 0.000000 3.415530 0.000000 
#    z 0.000000 0.000000 3.597690 
# 
# 
# High freq. dielectric constant tensor:
#      x y z
#    x 1.734090 0.000000 0.000000 
#    y 0.000000 1.725890 0.000000 
#    z 0.000000 0.000000 1.737490 
# 
# From -- ./inp_files/15618.got.cif
#   From: 2010.03.12/outbox.cif.g09.slc.cpg/sg35_8_cif.got.tgz:15618.got - 2010.04.14 02:02:04.
