data_PCOD8173008
_publ_section_title
;
Structure prediction by ZEFSAII (Michael W. Deem and Ramdas Pophale) SiO2 
 PCOD8173008
Probable space group: C M M 2
;
_chemical_formula_sum "Si O2"
_cell_formula_units_Z 56
_cell_length_a 9.069793
_cell_length_b 19.174292
_cell_length_c 18.149577
_cell_angle_alpha 90.000000
_cell_angle_beta 90.000000
_cell_angle_gamma 90.000000
_cell_volume 3156.335935
_symmetry_space_group_name_H-M "C M M 2"
_symmetry_group_IT_number 35
_symmetry_cell_setting 'orthorhombic'
loop_
_space_group_symop_operation_xyz
x,y,z
-x,-y,z
-x,y,z
x,-y,z
1/2+x,1/2+y,z
1/2-x,1/2-y,z
1/2-x,1/2+y,z
1/2+x,1/2-y,z
loop_
_atom_site_type_symbol
_atom_site_label
_atom_site_fract_x
_atom_site_fract_y
_atom_site_fract_z
Si Si1 0.336781 0.417215 0.759260
Si Si2 0.171466 0.675764 0.317257
Si Si3 0.671069 0.323983 0.181883
Si Si4 0.169333 0.582301 0.901542
Si Si5 0.328117 0.580703 0.595741
Si Si6 0.171491 0.824077 0.018502
Si Si7 0.828911 0.676393 0.480030
O O1 0.500000 0.388287 0.778405
O O2 0.343198 0.500000 0.756900
O O3 0.223071 0.391077 0.821285
O O4 0.288101 0.391560 0.677980
O O5 0.250000 0.750000 0.319968
O O6 0.249885 0.633050 0.249376
O O7 0.195576 0.642640 0.398281
O O8 0.000000 0.683804 0.298881
O O9 0.500000 0.315616 0.200928
O O10 0.750000 0.250000 0.178449
O O11 0.693469 0.356791 0.100704
O O12 0.194016 0.500000 0.909602
O O13 0.263638 0.619050 0.963991
O O14 0.000000 0.603475 0.910374
O O15 0.500000 0.592954 0.579556
O O16 0.286503 0.500000 0.587672
O O17 0.230820 0.621913 0.538148
O O18 0.250000 0.750000 0.008107
O O19 0.000000 0.812326 0.001564
O O20 0.750000 0.750000 0.489439
O O21 0.000000 0.689859 0.494667
#
# Coordination Sequence:
#
# PCOD8173008 Si02
#       7
#     8   8   8   8   8   8   8
#     4   8  15  30  51  72  94 123 160 199 238 283
#     4   9  16  26  42  65  92 123 158 195 235 278
#     4   9  16  26  43  67  92 121 157 195 235 279
#     4  10  20  33  51  75 100 127 161 199 239 285
#     4   9  18  33  53  75  98 126 160 198 241 288
#     4  10  20  33  50  73 101 130 160 198 243 288
#     4  10  20  32  48  72 101 131 162 199 242 286
#
# _framework density 17.742090999999999
#
# number of rings (size 3 to 8) (size 9 to 14) (size 15 to 20)
#    0.000    2.714    0.000    3.857    0.000    5.143 
#    0.000    2.143    0.000    4.286    0.000    0.000 
#    0.000    0.000    0.000    0.000    0.000    0.000 
#
# Total GULP energy -346934.647228 kJ/mol
# GULP energy per Si atom -12390.523115 kJ/mol
# Density = 1.770171 g / cm^3
# Si number density = 17.742091 Si / 1000 Ang^3
#
#
#
# Elastic Constant Matrix: (Units=GPa)
#
#
# Indices 1 2 3 4 5 6 
#
# 1 137.1989 37.4304 90.7696 0.0000 0.0000 0.0000
# 2 37.4304 34.7167 42.0232 0.0000 0.0000 0.0000
# 3 90.7696 42.0232 165.8701 0.0000 0.0000 0.0000
# 4 0.0000 0.0000 0.0000 46.4472 0.0000 0.0000
# 5 0.0000 0.0000 0.0000 0.0000 36.6887 0.0000
# 6 0.0000 0.0000 0.0000 0.0000 0.0000 24.0855
#
#
#
# Elastic Compliance Matrix: (Units=1/GPa)
#
#
# Indices 1 2 3 4 5 6 
#
# 1 0.012679 -0.007603 -0.005012 0.000000 0.000000 0.000000
# 2 -0.007603 0.046104 -0.007520 0.000000 0.000000 0.000000
# 3 -0.005012 -0.007520 0.010677 0.000000 0.000000 0.000000
# 4 0.000000 0.000000 0.000000 0.021530 0.000000 0.000000
# 5 0.000000 0.000000 0.000000 0.000000 0.027256 0.000000
# 6 0.000000 0.000000 0.000000 0.000000 0.000000 0.041519
#
#
# Mechanical properties :
#
#
# Convention : Reuss Voigt Hill
#
# Bulk Modulus (GPa) = 34.25828 75.35911 54.80869
# Shear Modulus (GPa) = 23.83619 32.61512 28.22566
#
# Velocity S-wave (km/s) = 3.66933 4.29218 3.99292
# Velocity P-wave (km/s) = 6.10761 8.19333 7.22612
#
# Compressibility (1/GPa) = 0.02919003
#
# Stress axis : x y z
#
# Youngs Moduli (GPa) = 78.87138 21.68989 93.66129
#
# Poissons Ratio (x) = 0.16491 0.46944
# Poissons Ratio (y) = 0.59966 0.70433
# Poissons Ratio (z) = 0.39531 0.16311
#
# Static dielectric constant tensor:
#      x y z
#    x 3.440710 0.000000 0.000000 
#    y 0.000000 2.710580 0.000000 
#    z 0.000000 0.000000 4.277430 
# 
# 
# High freq. dielectric constant tensor:
#      x y z
#    x 1.700800 0.000000 0.000000 
#    y 0.000000 1.621550 0.000000 
#    z 0.000000 0.000000 1.713430 
# 
# From -- ./inp_files/18267.got.cif
#   From: 2010.03.12/outbox.cif.g09.slc.cpg/sg35_10_cif.got.tgz:18267.got - 2010.04.14 02:02:04.
