data_PCOD8173164
_publ_section_title
;
Structure prediction by ZEFSAII (Michael W. Deem and Ramdas Pophale) SiO2 
 PCOD8173164
Probable space group: C M M 2
;
_chemical_formula_sum "Si O2"
_cell_formula_units_Z 40
_cell_length_a 15.743648
_cell_length_b 8.985525
_cell_length_c 14.248531
_cell_angle_alpha 90.000000
_cell_angle_beta 90.000000
_cell_angle_gamma 90.000000
_cell_volume 2015.667621
_symmetry_space_group_name_H-M "C M M 2"
_symmetry_group_IT_number 35
_symmetry_cell_setting 'orthorhombic'
loop_
_space_group_symop_operation_xyz
x,y,z
-x,-y,z
-x,y,z
x,-y,z
1/2+x,1/2+y,z
1/2-x,1/2-y,z
1/2-x,1/2+y,z
1/2+x,1/2-y,z
loop_
_atom_site_type_symbol
_atom_site_label
_atom_site_fract_x
_atom_site_fract_y
_atom_site_fract_z
Si Si1 0.000000 0.323392 0.377540
Si Si2 0.905340 0.834571 0.085930
Si Si3 0.662495 0.323102 0.282342
Si Si4 0.163744 0.673463 0.920024
Si Si5 0.000000 0.325392 0.595387
Si Si6 0.838391 0.675765 0.707445
O O1 0.915330 0.251579 0.336311
O O2 0.000000 0.500000 0.358755
O O3 0.000000 0.284345 0.487168
O O4 0.844813 0.786004 0.171503
O O5 0.000000 0.831321 0.127964
O O6 0.881043 0.000000 0.051231
O O7 0.904518 0.725737 0.996400
O O8 0.662304 0.500000 0.300851
O O9 0.750000 0.250000 0.319190
O O10 0.175963 0.500000 0.927142
O O11 0.250000 0.750000 0.952018
O O12 0.138050 0.719943 0.814575
O O13 0.085377 0.260064 0.643510
O O14 0.000000 0.500000 0.614348
O O15 0.827054 0.500000 0.696004
O O16 0.750000 0.750000 0.675954
#
# Coordination Sequence:
#
# PCOD8173164 Si02
#       6
#     4   8   8   8   4   8
#     4  11  23  41  64  91 118 152 197 247 302 357
#     4  10  21  37  56  82 118 155 191 238 288 338
#     4  11  23  42  64  88 120 158 197 243 297 353
#     4  10  20  33  54  82 114 153 194 234 279 336
#     4   9  20  39  62  85 114 150 189 239 294 349
#     4   9  19  37  59  83 117 153 191 236 284 340
#
# _framework density 19.844543999999999
#
# number of rings (size 3 to 8) (size 9 to 14) (size 15 to 20)
#    0.000    2.000    1.000    2.100    1.400    5.200 
#    0.000    4.500    0.000    0.000    0.000    0.000 
#    0.000    0.000    0.000    0.000    0.000    0.000 
#
# Total GULP energy -247982.556138 kJ/mol
# GULP energy per Si atom -12399.127807 kJ/mol
# Density = 1.979938 g / cm^3
# Si number density = 19.844544 Si / 1000 Ang^3
#
#
#
# Elastic Constant Matrix: (Units=GPa)
#
#
# Indices 1 2 3 4 5 6 
#
# 1 157.1059 54.8391 74.5562 0.0000 0.0000 0.0000
# 2 54.8391 77.1963 55.3583 0.0000 0.0000 0.0000
# 3 74.5562 55.3583 114.5372 0.0000 0.0000 0.0000
# 4 0.0000 0.0000 0.0000 24.9248 0.0000 0.0000
# 5 0.0000 0.0000 0.0000 0.0000 96.2817 0.0000
# 6 0.0000 0.0000 0.0000 0.0000 0.0000 35.2386
#
#
#
# Elastic Compliance Matrix: (Units=1/GPa)
#
#
# Indices 1 2 3 4 5 6 
#
# 1 0.009846 -0.003671 -0.004635 0.000000 0.000000 0.000000
# 2 -0.003671 0.021194 -0.007854 0.000000 0.000000 0.000000
# 3 -0.004635 -0.007854 0.015544 0.000000 0.000000 0.000000
# 4 0.000000 0.000000 0.000000 0.040121 0.000000 0.000000
# 5 0.000000 0.000000 0.000000 0.000000 0.010386 0.000000
# 6 0.000000 0.000000 0.000000 0.000000 0.000000 0.028378
#
#
# Mechanical properties :
#
#
# Convention : Reuss Voigt Hill
#
# Bulk Modulus (GPa) = 70.10521 79.81630 74.96075
# Shear Modulus (GPa) = 30.76116 42.22808 36.49462
#
# Velocity S-wave (km/s) = 3.94141 4.61797 4.29304
# Velocity P-wave (km/s) = 7.49112 8.29110 7.90124
#
# Compressibility (1/GPa) = 0.01426428
#
# Stress axis : x y z
#
# Youngs Moduli (GPa) = 101.56427 47.18359 64.33385
#
# Poissons Ratio (x) = 0.17319 0.29819
# Poissons Ratio (y) = 0.37281 0.50528
# Poissons Ratio (z) = 0.47075 0.37058
#
# Static dielectric constant tensor:
#      x y z
#    x 3.453510 0.000000 0.000000 
#    y 0.000000 3.542530 0.000000 
#    z 0.000000 0.000000 3.592690 
# 
# 
# High freq. dielectric constant tensor:
#      x y z
#    x 1.782360 0.000000 0.000000 
#    y 0.000000 1.765220 0.000000 
#    z 0.000000 0.000000 1.770890 
# 
# From -- ./inp_files/14725.got.cif
#   From: 2010.03.12/outbox.cif.g09.slc.cpg/sg35_8_cif.got.tgz:14725.got - 2010.04.14 02:02:04.
