data_PCOD8173755
_publ_section_title
;
Structure prediction by ZEFSAII (Michael W. Deem and Ramdas Pophale) SiO2 
 PCOD8173755
Probable space group: C M M 2
;
_chemical_formula_sum "Si O2"
_cell_formula_units_Z 52
_cell_length_a 7.560537
_cell_length_b 27.198877
_cell_length_c 14.786160
_cell_angle_alpha 90.000000
_cell_angle_beta 90.000000
_cell_angle_gamma 90.000000
_cell_volume 3040.598084
_symmetry_space_group_name_H-M "C M M 2"
_symmetry_group_IT_number 35
_symmetry_cell_setting 'orthorhombic'
loop_
_space_group_symop_operation_xyz
x,y,z
-x,-y,z
-x,y,z
x,-y,z
1/2+x,1/2+y,z
1/2-x,1/2-y,z
1/2-x,1/2+y,z
1/2+x,1/2-y,z
loop_
_atom_site_type_symbol
_atom_site_label
_atom_site_fract_x
_atom_site_fract_y
_atom_site_fract_z
Si Si1 0.703260 0.597847 0.561800
Si Si2 0.790692 0.945759 0.747138
Si Si3 0.802960 0.195626 0.279942
Si Si4 0.000000 0.379367 0.252773
Si Si5 0.697004 0.441352 0.943681
Si Si6 0.293516 0.197440 0.483256
Si Si7 0.500000 0.941550 0.075565
Si Si8 0.500000 0.057106 0.434313
O O1 0.500000 0.580613 0.548379
O O2 0.772253 0.587674 0.663514
O O3 0.719265 0.656159 0.549662
O O4 0.823069 0.568420 0.490725
O O5 0.732518 0.923368 0.844626
O O6 0.000000 0.949907 0.749235
O O7 0.708105 0.000000 0.732623
O O8 0.750000 0.250000 0.245696
O O9 0.672030 0.154598 0.241389
O O10 0.806302 0.194388 0.388315
O O11 0.000000 0.183303 0.245187
O O12 0.000000 0.408208 0.347034
O O13 0.000000 0.419415 0.174643
O O14 0.500000 0.420939 0.964636
O O15 0.693195 0.500000 0.940319
O O16 0.827724 0.422508 0.021544
O O17 0.500000 0.189342 0.465109
O O18 0.250000 0.250000 0.528976
O O19 0.500000 0.000000 0.085005
O O20 0.500000 0.000000 0.405903
#
# Coordination Sequence:
#
# PCOD8173755 Si02
#       8
#     8   8   8   4   8   8   4   4
#     4  11  20  34  51  76 108 145 181 217 259 313
#     4   8  15  28  49  75 104 135 171 217 262 306
#     4  11  19  34  57  78 102 132 169 225 274 305
#     4  12  23  38  50  80 108 138 181 220 268 314
#     4   8  15  31  52  74  99 130 172 222 268 307
#     4  11  19  33  52  77 105 137 177 226 267 303
#     4  10  21  35  54  75 105 142 177 218 263 316
#     4  12  25  37  48  69 109 156 189 212 249 310
#
# _framework density 17.101900000000001
#
# number of rings (size 3 to 8) (size 9 to 14) (size 15 to 20)
#    0.000    1.846    3.846    3.923    0.000    2.154 
#    0.000    1.538    0.000    2.769    0.000    1.077 
#    0.000    0.000    0.000    0.000    0.000    0.000 
#
# Total GULP energy -322319.173356 kJ/mol
# GULP energy per Si atom -12396.891283 kJ/mol
# Density = 1.706298 g / cm^3
# Si number density = 17.101900 Si / 1000 Ang^3
#
#
#
# Elastic Constant Matrix: (Units=GPa)
#
#
# Indices 1 2 3 4 5 6 
#
# 1 116.5495 26.0479 39.0500 0.0000 0.0000 0.0000
# 2 26.0479 73.8177 27.1833 0.0000 0.0000 0.0000
# 3 39.0500 27.1833 92.5507 0.0000 0.0000 0.0000
# 4 0.0000 0.0000 0.0000 12.4738 0.0000 0.0000
# 5 0.0000 0.0000 0.0000 0.0000 15.1545 0.0000
# 6 0.0000 0.0000 0.0000 0.0000 0.0000 19.1026
#
#
#
# Elastic Compliance Matrix: (Units=1/GPa)
#
#
# Indices 1 2 3 4 5 6 
#
# 1 0.010326 -0.002287 -0.003685 0.000000 0.000000 0.000000
# 2 -0.002287 0.015696 -0.003645 0.000000 0.000000 0.000000
# 3 -0.003685 -0.003645 0.013430 0.000000 0.000000 0.000000
# 4 0.000000 0.000000 0.000000 0.080168 0.000000 0.000000
# 5 0.000000 0.000000 0.000000 0.000000 0.065987 0.000000
# 6 0.000000 0.000000 0.000000 0.000000 0.000000 0.052349
#
#
# Mechanical properties :
#
#
# Convention : Reuss Voigt Hill
#
# Bulk Modulus (GPa) = 49.46049 51.94225 50.70137
# Shear Modulus (GPa) = 18.94444 22.05531 20.49987
#
# Velocity S-wave (km/s) = 3.33188 3.59505 3.46597
# Velocity P-wave (km/s) = 6.61708 6.90440 6.76226
#
# Compressibility (1/GPa) = 0.02021816
#
# Stress axis : x y z
#
# Youngs Moduli (GPa) = 96.84482 63.70989 74.45756
#
# Poissons Ratio (x) = 0.14568 0.27439
# Poissons Ratio (y) = 0.22144 0.27143
# Poissons Ratio (z) = 0.35689 0.23225
#
# Static dielectric constant tensor:
#      x y z
#    x 3.371180 0.000000 0.000000 
#    y 0.000000 3.159270 0.000000 
#    z 0.000000 0.000000 3.139410 
# 
# 
# High freq. dielectric constant tensor:
#      x y z
#    x 1.674110 0.000000 0.000000 
#    y 0.000000 1.635140 0.000000 
#    z 0.000000 0.000000 1.635760 
# 
# From -- ./inp_files/15988.got.cif
#   From: 2010.03.12/outbox.cif.g09.slc.cpg/sg35_8_cif.got.tgz:15988.got - 2010.04.14 02:02:04.
