data_PCOD8173337
_publ_section_title
;
Structure prediction by ZEFSAII (Michael W. Deem and Ramdas Pophale) SiO2 
 PCOD8173337
Probable space group: C M M 2
;
_chemical_formula_sum "Si O2"
_cell_formula_units_Z 64
_cell_length_a 16.853723
_cell_length_b 16.369411
_cell_length_c 11.995418
_cell_angle_alpha 90.000000
_cell_angle_beta 90.000000
_cell_angle_gamma 90.000000
_cell_volume 3309.362117
_symmetry_space_group_name_H-M "C M M 2"
_symmetry_group_IT_number 35
_symmetry_cell_setting 'orthorhombic'
loop_
_space_group_symop_operation_xyz
x,y,z
-x,-y,z
-x,y,z
x,-y,z
1/2+x,1/2+y,z
1/2-x,1/2-y,z
1/2-x,1/2+y,z
1/2+x,1/2-y,z
loop_
_atom_site_type_symbol
_atom_site_label
_atom_site_fract_x
_atom_site_fract_y
_atom_site_fract_z
Si Si1 0.591764 0.266771 0.804750
Si Si2 0.911799 0.902925 0.177220
Si Si3 0.845453 0.906844 0.944469
Si Si4 0.405497 0.096888 0.177220
Si Si5 0.091764 0.766771 0.549689
Si Si6 0.806751 0.675362 0.374909
Si Si7 0.193249 0.324638 0.979531
Si Si8 0.845453 0.093156 0.409970
O O1 0.500000 0.244716 0.816955
O O2 0.607665 0.357776 0.850095
O O3 0.619669 0.262855 0.677220
O O4 0.641960 0.201564 0.873576
O O5 0.868659 0.870927 0.287997
O O6 0.000000 0.866592 0.177223
O O7 0.911703 0.000000 0.177219
O O8 0.868661 0.870926 0.066442
O O9 0.750558 0.897049 0.936059
O O10 0.871230 0.000000 0.929858
O O11 0.500000 0.112299 0.177220
O O12 0.366229 0.140711 0.282831
O O13 0.386571 0.000000 0.177219
O O14 0.366229 0.140711 0.071608
O O15 0.141960 0.701564 0.480863
O O16 0.107665 0.857776 0.504343
O O17 0.000000 0.744716 0.537485
O O18 0.750000 0.750000 0.333077
O O19 0.749442 0.602951 0.418382
O O20 0.250000 0.250000 0.021362
O O21 0.871230 0.000000 0.424580
#
# Coordination Sequence:
#
# PCOD8173337 Si02
#       8
#     8   8   8   8   8   8   8   8
#     4  10  22  39  57  77 105 144 187 227 267 318
#     4   9  17  30  49  76 111 144 171 205 258 323
#     4  10  20  34  56  84 112 142 178 224 274 320
#     4  11  22  36  58  86 113 140 176 226 276 319
#     4  10  22  39  57  77 105 144 187 227 267 318
#     4  10  21  37  57  80 110 147 182 218 265 326
#     4  10  21  37  57  80 110 147 182 218 265 326
#     4  10  20  34  56  84 112 142 178 224 274 320
#
# _framework density 19.339075000000001
#
# number of rings (size 3 to 8) (size 9 to 14) (size 15 to 20)
#    0.000    2.000    0.000    3.375    0.000   10.500 
#    0.000    7.500    0.000    2.250    0.000    8.750 
#    0.000    0.000    0.000    0.000    0.000    0.000 
#
# Total GULP energy -396746.659357 kJ/mol
# GULP energy per Si atom -12398.333105 kJ/mol
# Density = 1.929506 g / cm^3
# Si number density = 19.339075 Si / 1000 Ang^3
#
#
#
# Elastic Constant Matrix: (Units=GPa)
#
#
# Indices 1 2 3 4 5 6 
#
# 1 122.9399 43.3978 76.8302 0.0000 0.0000 0.0000
# 2 43.3978 70.1548 63.7297 0.0000 0.0000 0.0000
# 3 76.8302 63.7297 167.2026 0.0000 0.0000 0.0000
# 4 0.0000 0.0000 0.0000 16.7590 0.0000 0.0000
# 5 0.0000 0.0000 0.0000 0.0000 21.9143 0.0000
# 6 0.0000 0.0000 0.0000 0.0000 0.0000 28.8865
#
#
#
# Elastic Compliance Matrix: (Units=1/GPa)
#
#
# Indices 1 2 3 4 5 6 
#
# 1 0.012006 -0.003695 -0.004109 0.000000 0.000000 0.000000
# 2 -0.003695 0.022940 -0.007046 0.000000 0.000000 0.000000
# 3 -0.004109 -0.007046 0.010554 0.000000 0.000000 0.000000
# 4 0.000000 0.000000 0.000000 0.059669 0.000000 0.000000
# 5 0.000000 0.000000 0.000000 0.000000 0.045632 0.000000
# 6 0.000000 0.000000 0.000000 0.000000 0.000000 0.034618
#
#
# Mechanical properties :
#
#
# Convention : Reuss Voigt Hill
#
# Bulk Modulus (GPa) = 63.28261 80.91251 72.09756
# Shear Modulus (GPa) = 22.68742 25.26794 23.97768
#
# Velocity S-wave (km/s) = 3.42883 3.61858 3.52498
# Velocity P-wave (km/s) = 6.96201 7.70639 7.34364
#
# Compressibility (1/GPa) = 0.01580213
#
# Stress axis : x y z
#
# Youngs Moduli (GPa) = 83.29290 43.59107 94.74804
#
# Poissons Ratio (x) = 0.16105 0.38928
# Poissons Ratio (y) = 0.30773 0.66761
# Poissons Ratio (z) = 0.34221 0.30715
#
# Static dielectric constant tensor:
#      x y z
#    x 3.734370 0.000000 0.000000 
#    y 0.000000 3.436190 0.000000 
#    z 0.000000 0.000000 3.520840 
# 
# 
# High freq. dielectric constant tensor:
#      x y z
#    x 1.770740 0.000000 0.000000 
#    y 0.000000 1.743170 0.000000 
#    z 0.000000 0.000000 1.747140 
# 
# From -- ./inp_files/13215.got.cif
#   From: 2010.03.12/outbox.cif.g09.slc.cpg/sg35_7_cif.got.tgz:13215.got - 2010.04.14 02:02:04.
