data_PCOD8173546
_publ_section_title
;
Structure prediction by ZEFSAII (Michael W. Deem and Ramdas Pophale) SiO2 
 PCOD8173546
Probable space group: C M M 2
;
_chemical_formula_sum "Si O2"
_cell_formula_units_Z 48
_cell_length_a 10.054303
_cell_length_b 28.504085
_cell_length_c 8.809614
_cell_angle_alpha 90.000000
_cell_angle_beta 90.000000
_cell_angle_gamma 90.000000
_cell_volume 2524.735888
_symmetry_space_group_name_H-M "C M M 2"
_symmetry_group_IT_number 35
_symmetry_cell_setting 'orthorhombic'
loop_
_space_group_symop_operation_xyz
x,y,z
-x,-y,z
-x,y,z
x,-y,z
1/2+x,1/2+y,z
1/2-x,1/2-y,z
1/2-x,1/2+y,z
1/2+x,1/2-y,z
loop_
_atom_site_type_symbol
_atom_site_label
_atom_site_fract_x
_atom_site_fract_y
_atom_site_fract_z
Si Si1 0.000000 0.307313 0.417241
Si Si2 0.849036 0.949590 0.464120
Si Si3 0.500000 0.309346 0.931312
Si Si4 0.500000 0.291316 0.284705
Si Si5 0.751682 0.352541 0.790665
Si Si6 0.500000 0.789476 0.767273
Si Si7 0.775642 0.851364 0.432910
Si Si8 0.347346 0.050742 0.744508
O O1 0.000000 0.264491 0.301390
O O2 0.125657 0.340312 0.386012
O O3 0.000000 0.285986 0.585783
O O4 0.815217 0.902974 0.365721
O O5 0.743711 0.950907 0.597843
O O6 0.000000 0.944582 0.526972
O O7 0.836706 0.000000 0.374867
O O8 0.628808 0.339924 0.895424
O O9 0.500000 0.262434 0.832627
O O10 0.500000 0.299812 0.107696
O O11 0.369217 0.312005 0.362644
O O12 0.869054 0.315997 0.824598
O O13 0.707913 0.351328 0.614824
O O14 0.800125 0.404617 0.842884
O O15 0.500000 0.059108 0.693539
O O16 0.334283 0.000000 0.830433
#
# Coordination Sequence:
#
# PCOD8173546 Si02
#       8
#     4   8   4   4   8   4   8   8
#     4  10  22  36  59  83 109 140 188 229 277 334
#     4   9  17  29  51  85 117 146 175 216 273 327
#     4  12  26  36  55  78 113 146 190 232 275 328
#     4  12  24  40  53  78 107 150 192 232 277 322
#     4  10  20  36  57  85 111 146 179 223 277 331
#     4  10  20  38  57  83 109 142 182 225 279 334
#     4  10  20  36  59  82 111 144 183 227 275 330
#     4   9  17  30  53  86 118 143 175 224 277 327
#
# _framework density 19.011890000000001
#
# number of rings (size 3 to 8) (size 9 to 14) (size 15 to 20)
#    0.000    2.000    1.667    2.500    7.000    5.333 
#    0.000    0.000    0.000    2.000    0.000    0.000 
#    0.000    0.000    0.000    0.000    0.000    0.000 
#
# Total GULP energy -297419.971821 kJ/mol
# GULP energy per Si atom -12392.498826 kJ/mol
# Density = 1.896862 g / cm^3
# Si number density = 19.011890 Si / 1000 Ang^3
#
#
#
# Elastic Constant Matrix: (Units=GPa)
#
#
# Indices 1 2 3 4 5 6 
#
# 1 158.5239 70.2580 38.4059 0.0000 0.0000 0.0000
# 2 70.2580 165.1925 27.9478 0.0000 0.0000 0.0000
# 3 38.4059 27.9478 44.5475 0.0000 0.0000 0.0000
# 4 0.0000 0.0000 0.0000 3.8966 0.0000 0.0000
# 5 0.0000 0.0000 0.0000 0.0000 -6.5172 0.0000
# 6 0.0000 0.0000 0.0000 0.0000 0.0000 35.9295
#
#
#
# Elastic Compliance Matrix: (Units=1/GPa)
#
#
# Indices 1 2 3 4 5 6 
#
# 1 0.009011 -0.002817 -0.006001 0.000000 0.000000 0.000000
# 2 -0.002817 0.007653 -0.002373 0.000000 0.000000 0.000000
# 3 -0.006001 -0.002373 0.029110 0.000000 0.000000 0.000000
# 4 0.000000 0.000000 0.000000 0.256634 0.000000 0.000000
# 5 0.000000 0.000000 0.000000 0.000000 -0.153440 0.000000
# 6 0.000000 0.000000 0.000000 0.000000 0.000000 0.027832
#
#
# Mechanical properties :
#
#
# Convention : Reuss Voigt Hill
#
# Bulk Modulus (GPa) = 42.74887 71.27637 57.01262
# Shear Modulus (GPa) = 24.15699 22.10525 23.13112
#
# Velocity S-wave (km/s) = 3.56845 3.41355 3.49186
# Velocity P-wave (km/s) = 6.28590 7.28754 6.80517
#
# Compressibility (1/GPa) = 0.02339243
#
# Stress axis : x y z
#
# Youngs Moduli (GPa) = 110.98062 130.66661 34.35222
#
# Poissons Ratio (x) = 0.36809 0.20615
# Poissons Ratio (y) = 0.31263 0.08151
# Poissons Ratio (z) = 0.66600 0.31003
#
# Static dielectric constant tensor:
#      x y z
#    x 3.751020 0.000000 0.000000 
#    y 0.000000 4.394330 0.000000 
#    z 0.000000 0.000000 2.868720 
# 
# 
# High freq. dielectric constant tensor:
#      x y z
#    x 1.765020 0.000000 0.000000 
#    y 0.000000 1.771320 0.000000 
#    z 0.000000 0.000000 1.661340 
# 
# From -- ./inp_files/5457.got.cif
#   From: 2010.03.12/outbox.cif.g09.slc.cpg/sg35_3_cif.got.tgz:5457.got - 2010.04.14 02:02:04.
