data_PCOD8173977
_publ_section_title
;
Structure prediction by ZEFSAII (Michael W. Deem and Ramdas Pophale) SiO2 
 PCOD8173977
Probable space group: C M M 2
;
_chemical_formula_sum "Si O2"
_cell_formula_units_Z 64
_cell_length_a 16.348315
_cell_length_b 18.751145
_cell_length_c 9.685965
_cell_angle_alpha 90.000000
_cell_angle_beta 90.000000
_cell_angle_gamma 90.000000
_cell_volume 2969.228939
_symmetry_space_group_name_H-M "C M M 2"
_symmetry_group_IT_number 35
_symmetry_cell_setting 'orthorhombic'
loop_
_space_group_symop_operation_xyz
x,y,z
-x,-y,z
-x,y,z
x,-y,z
1/2+x,1/2+y,z
1/2-x,1/2-y,z
1/2-x,1/2+y,z
1/2+x,1/2-y,z
loop_
_atom_site_type_symbol
_atom_site_label
_atom_site_fract_x
_atom_site_fract_y
_atom_site_fract_z
Si Si1 0.705292 0.676937 0.133500
Si Si2 0.850003 0.581413 0.083501
Si Si3 0.407490 0.323220 0.394025
Si Si4 0.591381 0.827934 0.824590
Si Si5 0.902816 0.079043 0.631207
Si Si6 0.091045 0.835115 0.889845
Si Si7 0.591726 0.081308 0.374619
Si Si8 0.833192 0.297234 0.542029
O O1 0.750000 0.750000 0.087344
O O2 0.769206 0.614025 0.152964
O O3 0.654309 0.692135 0.270886
O O4 0.645943 0.644691 0.018477
O O5 0.834856 0.500000 0.041172
O O6 0.914809 0.589056 0.207857
O O7 0.876344 0.621383 0.944973
O O8 0.500000 0.333082 0.338481
O O9 0.376523 0.391690 0.481125
O O10 0.406513 0.256009 0.498845
O O11 0.500000 0.852853 0.780596
O O12 0.588072 0.749208 0.883054
O O13 0.653232 0.828696 0.695121
O O14 0.868671 0.130002 0.752630
O O15 0.000000 0.079442 0.638004
O O16 0.866480 0.000000 0.650022
O O17 0.000000 0.866269 0.912948
O O18 0.500000 0.097906 0.431063
O O19 0.659940 0.134657 0.439558
O O20 0.617276 0.000000 0.412637
O O21 0.750000 0.250000 0.527897
#
# Coordination Sequence:
#
# PCOD8173977 Si02
#       8
#     8   8   8   8   8   8   8   8
#     4  12  24  40  62  92 130 173 215 274 327 390
#     4  11  25  43  65  96 134 175 217 270 339 398
#     4  11  22  39  63  95 129 171 224 271 323 391
#     4  11  23  41  67  95 127 171 222 273 323 391
#     4   9  19  38  63  90 122 159 204 260 317 375
#     4  10  21  40  65  94 123 166 220 269 322 386
#     4  10  22  44  71  97 131 178 230 279 330 395
#     4  12  25  40  65  99 137 173 212 278 342 400
#
# _framework density 21.554416
#
# number of rings (size 3 to 8) (size 9 to 14) (size 15 to 20)
#    0.000    1.250    2.500    3.750    1.750    2.250 
#    0.000    0.625    0.000    3.750    0.000    0.000 
#    0.000    0.000    0.000    0.000    0.000    0.000 
#
# Total GULP energy -396685.349362 kJ/mol
# GULP energy per Si atom -12396.417168 kJ/mol
# Density = 2.150536 g / cm^3
# Si number density = 21.554416 Si / 1000 Ang^3
#
#
#
# Elastic Constant Matrix: (Units=GPa)
#
#
# Indices 1 2 3 4 5 6 
#
# 1 92.6795 41.4636 43.9144 0.0000 0.0000 0.0000
# 2 41.4636 125.6853 33.1935 0.0000 0.0000 0.0000
# 3 43.9144 33.1935 96.5457 0.0000 0.0000 0.0000
# 4 0.0000 0.0000 0.0000 36.6314 0.0000 0.0000
# 5 0.0000 0.0000 0.0000 0.0000 10.1405 0.0000
# 6 0.0000 0.0000 0.0000 0.0000 0.0000 26.1390
#
#
#
# Elastic Compliance Matrix: (Units=1/GPa)
#
#
# Indices 1 2 3 4 5 6 
#
# 1 0.015010 -0.003463 -0.005637 0.000000 0.000000 0.000000
# 2 -0.003463 0.009550 -0.001708 0.000000 0.000000 0.000000
# 3 -0.005637 -0.001708 0.013509 0.000000 0.000000 0.000000
# 4 0.000000 0.000000 0.000000 0.027299 0.000000 0.000000
# 5 0.000000 0.000000 0.000000 0.000000 0.098615 0.000000
# 6 0.000000 0.000000 0.000000 0.000000 0.000000 0.038257
#
#
# Mechanical properties :
#
#
# Convention : Reuss Voigt Hill
#
# Bulk Modulus (GPa) = 60.77946 61.33929 61.05938
# Shear Modulus (GPa) = 21.80165 27.67145 24.73655
#
# Velocity S-wave (km/s) = 3.18381 3.58690 3.39135
# Velocity P-wave (km/s) = 6.46335 6.75826 6.61245
#
# Compressibility (1/GPa) = 0.01645293
#
# Stress axis : x y z
#
# Youngs Moduli (GPa) = 66.62173 104.71201 74.02482
#
# Poissons Ratio (x) = 0.36264 0.41726
# Poissons Ratio (y) = 0.23072 0.12645
# Poissons Ratio (z) = 0.37553 0.17886
#
# Static dielectric constant tensor:
#      x y z
#    x 3.898650 0.000000 0.000000 
#    y 0.000000 3.961930 0.000000 
#    z 0.000000 0.000000 3.840880 
# 
# 
# High freq. dielectric constant tensor:
#      x y z
#    x 1.839960 0.000000 0.000000 
#    y 0.000000 1.841490 0.000000 
#    z 0.000000 0.000000 1.849610 
# 
# From -- ./inp_files/8742.got.cif
#   From: 2010.03.12/outbox.cif.g09.slc.cpg/sg35_5_cif.got.tgz:8742.got - 2010.04.14 02:02:04.
