data_PCOD8173497
_publ_section_title
;
Structure prediction by ZEFSAII (Michael W. Deem and Ramdas Pophale) SiO2 
 PCOD8173497
Probable space group: C M M 2
;
_chemical_formula_sum "Si O2"
_cell_formula_units_Z 56
_cell_length_a 8.587946
_cell_length_b 21.601938
_cell_length_c 14.573085
_cell_angle_alpha 90.000000
_cell_angle_beta 90.000000
_cell_angle_gamma 90.000000
_cell_volume 2703.544474
_symmetry_space_group_name_H-M "C M M 2"
_symmetry_group_IT_number 35
_symmetry_cell_setting 'orthorhombic'
loop_
_space_group_symop_operation_xyz
x,y,z
-x,-y,z
-x,y,z
x,-y,z
1/2+x,1/2+y,z
1/2-x,1/2-y,z
1/2-x,1/2+y,z
1/2+x,1/2-y,z
loop_
_atom_site_type_symbol
_atom_site_label
_atom_site_fract_x
_atom_site_fract_y
_atom_site_fract_z
Si Si1 0.682550 0.366950 0.827780
Si Si2 0.318137 0.815117 0.002041
Si Si3 0.184645 0.118774 0.488787
Si Si4 0.685135 0.500000 0.598142
Si Si5 0.319287 0.929189 0.309683
Si Si6 0.816994 0.929787 0.113901
Si Si7 0.181196 0.000000 0.799805
Si Si8 0.815160 0.314727 0.651152
O O1 0.500000 0.351848 0.834179
O O2 0.721008 0.438213 0.857592
O O3 0.741401 0.363137 0.723023
O O4 0.774824 0.320933 0.894568
O O5 0.500000 0.811951 0.016353
O O6 0.250000 0.750000 0.040354
O O7 0.255216 0.876373 0.051433
O O8 0.258522 0.117494 0.387641
O O9 0.251451 0.175774 0.547727
O O10 0.000000 0.123483 0.480065
O O11 0.246006 0.059223 0.543399
O O12 0.500000 0.500000 0.599534
O O13 0.761858 0.500000 0.699330
O O14 0.500000 0.917072 0.290243
O O15 0.224435 0.913752 0.218305
O O16 0.287685 0.000000 0.340277
O O17 0.000000 0.927210 0.099545
O O18 0.756540 0.000000 0.089826
O O19 0.000000 0.000000 0.776773
O O20 0.750000 0.250000 0.686979
O O21 0.000000 0.317376 0.653538
#
# Coordination Sequence:
#
# PCOD8173497 Si02
#       8
#     8   8   8   4   8   8   4   8
#     4  11  22  40  64  91 123 163 206 252 306 370
#     4  12  26  45  67  94 126 165 211 262 317 378
#     4  11  20  35  59  87 120 161 203 246 295 358
#     4   9  16  30  54  85 116 153 194 234 287 345
#     4  10  20  35  58  92 129 162 200 250 304 360
#     4  10  22  42  68  97 128 166 209 256 316 382
#     4   9  18  34  58  89 122 159 200 246 303 363
#     4  12  25  41  58  82 116 161 209 258 308 362
#
# _framework density 20.713550000000001
#
# number of rings (size 3 to 8) (size 9 to 14) (size 15 to 20)
#    0.000    1.286    2.143    4.714    1.000    1.429 
#    0.000    2.500    0.000    0.000    0.000    0.000 
#    0.000    0.000    0.000    0.000    0.000    0.000 
#
# Total GULP energy -347174.142378 kJ/mol
# GULP energy per Si atom -12399.076513 kJ/mol
# Density = 2.066640 g / cm^3
# Si number density = 20.713550 Si / 1000 Ang^3
#
#
#
# Elastic Constant Matrix: (Units=GPa)
#
#
# Indices 1 2 3 4 5 6 
#
# 1 109.2954 43.1765 32.2418 0.0000 0.0000 0.0000
# 2 43.1765 109.0125 41.8605 0.0000 0.0000 0.0000
# 3 32.2418 41.8605 90.3866 0.0000 0.0000 0.0000
# 4 0.0000 0.0000 0.0000 31.5386 0.0000 0.0000
# 5 0.0000 0.0000 0.0000 0.0000 38.0683 0.0000
# 6 0.0000 0.0000 0.0000 0.0000 0.0000 29.0737
#
#
#
# Elastic Compliance Matrix: (Units=1/GPa)
#
#
# Indices 1 2 3 4 5 6 
#
# 1 0.011249 -0.003545 -0.002371 0.000000 0.000000 0.000000
# 2 -0.003545 0.012275 -0.004420 0.000000 0.000000 0.000000
# 3 -0.002371 -0.004420 0.013956 0.000000 0.000000 0.000000
# 4 0.000000 0.000000 0.000000 0.031707 0.000000 0.000000
# 5 0.000000 0.000000 0.000000 0.000000 0.026269 0.000000
# 6 0.000000 0.000000 0.000000 0.000000 0.000000 0.034395
#
#
# Mechanical properties :
#
#
# Convention : Reuss Voigt Hill
#
# Bulk Modulus (GPa) = 59.49516 60.36136 59.92826
# Shear Modulus (GPa) = 32.02523 32.49715 32.26119
#
# Velocity S-wave (km/s) = 3.93631 3.96521 3.95079
# Velocity P-wave (km/s) = 7.03169 7.08295 7.05736
#
# Compressibility (1/GPa) = 0.01680809
#
# Stress axis : x y z
#
# Youngs Moduli (GPa) = 88.89350 81.46828 71.65152
#
# Poissons Ratio (x) = 0.28881 0.16988
# Poissons Ratio (y) = 0.31514 0.31671
# Poissons Ratio (z) = 0.21076 0.36010
#
# Static dielectric constant tensor:
#      x y z
#    x 3.593890 0.000000 0.000000 
#    y 0.000000 3.893960 0.000000 
#    z 0.000000 0.000000 3.711680 
# 
# 
# High freq. dielectric constant tensor:
#      x y z
#    x 1.805200 0.000000 0.000000 
#    y 0.000000 1.808510 0.000000 
#    z 0.000000 0.000000 1.808520 
# 
# From -- ./inp_files/15772.got.cif
#   From: 2010.03.12/outbox.cif.g09.slc.cpg/sg35_8_cif.got.tgz:15772.got - 2010.04.14 02:02:04.
