data_PCOD8173758
_publ_section_title
;
Structure prediction by ZEFSAII (Michael W. Deem and Ramdas Pophale) SiO2 
 PCOD8173758
Probable space group: C M M 2
;
_chemical_formula_sum "Si O2"
_cell_formula_units_Z 48
_cell_length_a 18.359319
_cell_length_b 7.716646
_cell_length_c 16.960576
_cell_angle_alpha 90.000000
_cell_angle_beta 90.000000
_cell_angle_gamma 90.000000
_cell_volume 2402.844923
_symmetry_space_group_name_H-M "C M M 2"
_symmetry_group_IT_number 35
_symmetry_cell_setting 'orthorhombic'
loop_
_space_group_symop_operation_xyz
x,y,z
-x,-y,z
-x,y,z
x,-y,z
1/2+x,1/2+y,z
1/2-x,1/2-y,z
1/2-x,1/2+y,z
1/2+x,1/2-y,z
loop_
_atom_site_type_symbol
_atom_site_label
_atom_site_fract_x
_atom_site_fract_y
_atom_site_fract_z
Si Si1 0.166163 0.297274 0.849630
Si Si2 0.827910 0.195753 0.551662
Si Si3 0.667799 0.194635 0.380826
Si Si4 0.916722 0.704462 0.698475
Si Si5 0.586510 0.500000 0.297154
Si Si6 0.585728 0.199312 0.005392
Si Si7 0.913937 0.000000 0.119981
O O1 0.154117 0.500000 0.845863
O O2 0.250000 0.250000 0.852598
O O3 0.129106 0.216319 0.771546
O O4 0.126233 0.228909 0.927760
O O5 0.750000 0.250000 0.588707
O O6 0.846263 0.308859 0.474841
O O7 0.889409 0.213393 0.617374
O O8 0.823883 0.000000 0.521273
O O9 0.750000 0.250000 0.361759
O O10 0.612785 0.325567 0.339245
O O11 0.653584 0.000000 0.349048
O O12 0.906859 0.500000 0.692363
O O13 0.000000 0.758524 0.711041
O O14 0.500000 0.500000 0.298981
O O15 0.617977 0.500000 0.208072
O O16 0.500000 0.215213 0.989634
O O17 0.612110 0.324460 0.075981
O O18 0.606963 0.000000 0.025819
O O19 0.000000 0.000000 0.123686
#
# Coordination Sequence:
#
# PCOD8173758 Si02
#       7
#     8   8   8   8   4   8   4
#     4  10  21  35  55  80 113 153 192 247 295 348
#     4  11  21  37  59  86 117 156 203 252 296 358
#     4  11  21  41  69  92 125 171 212 254 316 382
#     4  10  21  37  55  80 116 156 200 246 298 352
#     4  11  24  42  64  99 134 160 207 267 314 378
#     4   9  18  36  61  85 112 152 200 242 293 360
#     4   9  20  38  62  89 121 156 191 243 305 362
#
# _framework density 19.976320000000001
#
# number of rings (size 3 to 8) (size 9 to 14) (size 15 to 20)
#    0.000    1.833    1.667    3.500    1.167    6.000 
#    0.000    2.500    0.000    0.000    0.000    0.000 
#    0.000    0.000    0.000    0.000    0.000    0.000 
#
# Total GULP energy -297631.634077 kJ/mol
# GULP energy per Si atom -12401.318087 kJ/mol
# Density = 1.993085 g / cm^3
# Si number density = 19.976320 Si / 1000 Ang^3
#
#
#
# Elastic Constant Matrix: (Units=GPa)
#
#
# Indices 1 2 3 4 5 6 
#
# 1 92.9402 34.3336 57.7542 0.0000 0.0000 0.0000
# 2 34.3336 114.3060 44.7605 0.0000 0.0000 0.0000
# 3 57.7542 44.7605 127.4307 0.0000 0.0000 0.0000
# 4 0.0000 0.0000 0.0000 24.0320 0.0000 0.0000
# 5 0.0000 0.0000 0.0000 0.0000 24.1011 0.0000
# 6 0.0000 0.0000 0.0000 0.0000 0.0000 24.0416
#
#
#
# Elastic Compliance Matrix: (Units=1/GPa)
#
#
# Indices 1 2 3 4 5 6 
#
# 1 0.015441 -0.002200 -0.006225 0.000000 0.000000 0.000000
# 2 -0.002200 0.010457 -0.002676 0.000000 0.000000 0.000000
# 3 -0.006225 -0.002676 0.011609 0.000000 0.000000 0.000000
# 4 0.000000 0.000000 0.000000 0.041611 0.000000 0.000000
# 5 0.000000 0.000000 0.000000 0.000000 0.041492 0.000000
# 6 0.000000 0.000000 0.000000 0.000000 0.000000 0.041595
#
#
# Mechanical properties :
#
#
# Convention : Reuss Voigt Hill
#
# Bulk Modulus (GPa) = 65.34258 67.59705 66.46982
# Shear Modulus (GPa) = 26.38403 27.62352 27.00378
#
# Velocity S-wave (km/s) = 3.63818 3.72265 3.68066
# Velocity P-wave (km/s) = 7.10137 7.23807 7.17004
#
# Compressibility (1/GPa) = 0.01530396
#
# Stress axis : x y z
#
# Youngs Moduli (GPa) = 64.76330 95.62815 86.14174
#
# Poissons Ratio (x) = 0.21040 0.53626
# Poissons Ratio (y) = 0.14249 0.23051
# Poissons Ratio (z) = 0.40317 0.25590
#
# Static dielectric constant tensor:
#      x y z
#    x 3.446240 0.000000 0.000000 
#    y 0.000000 3.795730 0.000000 
#    z 0.000000 0.000000 3.748280 
# 
# 
# High freq. dielectric constant tensor:
#      x y z
#    x 1.767370 0.000000 0.000000 
#    y 0.000000 1.786380 0.000000 
#    z 0.000000 0.000000 1.776940 
# 
# From -- ./inp_files/17131.got.cif
#   From: 2010.03.12/outbox.cif.g09.slc.cpg/sg35_9_cif.got.tgz:17131.got - 2010.04.14 02:02:04.
