data_PCOD8173781
_publ_section_title
;
Structure prediction by ZEFSAII (Michael W. Deem and Ramdas Pophale) SiO2 
 PCOD8173781
Probable space group: C M M 2
;
_chemical_formula_sum "Si O2"
_cell_formula_units_Z 64
_cell_length_a 29.803808
_cell_length_b 8.946243
_cell_length_c 12.264311
_cell_angle_alpha 90.000000
_cell_angle_beta 90.000000
_cell_angle_gamma 90.000000
_cell_volume 3270.059104
_symmetry_space_group_name_H-M "C M M 2"
_symmetry_group_IT_number 35
_symmetry_cell_setting 'orthorhombic'
loop_
_space_group_symop_operation_xyz
x,y,z
-x,-y,z
-x,y,z
x,-y,z
1/2+x,1/2+y,z
1/2-x,1/2-y,z
1/2-x,1/2+y,z
1/2+x,1/2-y,z
loop_
_atom_site_type_symbol
_atom_site_label
_atom_site_fract_x
_atom_site_fract_y
_atom_site_fract_z
Si Si1 0.630223 0.823708 0.450640
Si Si2 0.549810 0.822257 0.300149
Si Si3 0.202265 0.326593 0.851218
Si Si4 0.297840 0.174352 0.091988
Si Si5 0.946860 0.334923 0.061607
Si Si6 0.552138 0.326329 0.847535
Si Si7 0.200949 0.178009 0.302922
Si Si8 0.622487 0.824357 0.702048
O O1 0.584793 0.768153 0.391163
O O2 0.672051 0.731139 0.405377
O O3 0.626136 0.780570 0.576358
O O4 0.638278 0.000000 0.433191
O O5 0.500000 0.758668 0.328280
O O6 0.566203 0.766692 0.180078
O O7 0.547277 0.000000 0.295739
O O8 0.211258 0.500000 0.831126
O O9 0.250000 0.250000 0.833385
O O10 0.166441 0.262525 0.764881
O O11 0.180665 0.300963 0.972314
O O12 0.250000 0.250000 0.084302
O O13 0.323089 0.258770 0.191671
O O14 0.293762 0.000000 0.121387
O O15 0.925128 0.500000 0.046426
O O16 0.000000 0.348747 0.057276
O O17 0.929198 0.231102 0.964111
O O18 0.500000 0.286748 0.833393
O O19 0.561576 0.500000 0.842560
O O20 0.577662 0.249056 0.748421
O O21 0.250000 0.250000 0.314458
O O22 0.204291 0.000000 0.299931
O O23 0.618084 0.000000 0.719456
#
# Coordination Sequence:
#
# PCOD8173781 Si02
#       8
#     8   8   8   8   8   8   8   8
#     4  10  21  37  56  79 108 141 182 226 264 310
#     4   8  15  30  54  82 108 136 173 219 268 316
#     4   9  19  35  55  80 108 138 173 217 268 319
#     4   9  16  30  53  79 107 135 168 213 265 321
#     4   8  14  28  52  79 105 134 171 214 263 322
#     4  10  21  36  54  78 109 142 176 219 270 318
#     4  11  22  37  57  80 109 141 176 218 266 319
#     4  10  22  38  55  78 107 142 186 225 259 311
#
# _framework density 19.571511000000001
#
# number of rings (size 3 to 8) (size 9 to 14) (size 15 to 20)
#    0.000    2.625    0.000    3.375    0.000    4.250 
#    0.000    8.125    0.000    1.125    0.000    0.000 
#    0.000    0.000    0.000    0.000    0.000    0.000 
#
# Total GULP energy -396641.710556 kJ/mol
# GULP energy per Si atom -12395.053455 kJ/mol
# Density = 1.952697 g / cm^3
# Si number density = 19.571511 Si / 1000 Ang^3
#
#
#
# Elastic Constant Matrix: (Units=GPa)
#
#
# Indices 1 2 3 4 5 6 
#
# 1 88.3139 42.7727 75.1069 0.0000 0.0000 0.0000
# 2 42.7727 79.5932 63.8611 0.0000 0.0000 0.0000
# 3 75.1069 63.8611 180.0071 0.0000 0.0000 0.0000
# 4 0.0000 0.0000 0.0000 16.4496 0.0000 0.0000
# 5 0.0000 0.0000 0.0000 0.0000 35.3793 0.0000
# 6 0.0000 0.0000 0.0000 0.0000 0.0000 23.0156
#
#
#
# Elastic Compliance Matrix: (Units=1/GPa)
#
#
# Indices 1 2 3 4 5 6 
#
# 1 0.019081 -0.005405 -0.006044 0.000000 0.000000 0.000000
# 2 -0.005405 0.019094 -0.004519 0.000000 0.000000 0.000000
# 3 -0.006044 -0.004519 0.009680 0.000000 0.000000 0.000000
# 4 0.000000 0.000000 0.000000 0.060792 0.000000 0.000000
# 5 0.000000 0.000000 0.000000 0.000000 0.028265 0.000000
# 6 0.000000 0.000000 0.000000 0.000000 0.000000 0.043449
#
#
# Mechanical properties :
#
#
# Convention : Reuss Voigt Hill
#
# Bulk Modulus (GPa) = 62.81312 79.04395 70.92854
# Shear Modulus (GPa) = 22.97764 26.04714 24.51239
#
# Velocity S-wave (km/s) = 3.43014 3.65207 3.54284
# Velocity P-wave (km/s) = 6.91749 7.63272 7.28389
#
# Compressibility (1/GPa) = 0.01592024
#
# Stress axis : x y z
#
# Youngs Moduli (GPa) = 52.40821 52.37246 103.30172
#
# Poissons Ratio (x) = 0.28305 0.62436
# Poissons Ratio (y) = 0.28324 0.46682
# Poissons Ratio (z) = 0.31676 0.23667
#
# Static dielectric constant tensor:
#      x y z
#    x 3.455690 0.000000 0.000000 
#    y 0.000000 3.394660 0.000000 
#    z 0.000000 0.000000 4.027580 
# 
# 
# High freq. dielectric constant tensor:
#      x y z
#    x 1.751980 0.000000 0.000000 
#    y 0.000000 1.741410 0.000000 
#    z 0.000000 0.000000 1.770380 
# 
# From -- ./inp_files/14570.got.cif
#   From: 2010.03.12/outbox.cif.g09.slc.cpg/sg35_8_cif.got.tgz:14570.got - 2010.04.14 02:02:04.
