data_PCOD8173708
_publ_section_title
;
Structure prediction by ZEFSAII (Michael W. Deem and Ramdas Pophale) SiO2 
 PCOD8173708
Probable space group: C M M 2
;
_chemical_formula_sum "Si O2"
_cell_formula_units_Z 48
_cell_length_a 7.698112
_cell_length_b 18.455025
_cell_length_c 16.949315
_cell_angle_alpha 90.000000
_cell_angle_beta 90.000000
_cell_angle_gamma 90.000000
_cell_volume 2407.969680
_symmetry_space_group_name_H-M "C M M 2"
_symmetry_group_IT_number 35
_symmetry_cell_setting 'orthorhombic'
loop_
_space_group_symop_operation_xyz
x,y,z
-x,-y,z
-x,y,z
x,-y,z
1/2+x,1/2+y,z
1/2-x,1/2-y,z
1/2-x,1/2+y,z
1/2+x,1/2-y,z
loop_
_atom_site_type_symbol
_atom_site_label
_atom_site_fract_x
_atom_site_fract_y
_atom_site_fract_z
Si Si1 0.500000 0.086257 0.772590
Si Si2 0.706366 0.331807 0.863103
Si Si3 0.706106 0.582562 0.187666
Si Si4 0.202852 0.170241 0.040784
Si Si5 0.695325 0.167949 0.339838
Si Si6 0.692249 0.417141 0.485515
Si Si7 0.000000 0.414125 0.594491
O O1 0.678652 0.114081 0.811248
O O2 0.500000 0.116047 0.683001
O O3 0.500000 0.000000 0.777399
O O4 0.500000 0.347749 0.852245
O O5 0.750000 0.250000 0.837180
O O6 0.774478 0.343874 0.952838
O O7 0.500000 0.590788 0.193474
O O8 0.766694 0.500000 0.194414
O O9 0.777539 0.613183 0.104119
O O10 0.792211 0.627323 0.257215
O O11 0.250000 0.250000 0.071063
O O12 0.000000 0.161190 0.035678
O O13 0.500000 0.164198 0.371156
O O14 0.750000 0.250000 0.326429
O O15 0.811657 0.129430 0.405708
O O16 0.500000 0.412351 0.523279
O O17 0.739325 0.500000 0.463007
O O18 0.828428 0.385816 0.549002
O O19 0.000000 0.500000 0.597500
#
# Coordination Sequence:
#
# PCOD8173708 Si02
#       7
#     4   8   8   8   8   8   4
#     4  11  24  40  64  99 132 162 207 265 320 374
#     4  10  20  39  66  91 126 170 215 256 314 384
#     4  10  21  37  55  81 118 156 198 245 297 352
#     4   9  19  34  57  84 113 156 202 250 297 355
#     4  12  24  38  57  82 117 154 198 251 296 354
#     4  10  20  38  65  90 116 155 199 242 297 361
#     4   9  20  40  62  89 125 158 195 245 301 368
#
# _framework density 19.933807000000002
#
# number of rings (size 3 to 8) (size 9 to 14) (size 15 to 20)
#    0.000    1.833    1.667    2.500    1.167    6.000 
#    0.000    4.167    0.000    0.000    0.000    0.000 
#    0.000    0.000    0.000    0.000    0.000    0.000 
#
# Total GULP energy -297598.620077 kJ/mol
# GULP energy per Si atom -12399.942503 kJ/mol
# Density = 1.988844 g / cm^3
# Si number density = 19.933807 Si / 1000 Ang^3
#
#
#
# Elastic Constant Matrix: (Units=GPa)
#
#
# Indices 1 2 3 4 5 6 
#
# 1 106.8130 34.6068 45.4745 0.0000 0.0000 0.0000
# 2 34.6068 117.2218 62.1540 0.0000 0.0000 0.0000
# 3 45.4745 62.1540 131.8636 0.0000 0.0000 0.0000
# 4 0.0000 0.0000 0.0000 13.5615 0.0000 0.0000
# 5 0.0000 0.0000 0.0000 0.0000 19.9654 0.0000
# 6 0.0000 0.0000 0.0000 0.0000 0.0000 20.3420
#
#
#
# Elastic Compliance Matrix: (Units=1/GPa)
#
#
# Indices 1 2 3 4 5 6 
#
# 1 0.011216 -0.001680 -0.003076 0.000000 0.000000 0.000000
# 2 -0.001680 0.011625 -0.004900 0.000000 0.000000 0.000000
# 3 -0.003076 -0.004900 0.010954 0.000000 0.000000 0.000000
# 4 0.000000 0.000000 0.000000 0.073738 0.000000 0.000000
# 5 0.000000 0.000000 0.000000 0.000000 0.050087 0.000000
# 6 0.000000 0.000000 0.000000 0.000000 0.000000 0.049159
#
#
# Mechanical properties :
#
#
# Convention : Reuss Voigt Hill
#
# Bulk Modulus (GPa) = 69.04852 71.15211 70.10031
# Shear Modulus (GPa) = 21.65257 25.01798 23.33527
#
# Velocity S-wave (km/s) = 3.29937 3.54652 3.42517
# Velocity P-wave (km/s) = 7.01630 7.24859 7.13339
#
# Compressibility (1/GPa) = 0.01448257
#
# Stress axis : x y z
#
# Youngs Moduli (GPa) = 89.15728 86.02149 91.29101
#
# Poissons Ratio (x) = 0.14454 0.28081
# Poissons Ratio (y) = 0.14981 0.44732
# Poissons Ratio (z) = 0.27425 0.42150
#
# Static dielectric constant tensor:
#      x y z
#    x 3.698040 0.000000 0.000000 
#    y 0.000000 3.592070 0.000000 
#    z 0.000000 0.000000 3.781940 
# 
# 
# High freq. dielectric constant tensor:
#      x y z
#    x 1.786530 0.000000 0.000000 
#    y 0.000000 1.766490 0.000000 
#    z 0.000000 0.000000 1.774480 
# 
# From -- ./inp_files/15181.got.cif
#   From: 2010.03.12/outbox.cif.g09.slc.cpg/sg35_8_cif.got.tgz:15181.got - 2010.04.14 02:02:04.
