data_PCOD8173995
_publ_section_title
;
Structure prediction by ZEFSAII (Michael W. Deem and Ramdas Pophale) SiO2 
 PCOD8173995
Probable space group: C M M 2
;
_chemical_formula_sum "Si O2"
_cell_formula_units_Z 48
_cell_length_a 8.238666
_cell_length_b 30.539311
_cell_length_c 9.521796
_cell_angle_alpha 90.000000
_cell_angle_beta 90.000000
_cell_angle_gamma 90.000000
_cell_volume 2395.714183
_symmetry_space_group_name_H-M "C M M 2"
_symmetry_group_IT_number 35
_symmetry_cell_setting 'orthorhombic'
loop_
_space_group_symop_operation_xyz
x,y,z
-x,-y,z
-x,y,z
x,-y,z
1/2+x,1/2+y,z
1/2-x,1/2-y,z
1/2-x,1/2+y,z
1/2+x,1/2-y,z
loop_
_atom_site_type_symbol
_atom_site_label
_atom_site_fract_x
_atom_site_fract_y
_atom_site_fract_z
Si Si1 0.308837 0.901741 0.387450
Si Si2 0.678200 0.500000 0.064452
Si Si3 0.682750 0.000000 0.354899
Si Si4 0.191501 0.867486 0.673264
Si Si5 0.817028 0.574093 0.894397
Si Si6 0.690896 0.201949 0.899069
Si Si7 0.687354 0.638661 0.102260
O O1 0.500000 0.904840 0.360327
O O2 0.268770 0.871037 0.519112
O O3 0.227827 0.874655 0.260554
O O4 0.239357 0.952569 0.402277
O O5 0.500000 0.500000 0.134837
O O6 0.812647 0.500000 0.185607
O O7 0.695029 0.540511 0.962955
O O8 0.500000 0.000000 0.409895
O O9 0.243943 0.913345 0.744100
O O10 0.261546 0.827439 0.763242
O O11 0.000000 0.862903 0.661073
O O12 0.000000 0.555986 0.877661
O O13 0.813941 0.615216 0.997881
O O14 0.500000 0.200726 0.920329
O O15 0.750000 0.250000 0.860038
O O16 0.778827 0.188286 0.048135
O O17 0.500000 0.626554 0.072837
#
# Coordination Sequence:
#
# PCOD8173995 Si02
#       7
#     8   4   4   8   8   8   8
#     4  11  22  39  60  87 123 166 208 249 301 359
#     4  12  22  33  54  83 114 150 202 258 302 347
#     4  10  22  37  58  83 118 162 208 250 300 357
#     4  11  23  40  60  87 121 159 201 248 301 359
#     4  11  21  36  56  80 112 153 199 245 297 353
#     4  11  22  41  67  94 121 155 196 246 304 366
#     4  11  21  36  59  89 119 153 196 245 295 351
#
# _framework density 20.035777
#
# number of rings (size 3 to 8) (size 9 to 14) (size 15 to 20)
#    0.000    1.000    1.667    9.250    0.000    1.333 
#    0.000    3.333    0.000    0.000    0.000    0.000 
#    0.000    0.000    0.000    0.000    0.000    0.000 
#
# Total GULP energy -297353.826527 kJ/mol
# GULP energy per Si atom -12389.742772 kJ/mol
# Density = 1.999017 g / cm^3
# Si number density = 20.035777 Si / 1000 Ang^3
#
#
#
# Elastic Constant Matrix: (Units=GPa)
#
#
# Indices 1 2 3 4 5 6 
#
# 1 99.3066 26.9819 18.3554 0.0000 0.0000 0.0000
# 2 26.9819 105.5688 49.9257 0.0000 0.0000 0.0000
# 3 18.3554 49.9257 122.4644 0.0000 0.0000 0.0000
# 4 0.0000 0.0000 0.0000 22.4529 0.0000 0.0000
# 5 0.0000 0.0000 0.0000 0.0000 31.9806 0.0000
# 6 0.0000 0.0000 0.0000 0.0000 0.0000 25.6350
#
#
#
# Elastic Compliance Matrix: (Units=1/GPa)
#
#
# Indices 1 2 3 4 5 6 
#
# 1 0.010858 -0.002485 -0.000615 0.000000 0.000000 0.000000
# 2 -0.002485 0.012304 -0.004643 0.000000 0.000000 0.000000
# 3 -0.000615 -0.004643 0.010151 0.000000 0.000000 0.000000
# 4 0.000000 0.000000 0.000000 0.044538 0.000000 0.000000
# 5 0.000000 0.000000 0.000000 0.000000 0.031269 0.000000
# 6 0.000000 0.000000 0.000000 0.000000 0.000000 0.039009
#
#
# Mechanical properties :
#
#
# Convention : Reuss Voigt Hill
#
# Bulk Modulus (GPa) = 56.09318 57.54064 56.81691
# Shear Modulus (GPa) = 29.48871 31.48548 30.48710
#
# Velocity S-wave (km/s) = 3.84057 3.96847 3.90504
# Velocity P-wave (km/s) = 6.90825 7.05547 6.98225
#
# Compressibility (1/GPa) = 0.01782748
#
# Stress axis : x y z
#
# Youngs Moduli (GPa) = 92.09375 81.27764 98.51470
#
# Poissons Ratio (x) = 0.20194 0.06055
# Poissons Ratio (y) = 0.22882 0.45745
# Poissons Ratio (z) = 0.05660 0.37741
#
# Static dielectric constant tensor:
#      x y z
#    x 3.601870 0.000000 0.000000 
#    y 0.000000 3.914480 0.000000 
#    z 0.000000 0.000000 3.653280 
# 
# 
# High freq. dielectric constant tensor:
#      x y z
#    x 1.793100 0.000000 0.000000 
#    y 0.000000 1.773740 0.000000 
#    z 0.000000 0.000000 1.773640 
# 
# From -- ./inp_files/5433.got.cif
#   From: 2010.03.12/outbox.cif.g09.slc.cpg/sg35_3_cif.got.tgz:5433.got - 2010.04.14 02:02:04.
