data_PCOD8173653
_publ_section_title
;
Structure prediction by ZEFSAII (Michael W. Deem and Ramdas Pophale) SiO2 
 PCOD8173653
Probable space group: C M M 2
;
_chemical_formula_sum "Si O2"
_cell_formula_units_Z 56
_cell_length_a 22.162637
_cell_length_b 8.764440
_cell_length_c 14.828531
_cell_angle_alpha 90.000000
_cell_angle_beta 90.000000
_cell_angle_gamma 90.000000
_cell_volume 2880.339863
_symmetry_space_group_name_H-M "C M M 2"
_symmetry_group_IT_number 35
_symmetry_cell_setting 'orthorhombic'
loop_
_space_group_symop_operation_xyz
x,y,z
-x,-y,z
-x,y,z
x,-y,z
1/2+x,1/2+y,z
1/2-x,1/2-y,z
1/2-x,1/2+y,z
1/2+x,1/2-y,z
loop_
_atom_site_type_symbol
_atom_site_label
_atom_site_fract_x
_atom_site_fract_y
_atom_site_fract_z
Si Si1 0.569979 0.181146 0.453740
Si Si2 0.390823 0.180103 0.650253
Si Si3 0.000000 0.176992 0.748473
Si Si4 0.816503 0.681149 0.331645
Si Si5 0.687296 0.320953 0.793318
Si Si6 0.189834 0.173918 0.144597
Si Si7 0.000000 0.328420 0.929448
Si Si8 0.888925 0.827670 0.968805
O O1 0.500000 0.240676 0.433406
O O2 0.592574 0.241633 0.551007
O O3 0.624112 0.238515 0.387811
O O4 0.566756 0.000000 0.452773
O O5 0.442804 0.232824 0.715588
O O6 0.331463 0.252589 0.695532
O O7 0.383359 0.000000 0.648975
O O8 0.000000 0.194823 0.855042
O O9 0.000000 0.000000 0.719755
O O10 0.810516 0.500000 0.340371
O O11 0.750000 0.750000 0.360760
O O12 0.833468 0.731242 0.230660
O O13 0.692753 0.500000 0.781339
O O14 0.750000 0.250000 0.821818
O O15 0.644349 0.277506 0.876887
O O16 0.250000 0.250000 0.108328
O O17 0.200445 0.000000 0.176092
O O18 0.147674 0.184695 0.059707
O O19 0.941167 0.294975 0.988474
O O20 0.000000 0.500000 0.891391
O O21 0.912582 0.000000 0.956658
#
# Coordination Sequence:
#
# PCOD8173653 Si02
#       8
#     8   8   4   8   8   8   4   8
#     4   9  19  37  61  88 116 150 195 247 303 351
#     4  11  21  37  61  85 111 149 196 241 285 344
#     4  12  22  36  56  81 114 151 190 233 282 336
#     4  10  20  37  62  87 117 153 192 245 298 357
#     4  11  23  38  56  82 117 155 193 238 289 343
#     4  10  20  37  61  86 114 151 192 236 287 346
#     4  12  24  36  58  85 112 153 200 239 278 338
#     4  10  22  39  58  81 117 155 188 238 294 339
#
# _framework density 19.442150000000002
#
# number of rings (size 3 to 8) (size 9 to 14) (size 15 to 20)
#    0.000    1.571    2.143    4.286    0.000    2.286 
#    1.286    4.286    0.000    0.000    0.000    0.000 
#    0.000    0.000    0.000    0.000    0.000    0.000 
#
# Total GULP energy -346887.352357 kJ/mol
# GULP energy per Si atom -12388.834013 kJ/mol
# Density = 1.939790 g / cm^3
# Si number density = 19.442150 Si / 1000 Ang^3
#
#
#
# Elastic Constant Matrix: (Units=GPa)
#
#
# Indices 1 2 3 4 5 6 
#
# 1 133.4753 54.3078 57.6523 0.0000 0.0000 0.0000
# 2 54.3078 78.2152 33.7712 0.0000 0.0000 0.0000
# 3 57.6523 33.7712 87.6850 0.0000 0.0000 0.0000
# 4 0.0000 0.0000 0.0000 19.7461 0.0000 0.0000
# 5 0.0000 0.0000 0.0000 0.0000 -7.4571 0.0000
# 6 0.0000 0.0000 0.0000 0.0000 0.0000 29.4983
#
#
#
# Elastic Compliance Matrix: (Units=1/GPa)
#
#
# Indices 1 2 3 4 5 6 
#
# 1 0.012537 -0.006172 -0.005866 0.000000 0.000000 0.000000
# 2 -0.006172 0.018374 -0.003018 0.000000 0.000000 0.000000
# 3 -0.005866 -0.003018 0.016424 0.000000 0.000000 0.000000
# 4 0.000000 0.000000 0.000000 0.050643 0.000000 0.000000
# 5 0.000000 0.000000 0.000000 0.000000 -0.134100 0.000000
# 6 0.000000 0.000000 0.000000 0.000000 0.000000 0.033900
#
#
# Mechanical properties :
#
#
# Convention : Reuss Voigt Hill
#
# Bulk Modulus (GPa) = 58.06568 65.64868 61.85718
# Shear Modulus (GPa) = 148.66846 18.60040 83.63443
#
# Velocity S-wave (km/s) = 8.75403 3.09642 6.56586
# Velocity P-wave (km/s) = 11.49383 6.82812 9.45334
#
# Compressibility (1/GPa) = 0.01722188
#
# Stress axis : x y z
#
# Youngs Moduli (GPa) = 79.76415 54.42435 60.88753
#
# Poissons Ratio (x) = 0.33592 0.35715
# Poissons Ratio (y) = 0.49232 0.18379
# Poissons Ratio (z) = 0.46788 0.16428
#
# Static dielectric constant tensor:
#      x y z
#    x 3.788080 0.000000 0.000000 
#    y 0.000000 3.541470 0.000000 
#    z 0.000000 0.000000 3.584840 
# 
# 
# High freq. dielectric constant tensor:
#      x y z
#    x 1.766970 0.000000 0.000000 
#    y 0.000000 1.752410 0.000000 
#    z 0.000000 0.000000 1.752980 
# 
# From -- ./inp_files/17451.got.cif
#   From: 2010.03.12/outbox.cif.g09.slc.cpg/sg35_9_cif.got.tgz:17451.got - 2010.04.14 02:02:04.
