data_PCOD8173566
_publ_section_title
;
Structure prediction by ZEFSAII (Michael W. Deem and Ramdas Pophale) SiO2 
 PCOD8173566
Probable space group: C M M 2
;
_chemical_formula_sum "Si O2"
_cell_formula_units_Z 40
_cell_length_a 15.575579
_cell_length_b 9.098970
_cell_length_c 14.439944
_cell_angle_alpha 90.000000
_cell_angle_beta 90.000000
_cell_angle_gamma 90.000000
_cell_volume 2046.453788
_symmetry_space_group_name_H-M "C M M 2"
_symmetry_group_IT_number 35
_symmetry_cell_setting 'orthorhombic'
loop_
_space_group_symop_operation_xyz
x,y,z
-x,-y,z
-x,y,z
x,-y,z
1/2+x,1/2+y,z
1/2-x,1/2-y,z
1/2-x,1/2+y,z
1/2+x,1/2-y,z
loop_
_atom_site_type_symbol
_atom_site_label
_atom_site_fract_x
_atom_site_fract_y
_atom_site_fract_z
Si Si1 0.835463 0.173540 0.432350
Si Si2 0.500000 0.826866 0.745876
Si Si3 0.398275 0.831305 0.256829
Si Si4 0.665414 0.173361 0.861820
Si Si5 0.905191 0.326064 0.052541
Si Si6 0.000000 0.826818 0.549993
O O1 0.750000 0.250000 0.473027
O O2 0.849713 0.225123 0.327164
O O3 0.915922 0.224474 0.494043
O O4 0.823199 0.000000 0.433882
O O5 0.416152 0.776128 0.802041
O O6 0.500000 0.749918 0.647866
O O7 0.500000 0.000000 0.730592
O O8 0.500000 0.809757 0.264793
O O9 0.367248 0.784296 0.153454
O O10 0.373406 0.000000 0.278468
O O11 0.750000 0.250000 0.820470
O O12 0.677849 0.000000 0.856429
O O13 0.653607 0.229633 0.967947
O O14 0.914788 0.500000 0.045938
O O15 0.000000 0.256466 0.040932
O O16 0.000000 0.000000 0.564503
#
# Coordination Sequence:
#
# PCOD8173566 Si02
#       6
#     8   4   8   8   8   4
#     4  11  23  40  60  85 116 151 189 234 286 339
#     4  10  22  40  63  84 108 146 189 230 281 344
#     4   9  17  31  56  87 116 153 194 231 275 331
#     4  10  20  36  58  85 115 149 188 230 276 331
#     4   8  14  29  54  81 113 152 191 226 267 325
#     4  10  24  44  63  82 112 146 181 236 297 340
#
# _framework density 19.546005999999998
#
# number of rings (size 3 to 8) (size 9 to 14) (size 15 to 20)
#    0.000    2.400    2.000    1.800    0.000    4.000 
#    0.000    7.000    0.000    1.200    0.000    0.000 
#    0.000    0.000    0.000    0.000    0.000    0.000 
#
# Total GULP energy -247964.342410 kJ/mol
# GULP energy per Si atom -12398.217121 kJ/mol
# Density = 1.950152 g / cm^3
# Si number density = 19.546006 Si / 1000 Ang^3
#
#
#
# Elastic Constant Matrix: (Units=GPa)
#
#
# Indices 1 2 3 4 5 6 
#
# 1 152.1514 47.6687 74.0288 0.0000 0.0000 0.0000
# 2 47.6687 46.2829 42.1729 0.0000 0.0000 0.0000
# 3 74.0288 42.1729 139.8075 0.0000 0.0000 0.0000
# 4 0.0000 0.0000 0.0000 29.4225 0.0000 0.0000
# 5 0.0000 0.0000 0.0000 0.0000 10.4602 0.0000
# 6 0.0000 0.0000 0.0000 0.0000 0.0000 30.0678
#
#
#
# Elastic Compliance Matrix: (Units=1/GPa)
#
#
# Indices 1 2 3 4 5 6 
#
# 1 0.010658 -0.008047 -0.003216 0.000000 0.000000 0.000000
# 2 -0.008047 0.035871 -0.006560 0.000000 0.000000 0.000000
# 3 -0.003216 -0.006560 0.010835 0.000000 0.000000 0.000000
# 4 0.000000 0.000000 0.000000 0.033988 0.000000 0.000000
# 5 0.000000 0.000000 0.000000 0.000000 0.095600 0.000000
# 6 0.000000 0.000000 0.000000 0.000000 0.000000 0.033258
#
#
# Mechanical properties :
#
#
# Convention : Reuss Voigt Hill
#
# Bulk Modulus (GPa) = 46.04398 73.99806 60.02102
# Shear Modulus (GPa) = 19.00454 25.61488 22.30971
#
# Velocity S-wave (km/s) = 3.12155 3.62400 3.38212
# Velocity P-wave (km/s) = 6.04979 7.44659 6.78424
#
# Compressibility (1/GPa) = 0.02171836
#
# Stress axis : x y z
#
# Youngs Moduli (GPa) = 93.82338 27.87758 92.29774
#
# Poissons Ratio (x) = 0.22432 0.29686
# Poissons Ratio (y) = 0.75497 0.60545
# Poissons Ratio (z) = 0.30177 0.18287
#
# Static dielectric constant tensor:
#      x y z
#    x 3.684070 0.000000 0.000000 
#    y 0.000000 3.197060 0.000000 
#    z 0.000000 0.000000 3.690200 
# 
# 
# High freq. dielectric constant tensor:
#      x y z
#    x 1.765830 0.000000 0.000000 
#    y 0.000000 1.731050 0.000000 
#    z 0.000000 0.000000 1.763610 
# 
# From -- ./inp_files/14751.got.cif
#   From: 2010.03.12/outbox.cif.g09.slc.cpg/sg35_8_cif.got.tgz:14751.got - 2010.04.14 02:02:04.
