data_PCOD8173966
_publ_section_title
;
Structure prediction by ZEFSAII (Michael W. Deem and Ramdas Pophale) SiO2 
 PCOD8173966
Probable space group: C M M 2
;
_chemical_formula_sum "Si O2"
_cell_formula_units_Z 48
_cell_length_a 15.775951
_cell_length_b 8.772354
_cell_length_c 16.705515
_cell_angle_alpha 90.000000
_cell_angle_beta 90.000000
_cell_angle_gamma 90.000000
_cell_volume 2311.913422
_symmetry_space_group_name_H-M "C M M 2"
_symmetry_group_IT_number 35
_symmetry_cell_setting 'orthorhombic'
loop_
_space_group_symop_operation_xyz
x,y,z
-x,-y,z
-x,y,z
x,-y,z
1/2+x,1/2+y,z
1/2-x,1/2-y,z
1/2-x,1/2+y,z
1/2+x,1/2-y,z
loop_
_atom_site_type_symbol
_atom_site_label
_atom_site_fract_x
_atom_site_fract_y
_atom_site_fract_z
Si Si1 0.663382 0.819633 0.347880
Si Si2 0.597491 0.327519 0.811829
Si Si3 0.661481 0.678607 0.984141
Si Si4 0.000000 0.319330 0.252948
Si Si5 0.341332 0.821323 0.654860
Si Si6 0.000000 0.680807 0.070148
Si Si7 0.596126 0.326723 0.500831
O O1 0.750000 0.750000 0.312038
O O2 0.584601 0.755786 0.295997
O O3 0.654183 0.766892 0.439687
O O4 0.668938 0.000000 0.344368
O O5 0.500000 0.306674 0.836173
O O6 0.615393 0.500000 0.782175
O O7 0.652747 0.289130 0.889634
O O8 0.621682 0.211267 0.742372
O O9 0.660296 0.500000 0.003017
O O10 0.750000 0.750000 0.014010
O O11 0.584440 0.755860 0.030104
O O12 0.000000 0.500000 0.259622
O O13 0.000000 0.264115 0.161815
O O14 0.250000 0.750000 0.644558
O O15 0.401642 0.747996 0.588371
O O16 0.336772 0.000000 0.641667
O O17 0.000000 0.500000 0.062287
O O18 0.500000 0.320114 0.470108
O O19 0.629316 0.500000 0.505114
#
# Coordination Sequence:
#
# PCOD8173966 Si02
#       7
#     8   8   8   4   8   4   8
#     4  11  22  41  66  94 128 166 209 258 313 374
#     4  10  21  40  63  88 123 163 207 261 316 371
#     4  11  23  42  66  97 131 172 216 264 322 382
#     4   9  22  43  67  94 129 166 205 257 318 379
#     4  12  25  39  57  85 121 163 212 260 311 368
#     4  11  23  43  69  98 131 168 211 263 322 387
#     4  11  23  40  62  89 122 162 209 258 312 370
#
# _framework density 20.762024
#
# number of rings (size 3 to 8) (size 9 to 14) (size 15 to 20)
#    0.000    1.167    1.667    4.750    0.000    6.667 
#    0.000    5.000    0.000    0.000    0.000    0.000 
#    0.000    0.000    0.000    0.000    0.000    0.000 
#
# Total GULP energy -297735.469404 kJ/mol
# GULP energy per Si atom -12405.644558 kJ/mol
# Density = 2.071477 g / cm^3
# Si number density = 20.762024 Si / 1000 Ang^3
#
#
#
# Elastic Constant Matrix: (Units=GPa)
#
#
# Indices 1 2 3 4 5 6 
#
# 1 153.7211 56.7876 54.4007 0.0000 0.0000 0.0000
# 2 56.7876 121.6501 49.9363 0.0000 0.0000 0.0000
# 3 54.4007 49.9363 107.8550 0.0000 0.0000 0.0000
# 4 0.0000 0.0000 0.0000 25.4527 0.0000 0.0000
# 5 0.0000 0.0000 0.0000 0.0000 12.8708 0.0000
# 6 0.0000 0.0000 0.0000 0.0000 0.0000 36.7163
#
#
#
# Elastic Compliance Matrix: (Units=1/GPa)
#
#
# Indices 1 2 3 4 5 6 
#
# 1 0.008610 -0.002761 -0.003064 0.000000 0.000000 0.000000
# 2 -0.002761 0.011035 -0.003716 0.000000 0.000000 0.000000
# 3 -0.003064 -0.003716 0.012538 0.000000 0.000000 0.000000
# 4 0.000000 0.000000 0.000000 0.039289 0.000000 0.000000
# 5 0.000000 0.000000 0.000000 0.000000 0.077695 0.000000
# 6 0.000000 0.000000 0.000000 0.000000 0.000000 0.027236
#
#
# Mechanical properties :
#
#
# Convention : Reuss Voigt Hill
#
# Bulk Modulus (GPa) = 76.34247 78.38617 77.36432
# Shear Modulus (GPa) = 25.01851 29.81473 27.41662
#
# Velocity S-wave (km/s) = 3.47510 3.79360 3.63784
# Velocity P-wave (km/s) = 7.27680 7.55150 7.41542
#
# Compressibility (1/GPa) = 0.01309887
#
# Stress axis : x y z
#
# Youngs Moduli (GPa) = 116.14725 90.62230 79.75842
#
# Poissons Ratio (x) = 0.25024 0.24439
# Poissons Ratio (y) = 0.32072 0.29641
# Poissons Ratio (z) = 0.35590 0.33678
#
# Static dielectric constant tensor:
#      x y z
#    x 3.918480 0.000000 0.000000 
#    y 0.000000 3.758470 0.000000 
#    z 0.000000 0.000000 3.767090 
# 
# 
# High freq. dielectric constant tensor:
#      x y z
#    x 1.829080 0.000000 0.000000 
#    y 0.000000 1.813100 0.000000 
#    z 0.000000 0.000000 1.808140 
# 
# From -- ./inp_files/17941.got.cif
#   From: 2010.03.12/outbox.cif.g09.slc.cpg/sg35_9_cif.got.tgz:17941.got - 2010.04.14 02:02:04.
