data_PCOD8173892
_publ_section_title
;
Structure prediction by ZEFSAII (Michael W. Deem and Ramdas Pophale) SiO2 
 PCOD8173892
Probable space group: C M M 2
;
_chemical_formula_sum "Si O2"
_cell_formula_units_Z 48
_cell_length_a 15.778827
_cell_length_b 8.861386
_cell_length_c 16.693254
_cell_angle_alpha 90.000000
_cell_angle_beta 90.000000
_cell_angle_gamma 90.000000
_cell_volume 2334.088779
_symmetry_space_group_name_H-M "C M M 2"
_symmetry_group_IT_number 35
_symmetry_cell_setting 'orthorhombic'
loop_
_space_group_symop_operation_xyz
x,y,z
-x,-y,z
-x,y,z
x,-y,z
1/2+x,1/2+y,z
1/2-x,1/2-y,z
1/2-x,1/2+y,z
1/2+x,1/2-y,z
loop_
_atom_site_type_symbol
_atom_site_label
_atom_site_fract_x
_atom_site_fract_y
_atom_site_fract_z
Si Si1 0.904593 0.168596 0.487590
Si Si2 0.596997 0.822901 0.808367
Si Si3 0.161990 0.178614 0.318807
Si Si4 0.000000 0.321014 0.234087
Si Si5 0.339479 0.823255 0.637194
Si Si6 0.835152 0.176980 0.961771
Si Si7 0.000000 0.822452 0.063372
O O1 0.845493 0.215936 0.413345
O O2 0.897969 0.281126 0.562161
O O3 0.000000 0.174393 0.454469
O O4 0.880984 0.000000 0.516886
O O5 0.500000 0.782124 0.825495
O O6 0.619948 0.763746 0.719681
O O7 0.654892 0.735398 0.871208
O O8 0.614234 0.000000 0.816838
O O9 0.250000 0.250000 0.287567
O O10 0.084518 0.252780 0.272122
O O11 0.161133 0.000000 0.302476
O O12 0.000000 0.500000 0.245994
O O13 0.000000 0.279786 0.141159
O O14 0.250000 0.750000 0.621217
O O15 0.329291 0.000000 0.641038
O O16 0.750000 0.250000 0.999306
O O17 0.822710 0.000000 0.959801
O O18 0.916671 0.223367 0.013503
O O19 0.000000 0.000000 0.084659
#
# Coordination Sequence:
#
# PCOD8173892 Si02
#       7
#     8   8   8   4   8   8   4
#     4  10  21  39  62  89 121 163 210 260 317 371
#     4  10  21  38  60  87 122 163 209 261 315 370
#     4  11  23  43  68  97 133 171 214 266 320 382
#     4  12  26  44  70 101 130 169 212 257 322 387
#     4  11  23  37  54  83 121 164 211 262 313 367
#     4  11  23  41  66  96 127 166 211 257 313 374
#     4  10  24  46  68  93 130 167 204 259 318 379
#
# _framework density 20.564768999999998
#
# number of rings (size 3 to 8) (size 9 to 14) (size 15 to 20)
#    0.000    1.333    1.667    3.750    0.000    8.333 
#    0.000    1.667    0.000    0.000    0.000    0.000 
#    0.000    0.000    0.000    0.000    0.000    0.000 
#
# Total GULP energy -297695.485510 kJ/mol
# GULP energy per Si atom -12403.978563 kJ/mol
# Density = 2.051796 g / cm^3
# Si number density = 20.564769 Si / 1000 Ang^3
#
#
#
# Elastic Constant Matrix: (Units=GPa)
#
#
# Indices 1 2 3 4 5 6 
#
# 1 154.2823 56.5144 56.6863 0.0000 0.0000 0.0000
# 2 56.5144 87.7275 56.1593 0.0000 0.0000 0.0000
# 3 56.6863 56.1593 112.0979 0.0000 0.0000 0.0000
# 4 0.0000 0.0000 0.0000 33.9906 0.0000 0.0000
# 5 0.0000 0.0000 0.0000 0.0000 16.7624 0.0000
# 6 0.0000 0.0000 0.0000 0.0000 0.0000 34.0152
#
#
#
# Elastic Compliance Matrix: (Units=1/GPa)
#
#
# Indices 1 2 3 4 5 6 
#
# 1 0.008901 -0.004199 -0.002397 0.000000 0.000000 0.000000
# 2 -0.004199 0.018762 -0.007276 0.000000 0.000000 0.000000
# 3 -0.002397 -0.007276 0.013778 0.000000 0.000000 0.000000
# 4 0.000000 0.000000 0.000000 0.029420 0.000000 0.000000
# 5 0.000000 0.000000 0.000000 0.000000 0.059657 0.000000
# 6 0.000000 0.000000 0.000000 0.000000 0.000000 0.029399
#
#
# Mechanical properties :
#
#
# Convention : Reuss Voigt Hill
#
# Bulk Modulus (GPa) = 73.01432 76.98083 74.99757
# Shear Modulus (GPa) = 26.01103 29.27016 27.64060
#
# Velocity S-wave (km/s) = 3.56031 3.77678 3.67014
# Velocity P-wave (km/s) = 7.24450 7.51887 7.38296
#
# Compressibility (1/GPa) = 0.01369594
#
# Stress axis : x y z
#
# Youngs Moduli (GPa) = 112.35221 53.29984 72.57921
#
# Poissons Ratio (x) = 0.22382 0.17398
# Poissons Ratio (y) = 0.47179 0.52808
# Poissons Ratio (z) = 0.26932 0.38780
#
# Static dielectric constant tensor:
#      x y z
#    x 3.890060 0.000000 0.000000 
#    y 0.000000 3.687190 0.000000 
#    z 0.000000 0.000000 3.741230 
# 
# 
# High freq. dielectric constant tensor:
#      x y z
#    x 1.820820 0.000000 0.000000 
#    y 0.000000 1.803210 0.000000 
#    z 0.000000 0.000000 1.802860 
# 
# From -- ./inp_files/15217.got.cif
#   From: 2010.03.12/outbox.cif.g09.slc.cpg/sg35_8_cif.got.tgz:15217.got - 2010.04.14 02:02:04.
