data_PCOD8173922
_publ_section_title
;
Structure prediction by ZEFSAII (Michael W. Deem and Ramdas Pophale) SiO2 
 PCOD8173922
Probable space group: C M M 2
;
_chemical_formula_sum "Si O2"
_cell_formula_units_Z 48
_cell_length_a 7.905901
_cell_length_b 17.879570
_cell_length_c 16.951679
_cell_angle_alpha 90.000000
_cell_angle_beta 90.000000
_cell_angle_gamma 90.000000
_cell_volume 2396.189504
_symmetry_space_group_name_H-M "C M M 2"
_symmetry_group_IT_number 35
_symmetry_cell_setting 'orthorhombic'
loop_
_space_group_symop_operation_xyz
x,y,z
-x,-y,z
-x,y,z
x,-y,z
1/2+x,1/2+y,z
1/2-x,1/2-y,z
1/2-x,1/2+y,z
1/2+x,1/2-y,z
loop_
_atom_site_type_symbol
_atom_site_label
_atom_site_fract_x
_atom_site_fract_y
_atom_site_fract_z
Si Si1 0.000000 0.088271 0.809590
Si Si2 0.297214 0.163730 0.715123
Si Si3 0.310360 0.666286 0.410469
Si Si4 0.807049 0.417968 0.559204
Si Si5 0.000000 0.912402 0.992055
Si Si6 0.308372 0.915779 0.261581
Si Si7 0.315177 0.331426 0.116715
O O1 0.176767 0.120976 0.776756
O O2 0.000000 0.109613 0.901281
O O3 0.000000 0.000000 0.794740
O O4 0.500000 0.151758 0.732126
O O5 0.250000 0.250000 0.718624
O O6 0.236775 0.133424 0.629654
O O7 0.500000 0.666663 0.442217
O O8 0.250000 0.750000 0.397926
O O9 0.203243 0.623316 0.475787
O O10 0.303375 0.625084 0.326827
O O11 0.716086 0.500000 0.556533
O O12 0.000000 0.432296 0.578490
O O13 0.832463 0.877974 0.034798
O O14 0.000000 0.000000 0.005689
O O15 0.500000 0.915942 0.292296
O O16 0.304962 0.873413 0.178128
O O17 0.239848 0.000000 0.250161
O O18 0.500000 0.324547 0.157540
O O19 0.250000 0.250000 0.094407
#
# Coordination Sequence:
#
# PCOD8173922 Si02
#       7
#     4   8   8   8   4   8   8
#     4  11  24  44  70 101 134 174 219 271 334 402
#     4  11  23  42  67  99 134 176 220 274 331 392
#     4  12  25  39  58  85 119 164 211 264 315 369
#     4  10  22  40  62  89 125 165 210 262 320 379
#     4   9  22  42  66  93 128 168 205 257 324 386
#     4  11  23  39  61  87 122 163 208 258 315 376
#     4  10  21  38  63  90 124 159 205 254 309 372
#
# _framework density 20.031806
#
# number of rings (size 3 to 8) (size 9 to 14) (size 15 to 20)
#    0.500    0.833    0.833    5.000    1.167    6.333 
#    0.000    0.833    0.000    2.000    0.000    0.000 
#    0.000    0.000    0.000    0.000    0.000    0.000 
#
# Total GULP energy -297514.848081 kJ/mol
# GULP energy per Si atom -12396.452003 kJ/mol
# Density = 1.998621 g / cm^3
# Si number density = 20.031806 Si / 1000 Ang^3
#
#
#
# Elastic Constant Matrix: (Units=GPa)
#
#
# Indices 1 2 3 4 5 6 
#
# 1 81.0662 33.2158 28.0287 0.0000 0.0000 0.0000
# 2 33.2158 165.7505 78.4661 0.0000 0.0000 0.0000
# 3 28.0287 78.4661 149.6904 0.0000 0.0000 0.0000
# 4 0.0000 0.0000 0.0000 31.0951 0.0000 0.0000
# 5 0.0000 0.0000 0.0000 0.0000 27.0806 0.0000
# 6 0.0000 0.0000 0.0000 0.0000 0.0000 23.1572
#
#
#
# Elastic Compliance Matrix: (Units=1/GPa)
#
#
# Indices 1 2 3 4 5 6 
#
# 1 0.013687 -0.002034 -0.001496 0.000000 0.000000 0.000000
# 2 -0.002034 0.008327 -0.003984 0.000000 0.000000 0.000000
# 3 -0.001496 -0.003984 0.009049 0.000000 0.000000 0.000000
# 4 0.000000 0.000000 0.000000 0.032159 0.000000 0.000000
# 5 0.000000 0.000000 0.000000 0.000000 0.036927 0.000000
# 6 0.000000 0.000000 0.000000 0.000000 0.000000 0.043183
#
#
# Mechanical properties :
#
#
# Convention : Reuss Voigt Hill
#
# Bulk Modulus (GPa) = 62.37104 75.10315 68.73709
# Shear Modulus (GPa) = 30.54272 33.38635 31.96454
#
# Velocity S-wave (km/s) = 3.90899 4.08691 3.99894
# Velocity P-wave (km/s) = 7.18173 7.73588 7.46395
#
# Compressibility (1/GPa) = 0.01603308
#
# Stress axis : x y z
#
# Youngs Moduli (GPa) = 73.06465 120.09384 110.51001
#
# Poissons Ratio (x) = 0.24431 0.16536
# Poissons Ratio (y) = 0.14864 0.44026
# Poissons Ratio (z) = 0.10933 0.47844
#
# Static dielectric constant tensor:
#      x y z
#    x 3.641540 0.000000 0.000000 
#    y 0.000000 3.890780 0.000000 
#    z 0.000000 0.000000 3.470880 
# 
# 
# High freq. dielectric constant tensor:
#      x y z
#    x 1.777150 0.000000 0.000000 
#    y 0.000000 1.802850 0.000000 
#    z 0.000000 0.000000 1.774330 
# 
# From -- ./inp_files/15250.got.cif
#   From: 2010.03.12/outbox.cif.g09.slc.cpg/sg35_8_cif.got.tgz:15250.got - 2010.04.14 02:02:04.
