data_PCOD8173907
_publ_section_title
;
Structure prediction by ZEFSAII (Michael W. Deem and Ramdas Pophale) SiO2 
 PCOD8173907
Probable space group: C M M 2
;
_chemical_formula_sum "Si O2"
_cell_formula_units_Z 48
_cell_length_a 15.766217
_cell_length_b 8.845428
_cell_length_c 16.757093
_cell_angle_alpha 90.000000
_cell_angle_beta 90.000000
_cell_angle_gamma 90.000000
_cell_volume 2336.926382
_symmetry_space_group_name_H-M "C M M 2"
_symmetry_group_IT_number 35
_symmetry_cell_setting 'orthorhombic'
loop_
_space_group_symop_operation_xyz
x,y,z
-x,-y,z
-x,y,z
x,-y,z
1/2+x,1/2+y,z
1/2-x,1/2-y,z
1/2-x,1/2+y,z
1/2+x,1/2-y,z
loop_
_atom_site_type_symbol
_atom_site_label
_atom_site_fract_x
_atom_site_fract_y
_atom_site_fract_z
Si Si1 0.596041 0.171985 0.577300
Si Si2 0.901922 0.824373 0.250905
Si Si3 0.500000 0.179292 0.001605
Si Si4 0.664192 0.321230 0.729478
Si Si5 0.500000 0.678201 0.829272
Si Si6 0.159046 0.821058 0.424707
Si Si7 0.163645 0.678377 0.097720
O O1 0.500000 0.177085 0.608630
O O2 0.654700 0.259415 0.639916
O O3 0.598069 0.254291 0.492152
O O4 0.628649 0.000000 0.569334
O O5 0.877662 0.771507 0.339412
O O6 0.846899 0.727139 0.189538
O O7 0.000000 0.789356 0.236041
O O8 0.880761 0.000000 0.237918
O O9 0.500000 0.239381 0.912916
O O10 0.500000 0.000000 0.000962
O O11 0.583917 0.239834 0.046700
O O12 0.672651 0.500000 0.726820
O O13 0.750000 0.250000 0.766867
O O14 0.583982 0.269786 0.782142
O O15 0.500000 0.500000 0.842964
O O16 0.250000 0.750000 0.438220
O O17 0.162832 0.000000 0.432934
O O18 0.171163 0.500000 0.092512
O O19 0.250000 0.750000 0.062626
#
# Coordination Sequence:
#
# PCOD8173907 Si02
#       7
#     8   8   4   8   4   8   8
#     4  11  23  39  61  89 120 161 210 257 310 366
#     4  10  21  38  61  89 120 161 209 257 311 367
#     4  10  24  44  66  93 128 163 202 253 312 371
#     4  11  23  42  66  95 128 165 208 254 309 369
#     4  10  24  44  68  95 126 163 204 251 310 373
#     4  11  23  38  56  83 121 162 208 259 309 363
#     4  11  23  41  64  94 127 166 209 255 310 369
#
# _framework density 20.539801000000001
#
# number of rings (size 3 to 8) (size 9 to 14) (size 15 to 20)
#    0.000    1.333    1.667    3.500    0.000    7.667 
#    0.000    3.333    0.000    0.000    0.000    0.000 
#    0.000    0.000    0.000    0.000    0.000    0.000 
#
# Total GULP energy -297738.518855 kJ/mol
# GULP energy per Si atom -12405.771619 kJ/mol
# Density = 2.049305 g / cm^3
# Si number density = 20.539801 Si / 1000 Ang^3
#
#
#
# Elastic Constant Matrix: (Units=GPa)
#
#
# Indices 1 2 3 4 5 6 
#
# 1 150.2822 48.6699 55.8243 0.0000 0.0000 0.0000
# 2 48.6699 81.1891 45.4916 0.0000 0.0000 0.0000
# 3 55.8243 45.4916 122.7836 0.0000 0.0000 0.0000
# 4 0.0000 0.0000 0.0000 37.9434 0.0000 0.0000
# 5 0.0000 0.0000 0.0000 0.0000 22.4419 0.0000
# 6 0.0000 0.0000 0.0000 0.0000 0.0000 32.5495
#
#
#
# Elastic Compliance Matrix: (Units=1/GPa)
#
#
# Indices 1 2 3 4 5 6 
#
# 1 0.008871 -0.003859 -0.002603 0.000000 0.000000 0.000000
# 2 -0.003859 0.017223 -0.004626 0.000000 0.000000 0.000000
# 3 -0.002603 -0.004626 0.011042 0.000000 0.000000 0.000000
# 4 0.000000 0.000000 0.000000 0.026355 0.000000 0.000000
# 5 0.000000 0.000000 0.000000 0.000000 0.044560 0.000000
# 6 0.000000 0.000000 0.000000 0.000000 0.000000 0.030722
#
#
# Mechanical properties :
#
#
# Convention : Reuss Voigt Hill
#
# Bulk Modulus (GPa) = 66.85469 72.69182 69.77326
# Shear Modulus (GPa) = 30.13196 32.20490 31.16843
#
# Velocity S-wave (km/s) = 3.83430 3.96400 3.89969
# Velocity P-wave (km/s) = 7.22648 7.51123 7.37023
#
# Compressibility (1/GPa) = 0.01495781
#
# Stress axis : x y z
#
# Youngs Moduli (GPa) = 112.72648 58.06329 90.56166
#
# Poissons Ratio (x) = 0.22407 0.23577
# Poissons Ratio (y) = 0.43502 0.41898
# Poissons Ratio (z) = 0.29348 0.26863
#
# Static dielectric constant tensor:
#      x y z
#    x 3.965280 0.000000 0.000000 
#    y 0.000000 3.667830 0.000000 
#    z 0.000000 0.000000 3.664010 
# 
# 
# High freq. dielectric constant tensor:
#      x y z
#    x 1.820730 0.000000 0.000000 
#    y 0.000000 1.804170 0.000000 
#    z 0.000000 0.000000 1.798930 
# 
# From -- ./inp_files/15263.got.cif
#   From: 2010.03.12/outbox.cif.g09.slc.cpg/sg35_8_cif.got.tgz:15263.got - 2010.04.14 02:02:04.
