data_PCOD8173744
_publ_section_title
;
Structure prediction by ZEFSAII (Michael W. Deem and Ramdas Pophale) SiO2 
 PCOD8173744
Probable space group: C M M 2
;
_chemical_formula_sum "Si O2"
_cell_formula_units_Z 64
_cell_length_a 9.098034
_cell_length_b 18.505349
_cell_length_c 20.670194
_cell_angle_alpha 90.000000
_cell_angle_beta 90.000000
_cell_angle_gamma 90.000000
_cell_volume 3480.081287
_symmetry_space_group_name_H-M "C M M 2"
_symmetry_group_IT_number 35
_symmetry_cell_setting 'orthorhombic'
loop_
_space_group_symop_operation_xyz
x,y,z
-x,-y,z
-x,y,z
x,-y,z
1/2+x,1/2+y,z
1/2-x,1/2-y,z
1/2-x,1/2+y,z
1/2+x,1/2-y,z
loop_
_atom_site_type_symbol
_atom_site_label
_atom_site_fract_x
_atom_site_fract_y
_atom_site_fract_z
Si Si1 0.675230 0.672976 0.357400
Si Si2 0.169397 0.584795 0.247260
Si Si3 0.663561 0.413949 0.619713
Si Si4 0.173303 0.173574 0.992526
Si Si5 0.335325 0.913890 0.742537
Si Si6 0.674840 0.419586 0.478099
Si Si7 0.827159 0.082705 0.869691
Si Si8 0.830998 0.083501 0.117219
O O1 0.500000 0.680480 0.354642
O O2 0.750000 0.750000 0.352865
O O3 0.728653 0.624950 0.298132
O O4 0.730579 0.635412 0.423546
O O5 0.187869 0.500000 0.259452
O O6 0.226776 0.606009 0.176327
O O7 0.000000 0.609182 0.253766
O O8 0.500000 0.382260 0.629295
O O9 0.657387 0.500000 0.623104
O O10 0.764371 0.382018 0.676845
O O11 0.728046 0.391943 0.548991
O O12 0.250000 0.250000 0.993435
O O13 0.228398 0.129205 0.930264
O O14 0.000000 0.184573 0.990016
O O15 0.220510 0.129951 0.056144
O O16 0.500000 0.884131 0.746939
O O17 0.248045 0.885832 0.805167
O O18 0.330570 0.000000 0.740253
O O19 0.500000 0.423853 0.478692
O O20 0.737956 0.500000 0.463419
O O21 0.000000 0.088857 0.859567
O O22 0.780134 0.000000 0.882342
O O23 0.000000 0.099349 0.136095
O O24 0.810434 0.000000 0.098501
#
# Coordination Sequence:
#
# PCOD8173744 Si02
#       8
#     8   8   8   8   8   8   8   8
#     4  11  22  36  54  76 105 140 176 214 257 305
#     4  10  21  37  57  82 109 135 168 211 256 304
#     4   8  13  24  44  69  95 123 159 204 251 300
#     4  10  21  35  52  75 102 132 166 206 250 297
#     4   9  16  25  40  68 102 129 157 200 253 300
#     4   8  15  29  51  76  98 126 168 212 252 300
#     4   9  17  31  51  72  95 128 169 207 243 290
#     4   9  18  35  58  80 102 132 170 208 247 295
#
# _framework density 18.390374999999999
#
# number of rings (size 3 to 8) (size 9 to 14) (size 15 to 20)
#    0.000    2.750    0.000    2.625    0.000    5.750 
#    0.000    2.500    0.000    7.500    0.000    1.750 
#    0.000    0.000    0.000    0.000    0.000    0.000 
#
# Total GULP energy -396755.697482 kJ/mol
# GULP energy per Si atom -12398.615546 kJ/mol
# Density = 1.834852 g / cm^3
# Si number density = 18.390375 Si / 1000 Ang^3
#
#
#
# Elastic Constant Matrix: (Units=GPa)
#
#
# Indices 1 2 3 4 5 6 
#
# 1 69.7321 34.7424 59.1881 0.0000 0.0000 0.0000
# 2 34.7424 61.7153 66.2428 0.0000 0.0000 0.0000
# 3 59.1881 66.2428 172.2746 0.0000 0.0000 0.0000
# 4 0.0000 0.0000 0.0000 1.2823 0.0000 0.0000
# 5 0.0000 0.0000 0.0000 0.0000 19.4669 0.0000
# 6 0.0000 0.0000 0.0000 0.0000 0.0000 20.4644
#
#
#
# Elastic Compliance Matrix: (Units=1/GPa)
#
#
# Indices 1 2 3 4 5 6 
#
# 1 0.022010 -0.007277 -0.004764 0.000000 0.000000 0.000000
# 2 -0.007277 0.029997 -0.009034 0.000000 0.000000 0.000000
# 3 -0.004764 -0.009034 0.010915 0.000000 0.000000 0.000000
# 4 0.000000 0.000000 0.000000 0.779845 0.000000 0.000000
# 5 0.000000 0.000000 0.000000 0.000000 0.051369 0.000000
# 6 0.000000 0.000000 0.000000 0.000000 0.000000 0.048865
#
#
# Mechanical properties :
#
#
# Convention : Reuss Voigt Hill
#
# Bulk Modulus (GPa) = 48.14211 69.34094 58.74153
# Shear Modulus (GPa) = 5.03994 17.81264 11.42629
#
# Velocity S-wave (km/s) = 1.65725 3.11559 2.49533
# Velocity P-wave (km/s) = 5.46779 7.12246 6.34925
#
# Compressibility (1/GPa) = 0.02077183
#
# Stress axis : x y z
#
# Youngs Moduli (GPa) = 45.43478 33.33657 91.61597
#
# Poissons Ratio (x) = 0.24260 0.43642
# Poissons Ratio (y) = 0.33064 0.82768
# Poissons Ratio (z) = 0.21643 0.30117
#
# Static dielectric constant tensor:
#      x y z
#    x 3.307630 0.000000 0.000000 
#    y 0.000000 3.104840 0.000000 
#    z 0.000000 0.000000 3.713480 
# 
# 
# High freq. dielectric constant tensor:
#      x y z
#    x 1.700410 0.000000 0.000000 
#    y 0.000000 1.678620 0.000000 
#    z 0.000000 0.000000 1.732130 
# 
# From -- ./inp_files/18411.got.cif
#   From: 2010.03.12/outbox.cif.g09.slc.cpg/sg35_10_cif.got.tgz:18411.got - 2010.04.14 02:02:04.
