data_PCOD8173801
_publ_section_title
;
Structure prediction by ZEFSAII (Michael W. Deem and Ramdas Pophale) SiO2 
 PCOD8173801
Probable space group: C M M 2
;
_chemical_formula_sum "Si O2"
_cell_formula_units_Z 64
_cell_length_a 23.946441
_cell_length_b 15.357161
_cell_length_c 9.095473
_cell_angle_alpha 90.000000
_cell_angle_beta 90.000000
_cell_angle_gamma 90.000000
_cell_volume 3344.854282
_symmetry_space_group_name_H-M "C M M 2"
_symmetry_group_IT_number 35
_symmetry_cell_setting 'orthorhombic'
loop_
_space_group_symop_operation_xyz
x,y,z
-x,-y,z
-x,y,z
x,-y,z
1/2+x,1/2+y,z
1/2-x,1/2-y,z
1/2-x,1/2+y,z
1/2+x,1/2-y,z
loop_
_atom_site_type_symbol
_atom_site_label
_atom_site_fract_x
_atom_site_fract_y
_atom_site_fract_z
Si Si1 0.368468 0.898387 0.038180
Si Si2 0.866392 0.598525 0.698807
Si Si3 0.366234 0.405776 0.536860
Si Si4 0.762180 0.600985 0.226229
Si Si5 0.638355 0.403416 0.188799
Si Si6 0.564719 0.757594 0.535789
Si Si7 0.435747 0.754166 0.189944
Si Si8 0.755534 0.347990 0.549291
O O1 0.309773 0.871782 0.111947
O O2 0.417767 0.842936 0.110942
O O3 0.381845 0.000000 0.063589
O O4 0.364944 0.873745 0.868166
O O5 0.887972 0.500000 0.681082
O O6 0.909532 0.658133 0.611530
O O7 0.804108 0.604074 0.636732
O O8 0.387491 0.500000 0.595669
O O9 0.369482 0.405090 0.362394
O O10 0.405009 0.328797 0.599682
O O11 0.302174 0.395914 0.585859
O O12 0.765240 0.500000 0.270497
O O13 0.702434 0.621282 0.150877
O O14 0.770385 0.654558 0.376065
O O15 0.623460 0.500000 0.125012
O O16 0.598120 0.328701 0.123907
O O17 0.500000 0.751057 0.576521
O O18 0.574970 0.766295 0.362611
O O19 0.500000 0.736135 0.155141
O O20 0.750000 0.250000 0.605907
#
# Coordination Sequence:
#
# PCOD8173801 Si02
#       8
#     8   8   8   8   8   8   8   8
#     4  10  23  39  56  79 111 149 185 226 277 330
#     4  11  23  40  57  79 114 150 185 228 279 335
#     4   9  17  32  54  82 116 147 176 219 277 333
#     4   9  18  33  55  84 112 144 182 221 269 330
#     4   8  16  31  53  83 113 141 175 218 273 329
#     4  10  21  37  58  85 111 141 190 238 278 328
#     4  10  21  36  56  82 109 142 186 234 277 322
#     4  11  19  32  57  87 115 145 179 225 275 329
#
# _framework density 19.133868
#
# number of rings (size 3 to 8) (size 9 to 14) (size 15 to 20)
#    0.000    2.250    1.250    2.625    3.500    3.000 
#    2.250    5.000    0.000    0.750    0.000    1.750 
#    0.000    0.000    0.000    0.000    0.000    0.000 
#
# Total GULP energy -396799.992810 kJ/mol
# GULP energy per Si atom -12399.999775 kJ/mol
# Density = 1.909032 g / cm^3
# Si number density = 19.133868 Si / 1000 Ang^3
#
#
#
# Elastic Constant Matrix: (Units=GPa)
#
#
# Indices 1 2 3 4 5 6 
#
# 1 114.4994 57.3200 47.7980 0.0000 0.0000 0.0000
# 2 57.3200 115.0602 37.0664 0.0000 0.0000 0.0000
# 3 47.7980 37.0664 53.4515 0.0000 0.0000 0.0000
# 4 0.0000 0.0000 0.0000 16.3827 0.0000 0.0000
# 5 0.0000 0.0000 0.0000 0.0000 -0.7811 0.0000
# 6 0.0000 0.0000 0.0000 0.0000 0.0000 26.3336
#
#
#
# Elastic Compliance Matrix: (Units=1/GPa)
#
#
# Indices 1 2 3 4 5 6 
#
# 1 0.015333 -0.004148 -0.010835 0.000000 0.000000 0.000000
# 2 -0.004148 0.012313 -0.004829 0.000000 0.000000 0.000000
# 3 -0.010835 -0.004829 0.031746 0.000000 0.000000 0.000000
# 4 0.000000 0.000000 0.000000 0.061040 0.000000 0.000000
# 5 0.000000 0.000000 0.000000 0.000000 -1.280204 0.000000
# 6 0.000000 0.000000 0.000000 0.000000 0.000000 0.037974
#
#
# Mechanical properties :
#
#
# Convention : Reuss Voigt Hill
#
# Bulk Modulus (GPa) = 50.58641 63.04220 56.81430
# Shear Modulus (GPa) = -4.64865 17.77550 6.56343
#
# Velocity S-wave (km/s) = -1.56039 3.05127 1.85411
# Velocity P-wave (km/s) = 4.82174 6.74041 5.86013
#
# Compressibility (1/GPa) = 0.01976815
#
# Stress axis : x y z
#
# Youngs Moduli (GPa) = 65.21701 81.21225 31.49955
#
# Poissons Ratio (x) = 0.33689 0.34130
# Poissons Ratio (y) = 0.27054 0.15212
# Poissons Ratio (z) = 0.70663 0.39220
#
# Static dielectric constant tensor:
#      x y z
#    x 3.547800 0.000000 0.000000 
#    y 0.000000 3.741800 0.000000 
#    z 0.000000 0.000000 3.150100 
# 
# 
# High freq. dielectric constant tensor:
#      x y z
#    x 1.743410 0.000000 0.000000 
#    y 0.000000 1.759980 0.000000 
#    z 0.000000 0.000000 1.703030 
# 
# From -- ./inp_files/7833.got.cif
#   From: 2010.03.12/outbox.cif.g09.slc.cpg/sg35_4_cif.got.tgz:7833.got - 2010.04.14 02:02:04.
