data_PCOD8173147
_publ_section_title
;
Structure prediction by ZEFSAII (Michael W. Deem and Ramdas Pophale) SiO2 
 PCOD8173147
Probable space group: C M M 2
;
_chemical_formula_sum "Si O2"
_cell_formula_units_Z 48
_cell_length_a 15.528952
_cell_length_b 8.731977
_cell_length_c 17.212117
_cell_angle_alpha 90.000000
_cell_angle_beta 90.000000
_cell_angle_gamma 90.000000
_cell_volume 2333.936416
_symmetry_space_group_name_H-M "C M M 2"
_symmetry_group_IT_number 35
_symmetry_cell_setting 'orthorhombic'
loop_
_space_group_symop_operation_xyz
x,y,z
-x,-y,z
-x,y,z
x,-y,z
1/2+x,1/2+y,z
1/2-x,1/2-y,z
1/2-x,1/2+y,z
1/2+x,1/2-y,z
loop_
_atom_site_type_symbol
_atom_site_label
_atom_site_fract_x
_atom_site_fract_y
_atom_site_fract_z
Si Si1 0.500000 0.818454 0.470451
Si Si2 0.000000 0.181226 0.303102
Si Si3 0.346510 0.182243 0.206019
Si Si4 0.403075 0.830454 0.733024
Si Si5 0.337975 0.181250 0.572480
Si Si6 0.842554 0.822566 0.880928
Si Si7 0.843508 0.180213 0.049638
O O1 0.500000 0.718698 0.393338
O O2 0.584021 0.766589 0.518030
O O3 0.500000 0.000000 0.452349
O O4 0.912470 0.254395 0.269438
O O5 0.000000 0.000000 0.288094
O O6 0.250000 0.250000 0.218011
O O7 0.387121 0.233494 0.122408
O O8 0.341467 0.000000 0.211708
O O9 0.500000 0.840574 0.702245
O O10 0.350085 0.757653 0.661163
O O11 0.402572 0.730685 0.810943
O O12 0.368070 0.000000 0.753285
O O13 0.250000 0.250000 0.538040
O O14 0.333011 0.000000 0.574239
O O15 0.750000 0.750000 0.870437
O O16 0.827343 0.000000 0.874156
O O17 0.887292 0.786633 0.965325
O O18 0.750000 0.250000 0.041218
O O19 0.840343 0.000000 0.068504
#
# Coordination Sequence:
#
# PCOD8173147 Si02
#       7
#     4   4   8   8   8   8   8
#     4  10  22  44  66  87 122 159 194 243 304 369
#     4  12  26  44  66  95 128 161 202 251 306 369
#     4  11  22  40  66  95 126 164 208 253 308 368
#     4  10  20  36  56  80 115 159 202 248 302 356
#     4  10  21  39  64  90 119 157 199 244 301 361
#     4  10  20  33  52  80 114 155 201 250 300 350
#     4   9  17  32  54  81 115 157 201 251 304 354
#
# _framework density 20.566113000000001
#
# number of rings (size 3 to 8) (size 9 to 14) (size 15 to 20)
#    0.000    1.833    0.833    4.750    0.000    5.667 
#    1.500    1.667    0.000    0.000    0.000    0.000 
#    0.000    0.000    0.000    0.000    0.000    0.000 
#
# Total GULP energy -297445.995802 kJ/mol
# GULP energy per Si atom -12393.583158 kJ/mol
# Density = 2.051930 g / cm^3
# Si number density = 20.566113 Si / 1000 Ang^3
#
#
#
# Elastic Constant Matrix: (Units=GPa)
#
#
# Indices 1 2 3 4 5 6 
#
# 1 109.8780 37.3317 60.1018 0.0000 0.0000 0.0000
# 2 37.3317 105.5192 58.5613 0.0000 0.0000 0.0000
# 3 60.1018 58.5613 155.6498 0.0000 0.0000 0.0000
# 4 0.0000 0.0000 0.0000 33.1159 0.0000 0.0000
# 5 0.0000 0.0000 0.0000 0.0000 86.6413 0.0000
# 6 0.0000 0.0000 0.0000 0.0000 0.0000 29.4115
#
#
#
# Elastic Compliance Matrix: (Units=1/GPa)
#
#
# Indices 1 2 3 4 5 6 
#
# 1 0.011894 -0.002097 -0.003804 0.000000 0.000000 0.000000
# 2 -0.002097 0.012348 -0.003836 0.000000 0.000000 0.000000
# 3 -0.003804 -0.003836 0.009337 0.000000 0.000000 0.000000
# 4 0.000000 0.000000 0.000000 0.030197 0.000000 0.000000
# 5 0.000000 0.000000 0.000000 0.000000 0.011542 0.000000
# 6 0.000000 0.000000 0.000000 0.000000 0.000000 0.034000
#
#
# Mechanical properties :
#
#
# Convention : Reuss Voigt Hill
#
# Bulk Modulus (GPa) = 70.89646 75.89293 73.39470
# Shear Modulus (GPa) = 37.45525 44.17056 40.81290
#
# Velocity S-wave (km/s) = 4.27220 4.63939 4.45958
# Velocity P-wave (km/s) = 7.67352 8.10436 7.89188
#
# Compressibility (1/GPa) = 0.01410508
#
# Stress axis : x y z
#
# Youngs Moduli (GPa) = 84.07552 80.98651 107.10458
#
# Poissons Ratio (x) = 0.16983 0.40740
# Poissons Ratio (y) = 0.17631 0.41085
# Poissons Ratio (z) = 0.31980 0.31066
#
# Static dielectric constant tensor:
#      x y z
#    x 3.325010 0.000000 0.000000 
#    y 0.000000 3.843540 0.000000 
#    z 0.000000 0.000000 4.167470 
# 
# 
# High freq. dielectric constant tensor:
#      x y z
#    x 1.790560 0.000000 0.000000 
#    y 0.000000 1.802770 0.000000 
#    z 0.000000 0.000000 1.816070 
# 
# From -- ./inp_files/17078.got.cif
#   From: 2010.03.12/outbox.cif.g09.slc.cpg/sg35_9_cif.got.tgz:17078.got - 2010.04.14 02:02:04.
