data_PCOD8173297
_publ_section_title
;
Structure prediction by ZEFSAII (Michael W. Deem and Ramdas Pophale) SiO2 
 PCOD8173297
Probable space group: C M M 2
;
_chemical_formula_sum "Si O2"
_cell_formula_units_Z 64
_cell_length_a 15.524113
_cell_length_b 18.520111
_cell_length_c 12.038861
_cell_angle_alpha 90.000000
_cell_angle_beta 90.000000
_cell_angle_gamma 90.000000
_cell_volume 3461.272411
_symmetry_space_group_name_H-M "C M M 2"
_symmetry_group_IT_number 35
_symmetry_cell_setting 'orthorhombic'
loop_
_space_group_symop_operation_xyz
x,y,z
-x,-y,z
-x,y,z
x,-y,z
1/2+x,1/2+y,z
1/2-x,1/2-y,z
1/2-x,1/2+y,z
1/2+x,1/2-y,z
loop_
_atom_site_type_symbol
_atom_site_label
_atom_site_fract_x
_atom_site_fract_y
_atom_site_fract_z
Si Si1 0.598005 0.678923 0.740540
Si Si2 0.267098 0.080734 0.980365
Si Si3 0.161922 0.790249 0.201383
Si Si4 0.097180 0.672657 0.359375
Si Si5 0.400239 0.174355 0.614850
Si Si6 0.237237 0.586419 0.738453
Si Si7 0.225035 0.585175 0.221887
Si Si8 0.594058 0.350486 0.987892
O O1 0.500000 0.654228 0.707229
O O2 0.622655 0.752836 0.679741
O O3 0.669196 0.619189 0.704974
O O4 0.602620 0.693345 0.872568
O O5 0.291333 0.116703 0.861868
O O6 0.298382 0.000000 0.969850
O O7 0.307104 0.110184 0.096547
O O8 0.163372 0.085376 0.993917
O O9 0.250000 0.750000 0.172694
O O10 0.109721 0.748140 0.295570
O O11 0.186723 0.870577 0.247178
O O12 0.106914 0.793876 0.088445
O O13 0.121693 0.687182 0.486326
O O14 0.152888 0.607185 0.309892
O O15 0.000000 0.646219 0.347830
O O16 0.500000 0.151922 0.632906
O O17 0.338296 0.110227 0.655871
O O18 0.246789 0.500000 0.735944
O O19 0.243996 0.500000 0.228426
O O20 0.500000 0.386475 0.997451
#
# Coordination Sequence:
#
# PCOD8173297 Si02
#       8
#     8   8   8   8   8   8   8   8
#     4   9  19  34  53  78 106 136 170 209 253 303
#     4   8  16  31  48  71 104 135 161 194 244 304
#     4   9  18  31  49  73 101 131 165 203 246 296
#     4  10  21  36  53  72  97 131 169 211 255 297
#     4  10  22  38  53  72 101 137 176 216 258 305
#     4  10  20  34  55  79 104 137 171 208 256 304
#     4   9  18  33  52  74 101 131 163 201 246 296
#     4   9  16  27  47  75 101 127 163 204 243 288
#
# _framework density 18.490310000000001
#
# number of rings (size 3 to 8) (size 9 to 14) (size 15 to 20)
#    0.000    2.750    0.000    0.750    0.000    8.500 
#    0.000    5.625    0.000    3.375    0.000    1.750 
#    0.000    2.000    0.000    0.000    0.000    0.000 
#
# Total GULP energy -396434.469667 kJ/mol
# GULP energy per Si atom -12388.577177 kJ/mol
# Density = 1.844823 g / cm^3
# Si number density = 18.490310 Si / 1000 Ang^3
#
#
#
# Elastic Constant Matrix: (Units=GPa)
#
#
# Indices 1 2 3 4 5 6 
#
# 1 78.9580 29.0954 44.9139 0.0000 0.0000 0.0000
# 2 29.0954 86.6553 31.6025 0.0000 0.0000 0.0000
# 3 44.9139 31.6025 100.4376 0.0000 0.0000 0.0000
# 4 0.0000 0.0000 0.0000 17.6518 0.0000 0.0000
# 5 0.0000 0.0000 0.0000 0.0000 29.4250 0.0000
# 6 0.0000 0.0000 0.0000 0.0000 0.0000 17.7464
#
#
#
# Elastic Compliance Matrix: (Units=1/GPa)
#
#
# Indices 1 2 3 4 5 6 
#
# 1 0.017872 -0.003486 -0.006895 0.000000 0.000000 0.000000
# 2 -0.003486 0.013716 -0.002757 0.000000 0.000000 0.000000
# 3 -0.006895 -0.002757 0.013907 0.000000 0.000000 0.000000
# 4 0.000000 0.000000 0.000000 0.056652 0.000000 0.000000
# 5 0.000000 0.000000 0.000000 0.000000 0.033985 0.000000
# 6 0.000000 0.000000 0.000000 0.000000 0.000000 0.056349
#
#
# Mechanical properties :
#
#
# Convention : Reuss Voigt Hill
#
# Bulk Modulus (GPa) = 52.03179 53.03050 52.53114
# Shear Modulus (GPa) = 22.20620 23.66057 22.93339
#
# Velocity S-wave (km/s) = 3.46925 3.58106 3.52560
# Velocity P-wave (km/s) = 6.65197 6.77060 6.71155
#
# Compressibility (1/GPa) = 0.01921902
#
# Stress axis : x y z
#
# Youngs Moduli (GPa) = 55.95457 72.90850 71.90542
#
# Poissons Ratio (x) = 0.25416 0.49579
# Poissons Ratio (y) = 0.19506 0.19823
# Poissons Ratio (z) = 0.38581 0.20099
#
# Static dielectric constant tensor:
#      x y z
#    x 3.375580 0.000000 0.000000 
#    y 0.000000 3.252380 0.000000 
#    z 0.000000 0.000000 3.615110 
# 
# 
# High freq. dielectric constant tensor:
#      x y z
#    x 1.706420 0.000000 0.000000 
#    y 0.000000 1.699350 0.000000 
#    z 0.000000 0.000000 1.724020 
# 
# From -- ./inp_files/13189.got.cif
#   From: 2010.03.12/outbox.cif.g09.slc.cpg/sg35_7_cif.got.tgz:13189.got - 2010.04.14 02:02:04.
