data_PCOD8173725
_publ_section_title
;
Structure prediction by ZEFSAII (Michael W. Deem and Ramdas Pophale) SiO2 
 PCOD8173725
Probable space group: C M M 2
;
_chemical_formula_sum "Si O2"
_cell_formula_units_Z 64
_cell_length_a 9.504654
_cell_length_b 28.431494
_cell_length_c 12.797987
_cell_angle_alpha 90.000000
_cell_angle_beta 90.000000
_cell_angle_gamma 90.000000
_cell_volume 3458.419393
_symmetry_space_group_name_H-M "C M M 2"
_symmetry_group_IT_number 35
_symmetry_cell_setting 'orthorhombic'
loop_
_space_group_symop_operation_xyz
x,y,z
-x,-y,z
-x,y,z
x,-y,z
1/2+x,1/2+y,z
1/2-x,1/2-y,z
1/2-x,1/2+y,z
1/2+x,1/2-y,z
loop_
_atom_site_type_symbol
_atom_site_label
_atom_site_fract_x
_atom_site_fract_y
_atom_site_fract_z
Si Si1 0.845476 0.555467 0.566260
Si Si2 0.165483 0.946911 0.761268
Si Si3 0.834253 0.446217 0.332238
Si Si4 0.832860 0.201149 0.063470
Si Si5 0.664284 0.642668 0.868726
Si Si6 0.662599 0.295539 0.441933
Si Si7 0.836988 0.136244 0.258671
Si Si8 0.663043 0.295268 0.677377
O O1 0.861399 0.500000 0.570490
O O2 0.737123 0.571912 0.654995
O O3 0.790963 0.568628 0.450431
O O4 0.000000 0.578006 0.587100
O O5 0.209111 0.912460 0.857768
O O6 0.000000 0.943648 0.739571
O O7 0.211619 0.000000 0.790906
O O8 0.789500 0.500000 0.308492
O O9 0.752233 0.411883 0.252714
O O10 0.000000 0.440010 0.315956
O O11 0.750000 0.250000 0.068165
O O12 0.795745 0.170967 0.165225
O O13 0.000000 0.211355 0.055172
O O14 0.769773 0.170711 0.966199
O O15 0.500000 0.645862 0.888002
O O16 0.708152 0.664616 0.757837
O O17 0.500000 0.281585 0.430210
O O18 0.750000 0.250000 0.408711
O O19 0.702280 0.338134 0.366565
O O20 0.699952 0.311796 0.559789
O O21 0.000000 0.122311 0.252382
O O22 0.500000 0.282195 0.687798
O O23 0.750000 0.250000 0.709856
#
# Coordination Sequence:
#
# PCOD8173725 Si02
#       8
#     8   8   8   8   8   8   8   8
#     4   8  15  29  47  69 101 137 168 204 250 295
#     4   9  17  29  48  74 101 134 175 211 249 303
#     4   9  19  35  53  75 106 142 177 212 254 307
#     4  10  21  38  57  78 103 134 174 220 266 312
#     4   9  18  32  51  73 101 134 169 211 258 302
#     4   9  18  31  47  70 100 131 164 206 258 312
#     4  10  21  34  52  78 105 134 172 216 263 309
#     4   9  17  30  47  67  95 128 160 201 252 303
#
# _framework density 18.505565000000001
#
# number of rings (size 3 to 8) (size 9 to 14) (size 15 to 20)
#    0.000    2.875    0.000    1.500    1.750    1.750 
#    0.000    3.125    0.000    2.250    0.000    1.750 
#    0.000    0.000    0.000    0.000    0.000    0.000 
#
# Total GULP energy -396619.264665 kJ/mol
# GULP energy per Si atom -12394.352021 kJ/mol
# Density = 1.846345 g / cm^3
# Si number density = 18.505565 Si / 1000 Ang^3
#
#
#
# Elastic Constant Matrix: (Units=GPa)
#
#
# Indices 1 2 3 4 5 6 
#
# 1 43.5471 50.0873 37.9426 0.0000 0.0000 0.0000
# 2 50.0873 133.2543 70.8813 0.0000 0.0000 0.0000
# 3 37.9426 70.8813 90.2952 0.0000 0.0000 0.0000
# 4 0.0000 0.0000 0.0000 -14.2163 0.0000 0.0000
# 5 0.0000 0.0000 0.0000 0.0000 16.8469 0.0000
# 6 0.0000 0.0000 0.0000 0.0000 0.0000 28.6105
#
#
#
# Elastic Compliance Matrix: (Units=1/GPa)
#
#
# Indices 1 2 3 4 5 6 
#
# 1 0.044858 -0.011734 -0.009638 0.000000 0.000000 0.000000
# 2 -0.011734 0.015954 -0.007593 0.000000 0.000000 0.000000
# 3 -0.009638 -0.007593 0.021085 0.000000 0.000000 0.000000
# 4 0.000000 0.000000 0.000000 -0.070342 0.000000 0.000000
# 5 0.000000 0.000000 0.000000 0.000000 0.059358 0.000000
# 6 0.000000 0.000000 0.000000 0.000000 0.000000 0.034952
#
#
# Mechanical properties :
#
#
# Convention : Reuss Voigt Hill
#
# Bulk Modulus (GPa) = 41.72533 64.99103 53.35818
# Shear Modulus (GPa) = 29.10599 13.46057 21.28328
#
# Velocity S-wave (km/s) = 3.97019 2.69992 3.39499
# Velocity P-wave (km/s) = 6.60401 6.70190 6.65313
#
# Compressibility (1/GPa) = 0.02396626
#
# Stress axis : x y z
#
# Youngs Moduli (GPa) = 22.29250 62.68008 47.42638
#
# Poissons Ratio (x) = 0.73551 0.45711
# Poissons Ratio (y) = 0.26159 0.36011
# Poissons Ratio (z) = 0.21486 0.47593
#
# Static dielectric constant tensor:
#      x y z
#    x 3.314370 0.000000 0.000000 
#    y 0.000000 3.739240 0.000000 
#    z 0.000000 0.000000 3.480070 
# 
# 
# High freq. dielectric constant tensor:
#      x y z
#    x 1.698270 0.000000 0.000000 
#    y 0.000000 1.718310 0.000000 
#    z 0.000000 0.000000 1.707030 
# 
# From -- ./inp_files/11863.got.cif
#   From: 2010.03.12/outbox.cif.g09.slc.cpg/sg35_6_cif.got.tgz:11863.got - 2010.04.14 02:02:04.
