data_PCOD8173523
_publ_section_title
;
Structure prediction by ZEFSAII (Michael W. Deem and Ramdas Pophale) SiO2 
 PCOD8173523
Probable space group: C M M 2
;
_chemical_formula_sum "Si O2"
_cell_formula_units_Z 56
_cell_length_a 8.935103
_cell_length_b 21.665012
_cell_length_c 14.647308
_cell_angle_alpha 90.000000
_cell_angle_beta 90.000000
_cell_angle_gamma 90.000000
_cell_volume 2835.412901
_symmetry_space_group_name_H-M "C M M 2"
_symmetry_group_IT_number 35
_symmetry_cell_setting 'orthorhombic'
loop_
_space_group_symop_operation_xyz
x,y,z
-x,-y,z
-x,y,z
x,-y,z
1/2+x,1/2+y,z
1/2-x,1/2-y,z
1/2-x,1/2+y,z
1/2+x,1/2-y,z
loop_
_atom_site_type_symbol
_atom_site_label
_atom_site_fract_x
_atom_site_fract_y
_atom_site_fract_z
Si Si1 0.177472 0.000000 0.803890
Si Si2 0.669814 0.602723 0.500326
Si Si3 0.825733 0.621357 0.820634
Si Si4 0.673940 0.000000 0.608364
Si Si5 0.826301 0.314282 0.002892
Si Si6 0.329720 0.313561 0.660569
Si Si7 0.323341 0.930286 0.119222
Si Si8 0.330969 0.429028 0.304099
O O1 0.246129 0.940916 0.855873
O O2 0.225512 0.000000 0.698381
O O3 0.000000 0.000000 0.811484
O O4 0.500000 0.575859 0.508213
O O5 0.789646 0.558792 0.546956
O O6 0.679758 0.667553 0.554171
O O7 0.709690 0.611960 0.393411
O O8 0.752562 0.636742 0.723666
O O9 0.000000 0.608082 0.805904
O O10 0.799523 0.675062 0.894996
O O11 0.500000 0.000000 0.635640
O O12 0.750000 0.250000 0.033102
O O13 0.760623 0.375168 0.054710
O O14 0.000000 0.307273 0.026459
O O15 0.500000 0.308058 0.694039
O O16 0.250000 0.250000 0.676252
O O17 0.500000 0.932608 0.110267
O O18 0.279489 0.911780 0.222190
O O19 0.259872 0.000000 0.095927
O O20 0.500000 0.415860 0.270965
O O21 0.311567 0.500000 0.334071
#
# Coordination Sequence:
#
# PCOD8173523 Si02
#       8
#     4   8   8   4   8   8   8   8
#     4  12  24  38  56  85 122 157 190 235 296 348
#     4  10  20  36  56  79 114 154 188 231 287 340
#     4  11  23  39  61  87 115 150 196 243 292 353
#     4  12  22  32  54  85 114 147 188 231 276 328
#     4  10  23  41  63  87 116 155 196 244 300 355
#     4  11  23  38  57  78 111 156 198 240 289 343
#     4   9  19  37  60  86 117 151 189 239 299 355
#     4   9  17  32  56  84 114 149 187 231 288 347
#
# _framework density 19.750209999999999
#
# number of rings (size 3 to 8) (size 9 to 14) (size 15 to 20)
#    0.000    1.714    2.143    2.571    1.000    4.000 
#    0.000    0.714    0.000    3.429    0.000    0.000 
#    0.000    0.000    0.000    0.000    0.000    0.000 
#
# Total GULP energy -347128.790090 kJ/mol
# GULP energy per Si atom -12397.456789 kJ/mol
# Density = 1.970526 g / cm^3
# Si number density = 19.750210 Si / 1000 Ang^3
#
#
#
# Elastic Constant Matrix: (Units=GPa)
#
#
# Indices 1 2 3 4 5 6 
#
# 1 90.3885 43.4847 24.8018 0.0000 0.0000 0.0000
# 2 43.4847 117.4966 39.6681 0.0000 0.0000 0.0000
# 3 24.8018 39.6681 86.4082 0.0000 0.0000 0.0000
# 4 0.0000 0.0000 0.0000 25.4518 0.0000 0.0000
# 5 0.0000 0.0000 0.0000 0.0000 28.8447 0.0000
# 6 0.0000 0.0000 0.0000 0.0000 0.0000 29.8291
#
#
#
# Elastic Compliance Matrix: (Units=1/GPa)
#
#
# Indices 1 2 3 4 5 6 
#
# 1 0.013719 -0.004435 -0.001902 0.000000 0.000000 0.000000
# 2 -0.004435 0.011506 -0.004009 0.000000 0.000000 0.000000
# 3 -0.001902 -0.004009 0.013959 0.000000 0.000000 0.000000
# 4 0.000000 0.000000 0.000000 0.039290 0.000000 0.000000
# 5 0.000000 0.000000 0.000000 0.000000 0.034668 0.000000
# 6 0.000000 0.000000 0.000000 0.000000 0.000000 0.033524
#
#
# Mechanical properties :
#
#
# Convention : Reuss Voigt Hill
#
# Bulk Modulus (GPa) = 54.07690 56.68916 55.38303
# Shear Modulus (GPa) = 28.81472 29.24771 29.03121
#
# Velocity S-wave (km/s) = 3.82377 3.85240 3.83811
# Velocity P-wave (km/s) = 6.85090 6.96802 6.90971
#
# Compressibility (1/GPa) = 0.01849219
#
# Stress axis : x y z
#
# Youngs Moduli (GPa) = 72.89223 86.91244 71.63711
#
# Poissons Ratio (x) = 0.38548 0.13623
# Poissons Ratio (y) = 0.32330 0.28719
# Poissons Ratio (z) = 0.13861 0.34843
#
# Static dielectric constant tensor:
#      x y z
#    x 3.519380 0.000000 0.000000 
#    y 0.000000 3.583140 0.000000 
#    z 0.000000 0.000000 3.569250 
# 
# 
# High freq. dielectric constant tensor:
#      x y z
#    x 1.764750 0.000000 0.000000 
#    y 0.000000 1.758620 0.000000 
#    z 0.000000 0.000000 1.765900 
# 
# From -- ./inp_files/15740.got.cif
#   From: 2010.03.12/outbox.cif.g09.slc.cpg/sg35_8_cif.got.tgz:15740.got - 2010.04.14 02:02:04.
