data_PCOD8173324
_publ_section_title
;
Structure prediction by ZEFSAII (Michael W. Deem and Ramdas Pophale) SiO2 
 PCOD8173324
Probable space group: C M M 2
;
_chemical_formula_sum "Si O2"
_cell_formula_units_Z 48
_cell_length_a 27.975145
_cell_length_b 8.817942
_cell_length_c 10.225127
_cell_angle_alpha 90.000000
_cell_angle_beta 90.000000
_cell_angle_gamma 90.000000
_cell_volume 2522.367111
_symmetry_space_group_name_H-M "C M M 2"
_symmetry_group_IT_number 35
_symmetry_cell_setting 'orthorhombic'
loop_
_space_group_symop_operation_xyz
x,y,z
-x,-y,z
-x,y,z
x,-y,z
1/2+x,1/2+y,z
1/2-x,1/2-y,z
1/2-x,1/2+y,z
1/2+x,1/2-y,z
loop_
_atom_site_type_symbol
_atom_site_label
_atom_site_fract_x
_atom_site_fract_y
_atom_site_fract_z
Si Si1 0.644644 0.178931 0.078060
Si Si2 0.198595 0.321794 0.820978
Si Si3 0.053038 0.673550 0.428151
Si Si4 0.149839 0.323970 0.555589
Si Si5 0.946061 0.823774 0.154074
Si Si6 0.699141 0.678989 0.314643
O O1 0.589237 0.227068 0.061334
O O2 0.662057 0.260898 0.208511
O O3 0.649262 0.000000 0.094287
O O4 0.674518 0.238702 0.953959
O O5 0.205534 0.500000 0.828402
O O6 0.250000 0.250000 0.800046
O O7 0.163863 0.275664 0.701948
O O8 0.057943 0.500000 0.379460
O O9 0.093291 0.709784 0.536848
O O10 0.061691 0.781464 0.305352
O O11 0.000000 0.701807 0.488531
O O12 0.161587 0.500000 0.529435
O O13 0.181846 0.225745 0.458036
O O14 0.000000 0.785301 0.110100
O O15 0.934437 0.000000 0.137820
O O16 0.703241 0.500000 0.305565
O O17 0.750000 0.750000 0.281800
#
# Coordination Sequence:
#
# PCOD8173324 Si02
#       6
#     8   8   8   8   8   8
#     4  11  22  38  58  83 114 150 192 237 285 340
#     4  10  23  40  58  81 112 152 194 236 285 341
#     4   9  17  31  55  84 114 149 186 227 280 336
#     4  10  20  37  58  84 116 148 187 235 284 340
#     4  10  20  34  55  85 118 149 187 234 283 338
#     4  12  24  37  56  83 112 145 188 239 290 340
#
# _framework density 19.029744999999998
#
# number of rings (size 3 to 8) (size 9 to 14) (size 15 to 20)
#    0.000    1.667    1.667    3.500    0.000    5.667 
#    0.000    0.833    0.000    3.000    0.000    2.333 
#    0.000    0.000    0.000    0.000    0.000    0.000 
#
# Total GULP energy -297654.313979 kJ/mol
# GULP energy per Si atom -12402.263082 kJ/mol
# Density = 1.898643 g / cm^3
# Si number density = 19.029745 Si / 1000 Ang^3
#
#
#
# Elastic Constant Matrix: (Units=GPa)
#
#
# Indices 1 2 3 4 5 6 
#
# 1 131.2132 36.6749 36.2785 0.0000 0.0000 0.0000
# 2 36.6749 78.0596 29.5318 0.0000 0.0000 0.0000
# 3 36.2785 29.5318 77.9380 0.0000 0.0000 0.0000
# 4 0.0000 0.0000 0.0000 15.8077 0.0000 0.0000
# 5 0.0000 0.0000 0.0000 0.0000 35.0259 0.0000
# 6 0.0000 0.0000 0.0000 0.0000 0.0000 32.2791
#
#
#
# Elastic Compliance Matrix: (Units=1/GPa)
#
#
# Indices 1 2 3 4 5 6 
#
# 1 0.009393 -0.003221 -0.003152 0.000000 0.000000 0.000000
# 2 -0.003221 0.016059 -0.004586 0.000000 0.000000 0.000000
# 3 -0.003152 -0.004586 0.016035 0.000000 0.000000 0.000000
# 4 0.000000 0.000000 0.000000 0.063260 0.000000 0.000000
# 5 0.000000 0.000000 0.000000 0.000000 0.028550 0.000000
# 6 0.000000 0.000000 0.000000 0.000000 0.000000 0.030980
#
#
# Mechanical properties :
#
#
# Convention : Reuss Voigt Hill
#
# Bulk Modulus (GPa) = 51.09702 54.68677 52.89190
# Shear Modulus (GPa) = 25.94476 28.93759 27.44118
#
# Velocity S-wave (km/s) = 3.69640 3.90378 3.80151
# Velocity P-wave (km/s) = 6.71768 7.00851 6.86464
#
# Compressibility (1/GPa) = 0.01957061
#
# Stress axis : x y z
#
# Youngs Moduli (GPa) = 106.46449 62.27121 62.36190
#
# Poissons Ratio (x) = 0.20055 0.19655
# Poissons Ratio (y) = 0.34288 0.28598
# Poissons Ratio (z) = 0.33556 0.28556
#
# Static dielectric constant tensor:
#      x y z
#    x 3.945120 0.000000 0.000000 
#    y 0.000000 3.460810 0.000000 
#    z 0.000000 0.000000 3.366600 
# 
# 
# High freq. dielectric constant tensor:
#      x y z
#    x 1.760910 0.000000 0.000000 
#    y 0.000000 1.739690 0.000000 
#    z 0.000000 0.000000 1.714910 
# 
# From -- ./inp_files/5313.got.cif
#   From: 2010.03.12/outbox.cif.g09.slc.cpg/sg35_3_cif.got.tgz:5313.got - 2010.04.14 02:02:04.
