data_PCOD8173562
_publ_section_title
;
Structure prediction by ZEFSAII (Michael W. Deem and Ramdas Pophale) SiO2 
 PCOD8173562
Probable space group: C M M 2
;
_chemical_formula_sum "Si O2"
_cell_formula_units_Z 48
_cell_length_a 8.689731
_cell_length_b 18.746978
_cell_length_c 15.217521
_cell_angle_alpha 90.000000
_cell_angle_beta 90.000000
_cell_angle_gamma 90.000000
_cell_volume 2479.028457
_symmetry_space_group_name_H-M "C M M 2"
_symmetry_group_IT_number 35
_symmetry_cell_setting 'orthorhombic'
loop_
_space_group_symop_operation_xyz
x,y,z
-x,-y,z
-x,y,z
x,-y,z
1/2+x,1/2+y,z
1/2-x,1/2-y,z
1/2-x,1/2+y,z
1/2+x,1/2-y,z
loop_
_atom_site_type_symbol
_atom_site_label
_atom_site_fract_x
_atom_site_fract_y
_atom_site_fract_z
Si Si1 0.818723 0.176039 0.079070
Si Si2 0.181582 0.582443 0.426316
Si Si3 0.181163 0.171406 0.585418
Si Si4 0.817473 0.825923 0.277072
Si Si5 0.675457 0.582852 0.919813
Si Si6 0.178819 0.417095 0.738761
O O1 0.750000 0.250000 0.046804
O O2 0.762757 0.157064 0.177525
O O3 0.000000 0.182015 0.079240
O O4 0.760629 0.118168 0.008923
O O5 0.228453 0.500000 0.437526
O O6 0.250488 0.626873 0.505750
O O7 0.250205 0.610665 0.335268
O O8 0.000000 0.592371 0.425898
O O9 0.250000 0.250000 0.586734
O O10 0.219807 0.131140 0.675308
O O11 0.000000 0.177259 0.573627
O O12 0.750000 0.750000 0.308572
O O13 0.000000 0.823165 0.286876
O O14 0.500000 0.606032 0.899685
O O15 0.687590 0.500000 0.937648
O O16 0.780997 0.605846 0.838013
O O17 0.220876 0.500000 0.723103
O O18 0.000000 0.402797 0.720386
#
# Coordination Sequence:
#
# PCOD8173562 Si02
#       6
#     8   8   8   8   8   8
#     4   9  19  34  54  80 110 146 185 230 279 327
#     4  11  24  41  60  84 115 148 183 227 278 331
#     4  12  25  41  62  86 113 146 185 228 276 331
#     4  10  20  36  58  83 113 149 190 233 279 331
#     4   9  18  34  55  79 109 147 190 232 276 327
#     4  10  21  38  59  84 115 149 186 230 279 330
#
# _framework density 19.362421999999999
#
# number of rings (size 3 to 8) (size 9 to 14) (size 15 to 20)
#    0.000    1.833    0.000    4.000    0.000    7.000 
#    0.000    3.333    0.000    2.000    0.000    0.000 
#    0.000    0.000    0.000    0.000    0.000    0.000 
#
# Total GULP energy -297670.547864 kJ/mol
# GULP energy per Si atom -12402.939494 kJ/mol
# Density = 1.931835 g / cm^3
# Si number density = 19.362422 Si / 1000 Ang^3
#
#
#
# Elastic Constant Matrix: (Units=GPa)
#
#
# Indices 1 2 3 4 5 6 
#
# 1 62.6034 39.6901 28.1151 0.0000 0.0000 0.0000
# 2 39.6901 105.9983 69.1937 0.0000 0.0000 0.0000
# 3 28.1151 69.1937 119.9097 0.0000 0.0000 0.0000
# 4 0.0000 0.0000 0.0000 43.0327 0.0000 0.0000
# 5 0.0000 0.0000 0.0000 0.0000 28.5060 0.0000
# 6 0.0000 0.0000 0.0000 0.0000 0.0000 32.4360
#
#
#
# Elastic Compliance Matrix: (Units=1/GPa)
#
#
# Indices 1 2 3 4 5 6 
#
# 1 0.020975 -0.007450 -0.000619 0.000000 0.000000 0.000000
# 2 -0.007450 0.017781 -0.008514 0.000000 0.000000 0.000000
# 3 -0.000619 -0.008514 0.013398 0.000000 0.000000 0.000000
# 4 0.000000 0.000000 0.000000 0.023238 0.000000 0.000000
# 5 0.000000 0.000000 0.000000 0.000000 0.035080 0.000000
# 6 0.000000 0.000000 0.000000 0.000000 0.000000 0.030830
#
#
# Mechanical properties :
#
#
# Convention : Reuss Voigt Hill
#
# Bulk Modulus (GPa) = 52.66407 62.50103 57.58255
# Shear Modulus (GPa) = 27.65534 30.89576 29.27555
#
# Velocity S-wave (km/s) = 3.78338 3.99890 3.89263
# Velocity P-wave (km/s) = 6.80761 7.32606 7.07159
#
# Compressibility (1/GPa) = 0.01898828
#
# Stress axis : x y z
#
# Youngs Moduli (GPa) = 47.67674 56.23885 74.63942
#
# Poissons Ratio (x) = 0.41896 0.04621
# Poissons Ratio (y) = 0.35517 0.63548
# Poissons Ratio (z) = 0.02952 0.47882
#
# Static dielectric constant tensor:
#      x y z
#    x 3.595290 0.000000 0.000000 
#    y 0.000000 3.615560 0.000000 
#    z 0.000000 0.000000 3.833350 
# 
# 
# High freq. dielectric constant tensor:
#      x y z
#    x 1.758930 0.000000 0.000000 
#    y 0.000000 1.753270 0.000000 
#    z 0.000000 0.000000 1.768170 
# 
# From -- ./inp_files/15100.got.cif
#   From: 2010.03.12/outbox.cif.g09.slc.cpg/sg35_8_cif.got.tgz:15100.got - 2010.04.14 02:02:04.
