data_PCOD8173206
_publ_section_title
;
Structure prediction by ZEFSAII (Michael W. Deem and Ramdas Pophale) SiO2 
 PCOD8173206
Probable space group: C M M 2
;
_chemical_formula_sum "Si O2"
_cell_formula_units_Z 48
_cell_length_a 17.901696
_cell_length_b 8.937547
_cell_length_c 15.778336
_cell_angle_alpha 90.000000
_cell_angle_beta 90.000000
_cell_angle_gamma 90.000000
_cell_volume 2524.490360
_symmetry_space_group_name_H-M "C M M 2"
_symmetry_group_IT_number 35
_symmetry_cell_setting 'orthorhombic'
loop_
_space_group_symop_operation_xyz
x,y,z
-x,-y,z
-x,y,z
x,-y,z
1/2+x,1/2+y,z
1/2-x,1/2-y,z
1/2-x,1/2+y,z
1/2+x,1/2-y,z
loop_
_atom_site_type_symbol
_atom_site_label
_atom_site_fract_x
_atom_site_fract_y
_atom_site_fract_z
Si Si1 0.330088 0.676527 0.464380
Si Si2 0.081945 0.177846 0.962835
Si Si3 0.911350 0.330666 0.615564
Si Si4 0.087948 0.672269 0.311399
Si Si5 0.089333 0.168086 0.781519
Si Si6 0.089121 0.167704 0.144041
O O1 0.321266 0.500000 0.463090
O O2 0.250000 0.750000 0.472751
O O3 0.379658 0.723519 0.543938
O O4 0.369644 0.727308 0.378641
O O5 0.121963 0.224237 0.873635
O O6 0.000000 0.252503 0.962950
O O7 0.073774 0.000000 0.962431
O O8 0.122308 0.223278 0.052071
O O9 0.883798 0.500000 0.600514
O O10 0.881682 0.276740 0.707363
O O11 0.000000 0.319814 0.611312
O O12 0.108946 0.500000 0.325924
O O13 0.115610 0.720669 0.217876
O O14 0.000000 0.699987 0.322065
O O15 0.000000 0.169810 0.787007
O O16 0.117138 0.000000 0.761202
O O17 0.000000 0.166927 0.136560
O O18 0.117406 0.000000 0.165510
#
# Coordination Sequence:
#
# PCOD8173206 Si02
#       6
#     8   8   8   8   8   8
#     4  12  25  40  57  75  97 127 165 208 255 306
#     4   7  10  18  35  61  94 129 164 203 242 281
#     4  10  20  34  52  76 106 136 167 206 249 293
#     4  10  20  34  52  76 106 136 167 206 249 293
#     4   8  13  23  41  66  96 131 169 205 243 287
#     4   8  13  23  41  66  96 131 169 205 243 287
#
# _framework density 19.013738
#
# number of rings (size 3 to 8) (size 9 to 14) (size 15 to 20)
#    0.000    2.833    0.000    5.000    0.000    4.000 
#    0.000    0.833    0.000    5.000    0.000    1.167 
#    0.000    0.000    0.000    0.000    0.000    0.000 
#
# Total GULP energy -297346.849336 kJ/mol
# GULP energy per Si atom -12389.452056 kJ/mol
# Density = 1.897046 g / cm^3
# Si number density = 19.013738 Si / 1000 Ang^3
#
#
#
# Elastic Constant Matrix: (Units=GPa)
#
#
# Indices 1 2 3 4 5 6 
#
# 1 12.8807 14.9493 13.1028 0.0000 0.0000 0.0000
# 2 14.9493 100.3791 44.3088 0.0000 0.0000 0.0000
# 3 13.1028 44.3088 155.5036 0.0000 0.0000 0.0000
# 4 0.0000 0.0000 0.0000 16.9932 0.0000 0.0000
# 5 0.0000 0.0000 0.0000 0.0000 -4.2926 0.0000
# 6 0.0000 0.0000 0.0000 0.0000 0.0000 18.5320
#
#
#
# Elastic Compliance Matrix: (Units=1/GPa)
#
#
# Indices 1 2 3 4 5 6 
#
# 1 0.096683 -0.012357 -0.004626 0.000000 0.000000 0.000000
# 2 -0.012357 0.012975 -0.002656 0.000000 0.000000 0.000000
# 3 -0.004626 -0.002656 0.007577 0.000000 0.000000 0.000000
# 4 0.000000 0.000000 0.000000 0.058847 0.000000 0.000000
# 5 0.000000 0.000000 0.000000 0.000000 -0.232957 0.000000
# 6 0.000000 0.000000 0.000000 0.000000 0.000000 0.053961
#
#
# Mechanical properties :
#
#
# Convention : Reuss Voigt Hill
#
# Bulk Modulus (GPa) = 12.82745 45.94281 29.38513
# Shear Modulus (GPa) = 80.19596 19.34003 49.76800
#
# Velocity S-wave (km/s) = 6.50150 3.19276 5.12168
# Velocity P-wave (km/s) = 7.94483 6.14874 7.10378
#
# Compressibility (1/GPa) = 0.07795785
#
# Stress axis : x y z
#
# Youngs Moduli (GPa) = 10.34313 77.07216 131.97472
#
# Poissons Ratio (x) = 0.95238 0.61045
# Poissons Ratio (y) = 0.12781 0.35050
# Poissons Ratio (z) = 0.04784 0.20469
#
# Static dielectric constant tensor:
#      x y z
#    x 2.920960 0.000000 0.000000 
#    y 0.000000 3.401620 0.000000 
#    z 0.000000 0.000000 4.169040 
# 
# 
# High freq. dielectric constant tensor:
#      x y z
#    x 1.667890 0.000000 0.000000 
#    y 0.000000 1.724780 0.000000 
#    z 0.000000 0.000000 1.772200 
# 
# From -- ./inp_files/18746.got.cif
#   From: 2010.03.12/outbox.cif.g09.slc.cpg/sg35_10_cif.got.tgz:18746.got - 2010.04.14 02:02:04.
