data_PCOD8173683
_publ_section_title
;
Structure prediction by ZEFSAII (Michael W. Deem and Ramdas Pophale) SiO2 
 PCOD8173683
Probable space group: C M M 2
;
_chemical_formula_sum "Si O2"
_cell_formula_units_Z 56
_cell_length_a 9.157145
_cell_length_b 21.744945
_cell_length_c 14.596459
_cell_angle_alpha 90.000000
_cell_angle_beta 90.000000
_cell_angle_gamma 90.000000
_cell_volume 2906.470480
_symmetry_space_group_name_H-M "C M M 2"
_symmetry_group_IT_number 35
_symmetry_cell_setting 'orthorhombic'
loop_
_space_group_symop_operation_xyz
x,y,z
-x,-y,z
-x,y,z
x,-y,z
1/2+x,1/2+y,z
1/2-x,1/2-y,z
1/2-x,1/2+y,z
1/2+x,1/2-y,z
loop_
_atom_site_type_symbol
_atom_site_label
_atom_site_fract_x
_atom_site_fract_y
_atom_site_fract_z
Si Si1 0.326768 0.500000 0.080420
Si Si2 0.826696 0.068678 0.594045
Si Si3 0.666722 0.428698 0.801294
Si Si4 0.325929 0.313353 0.477734
Si Si5 0.667382 0.000000 0.269033
Si Si6 0.163349 0.309281 0.129843
Si Si7 0.669724 0.895242 0.971523
Si Si8 0.833567 0.631603 0.315423
O O1 0.500000 0.500000 0.076122
O O2 0.277850 0.500000 0.185078
O O3 0.266776 0.441825 0.027723
O O4 0.775946 0.081134 0.698210
O O5 0.769226 0.126507 0.534382
O O6 0.000000 0.066823 0.590093
O O7 0.769279 0.000000 0.562956
O O8 0.500000 0.406051 0.811054
O O9 0.679246 0.500000 0.829508
O O10 0.769392 0.388730 0.868388
O O11 0.500000 0.305559 0.483674
O O12 0.250000 0.250000 0.513303
O O13 0.275994 0.326095 0.373704
O O14 0.695128 0.059255 0.333587
O O15 0.500000 0.000000 0.231452
O O16 0.250000 0.250000 0.155564
O O17 0.198181 0.360473 0.206972
O O18 0.000000 0.287401 0.139752
O O19 0.192103 0.331813 0.026332
O O20 0.500000 0.915209 0.969810
O O21 0.000000 0.649907 0.341115
#
# Coordination Sequence:
#
# PCOD8173683 Si02
#       8
#     4   8   8   8   4   8   8   8
#     4  12  22  32  52  83 112 145 186 225 266 322
#     4   8  17  36  60  85 115 147 184 237 297 347
#     4   9  17  32  56  85 111 140 183 231 282 342
#     4  11  23  39  61  86 115 153 196 242 289 345
#     4  10  20  38  58  81 118 153 180 227 292 344
#     4  10  22  38  55  74 105 149 191 230 278 330
#     4  11  21  35  54  79 114 151 183 227 280 330
#     4  10  21  38  59  83 114 151 186 229 289 345
#
# _framework density 19.267355999999999
#
# number of rings (size 3 to 8) (size 9 to 14) (size 15 to 20)
#    0.000    2.000    2.143    2.786    1.000    3.429 
#    0.000    2.143    0.000    5.143    0.000    0.000 
#    0.000    0.000    0.000    0.000    0.000    0.000 
#
# Total GULP energy -347045.870747 kJ/mol
# GULP energy per Si atom -12394.495384 kJ/mol
# Density = 1.922350 g / cm^3
# Si number density = 19.267356 Si / 1000 Ang^3
#
#
#
# Elastic Constant Matrix: (Units=GPa)
#
#
# Indices 1 2 3 4 5 6 
#
# 1 82.8894 42.9086 33.9626 0.0000 0.0000 0.0000
# 2 42.9086 120.0254 41.9259 0.0000 0.0000 0.0000
# 3 33.9626 41.9259 87.5006 0.0000 0.0000 0.0000
# 4 0.0000 0.0000 0.0000 27.0849 0.0000 0.0000
# 5 0.0000 0.0000 0.0000 0.0000 26.1974 0.0000
# 6 0.0000 0.0000 0.0000 0.0000 0.0000 24.1463
#
#
#
# Elastic Compliance Matrix: (Units=1/GPa)
#
#
# Indices 1 2 3 4 5 6 
#
# 1 0.015972 -0.004257 -0.004160 0.000000 0.000000 0.000000
# 2 -0.004257 0.011141 -0.003686 0.000000 0.000000 0.000000
# 3 -0.004160 -0.003686 0.014809 0.000000 0.000000 0.000000
# 4 0.000000 0.000000 0.000000 0.036921 0.000000 0.000000
# 5 0.000000 0.000000 0.000000 0.000000 0.038172 0.000000
# 6 0.000000 0.000000 0.000000 0.000000 0.000000 0.041414
#
#
# Mechanical properties :
#
#
# Convention : Reuss Voigt Hill
#
# Bulk Modulus (GPa) = 56.44249 58.66772 57.55510
# Shear Modulus (GPa) = 26.51952 26.92694 26.72323
#
# Velocity S-wave (km/s) = 3.71401 3.74243 3.72824
# Velocity P-wave (km/s) = 6.91012 7.01354 6.96202
#
# Compressibility (1/GPa) = 0.01771715
#
# Stress axis : x y z
#
# Youngs Moduli (GPa) = 62.60821 89.75907 67.52579
#
# Poissons Ratio (x) = 0.38210 0.28089
# Poissons Ratio (y) = 0.26652 0.24889
# Poissons Ratio (z) = 0.26044 0.33084
#
# Static dielectric constant tensor:
#      x y z
#    x 3.371970 0.000000 0.000000 
#    y 0.000000 3.795850 0.000000 
#    z 0.000000 0.000000 3.567520 
# 
# 
# High freq. dielectric constant tensor:
#      x y z
#    x 1.735830 0.000000 0.000000 
#    y 0.000000 1.742350 0.000000 
#    z 0.000000 0.000000 1.745130 
# 
# From -- ./inp_files/15789.got.cif
#   From: 2010.03.12/outbox.cif.g09.slc.cpg/sg35_8_cif.got.tgz:15789.got - 2010.04.14 02:02:04.
