data_PCOD8173714
_publ_section_title
;
Structure prediction by ZEFSAII (Michael W. Deem and Ramdas Pophale) SiO2 
 PCOD8173714
Probable space group: C M M 2
;
_chemical_formula_sum "Si O2"
_cell_formula_units_Z 48
_cell_length_a 8.364681
_cell_length_b 34.122304
_cell_length_c 7.962890
_cell_angle_alpha 90.000000
_cell_angle_beta 90.000000
_cell_angle_gamma 90.000000
_cell_volume 2272.785486
_symmetry_space_group_name_H-M "C M M 2"
_symmetry_group_IT_number 35
_symmetry_cell_setting 'orthorhombic'
loop_
_space_group_symop_operation_xyz
x,y,z
-x,-y,z
-x,y,z
x,-y,z
1/2+x,1/2+y,z
1/2-x,1/2-y,z
1/2-x,1/2+y,z
1/2+x,1/2-y,z
loop_
_atom_site_type_symbol
_atom_site_label
_atom_site_fract_x
_atom_site_fract_y
_atom_site_fract_z
Si Si1 0.818578 0.500000 0.476511
Si Si2 0.810571 0.793744 0.809604
Si Si3 0.688237 0.341978 0.495333
Si Si4 0.188820 0.844925 0.123521
Si Si5 0.315228 0.079321 0.978391
Si Si6 0.684154 0.576160 0.624414
Si Si7 0.184285 0.000000 0.123954
O O1 0.791399 0.538311 0.588869
O O2 0.694088 0.500000 0.324531
O O3 0.000000 0.500000 0.409656
O O4 0.750000 0.750000 0.818223
O O5 0.737899 0.814165 0.641120
O O6 0.000000 0.793923 0.805761
O O7 0.749196 0.816081 0.976969
O O8 0.500000 0.341594 0.522925
O O9 0.734594 0.327257 0.307780
O O10 0.746430 0.386898 0.516005
O O11 0.276163 0.886685 0.111283
O O12 0.000000 0.851853 0.111626
O O13 0.500000 0.080203 0.927089
O O14 0.274138 0.037762 0.056805
O O15 0.204515 0.087691 0.818206
O O16 0.500000 0.566397 0.585837
O O17 0.000000 0.000000 0.066643
#
# Coordination Sequence:
#
# PCOD8173714 Si02
#       7
#     4   8   8   8   8   8   4
#     4  12  25  40  57  90 130 160 204 267 320 359
#     4  10  21  39  61  90 123 158 200 251 307 372
#     4   9  19  37  63  90 116 155 207 253 296 360
#     4  10  20  39  65  89 120 163 209 252 304 380
#     4  12  24  39  60  90 125 159 204 266 323 362
#     4  11  21  39  63  87 118 165 216 253 303 376
#     4  12  25  42  61  84 118 168 218 255 306 377
#
# _framework density 21.11946
#
# number of rings (size 3 to 8) (size 9 to 14) (size 15 to 20)
#    0.000    1.333    1.667    5.000    0.000    2.667 
#    0.000    1.667    0.000    0.000    0.000    0.000 
#    0.000    0.000    0.000    0.000    0.000    0.000 
#
# Total GULP energy -297652.135345 kJ/mol
# GULP energy per Si atom -12402.172306 kJ/mol
# Density = 2.107139 g / cm^3
# Si number density = 21.119460 Si / 1000 Ang^3
#
#
#
# Elastic Constant Matrix: (Units=GPa)
#
#
# Indices 1 2 3 4 5 6 
#
# 1 51.8040 28.5345 17.2688 0.0000 0.0000 0.0000
# 2 28.5345 157.0101 74.1539 0.0000 0.0000 0.0000
# 3 17.2688 74.1539 163.4952 0.0000 0.0000 0.0000
# 4 0.0000 0.0000 0.0000 21.3313 0.0000 0.0000
# 5 0.0000 0.0000 0.0000 0.0000 18.2602 0.0000
# 6 0.0000 0.0000 0.0000 0.0000 0.0000 25.8309
#
#
#
# Elastic Compliance Matrix: (Units=1/GPa)
#
#
# Indices 1 2 3 4 5 6 
#
# 1 0.021502 -0.003608 -0.000635 0.000000 0.000000 0.000000
# 2 -0.003608 0.008711 -0.003570 0.000000 0.000000 0.000000
# 3 -0.000635 -0.003570 0.007802 0.000000 0.000000 0.000000
# 4 0.000000 0.000000 0.000000 0.046880 0.000000 0.000000
# 5 0.000000 0.000000 0.000000 0.000000 0.054764 0.000000
# 6 0.000000 0.000000 0.000000 0.000000 0.000000 0.038713
#
#
# Mechanical properties :
#
#
# Convention : Reuss Voigt Hill
#
# Bulk Modulus (GPa) = 44.66125 68.02484 56.34305
# Shear Modulus (GPa) = 24.81873 29.90795 27.36334
#
# Velocity S-wave (km/s) = 3.43178 3.76724 3.60341
# Velocity P-wave (km/s) = 6.07418 7.15557 6.63694
#
# Compressibility (1/GPa) = 0.02239077
#
# Stress axis : x y z
#
# Youngs Moduli (GPa) = 46.50633 114.80231 128.16471
#
# Poissons Ratio (x) = 0.41421 0.08135
# Poissons Ratio (y) = 0.16780 0.45750
# Poissons Ratio (z) = 0.02952 0.40980
#
# Static dielectric constant tensor:
#      x y z
#    x 3.495550 0.000000 0.000000 
#    y 0.000000 4.449460 0.000000 
#    z 0.000000 0.000000 4.060000 
# 
# 
# High freq. dielectric constant tensor:
#      x y z
#    x 1.804820 0.000000 0.000000 
#    y 0.000000 1.826970 0.000000 
#    z 0.000000 0.000000 1.841880 
# 
# From -- ./inp_files/5412.got.cif
#   From: 2010.03.12/outbox.cif.g09.slc.cpg/sg35_3_cif.got.tgz:5412.got - 2010.04.14 02:02:04.
