data_PCOD8173947
_publ_section_title
;
Structure prediction by ZEFSAII (Michael W. Deem and Ramdas Pophale) SiO2 
 PCOD8173947
Probable space group: C M M 2
;
_chemical_formula_sum "Si O2"
_cell_formula_units_Z 48
_cell_length_a 8.363992
_cell_length_b 29.966846
_cell_length_c 9.358511
_cell_angle_alpha 90.000000
_cell_angle_beta 90.000000
_cell_angle_gamma 90.000000
_cell_volume 2345.640221
_symmetry_space_group_name_H-M "C M M 2"
_symmetry_group_IT_number 35
_symmetry_cell_setting 'orthorhombic'
loop_
_space_group_symop_operation_xyz
x,y,z
-x,-y,z
-x,y,z
x,-y,z
1/2+x,1/2+y,z
1/2-x,1/2-y,z
1/2-x,1/2+y,z
1/2+x,1/2-y,z
loop_
_atom_site_type_symbol
_atom_site_label
_atom_site_fract_x
_atom_site_fract_y
_atom_site_fract_z
Si Si1 0.313265 0.298664 0.025640
Si Si2 0.312537 0.948876 0.344371
Si Si3 0.317467 0.371617 0.524135
Si Si4 0.185105 0.703483 0.334004
Si Si5 0.814045 0.947994 0.037563
Si Si6 0.815645 0.375907 0.832865
O O1 0.500000 0.302807 0.991761
O O2 0.250000 0.250000 0.982857
O O3 0.283149 0.308760 0.191965
O O4 0.216345 0.334194 0.934298
O O5 0.500000 0.942067 0.363279
O O6 0.221537 0.920410 0.463041
O O7 0.262567 0.932659 0.187045
O O8 0.260510 0.000000 0.367430
O O9 0.500000 0.359337 0.491922
O O10 0.205377 0.334817 0.450930
O O11 0.290704 0.371519 0.692464
O O12 0.250000 0.750000 0.398703
O O13 0.000000 0.708531 0.292889
O O14 0.000000 0.935696 0.041061
O O15 0.783946 0.000000 0.009348
O O16 0.728374 0.921807 0.911050
O O17 0.000000 0.377178 0.788294
#
# Coordination Sequence:
#
# PCOD8173947 Si02
#       6
#     8   8   8   8   8   8
#     4  11  22  40  64  91 120 154 197 243 292 345
#     4  10  21  39  63  90 119 154 197 244 293 346
#     4  12  25  41  60  86 120 158 198 242 295 352
#     4  11  22  40  64  91 120 154 197 243 292 345
#     4  10  21  39  63  90 119 154 197 244 293 346
#     4  12  25  41  60  86 120 158 198 242 295 352
#
# _framework density 20.463495999999999
#
# number of rings (size 3 to 8) (size 9 to 14) (size 15 to 20)
#    0.000    1.000    0.000    9.000    0.000    3.333 
#    0.000    3.333    0.000    0.000    0.000    0.000 
#    0.000    0.000    0.000    0.000    0.000    0.000 
#
# Total GULP energy -297804.100544 kJ/mol
# GULP energy per Si atom -12408.504189 kJ/mol
# Density = 2.041692 g / cm^3
# Si number density = 20.463496 Si / 1000 Ang^3
#
#
#
# Elastic Constant Matrix: (Units=GPa)
#
#
# Indices 1 2 3 4 5 6 
#
# 1 91.6199 17.9550 3.0735 0.0000 0.0000 0.0000
# 2 17.9550 102.7255 49.7354 0.0000 0.0000 0.0000
# 3 3.0735 49.7354 86.0232 0.0000 0.0000 0.0000
# 4 0.0000 0.0000 0.0000 2.4074 0.0000 0.0000
# 5 0.0000 0.0000 0.0000 0.0000 35.6239 0.0000
# 6 0.0000 0.0000 0.0000 0.0000 0.0000 35.5093
#
#
#
# Elastic Compliance Matrix: (Units=1/GPa)
#
#
# Indices 1 2 3 4 5 6 
#
# 1 0.011367 -0.002486 0.001031 0.000000 0.000000 0.000000
# 2 -0.002486 0.014063 -0.008042 0.000000 0.000000 0.000000
# 3 0.001031 -0.008042 0.016237 0.000000 0.000000 0.000000
# 4 0.000000 0.000000 0.000000 0.415392 0.000000 0.000000
# 5 0.000000 0.000000 0.000000 0.000000 0.028071 0.000000
# 6 0.000000 0.000000 0.000000 0.000000 0.000000 0.028162
#
#
# Mechanical properties :
#
#
# Convention : Reuss Voigt Hill
#
# Bulk Modulus (GPa) = 44.10309 46.87738 45.49024
# Shear Modulus (GPa) = 9.26194 28.68175 18.97185
#
# Velocity S-wave (km/s) = 2.12977 3.74786 3.04815
# Velocity P-wave (km/s) = 5.25802 6.45648 5.88782
#
# Compressibility (1/GPa) = 0.02267415
#
# Stress axis : x y z
#
# Youngs Moduli (GPa) = 87.97178 71.11025 61.58651
#
# Poissons Ratio (x) = 0.17679 -0.06351
# Poissons Ratio (y) = 0.21871 0.49526
# Poissons Ratio (z) = -0.09072 0.57185
#
# Static dielectric constant tensor:
#      x y z
#    x 3.778420 0.000000 0.000000 
#    y 0.000000 3.870020 0.000000 
#    z 0.000000 0.000000 3.560320 
# 
# 
# High freq. dielectric constant tensor:
#      x y z
#    x 1.818210 0.000000 0.000000 
#    y 0.000000 1.812510 0.000000 
#    z 0.000000 0.000000 1.792160 
# 
# From -- ./inp_files/5348.got.cif
#   From: 2010.03.12/outbox.cif.g09.slc.cpg/sg35_3_cif.got.tgz:5348.got - 2010.04.14 02:02:04.
