data_PCOD8173522
_publ_section_title
;
Structure prediction by ZEFSAII (Michael W. Deem and Ramdas Pophale) SiO2 
 PCOD8173522
Probable space group: C M M 2
;
_chemical_formula_sum "Si O2"
_cell_formula_units_Z 40
_cell_length_a 7.855654
_cell_length_b 18.608827
_cell_length_c 14.435455
_cell_angle_alpha 90.000000
_cell_angle_beta 90.000000
_cell_angle_gamma 90.000000
_cell_volume 2110.239862
_symmetry_space_group_name_H-M "C M M 2"
_symmetry_group_IT_number 35
_symmetry_cell_setting 'orthorhombic'
loop_
_space_group_symop_operation_xyz
x,y,z
-x,-y,z
-x,y,z
x,-y,z
1/2+x,1/2+y,z
1/2-x,1/2-y,z
1/2-x,1/2+y,z
1/2+x,1/2-y,z
loop_
_atom_site_type_symbol
_atom_site_label
_atom_site_fract_x
_atom_site_fract_y
_atom_site_fract_z
Si Si1 0.698732 0.581474 0.262390
Si Si2 0.500000 0.914044 0.591800
Si Si3 0.691762 0.831050 0.092710
Si Si4 0.000000 0.414750 0.799731
Si Si5 0.810222 0.082751 0.924170
Si Si6 0.811528 0.914501 0.470631
O O1 0.500000 0.585330 0.239498
O O2 0.765335 0.500000 0.250752
O O3 0.799400 0.632372 0.192873
O O4 0.734681 0.609767 0.366341
O O5 0.500000 0.883115 0.695971
O O6 0.669054 0.884210 0.540645
O O7 0.500000 0.000000 0.590445
O O8 0.500000 0.834279 0.055861
O O9 0.750000 0.750000 0.102801
O O10 0.807179 0.872712 0.018907
O O11 0.170769 0.387539 0.851496
O O12 0.000000 0.500000 0.794203
O O13 0.000000 0.090649 0.880953
O O14 0.770306 0.000000 0.948743
O O15 0.000000 0.885508 0.498928
O O16 0.815541 0.000000 0.472970
#
# Coordination Sequence:
#
# PCOD8173522 Si02
#       6
#     8   4   8   4   8   8
#     4   9  18  33  52  76 108 143 178 214 257 314
#     4   9  16  26  45  73 107 135 170 218 256 304
#     4  12  24  36  52  76 108 138 181 221 264 319
#     4   9  18  32  49  77 107 137 177 218 264 312
#     4  10  20  36  56  77 107 143 177 217 266 317
#     4   8  15  27  44  70 105 141 172 206 254 306
#
# _framework density 18.955190999999999
#
# number of rings (size 3 to 8) (size 9 to 14) (size 15 to 20)
#    0.000    2.400    1.000    3.600    1.400    3.600 
#    0.000    4.000    0.000    0.000    0.000    1.400 
#    0.000    0.000    0.000    0.000    0.000    0.000 
#
# Total GULP energy -247970.461464 kJ/mol
# GULP energy per Si atom -12398.523073 kJ/mol
# Density = 1.891205 g / cm^3
# Si number density = 18.955191 Si / 1000 Ang^3
#
#
#
# Elastic Constant Matrix: (Units=GPa)
#
#
# Indices 1 2 3 4 5 6 
#
# 1 136.2700 25.9093 70.8572 0.0000 0.0000 0.0000
# 2 25.9093 53.8429 34.1407 0.0000 0.0000 0.0000
# 3 70.8572 34.1407 139.5975 0.0000 0.0000 0.0000
# 4 0.0000 0.0000 0.0000 0.9699 0.0000 0.0000
# 5 0.0000 0.0000 0.0000 0.0000 28.6531 0.0000
# 6 0.0000 0.0000 0.0000 0.0000 0.0000 13.6540
#
#
#
# Elastic Compliance Matrix: (Units=1/GPa)
#
#
# Indices 1 2 3 4 5 6 
#
# 1 0.010133 -0.001911 -0.004676 0.000000 0.000000 0.000000
# 2 -0.001911 0.022342 -0.004494 0.000000 0.000000 0.000000
# 3 -0.004676 -0.004494 0.010636 0.000000 0.000000 0.000000
# 4 0.000000 0.000000 0.000000 1.031065 0.000000 0.000000
# 5 0.000000 0.000000 0.000000 0.000000 0.034900 0.000000
# 6 0.000000 0.000000 0.000000 0.000000 0.000000 0.073239
#
#
# Mechanical properties :
#
#
# Convention : Reuss Voigt Hill
#
# Bulk Modulus (GPa) = 47.73575 65.72497 56.73036
# Shear Modulus (GPa) = 4.12725 21.90894 13.01809
#
# Velocity S-wave (km/s) = 1.47719 3.40344 2.62350
# Velocity P-wave (km/s) = 5.30543 7.08475 6.25864
#
# Compressibility (1/GPa) = 0.02094866
#
# Stress axis : x y z
#
# Youngs Moduli (GPa) = 98.68593 44.75934 94.02052
#
# Poissons Ratio (x) = 0.08554 0.43964
# Poissons Ratio (y) = 0.18860 0.42252
# Poissons Ratio (z) = 0.46146 0.20115
#
# Static dielectric constant tensor:
#      x y z
#    x 3.724720 0.000000 0.000000 
#    y 0.000000 2.963160 0.000000 
#    z 0.000000 0.000000 3.518590 
# 
# 
# High freq. dielectric constant tensor:
#      x y z
#    x 1.752690 0.000000 0.000000 
#    y 0.000000 1.678660 0.000000 
#    z 0.000000 0.000000 1.731910 
# 
# From -- ./inp_files/13817.got.cif
#   From: 2010.03.12/outbox.cif.g09.slc.cpg/sg35_7_cif.got.tgz:13817.got - 2010.04.14 02:02:04.
