data_PCOD8173807
_publ_section_title
;
Structure prediction by ZEFSAII (Michael W. Deem and Ramdas Pophale) SiO2 
 PCOD8173807
Probable space group: C M M 2
;
_chemical_formula_sum "Si O2"
_cell_formula_units_Z 48
_cell_length_a 27.950950
_cell_length_b 8.669526
_cell_length_c 10.247723
_cell_angle_alpha 90.000000
_cell_angle_beta 90.000000
_cell_angle_gamma 90.000000
_cell_volume 2483.243483
_symmetry_space_group_name_H-M "C M M 2"
_symmetry_group_IT_number 35
_symmetry_cell_setting 'orthorhombic'
loop_
_space_group_symop_operation_xyz
x,y,z
-x,-y,z
-x,y,z
x,-y,z
1/2+x,1/2+y,z
1/2-x,1/2-y,z
1/2-x,1/2+y,z
1/2+x,1/2-y,z
loop_
_atom_site_type_symbol
_atom_site_label
_atom_site_fract_x
_atom_site_fract_y
_atom_site_fract_z
Si Si1 0.556015 0.323338 0.371360
Si Si2 0.109055 0.679091 0.606543
Si Si3 0.555421 0.819501 0.869055
Si Si4 0.800132 0.181513 0.500280
Si Si5 0.699743 0.181867 0.218959
Si Si6 0.390552 0.679809 0.109497
O O1 0.500000 0.297795 0.361652
O O2 0.569359 0.500000 0.405175
O O3 0.576399 0.213133 0.482064
O O4 0.577590 0.273390 0.233210
O O5 0.121998 0.500000 0.608818
O O6 0.080022 0.729497 0.734036
O O7 0.158603 0.773870 0.602381
O O8 0.500000 0.772386 0.861099
O O9 0.561537 0.000000 0.897396
O O10 0.580467 0.723237 0.981534
O O11 0.750000 0.250000 0.550167
O O12 0.814478 0.248148 0.359147
O O13 0.795080 0.000000 0.488233
O O14 0.750000 0.250000 0.169600
O O15 0.659305 0.227022 0.114437
O O16 0.704358 0.000000 0.232508
O O17 0.378575 0.500000 0.107728
#
# Coordination Sequence:
#
# PCOD8173807 Si02
#       6
#     8   8   8   8   8   8
#     4  10  21  36  56  84 117 151 194 249 299 350
#     4  11  22  38  60  87 118 157 201 247 298 354
#     4  10  23  42  61  84 119 162 205 248 298 357
#     4  11  21  36  59  89 122 156 195 243 297 356
#     4  11  21  36  60  90 122 157 195 242 297 354
#     4  11  22  38  60  88 120 157 200 247 297 353
#
# _framework density 19.329559
#
# number of rings (size 3 to 8) (size 9 to 14) (size 15 to 20)
#    0.000    1.333    1.667    6.000    0.000    4.000 
#    0.000    0.833    0.000    4.000    0.000    0.000 
#    0.000    0.000    0.000    0.000    0.000    0.000 
#
# Total GULP energy -297744.241919 kJ/mol
# GULP energy per Si atom -12406.010080 kJ/mol
# Density = 1.928556 g / cm^3
# Si number density = 19.329559 Si / 1000 Ang^3
#
#
#
# Elastic Constant Matrix: (Units=GPa)
#
#
# Indices 1 2 3 4 5 6 
#
# 1 147.4508 56.4112 60.6700 0.0000 0.0000 0.0000
# 2 56.4112 120.0445 46.4445 0.0000 0.0000 0.0000
# 3 60.6700 46.4445 109.4792 0.0000 0.0000 0.0000
# 4 0.0000 0.0000 0.0000 28.0950 0.0000 0.0000
# 5 0.0000 0.0000 0.0000 0.0000 34.9533 0.0000
# 6 0.0000 0.0000 0.0000 0.0000 0.0000 35.5979
#
#
#
# Elastic Compliance Matrix: (Units=1/GPa)
#
#
# Indices 1 2 3 4 5 6 
#
# 1 0.009574 -0.002927 -0.004064 0.000000 0.000000 0.000000
# 2 -0.002927 0.010861 -0.002986 0.000000 0.000000 0.000000
# 3 -0.004064 -0.002986 0.012653 0.000000 0.000000 0.000000
# 4 0.000000 0.000000 0.000000 0.035594 0.000000 0.000000
# 5 0.000000 0.000000 0.000000 0.000000 0.028610 0.000000
# 6 0.000000 0.000000 0.000000 0.000000 0.000000 0.028092
#
#
# Mechanical properties :
#
#
# Convention : Reuss Voigt Hill
#
# Bulk Modulus (GPa) = 76.13249 78.22509 77.17879
# Shear Modulus (GPa) = 33.39741 33.95917 33.67829
#
# Velocity S-wave (km/s) = 4.16118 4.19603 4.17864
# Velocity P-wave (km/s) = 7.90944 8.00203 7.95587
#
# Compressibility (1/GPa) = 0.01313500
#
# Stress axis : x y z
#
# Youngs Moduli (GPa) = 104.45297 92.07598 79.03371
#
# Poissons Ratio (x) = 0.26947 0.32119
# Poissons Ratio (y) = 0.30569 0.23596
# Poissons Ratio (z) = 0.42449 0.27490
#
# Static dielectric constant tensor:
#      x y z
#    x 3.767090 0.000000 0.000000 
#    y 0.000000 3.588520 0.000000 
#    z 0.000000 0.000000 3.396540 
# 
# 
# High freq. dielectric constant tensor:
#      x y z
#    x 1.773090 0.000000 0.000000 
#    y 0.000000 1.760750 0.000000 
#    z 0.000000 0.000000 1.731950 
# 
# From -- ./inp_files/10470.got.cif
#   From: 2010.03.12/outbox.cif.g09.slc.cpg/sg35_6_cif.got.tgz:10470.got - 2010.04.14 02:02:04.
