data_PCOD8173245
_publ_section_title
;
Structure prediction by ZEFSAII (Michael W. Deem and Ramdas Pophale) SiO2 
 PCOD8173245
Probable space group: C M M 2
;
_chemical_formula_sum "Si O2"
_cell_formula_units_Z 56
_cell_length_a 8.898920
_cell_length_b 19.203261
_cell_length_c 17.567414
_cell_angle_alpha 90.000000
_cell_angle_beta 90.000000
_cell_angle_gamma 90.000000
_cell_volume 3002.065222
_symmetry_space_group_name_H-M "C M M 2"
_symmetry_group_IT_number 35
_symmetry_cell_setting 'orthorhombic'
loop_
_space_group_symop_operation_xyz
x,y,z
-x,-y,z
-x,y,z
x,-y,z
1/2+x,1/2+y,z
1/2-x,1/2-y,z
1/2-x,1/2+y,z
1/2+x,1/2-y,z
loop_
_atom_site_type_symbol
_atom_site_label
_atom_site_fract_x
_atom_site_fract_y
_atom_site_fract_z
Si Si1 0.175798 0.580802 0.517770
Si Si2 0.824637 0.420028 0.265863
Si Si3 0.672211 0.580286 0.673659
Si Si4 0.175618 0.178956 0.977742
Si Si5 0.323000 0.678755 0.807040
Si Si6 0.821912 0.826198 0.389781
Si Si7 0.168612 0.418989 0.091201
O O1 0.215286 0.500000 0.501087
O O2 0.223596 0.601371 0.602950
O O3 0.267910 0.629532 0.461640
O O4 0.000000 0.594975 0.507002
O O5 0.783234 0.500000 0.286052
O O6 0.725060 0.367043 0.313905
O O7 0.787115 0.404008 0.178268
O O8 0.000000 0.407482 0.283512
O O9 0.500000 0.599292 0.653544
O O10 0.689497 0.500000 0.693788
O O11 0.730450 0.619750 0.748571
O O12 0.250000 0.250000 0.006515
O O13 0.231837 0.159551 0.892456
O O14 0.000000 0.190486 0.978694
O O15 0.216354 0.117974 0.035296
O O16 0.500000 0.687803 0.805372
O O17 0.250000 0.750000 0.778960
O O18 0.750000 0.750000 0.390919
O O19 0.000000 0.818205 0.392215
O O20 0.179225 0.500000 0.073831
O O21 0.000000 0.391856 0.075660
#
# Coordination Sequence:
#
# PCOD8173245 Si02
#       7
#     8   8   8   8   8   8   8
#     4  10  21  38  59  82 110 143 178 217 264 318
#     4   9  19  38  61  82 108 142 177 216 266 321
#     4   9  18  34  55  78 105 138 178 221 264 313
#     4  10  20  34  53  77 107 144 184 224 268 319
#     4   9  19  34  52  75 104 140 178 219 268 318
#     4  12  25  39  57  82 111 142 179 221 265 314
#     4   9  19  36  57  81 109 141 177 219 268 319
#
# _framework density 18.653825000000001
#
# number of rings (size 3 to 8) (size 9 to 14) (size 15 to 20)
#    0.000    2.286    0.000    3.429    0.000    6.571 
#    0.000    4.286    0.000    1.714    0.000    0.000 
#    0.000    0.000    0.000    0.000    0.000    0.000 
#
# Total GULP energy -347241.828900 kJ/mol
# GULP energy per Si atom -12401.493889 kJ/mol
# Density = 1.861137 g / cm^3
# Si number density = 18.653825 Si / 1000 Ang^3
#
#
#
# Elastic Constant Matrix: (Units=GPa)
#
#
# Indices 1 2 3 4 5 6 
#
# 1 85.6597 54.5185 50.6828 0.0000 0.0000 0.0000
# 2 54.5185 105.6427 77.0195 0.0000 0.0000 0.0000
# 3 50.6828 77.0195 115.9839 0.0000 0.0000 0.0000
# 4 0.0000 0.0000 0.0000 -128.0429 0.0000 0.0000
# 5 0.0000 0.0000 0.0000 0.0000 31.6677 0.0000
# 6 0.0000 0.0000 0.0000 0.0000 0.0000 33.2672
#
#
#
# Elastic Compliance Matrix: (Units=1/GPa)
#
#
# Indices 1 2 3 4 5 6 
#
# 1 0.018010 -0.006894 -0.003292 0.000000 0.000000 0.000000
# 2 -0.006894 0.020989 -0.010925 0.000000 0.000000 0.000000
# 3 -0.003292 -0.010925 0.017315 0.000000 0.000000 0.000000
# 4 0.000000 0.000000 0.000000 -0.007810 0.000000 0.000000
# 5 0.000000 0.000000 0.000000 0.000000 0.031578 0.000000
# 6 0.000000 0.000000 0.000000 0.000000 0.000000 0.030060
#
#
# Mechanical properties :
#
#
# Convention : Reuss Voigt Hill
#
# Bulk Modulus (GPa) = 70.96481 74.63646 72.80063
# Shear Modulus (GPa) = 31.83498 -4.28391 13.77553
#
# Velocity S-wave (km/s) = 4.13561 -1.51708 2.72045
# Velocity P-wave (km/s) = 7.80576 6.08519 6.99855
#
# Compressibility (1/GPa) = 0.01409149
#
# Stress axis : x y z
#
# Youngs Moduli (GPa) = 55.52586 47.64480 57.75337
#
# Poissons Ratio (x) = 0.32848 0.19011
# Poissons Ratio (y) = 0.38281 0.63095
# Poissons Ratio (z) = 0.18277 0.52051
#
# Static dielectric constant tensor:
#      x y z
#    x 3.406250 0.000000 0.000000 
#    y 0.000000 3.482100 0.000000 
#    z 0.000000 0.000000 3.575080 
# 
# 
# High freq. dielectric constant tensor:
#      x y z
#    x 1.722720 0.000000 0.000000 
#    y 0.000000 1.721930 0.000000 
#    z 0.000000 0.000000 1.733500 
# 
# From -- ./inp_files/18255.got.cif
#   From: 2010.03.12/outbox.cif.g09.slc.cpg/sg35_10_cif.got.tgz:18255.got - 2010.04.14 02:02:04.
