data_PCOD8173160
_publ_section_title
;
Structure prediction by ZEFSAII (Michael W. Deem and Ramdas Pophale) SiO2 
 PCOD8173160
Probable space group: C M M 2
;
_chemical_formula_sum "Si O2"
_cell_formula_units_Z 48
_cell_length_a 15.521582
_cell_length_b 8.781022
_cell_length_c 17.039419
_cell_angle_alpha 90.000000
_cell_angle_beta 90.000000
_cell_angle_gamma 90.000000
_cell_volume 2322.393628
_symmetry_space_group_name_H-M "C M M 2"
_symmetry_group_IT_number 35
_symmetry_cell_setting 'orthorhombic'
loop_
_space_group_symop_operation_xyz
x,y,z
-x,-y,z
-x,y,z
x,-y,z
1/2+x,1/2+y,z
1/2-x,1/2-y,z
1/2-x,1/2+y,z
1/2+x,1/2-y,z
loop_
_atom_site_type_symbol
_atom_site_label
_atom_site_fract_x
_atom_site_fract_y
_atom_site_fract_z
Si Si1 0.653820 0.818683 0.139000
Si Si2 0.842166 0.823832 0.466757
Si Si3 0.500000 0.326498 0.861508
Si Si4 0.656787 0.320880 0.296289
Si Si5 0.000000 0.174430 0.047155
Si Si6 0.161356 0.319048 0.778932
Si Si7 0.403244 0.168841 0.615143
O O1 0.750000 0.750000 0.126354
O O2 0.612914 0.765405 0.223051
O O3 0.587232 0.758644 0.074469
O O4 0.659957 0.000000 0.134968
O O5 0.750000 0.750000 0.477066
O O6 0.887265 0.789499 0.381545
O O7 0.902182 0.771316 0.537593
O O8 0.825881 0.000000 0.474380
O O9 0.500000 0.500000 0.831388
O O10 0.415122 0.243763 0.831418
O O11 0.500000 0.318279 0.954456
O O12 0.660952 0.500000 0.277024
O O13 0.750000 0.250000 0.305067
O O14 0.000000 0.000000 0.077495
O O15 0.161848 0.500000 0.785563
O O16 0.250000 0.250000 0.811949
O O17 0.152229 0.266677 0.687768
O O18 0.500000 0.164495 0.647434
O O19 0.371344 0.000000 0.591927
#
# Coordination Sequence:
#
# PCOD8173160 Si02
#       7
#     8   8   4   8   4   8   8
#     4  11  22  39  65  95 126 165 209 252 308 368
#     4  10  20  33  53  82 114 156 204 252 302 354
#     4  11  25  45  69  96 125 160 201 251 310 369
#     4   9  17  32  54  81 116 158 203 254 305 354
#     4  11  25  45  67  94 127 160 201 253 308 369
#     4  11  23  42  67  95 127 164 206 252 307 368
#     4  10  21  38  57  82 118 160 203 254 307 355
#
# _framework density 20.668330000000001
#
# number of rings (size 3 to 8) (size 9 to 14) (size 15 to 20)
#    0.000    1.667    0.833    5.000    0.000    7.000 
#    1.500    0.000    0.000    0.000    0.000    0.000 
#    0.000    0.000    0.000    0.000    0.000    0.000 
#
# Total GULP energy -297473.805761 kJ/mol
# GULP energy per Si atom -12394.741907 kJ/mol
# Density = 2.062129 g / cm^3
# Si number density = 20.668330 Si / 1000 Ang^3
#
#
#
# Elastic Constant Matrix: (Units=GPa)
#
#
# Indices 1 2 3 4 5 6 
#
# 1 109.5972 45.8010 45.7344 0.0000 0.0000 0.0000
# 2 45.8010 134.7367 58.5479 0.0000 0.0000 0.0000
# 3 45.7344 58.5479 105.4085 0.0000 0.0000 0.0000
# 4 0.0000 0.0000 0.0000 34.2886 0.0000 0.0000
# 5 0.0000 0.0000 0.0000 0.0000 155.5636 0.0000
# 6 0.0000 0.0000 0.0000 0.0000 0.0000 31.5229
#
#
#
# Elastic Compliance Matrix: (Units=1/GPa)
#
#
# Indices 1 2 3 4 5 6 
#
# 1 0.011671 -0.002329 -0.003770 0.000000 0.000000 0.000000
# 2 -0.002329 0.010248 -0.004682 0.000000 0.000000 0.000000
# 3 -0.003770 -0.004682 0.013723 0.000000 0.000000 0.000000
# 4 0.000000 0.000000 0.000000 0.029164 0.000000 0.000000
# 5 0.000000 0.000000 0.000000 0.000000 0.006428 0.000000
# 6 0.000000 0.000000 0.000000 0.000000 0.000000 0.031723
#
#
# Mechanical properties :
#
#
# Convention : Reuss Voigt Hill
#
# Bulk Modulus (GPa) = 71.02084 72.21210 71.61647
# Shear Modulus (GPa) = 38.69612 57.58565 48.14088
#
# Velocity S-wave (km/s) = 4.33164 5.28415 4.83142
# Velocity P-wave (km/s) = 7.71065 8.49965 8.11475
#
# Compressibility (1/GPa) = 0.01408037
#
# Stress axis : x y z
#
# Youngs Moduli (GPa) = 85.68341 97.58110 72.87049
#
# Poissons Ratio (x) = 0.22727 0.27473
# Poissons Ratio (y) = 0.19956 0.34115
# Poissons Ratio (z) = 0.32303 0.45683
#
# Static dielectric constant tensor:
#      x y z
#    x 3.124880 0.000000 0.000000 
#    y 0.000000 4.000830 0.000000 
#    z 0.000000 0.000000 4.112950 
# 
# 
# High freq. dielectric constant tensor:
#      x y z
#    x 1.794860 0.000000 0.000000 
#    y 0.000000 1.819250 0.000000 
#    z 0.000000 0.000000 1.817050 
# 
# From -- ./inp_files/17859.got.cif
#   From: 2010.03.12/outbox.cif.g09.slc.cpg/sg35_9_cif.got.tgz:17859.got - 2010.04.14 02:02:04.
