data_PCOD8173350
_publ_section_title
;
Structure prediction by ZEFSAII (Michael W. Deem and Ramdas Pophale) SiO2 
 PCOD8173350
Probable space group: C M M 2
;
_chemical_formula_sum "Si O2"
_cell_formula_units_Z 64
_cell_length_a 19.033396
_cell_length_b 25.924818
_cell_length_c 6.394016
_cell_angle_alpha 90.000000
_cell_angle_beta 90.000000
_cell_angle_gamma 90.000000
_cell_volume 3155.046165
_symmetry_space_group_name_H-M "C M M 2"
_symmetry_group_IT_number 35
_symmetry_cell_setting 'orthorhombic'
loop_
_space_group_symop_operation_xyz
x,y,z
-x,-y,z
-x,y,z
x,-y,z
1/2+x,1/2+y,z
1/2-x,1/2-y,z
1/2-x,1/2+y,z
1/2+x,1/2-y,z
loop_
_atom_site_type_symbol
_atom_site_label
_atom_site_fract_x
_atom_site_fract_y
_atom_site_fract_z
Si Si1 0.921535 0.441932 0.493570
Si Si2 0.299796 0.617566 0.555133
Si Si3 0.662472 0.309285 0.178019
Si Si4 0.578427 0.155150 0.764026
Si Si5 0.781419 0.650660 0.942099
Si Si6 0.715566 0.941785 0.248288
Si Si7 0.580076 0.656049 0.792608
Si Si8 0.079168 0.749800 0.480688
O O1 0.911666 0.500000 0.582109
O O2 0.911236 0.403428 0.687601
O O3 0.865314 0.431377 0.311877
O O4 0.000000 0.434479 0.397959
O O5 0.320873 0.653528 0.366504
O O6 0.266288 0.566325 0.451544
O O7 0.240740 0.644151 0.700527
O O8 0.370744 0.610421 0.694550
O O9 0.735028 0.303179 0.045576
O O10 0.602400 0.334026 0.031402
O O11 0.632299 0.257121 0.283985
O O12 0.500000 0.164228 0.856347
O O13 0.591901 0.192815 0.568455
O O14 0.636167 0.166159 0.944446
O O15 0.765887 0.597037 0.061535
O O16 0.726572 0.000000 0.168008
O O17 0.500000 0.636930 0.785347
O O18 0.592271 0.709086 0.665950
O O19 0.000000 0.756034 0.395654
#
# Coordination Sequence:
#
# PCOD8173350 Si02
#       8
#     8   8   8   8   8   8   8   8
#     4   9  18  34  56  80 106 143 189 233 281 332
#     4   9  18  35  54  81 114 143 181 231 280 342
#     4   9  18  34  56  77 109 147 185 236 278 341
#     4  10  20  36  56  78 113 154 191 239 287 336
#     4  10  20  35  54  79 113 144 191 237 281 342
#     4  10  20  34  57  82 107 144 187 235 283 335
#     4   9  17  32  56  84 111 143 186 230 274 334
#     4   9  18  34  54  79 111 147 189 232 280 334
#
# _framework density 20.284966000000001
#
# number of rings (size 3 to 8) (size 9 to 14) (size 15 to 20)
#    0.000    2.625    1.250    0.375    0.000    2.000 
#    2.250    6.875    0.000    0.375    0.000    0.000 
#    0.000    0.000    0.000    0.000    0.000    0.000 
#
# Total GULP energy -396533.503525 kJ/mol
# GULP energy per Si atom -12391.671985 kJ/mol
# Density = 2.023880 g / cm^3
# Si number density = 20.284966 Si / 1000 Ang^3
#
#
#
# Elastic Constant Matrix: (Units=GPa)
#
#
# Indices 1 2 3 4 5 6 
#
# 1 151.4218 47.0137 53.7789 0.0000 0.0000 0.0000
# 2 47.0137 65.8383 26.4474 0.0000 0.0000 0.0000
# 3 53.7789 26.4474 89.6519 0.0000 0.0000 0.0000
# 4 0.0000 0.0000 0.0000 21.3634 0.0000 0.0000
# 5 0.0000 0.0000 0.0000 0.0000 36.9660 0.0000
# 6 0.0000 0.0000 0.0000 0.0000 0.0000 23.6279
#
#
#
# Elastic Compliance Matrix: (Units=1/GPa)
#
#
# Indices 1 2 3 4 5 6 
#
# 1 0.009761 -0.005239 -0.004310 0.000000 0.000000 0.000000
# 2 -0.005239 0.020042 -0.002770 0.000000 0.000000 0.000000
# 3 -0.004310 -0.002770 0.014557 0.000000 0.000000 0.000000
# 4 0.000000 0.000000 0.000000 0.046809 0.000000 0.000000
# 5 0.000000 0.000000 0.000000 0.000000 0.027052 0.000000
# 6 0.000000 0.000000 0.000000 0.000000 0.000000 0.042323
#
#
# Mechanical properties :
#
#
# Convention : Reuss Voigt Hill
#
# Bulk Modulus (GPa) = 50.70253 62.37689 56.53971
# Shear Modulus (GPa) = 26.07472 28.36960 27.22216
#
# Velocity S-wave (km/s) = 3.58917 3.74378 3.66729
# Velocity P-wave (km/s) = 6.49812 7.03597 6.77239
#
# Compressibility (1/GPa) = 0.01972288
#
# Stress axis : x y z
#
# Youngs Moduli (GPa) = 102.44388 49.89399 68.69663
#
# Poissons Ratio (x) = 0.26140 0.29608
# Poissons Ratio (y) = 0.53671 0.19028
# Poissons Ratio (z) = 0.44153 0.13820
#
# Static dielectric constant tensor:
#      x y z
#    x 4.219620 0.000000 0.000000 
#    y 0.000000 3.516560 0.000000 
#    z 0.000000 0.000000 3.668440 
# 
# 
# High freq. dielectric constant tensor:
#      x y z
#    x 1.809900 0.000000 0.000000 
#    y 0.000000 1.758490 0.000000 
#    z 0.000000 0.000000 1.783860 
# 
# From -- ./inp_files/2717.got.cif
#   From: 2010.03.12/outbox.cif.g09.slc.cpg/sg35_2_cif.got.tgz:2717.got - 2010.04.14 02:02:04.
