data_PCOD8173537
_publ_section_title
;
Structure prediction by ZEFSAII (Michael W. Deem and Ramdas Pophale) SiO2 
 PCOD8173537
Probable space group: C M M 2
;
_chemical_formula_sum "Si O2"
_cell_formula_units_Z 64
_cell_length_a 18.877006
_cell_length_b 17.914300
_cell_length_c 10.006872
_cell_angle_alpha 90.000000
_cell_angle_beta 90.000000
_cell_angle_gamma 90.000000
_cell_volume 3384.007379
_symmetry_space_group_name_H-M "C M M 2"
_symmetry_group_IT_number 35
_symmetry_cell_setting 'orthorhombic'
loop_
_space_group_symop_operation_xyz
x,y,z
-x,-y,z
-x,y,z
x,-y,z
1/2+x,1/2+y,z
1/2-x,1/2-y,z
1/2-x,1/2+y,z
1/2+x,1/2-y,z
loop_
_atom_site_type_symbol
_atom_site_label
_atom_site_fract_x
_atom_site_fract_y
_atom_site_fract_z
Si Si1 0.835670 0.324815 0.401780
Si Si2 0.671784 0.657937 0.423508
Si Si3 0.670312 0.412299 0.140570
Si Si4 0.918330 0.319766 0.877492
Si Si5 0.920626 0.850475 0.907899
Si Si6 0.916859 0.414659 0.617854
Si Si7 0.698229 0.176220 0.104966
Si Si8 0.577551 0.585019 0.637117
O O1 0.755631 0.344174 0.439940
O O2 0.857384 0.241301 0.441151
O O3 0.884105 0.383035 0.480862
O O4 0.845807 0.326172 0.242217
O O5 0.648906 0.619647 0.284927
O O6 0.638757 0.613480 0.543638
O O7 0.653517 0.500000 0.131788
O O8 0.752205 0.397024 0.105288
O O9 0.626187 0.363504 0.036764
O O10 0.913372 0.232307 0.847247
O O11 0.894269 0.365718 0.746505
O O12 0.000000 0.341183 0.919040
O O13 0.860431 0.335205 0.991633
O O14 0.896717 0.905295 0.789514
O O15 0.000000 0.867600 0.954448
O O16 0.891368 0.500000 0.639432
O O17 0.000000 0.410879 0.597949
O O18 0.750000 0.250000 0.095312
O O19 0.500000 0.624706 0.617232
O O20 0.567481 0.500000 0.603173
#
# Coordination Sequence:
#
# PCOD8173537 Si02
#       8
#     8   8   8   8   8   8   8   8
#     4  10  20  38  63  84 116 154 195 243 308 355
#     4  10  20  37  56  82 112 148 194 240 289 357
#     4  11  22  36  58  86 118 156 194 243 303 356
#     4  10  21  39  65  89 116 158 202 248 304 362
#     4  10  20  36  57  82 112 152 199 240 291 360
#     4  10  23  42  62  90 125 158 203 262 312 356
#     4  11  20  41  61  88 122 156 197 252 298 355
#     4  10  21  35  51  75 111 149 187 234 282 339
#
# _framework density 18.912489000000001
#
# number of rings (size 3 to 8) (size 9 to 14) (size 15 to 20)
#    0.000    1.750    3.750    1.500    0.000    7.250 
#    2.250    0.000    0.000    1.500    0.000    0.000 
#    0.000    0.000    0.000    0.000    0.000    0.000 
#
# Total GULP energy -396649.225788 kJ/mol
# GULP energy per Si atom -12395.288306 kJ/mol
# Density = 1.886944 g / cm^3
# Si number density = 18.912489 Si / 1000 Ang^3
#
#
#
# Elastic Constant Matrix: (Units=GPa)
#
#
# Indices 1 2 3 4 5 6 
#
# 1 41.6556 20.8115 40.3676 0.0000 0.0000 0.0000
# 2 20.8115 100.6434 36.1867 0.0000 0.0000 0.0000
# 3 40.3676 36.1867 90.7309 0.0000 0.0000 0.0000
# 4 0.0000 0.0000 0.0000 -477.8410 0.0000 0.0000
# 5 0.0000 0.0000 0.0000 0.0000 28.0880 0.0000
# 6 0.0000 0.0000 0.0000 0.0000 0.0000 -21.9815
#
#
#
# Elastic Compliance Matrix: (Units=1/GPa)
#
#
# Indices 1 2 3 4 5 6 
#
# 1 0.042666 -0.002332 -0.018053 0.000000 0.000000 0.000000
# 2 -0.002332 0.011727 -0.003640 0.000000 0.000000 0.000000
# 3 -0.018053 -0.003640 0.020505 0.000000 0.000000 0.000000
# 4 0.000000 0.000000 0.000000 -0.002093 0.000000 0.000000
# 5 0.000000 0.000000 0.000000 0.000000 0.035602 0.000000
# 6 0.000000 0.000000 0.000000 0.000000 0.000000 -0.045493
#
#
# Mechanical properties :
#
#
# Convention : Reuss Voigt Hill
#
# Bulk Modulus (GPa) = 37.24438 47.52904 42.38671
# Shear Modulus (GPa) = 41.69689 -85.30263 -21.80287
#
# Velocity S-wave (km/s) = 4.70055 -6.72323 -3.39902
# Velocity P-wave (km/s) = 7.01398 5.92313 2.65636
#
# Compressibility (1/GPa) = 0.02684969
#
# Stress axis : x y z
#
# Youngs Moduli (GPa) = 23.43793 85.27405 48.76823
#
# Poissons Ratio (x) = 0.19884 0.88040
# Poissons Ratio (y) = 0.05465 0.17750
# Poissons Ratio (z) = 0.42312 0.31037
#
# Static dielectric constant tensor:
#      x y z
#    x 3.509370 0.000000 0.000000 
#    y 0.000000 7.182390 0.000000 
#    z 0.000000 0.000000 3.437900 
# 
# 
# High freq. dielectric constant tensor:
#      x y z
#    x 1.729070 0.000000 0.000000 
#    y 0.000000 1.738950 0.000000 
#    z 0.000000 0.000000 1.738520 
# 
# From -- ./inp_files/9440.got.cif
#   From: 2010.03.12/outbox.cif.g09.slc.cpg/sg35_5_cif.got.tgz:9440.got - 2010.04.14 02:02:04.
