data_PCOD8173172
_publ_section_title
;
Structure prediction by ZEFSAII (Michael W. Deem and Ramdas Pophale) SiO2 
 PCOD8173172
Probable space group: C M M 2
;
_chemical_formula_sum "Si O2"
_cell_formula_units_Z 48
_cell_length_a 9.364945
_cell_length_b 19.484836
_cell_length_c 15.411372
_cell_angle_alpha 90.000000
_cell_angle_beta 90.000000
_cell_angle_gamma 90.000000
_cell_volume 2812.181128
_symmetry_space_group_name_H-M "C M M 2"
_symmetry_group_IT_number 35
_symmetry_cell_setting 'orthorhombic'
loop_
_space_group_symop_operation_xyz
x,y,z
-x,-y,z
-x,y,z
x,-y,z
1/2+x,1/2+y,z
1/2-x,1/2-y,z
1/2-x,1/2+y,z
1/2+x,1/2-y,z
loop_
_atom_site_type_symbol
_atom_site_label
_atom_site_fract_x
_atom_site_fract_y
_atom_site_fract_z
Si Si1 0.339553 0.917899 0.972130
Si Si2 0.331137 0.074958 0.157242
Si Si3 0.164286 0.418201 0.345787
Si Si4 0.332789 0.577942 0.808864
Si Si5 0.667862 0.681174 0.465212
Si Si6 0.834871 0.183485 0.664899
O O1 0.500000 0.892716 0.952569
O O2 0.240602 0.890350 0.894644
O O3 0.333330 0.000000 0.977836
O O4 0.284514 0.888031 0.066425
O O5 0.500000 0.065576 0.152289
O O6 0.293971 0.111253 0.249162
O O7 0.258555 0.000000 0.160095
O O8 0.185657 0.500000 0.349800
O O9 0.270800 0.383199 0.413073
O O10 0.000000 0.399566 0.368012
O O11 0.500000 0.582266 0.824990
O O12 0.282278 0.500000 0.792805
O O13 0.285411 0.620038 0.724181
O O14 0.500000 0.690138 0.446450
O O15 0.750000 0.750000 0.436319
O O16 0.698786 0.664623 0.565661
O O17 0.750000 0.250000 0.695708
O O18 0.000000 0.200313 0.678176
#
# Coordination Sequence:
#
# PCOD8173172 Si02
#       6
#     8   8   8   8   8   8
#     4   8  13  23  41  65  91 119 151 183 216 260
#     4   7  11  22  41  64  91 122 151 179 217 266
#     4   9  17  30  49  73  99 125 154 191 234 276
#     4   9  17  29  45  67  94 120 146 181 227 271
#     4  10  20  34  51  69  91 122 159 196 235 281
#     4   9  19  34  50  66  87 119 154 187 226 274
#
# _framework density 17.068603
#
# number of rings (size 3 to 8) (size 9 to 14) (size 15 to 20)
#    0.000    3.333    0.000    2.500    0.000    2.333 
#    0.000    2.500    0.000    6.000    0.000    2.333 
#    0.000    0.000    0.000    0.000    0.000    0.000 
#
# Total GULP energy -297338.406478 kJ/mol
# GULP energy per Si atom -12389.100270 kJ/mol
# Density = 1.702975 g / cm^3
# Si number density = 17.068603 Si / 1000 Ang^3
#
#
#
# Elastic Constant Matrix: (Units=GPa)
#
#
# Indices 1 2 3 4 5 6 
#
# 1 58.8921 35.6846 53.5216 0.0000 0.0000 0.0000
# 2 35.6846 55.8381 55.6082 0.0000 0.0000 0.0000
# 3 53.5216 55.6082 130.8403 0.0000 0.0000 0.0000
# 4 0.0000 0.0000 0.0000 4.7255 0.0000 0.0000
# 5 0.0000 0.0000 0.0000 0.0000 27.9026 0.0000
# 6 0.0000 0.0000 0.0000 0.0000 0.0000 23.0969
#
#
#
# Elastic Compliance Matrix: (Units=1/GPa)
#
#
# Indices 1 2 3 4 5 6 
#
# 1 0.031445 -0.012633 -0.007494 0.000000 0.000000 0.000000
# 2 -0.012633 0.036127 -0.010187 0.000000 0.000000 0.000000
# 3 -0.007494 -0.010187 0.015038 0.000000 0.000000 0.000000
# 4 0.000000 0.000000 0.000000 0.211620 0.000000 0.000000
# 5 0.000000 0.000000 0.000000 0.000000 0.035839 0.000000
# 6 0.000000 0.000000 0.000000 0.000000 0.000000 0.043296
#
#
# Mechanical properties :
#
#
# Convention : Reuss Voigt Hill
#
# Bulk Modulus (GPa) = 45.48919 59.46660 52.47790
# Shear Modulus (GPa) = 11.32966 17.86206 14.59586
#
# Velocity S-wave (km/s) = 2.57917 3.23845 2.92743
# Velocity P-wave (km/s) = 5.96474 6.99277 6.49912
#
# Compressibility (1/GPa) = 0.02198324
#
# Stress axis : x y z
#
# Youngs Moduli (GPa) = 31.80110 27.68021 66.49876
#
# Poissons Ratio (x) = 0.34968 0.49835
# Poissons Ratio (y) = 0.40173 0.67740
# Poissons Ratio (z) = 0.23832 0.28197
#
# Static dielectric constant tensor:
#      x y z
#    x 3.040760 0.000000 0.000000 
#    y 0.000000 2.842460 0.000000 
#    z 0.000000 0.000000 3.633730 
# 
# 
# High freq. dielectric constant tensor:
#      x y z
#    x 1.641190 0.000000 0.000000 
#    y 0.000000 1.612760 0.000000 
#    z 0.000000 0.000000 1.677470 
# 
# From -- ./inp_files/15376.got.cif
#   From: 2010.03.12/outbox.cif.g09.slc.cpg/sg35_8_cif.got.tgz:15376.got - 2010.04.14 02:02:04.
