data_PCOD8173469
_publ_section_title
;
Structure prediction by ZEFSAII (Michael W. Deem and Ramdas Pophale) SiO2 
 PCOD8173469
Probable space group: C M M 2
;
_chemical_formula_sum "Si O2"
_cell_formula_units_Z 40
_cell_length_a 8.761713
_cell_length_b 25.574193
_cell_length_c 9.163264
_cell_angle_alpha 90.000000
_cell_angle_beta 90.000000
_cell_angle_gamma 90.000000
_cell_volume 2053.246828
_symmetry_space_group_name_H-M "C M M 2"
_symmetry_group_IT_number 35
_symmetry_cell_setting 'orthorhombic'
loop_
_space_group_symop_operation_xyz
x,y,z
-x,-y,z
-x,y,z
x,-y,z
1/2+x,1/2+y,z
1/2-x,1/2-y,z
1/2-x,1/2+y,z
1/2+x,1/2-y,z
loop_
_atom_site_type_symbol
_atom_site_label
_atom_site_fract_x
_atom_site_fract_y
_atom_site_fract_z
Si Si1 0.179424 0.695501 0.398690
Si Si2 0.678128 0.904657 0.215959
Si Si3 0.680487 0.500000 0.385797
Si Si4 0.678860 0.304180 0.707159
Si Si5 0.821316 0.902469 0.902735
Si Si6 0.680650 0.500000 0.712800
O O1 0.250000 0.750000 0.343125
O O2 0.222334 0.651667 0.281034
O O3 0.248207 0.678713 0.554038
O O4 0.000000 0.702563 0.416940
O O5 0.500000 0.916157 0.230614
O O6 0.766852 0.948540 0.303545
O O7 0.724984 0.905969 0.048650
O O8 0.500000 0.500000 0.390186
O O9 0.749624 0.500000 0.549623
O O10 0.500000 0.297002 0.682450
O O11 0.750000 0.250000 0.764200
O O12 0.715550 0.347597 0.826966
O O13 0.000000 0.908575 0.938802
O O14 0.762938 0.948541 0.797252
O O15 0.500000 0.500000 0.702188
#
# Coordination Sequence:
#
# PCOD8173469 Si02
#       6
#     8   8   4   8   8   4
#     4  10  21  37  58  83 113 150 192 237 283 334
#     4  11  24  39  56  84 119 150 185 232 285 336
#     4  11  22  39  64  86 110 147 188 231 278 336
#     4  10  20  35  57  84 113 147 190 235 279 333
#     4  10  21  37  58  83 111 146 187 229 277 335
#     4   9  19  37  60  84 106 135 182 231 272 322
#
# _framework density 19.481341
#
# number of rings (size 3 to 8) (size 9 to 14) (size 15 to 20)
#    0.000    1.800    0.000    5.100    0.000    8.000 
#    0.000    6.000    0.000    0.000    0.000    0.000 
#    0.000    0.000    0.000    0.000    0.000    0.000 
#
# Total GULP energy -248081.345274 kJ/mol
# GULP energy per Si atom -12404.067264 kJ/mol
# Density = 1.943700 g / cm^3
# Si number density = 19.481341 Si / 1000 Ang^3
#
#
#
# Elastic Constant Matrix: (Units=GPa)
#
#
# Indices 1 2 3 4 5 6 
#
# 1 82.8719 56.2945 45.6008 0.0000 0.0000 0.0000
# 2 56.2945 139.8164 84.5141 0.0000 0.0000 0.0000
# 3 45.6008 84.5141 144.1232 0.0000 0.0000 0.0000
# 4 0.0000 0.0000 0.0000 45.6745 0.0000 0.0000
# 5 0.0000 0.0000 0.0000 0.0000 31.0062 0.0000
# 6 0.0000 0.0000 0.0000 0.0000 0.0000 29.7194
#
#
#
# Elastic Compliance Matrix: (Units=1/GPa)
#
#
# Indices 1 2 3 4 5 6 
#
# 1 0.017017 -0.005572 -0.002117 0.000000 0.000000 0.000000
# 2 -0.005572 0.012904 -0.005804 0.000000 0.000000 0.000000
# 3 -0.002117 -0.005804 0.011012 0.000000 0.000000 0.000000
# 4 0.000000 0.000000 0.000000 0.021894 0.000000 0.000000
# 5 0.000000 0.000000 0.000000 0.000000 0.032252 0.000000
# 6 0.000000 0.000000 0.000000 0.000000 0.000000 0.033648
#
#
# Mechanical properties :
#
#
# Convention : Reuss Voigt Hill
#
# Bulk Modulus (GPa) = 71.69964 82.18114 76.94039
# Shear Modulus (GPa) = 31.17985 33.30681 32.24333
#
# Velocity S-wave (km/s) = 4.00496 4.13931 4.07269
# Velocity P-wave (km/s) = 7.63351 8.06978 7.85467
#
# Compressibility (1/GPa) = 0.01394707
#
# Stress axis : x y z
#
# Youngs Moduli (GPa) = 58.76638 77.49561 90.81283
#
# Poissons Ratio (x) = 0.43180 0.19222
# Poissons Ratio (y) = 0.32744 0.52707
# Poissons Ratio (z) = 0.12439 0.44978
#
# Static dielectric constant tensor:
#      x y z
#    x 3.521060 0.000000 0.000000 
#    y 0.000000 3.857410 0.000000 
#    z 0.000000 0.000000 3.585820 
# 
# 
# High freq. dielectric constant tensor:
#      x y z
#    x 1.757650 0.000000 0.000000 
#    y 0.000000 1.776130 0.000000 
#    z 0.000000 0.000000 1.763080 
# 
# From -- ./inp_files/5029.got.cif
#   From: 2010.03.12/outbox.cif.g09.slc.cpg/sg35_3_cif.got.tgz:5029.got - 2010.04.14 02:02:04.
