data_PCOD8173252
_publ_section_title
;
Structure prediction by ZEFSAII (Michael W. Deem and Ramdas Pophale) SiO2 
 PCOD8173252
Probable space group: C M M 2
;
_chemical_formula_sum "Si O2"
_cell_formula_units_Z 64
_cell_length_a 8.784145
_cell_length_b 18.361550
_cell_length_c 20.642671
_cell_angle_alpha 90.000000
_cell_angle_beta 90.000000
_cell_angle_gamma 90.000000
_cell_volume 3329.467091
_symmetry_space_group_name_H-M "C M M 2"
_symmetry_group_IT_number 35
_symmetry_cell_setting 'orthorhombic'
loop_
_space_group_symop_operation_xyz
x,y,z
-x,-y,z
-x,y,z
x,-y,z
1/2+x,1/2+y,z
1/2-x,1/2-y,z
1/2-x,1/2+y,z
1/2+x,1/2-y,z
loop_
_atom_site_type_symbol
_atom_site_label
_atom_site_fract_x
_atom_site_fract_y
_atom_site_fract_z
Si Si1 0.320496 0.082826 0.071310
Si Si2 0.679940 0.582758 0.203861
Si Si3 0.819095 0.918205 0.451796
Si Si4 0.819322 0.829267 0.576173
Si Si5 0.678436 0.915708 0.693189
Si Si6 0.675888 0.414962 0.829350
Si Si7 0.319386 0.829222 0.946723
Si Si8 0.680888 0.670718 0.328025
O O1 0.500000 0.087481 0.078099
O O2 0.247990 0.114279 0.137186
O O3 0.265923 0.000000 0.059732
O O4 0.261314 0.130411 0.011379
O O5 0.500000 0.585910 0.199384
O O6 0.736166 0.500000 0.215371
O O7 0.740087 0.631931 0.262784
O O8 0.760892 0.876926 0.515674
O O9 0.758455 0.876133 0.388638
O O10 0.000000 0.921239 0.450752
O O11 0.751833 0.000000 0.451868
O O12 0.750000 0.750000 0.568788
O O13 0.762254 0.866510 0.641212
O O14 0.000000 0.823509 0.577887
O O15 0.500000 0.899210 0.692444
O O16 0.745317 0.893019 0.762319
O O17 0.713653 0.000000 0.678053
O O18 0.500000 0.391704 0.826762
O O19 0.695123 0.500000 0.843386
O O20 0.761713 0.372659 0.885147
O O21 0.500000 0.825085 0.944252
O O22 0.250000 0.750000 0.946396
O O23 0.500000 0.676210 0.328951
O O24 0.750000 0.750000 0.332738
#
# Coordination Sequence:
#
# PCOD8173252 Si02
#       8
#     8   8   8   8   8   8   8   8
#     4   9  19  36  57  79 105 140 180 223 272 325
#     4   9  18  33  54  78 103 136 180 225 265 313
#     4   9  18  34  57  81 105 139 183 228 272 321
#     4  11  22  36  56  82 113 147 184 226 274 328
#     4  10  21  38  60  85 113 145 182 225 272 323
#     4  10  21  38  61  87 113 143 182 226 271 324
#     4  11  23  38  56  80 112 147 184 226 275 329
#     4  10  20  34  53  78 109 142 177 219 269 324
#
# _framework density 19.222294999999999
#
# number of rings (size 3 to 8) (size 9 to 14) (size 15 to 20)
#    0.000    2.125    0.000    3.000    0.000    6.500 
#    0.000    6.875    0.000    2.625    0.000    0.000 
#    0.000    0.000    0.000    0.000    0.000    0.000 
#
# Total GULP energy -396905.515742 kJ/mol
# GULP energy per Si atom -12403.297367 kJ/mol
# Density = 1.917854 g / cm^3
# Si number density = 19.222295 Si / 1000 Ang^3
#
#
#
# Elastic Constant Matrix: (Units=GPa)
#
#
# Indices 1 2 3 4 5 6 
#
# 1 57.4511 39.7226 47.5067 0.0000 0.0000 0.0000
# 2 39.7226 119.7617 102.9556 0.0000 0.0000 0.0000
# 3 47.5067 102.9556 187.8519 0.0000 0.0000 0.0000
# 4 0.0000 0.0000 0.0000 14.1114 0.0000 0.0000
# 5 0.0000 0.0000 0.0000 0.0000 27.6547 0.0000
# 6 0.0000 0.0000 0.0000 0.0000 0.0000 85.0003
#
#
#
# Elastic Compliance Matrix: (Units=1/GPa)
#
#
# Indices 1 2 3 4 5 6 
#
# 1 0.023541 -0.005087 -0.003165 0.000000 0.000000 0.000000
# 2 -0.005087 0.016888 -0.007969 0.000000 0.000000 0.000000
# 3 -0.003165 -0.007969 0.010492 0.000000 0.000000 0.000000
# 4 0.000000 0.000000 0.000000 0.070865 0.000000 0.000000
# 5 0.000000 0.000000 0.000000 0.000000 0.036160 0.000000
# 6 0.000000 0.000000 0.000000 0.000000 0.000000 0.011765
#
#
# Mechanical properties :
#
#
# Convention : Reuss Voigt Hill
#
# Bulk Modulus (GPa) = 54.12063 82.82607 68.47335
# Shear Modulus (GPa) = 24.00239 37.01195 30.50717
#
# Velocity S-wave (km/s) = 3.53749 4.39278 3.98813
# Velocity P-wave (km/s) = 6.70085 8.30125 7.54361
#
# Compressibility (1/GPa) = 0.01847724
#
# Stress axis : x y z
#
# Youngs Moduli (GPa) = 42.47968 59.21291 95.31384
#
# Poissons Ratio (x) = 0.30120 0.30171
# Poissons Ratio (y) = 0.21609 0.75960
# Poissons Ratio (z) = 0.13446 0.47190
#
# Static dielectric constant tensor:
#      x y z
#    x 3.395340 0.000000 0.000000 
#    y 0.000000 3.623680 0.000000 
#    z 0.000000 0.000000 3.759400 
# 
# 
# High freq. dielectric constant tensor:
#      x y z
#    x 1.736990 0.000000 0.000000 
#    y 0.000000 1.750900 0.000000 
#    z 0.000000 0.000000 1.766260 
# 
# From -- ./inp_files/18433.got.cif
#   From: 2010.03.12/outbox.cif.g09.slc.cpg/sg35_10_cif.got.tgz:18433.got - 2010.04.14 02:02:04.
