data_PCOD8173249
_publ_section_title
;
Structure prediction by ZEFSAII (Michael W. Deem and Ramdas Pophale) SiO2 
 PCOD8173249
Probable space group: C M M 2
;
_chemical_formula_sum "Si O2"
_cell_formula_units_Z 64
_cell_length_a 8.734565
_cell_length_b 19.396903
_cell_length_c 20.299309
_cell_angle_alpha 90.000000
_cell_angle_beta 90.000000
_cell_angle_gamma 90.000000
_cell_volume 3439.180182
_symmetry_space_group_name_H-M "C M M 2"
_symmetry_group_IT_number 35
_symmetry_cell_setting 'orthorhombic'
loop_
_space_group_symop_operation_xyz
x,y,z
-x,-y,z
-x,y,z
x,-y,z
1/2+x,1/2+y,z
1/2-x,1/2-y,z
1/2-x,1/2+y,z
1/2+x,1/2-y,z
loop_
_atom_site_type_symbol
_atom_site_label
_atom_site_fract_x
_atom_site_fract_y
_atom_site_fract_z
Si Si1 0.818441 0.822070 0.011940
Si Si2 0.319602 0.678469 0.523318
Si Si3 0.824904 0.581119 0.626427
Si Si4 0.317447 0.423586 0.901524
Si Si5 0.329853 0.418057 0.758150
Si Si6 0.179673 0.821898 0.159795
Si Si7 0.818718 0.322563 0.381937
Si Si8 0.320010 0.420210 0.275958
O O1 0.750000 0.750000 0.989238
O O2 0.763238 0.840584 0.086064
O O3 0.000000 0.818647 0.008209
O O4 0.751479 0.877797 0.960934
O O5 0.500000 0.686353 0.513841
O O6 0.250000 0.750000 0.550368
O O7 0.284028 0.618024 0.574318
O O8 0.244219 0.659261 0.453863
O O9 0.795789 0.500000 0.619208
O O10 0.782514 0.606603 0.700061
O O11 0.000000 0.600880 0.612464
O O12 0.500000 0.426345 0.903688
O O13 0.249226 0.500000 0.911530
O O14 0.268420 0.392694 0.829810
O O15 0.500000 0.388598 0.743758
O O16 0.337926 0.500000 0.761541
O O17 0.250000 0.750000 0.184834
O O18 0.229417 0.883854 0.207705
O O19 0.000000 0.811333 0.160514
O O20 0.750000 0.250000 0.356217
O O21 0.771355 0.384941 0.334967
O O22 0.000000 0.315697 0.384505
O O23 0.500000 0.411808 0.289090
O O24 0.272118 0.500000 0.271587
#
# Coordination Sequence:
#
# PCOD8173249 Si02
#       8
#     8   8   8   8   8   8   8   8
#     4   9  17  30  48  71  99 130 166 208 255 304
#     4  11  22  38  59  81 107 137 171 211 256 305
#     4  10  20  34  53  78 107 138 174 215 257 304
#     4   8  14  26  47  72  95 124 167 215 256 298
#     4   8  14  27  47  70  96 129 170 212 255 304
#     4   9  18  32  51  73  98 133 172 209 251 304
#     4  11  22  38  59  80 104 136 174 210 250 304
#     4  10  21  36  53  77 108 137 169 213 261 305
#
# _framework density 18.609086999999999
#
# number of rings (size 3 to 8) (size 9 to 14) (size 15 to 20)
#    0.000    2.500    0.000    4.500    0.000    3.500 
#    0.000    3.750    0.000    2.625    0.000    3.500 
#    0.000    0.000    0.000    0.000    0.000    0.000 
#
# Total GULP energy -396749.618888 kJ/mol
# GULP energy per Si atom -12398.425590 kJ/mol
# Density = 1.856673 g / cm^3
# Si number density = 18.609087 Si / 1000 Ang^3
#
#
#
# Elastic Constant Matrix: (Units=GPa)
#
#
# Indices 1 2 3 4 5 6 
#
# 1 73.7470 40.5817 42.8993 0.0000 0.0000 0.0000
# 2 40.5817 108.3236 79.6189 0.0000 0.0000 0.0000
# 3 42.8993 79.6189 129.4585 0.0000 0.0000 0.0000
# 4 0.0000 0.0000 0.0000 28.6931 0.0000 0.0000
# 5 0.0000 0.0000 0.0000 0.0000 19.5439 0.0000
# 6 0.0000 0.0000 0.0000 0.0000 0.0000 25.6875
#
#
#
# Elastic Compliance Matrix: (Units=1/GPa)
#
#
# Indices 1 2 3 4 5 6 
#
# 1 0.017814 -0.004261 -0.003283 0.000000 0.000000 0.000000
# 2 -0.004261 0.017867 -0.009576 0.000000 0.000000 0.000000
# 3 -0.003283 -0.009576 0.014702 0.000000 0.000000 0.000000
# 4 0.000000 0.000000 0.000000 0.034852 0.000000 0.000000
# 5 0.000000 0.000000 0.000000 0.000000 0.051167 0.000000
# 6 0.000000 0.000000 0.000000 0.000000 0.000000 0.038929
#
#
# Mechanical properties :
#
#
# Convention : Reuss Voigt Hill
#
# Bulk Modulus (GPa) = 61.94703 70.85877 66.40290
# Shear Modulus (GPa) = 23.26115 24.68020 23.97067
#
# Velocity S-wave (km/s) = 3.53935 3.64571 3.59293
# Velocity P-wave (km/s) = 7.07556 7.47541 7.27823
#
# Compressibility (1/GPa) = 0.01614282
#
# Stress axis : x y z
#
# Youngs Moduli (GPa) = 56.13514 55.97064 68.01936
#
# Poissons Ratio (x) = 0.23850 0.22327
# Poissons Ratio (y) = 0.23920 0.65136
# Poissons Ratio (z) = 0.18426 0.53598
#
# Static dielectric constant tensor:
#      x y z
#    x 3.274360 0.000000 0.000000 
#    y 0.000000 3.339380 0.000000 
#    z 0.000000 0.000000 3.748480 
# 
# 
# High freq. dielectric constant tensor:
#      x y z
#    x 1.708730 0.000000 0.000000 
#    y 0.000000 1.703690 0.000000 
#    z 0.000000 0.000000 1.735660 
# 
# From -- ./inp_files/18345.got.cif
#   From: 2010.03.12/outbox.cif.g09.slc.cpg/sg35_10_cif.got.tgz:18345.got - 2010.04.14 02:02:04.
