data_PCOD8173142
_publ_section_title
;
Structure prediction by ZEFSAII (Michael W. Deem and Ramdas Pophale) SiO2 
 PCOD8173142
Probable space group: C M M 2
;
_chemical_formula_sum "Si O2"
_cell_formula_units_Z 56
_cell_length_a 9.113434
_cell_length_b 18.528786
_cell_length_c 17.595768
_cell_angle_alpha 90.000000
_cell_angle_beta 90.000000
_cell_angle_gamma 90.000000
_cell_volume 2971.236663
_symmetry_space_group_name_H-M "C M M 2"
_symmetry_group_IT_number 35
_symmetry_cell_setting 'orthorhombic'
loop_
_space_group_symop_operation_xyz
x,y,z
-x,-y,z
-x,y,z
x,-y,z
1/2+x,1/2+y,z
1/2-x,1/2-y,z
1/2-x,1/2+y,z
1/2+x,1/2-y,z
loop_
_atom_site_type_symbol
_atom_site_label
_atom_site_fract_x
_atom_site_fract_y
_atom_site_fract_z
Si Si1 0.835092 0.585626 0.443330
Si Si2 0.337913 0.585613 0.587127
Si Si3 0.671172 0.677029 0.325658
Si Si4 0.172808 0.326217 0.884578
Si Si5 0.169610 0.416760 0.032642
Si Si6 0.172173 0.083415 0.757412
Si Si7 0.828980 0.823120 0.149918
O O1 0.831159 0.500000 0.442621
O O2 0.772961 0.615931 0.523480
O O3 0.735682 0.611357 0.373699
O O4 0.000000 0.614968 0.433815
O O5 0.500000 0.617341 0.570490
O O6 0.345852 0.500000 0.583093
O O7 0.286540 0.607610 0.671612
O O8 0.500000 0.685001 0.341836
O O9 0.750000 0.750000 0.352012
O O10 0.703846 0.660438 0.237759
O O11 0.250000 0.250000 0.894538
O O12 0.231409 0.366472 0.810638
O O13 0.000000 0.314630 0.876028
O O14 0.213802 0.373868 0.957341
O O15 0.206190 0.500000 0.017747
O O16 0.266812 0.390073 0.102863
O O17 0.000000 0.405041 0.053618
O O18 0.000000 0.095397 0.772844
O O19 0.214272 0.000000 0.771388
O O20 0.750000 0.750000 0.123011
O O21 0.000000 0.813565 0.133478
#
# Coordination Sequence:
#
# PCOD8173142 Si02
#       7
#     8   8   8   8   8   8   8
#     4  10  20  33  52  80 111 143 181 222 265 316
#     4   8  15  30  52  77 106 140 177 219 268 318
#     4  10  21  37  56  78 107 142 180 222 268 319
#     4  11  23  38  56  79 109 144 181 220 265 317
#     4  10  22  39  58  82 111 141 175 218 267 316
#     4   9  18  34  57  83 109 139 177 221 269 319
#     4  10  21  37  58  82 107 140 180 220 266 319
#
# _framework density 18.847370999999999
#
# number of rings (size 3 to 8) (size 9 to 14) (size 15 to 20)
#    0.000    2.286    0.000    3.429    0.000    7.143 
#    0.000    5.000    0.000    3.429    0.000    0.000 
#    0.000    0.000    0.000    0.000    0.000    0.000 
#
# Total GULP energy -347264.667511 kJ/mol
# GULP energy per Si atom -12402.309554 kJ/mol
# Density = 1.880447 g / cm^3
# Si number density = 18.847371 Si / 1000 Ang^3
#
#
#
# Elastic Constant Matrix: (Units=GPa)
#
#
# Indices 1 2 3 4 5 6 
#
# 1 110.8390 55.2473 71.4704 0.0000 0.0000 0.0000
# 2 55.2473 91.2926 58.8715 0.0000 0.0000 0.0000
# 3 71.4704 58.8715 118.2605 0.0000 0.0000 0.0000
# 4 0.0000 0.0000 0.0000 17.9377 0.0000 0.0000
# 5 0.0000 0.0000 0.0000 0.0000 34.1331 0.0000
# 6 0.0000 0.0000 0.0000 0.0000 0.0000 30.9946
#
#
#
# Elastic Compliance Matrix: (Units=1/GPa)
#
#
# Indices 1 2 3 4 5 6 
#
# 1 0.016285 -0.005167 -0.007270 0.000000 0.000000 0.000000
# 2 -0.005167 0.017772 -0.005724 0.000000 0.000000 0.000000
# 3 -0.007270 -0.005724 0.015699 0.000000 0.000000 0.000000
# 4 0.000000 0.000000 0.000000 0.055748 0.000000 0.000000
# 5 0.000000 0.000000 0.000000 0.000000 0.029297 0.000000
# 6 0.000000 0.000000 0.000000 0.000000 0.000000 0.032264
#
#
# Mechanical properties :
#
#
# Convention : Reuss Voigt Hill
#
# Bulk Modulus (GPa) = 74.43882 76.84116 75.63999
# Shear Modulus (GPa) = 24.05390 25.59996 24.82693
#
# Velocity S-wave (km/s) = 3.57634 3.68948 3.63335
# Velocity P-wave (km/s) = 7.52562 7.68169 7.60406
#
# Compressibility (1/GPa) = 0.01343385
#
# Stress axis : x y z
#
# Youngs Moduli (GPa) = 61.40516 56.26697 63.69868
#
# Poissons Ratio (x) = 0.29076 0.46306
# Poissons Ratio (y) = 0.31731 0.36464
# Poissons Ratio (z) = 0.44639 0.32209
#
# Static dielectric constant tensor:
#      x y z
#    x 3.602360 0.000000 0.000000 
#    y 0.000000 3.266790 0.000000 
#    z 0.000000 0.000000 3.589180 
# 
# 
# High freq. dielectric constant tensor:
#      x y z
#    x 1.739420 0.000000 0.000000 
#    y 0.000000 1.714610 0.000000 
#    z 0.000000 0.000000 1.742450 
# 
# From -- ./inp_files/15616.got.cif
#   From: 2010.03.12/outbox.cif.g09.slc.cpg/sg35_8_cif.got.tgz:15616.got - 2010.04.14 02:02:04.
