data_PCOD8173898
_publ_section_title
;
Structure prediction by ZEFSAII (Michael W. Deem and Ramdas Pophale) SiO2 
 PCOD8173898
Probable space group: C M M 2
;
_chemical_formula_sum "Si O2"
_cell_formula_units_Z 48
_cell_length_a 8.908542
_cell_length_b 18.624631
_cell_length_c 15.115526
_cell_angle_alpha 90.000000
_cell_angle_beta 90.000000
_cell_angle_gamma 90.000000
_cell_volume 2507.942491
_symmetry_space_group_name_H-M "C M M 2"
_symmetry_group_IT_number 35
_symmetry_cell_setting 'orthorhombic'
loop_
_space_group_symop_operation_xyz
x,y,z
-x,-y,z
-x,y,z
x,-y,z
1/2+x,1/2+y,z
1/2-x,1/2-y,z
1/2-x,1/2+y,z
1/2+x,1/2-y,z
loop_
_atom_site_type_symbol
_atom_site_label
_atom_site_fract_x
_atom_site_fract_y
_atom_site_fract_z
Si Si1 0.176442 0.826843 0.592220
Si Si2 0.672596 0.082069 0.446081
Si Si3 0.173939 0.082844 0.760673
Si Si4 0.172677 0.417520 0.241649
Si Si5 0.823124 0.172579 0.094799
Si Si6 0.326486 0.915817 0.941103
O O1 0.250000 0.750000 0.598029
O O2 0.223369 0.866287 0.502683
O O3 0.230284 0.872446 0.676601
O O4 0.000000 0.817394 0.591208
O O5 0.500000 0.094121 0.472709
O O6 0.697534 0.101643 0.343869
O O7 0.719796 0.000000 0.463782
O O8 0.271376 0.107957 0.844266
O O9 0.000000 0.097061 0.782295
O O10 0.203472 0.000000 0.738070
O O11 0.216515 0.500000 0.222960
O O12 0.278503 0.365804 0.185871
O O13 0.000000 0.404735 0.214153
O O14 0.750000 0.250000 0.089353
O O15 0.000000 0.181525 0.091260
O O16 0.770288 0.125330 0.012811
O O17 0.500000 0.894988 0.951534
O O18 0.299418 0.000000 0.955553
#
# Coordination Sequence:
#
# PCOD8173898 Si02
#       6
#     8   8   8   8   8   8
#     4  11  23  37  55  81 115 153 189 230 279 330
#     4   9  19  37  61  86 112 145 185 230 279 331
#     4   9  19  37  59  82 109 144 188 235 280 327
#     4   9  19  38  62  86 113 145 183 229 279 331
#     4  12  25  39  57  82 114 151 188 229 278 331
#     4  10  21  38  61  87 114 146 184 227 276 331
#
# _framework density 19.139195999999998
#
# number of rings (size 3 to 8) (size 9 to 14) (size 15 to 20)
#    0.000    2.000    0.000    4.500    0.000    7.667 
#    0.000    5.000    0.000    0.000    0.000    0.000 
#    0.000    0.000    0.000    0.000    0.000    0.000 
#
# Total GULP energy -297707.743935 kJ/mol
# GULP energy per Si atom -12404.489331 kJ/mol
# Density = 1.909563 g / cm^3
# Si number density = 19.139196 Si / 1000 Ang^3
#
#
#
# Elastic Constant Matrix: (Units=GPa)
#
#
# Indices 1 2 3 4 5 6 
#
# 1 111.1575 54.4500 61.3883 0.0000 0.0000 0.0000
# 2 54.4500 89.8063 64.2019 0.0000 0.0000 0.0000
# 3 61.3883 64.2019 117.7644 0.0000 0.0000 0.0000
# 4 0.0000 0.0000 0.0000 -1.6084 0.0000 0.0000
# 5 0.0000 0.0000 0.0000 0.0000 37.1259 0.0000
# 6 0.0000 0.0000 0.0000 0.0000 0.0000 504.4028
#
#
#
# Elastic Compliance Matrix: (Units=1/GPa)
#
#
# Indices 1 2 3 4 5 6 
#
# 1 0.014060 -0.005383 -0.004395 0.000000 0.000000 0.000000
# 2 -0.005383 0.020307 -0.008265 0.000000 0.000000 0.000000
# 3 -0.004395 -0.008265 0.015288 0.000000 0.000000 0.000000
# 4 0.000000 0.000000 0.000000 -0.621723 0.000000 0.000000
# 5 0.000000 0.000000 0.000000 0.000000 0.026935 0.000000
# 6 0.000000 0.000000 0.000000 0.000000 0.000000 0.001983
#
#
# Mechanical properties :
#
#
# Convention : Reuss Voigt Hill
#
# Bulk Modulus (GPa) = 73.68923 75.42318 74.55620
# Shear Modulus (GPa) = -9.94944 117.22992 53.64024
#
# Velocity S-wave (km/s) = -2.28249 7.83481 5.29974
# Velocity P-wave (km/s) = 5.62485 11.01539 8.74579
#
# Compressibility (1/GPa) = 0.01357050
#
# Stress axis : x y z
#
# Youngs Moduli (GPa) = 71.12350 49.24309 65.41023
#
# Poissons Ratio (x) = 0.26508 0.28745
# Poissons Ratio (y) = 0.38286 0.54061
# Poissons Ratio (z) = 0.31255 0.40699
#
# Static dielectric constant tensor:
#      x y z
#    x 3.488210 0.000000 0.000000 
#    y 0.000000 3.511120 0.000000 
#    z 0.000000 0.000000 3.591250 
# 
# 
# High freq. dielectric constant tensor:
#      x y z
#    x 1.745970 0.000000 0.000000 
#    y 0.000000 1.744000 0.000000 
#    z 0.000000 0.000000 1.757100 
# 
# From -- ./inp_files/15090.got.cif
#   From: 2010.03.12/outbox.cif.g09.slc.cpg/sg35_8_cif.got.tgz:15090.got - 2010.04.14 02:02:04.
