data_PCOD8173247
_publ_section_title
;
Structure prediction by ZEFSAII (Michael W. Deem and Ramdas Pophale) SiO2 
 PCOD8173247
Probable space group: C M M 2
;
_chemical_formula_sum "Si O2"
_cell_formula_units_Z 64
_cell_length_a 8.949837
_cell_length_b 18.750262
_cell_length_c 20.620555
_cell_angle_alpha 90.000000
_cell_angle_beta 90.000000
_cell_angle_gamma 90.000000
_cell_volume 3460.372217
_symmetry_space_group_name_H-M "C M M 2"
_symmetry_group_IT_number 35
_symmetry_cell_setting 'orthorhombic'
loop_
_space_group_symop_operation_xyz
x,y,z
-x,-y,z
-x,y,z
x,-y,z
1/2+x,1/2+y,z
1/2-x,1/2-y,z
1/2-x,1/2+y,z
1/2+x,1/2-y,z
loop_
_atom_site_type_symbol
_atom_site_label
_atom_site_fract_x
_atom_site_fract_y
_atom_site_fract_z
Si Si1 0.825273 0.583361 0.312730
Si Si2 0.322198 0.672472 0.200368
Si Si3 0.831212 0.414887 0.570765
Si Si4 0.176152 0.175751 0.962416
Si Si5 0.174408 0.917976 0.699195
Si Si6 0.667450 0.415486 0.443953
Si Si7 0.824391 0.176585 0.816989
Si Si8 0.822703 0.079785 0.078767
O O1 0.791986 0.500000 0.300156
O O2 0.731515 0.629769 0.262855
O O3 0.770554 0.607135 0.383759
O O4 0.000000 0.600432 0.306381
O O5 0.500000 0.680188 0.202201
O O6 0.250000 0.750000 0.198061
O O7 0.265800 0.628279 0.137958
O O8 0.824589 0.500000 0.570300
O O9 0.759469 0.385266 0.637191
O O10 0.739831 0.383923 0.509569
O O11 0.000000 0.386974 0.565897
O O12 0.250000 0.250000 0.982864
O O13 0.224177 0.153044 0.889572
O O14 0.000000 0.186399 0.968174
O O15 0.232693 0.114555 0.011311
O O16 0.230565 0.881541 0.765339
O O17 0.000000 0.905866 0.687190
O O18 0.215174 0.000000 0.707861
O O19 0.500000 0.384526 0.435548
O O20 0.660919 0.500000 0.449141
O O21 0.750000 0.250000 0.796728
O O22 0.000000 0.187202 0.813941
O O23 0.000000 0.075264 0.080229
O O24 0.754635 0.000000 0.084427
#
# Coordination Sequence:
#
# PCOD8173247 Si02
#       8
#     8   8   8   8   8   8   8   8
#     4  10  20  34  53  78 106 134 168 212 258 304
#     4  11  22  36  54  75 102 137 175 212 253 304
#     4   9  16  26  42  67  98 130 164 203 249 299
#     4   9  17  31  51  73  98 129 165 204 247 297
#     4   9  17  29  45  67  95 126 163 207 251 295
#     4   9  16  27  46  72 101 133 167 204 249 300
#     4   9  18  31  48  70  96 129 166 204 247 296
#     4   9  18  32  52  78 104 130 164 208 254 299
#
# _framework density 18.49512
#
# number of rings (size 3 to 8) (size 9 to 14) (size 15 to 20)
#    0.000    2.625    0.000    2.250    0.000    5.250 
#    0.000    3.125    0.000    2.625    0.000    7.000 
#    0.000    0.000    0.000    0.000    0.000    0.000 
#
# Total GULP energy -396767.564464 kJ/mol
# GULP energy per Si atom -12398.986390 kJ/mol
# Density = 1.845302 g / cm^3
# Si number density = 18.495120 Si / 1000 Ang^3
#
#
#
# Elastic Constant Matrix: (Units=GPa)
#
#
# Indices 1 2 3 4 5 6 
#
# 1 66.0389 35.5027 45.5387 0.0000 0.0000 0.0000
# 2 35.5027 86.7472 71.1826 0.0000 0.0000 0.0000
# 3 45.5387 71.1826 155.4491 0.0000 0.0000 0.0000
# 4 0.0000 0.0000 0.0000 19.2991 0.0000 0.0000
# 5 0.0000 0.0000 0.0000 0.0000 23.2289 0.0000
# 6 0.0000 0.0000 0.0000 0.0000 0.0000 21.8906
#
#
#
# Elastic Compliance Matrix: (Units=1/GPa)
#
#
# Indices 1 2 3 4 5 6 
#
# 1 0.020519 -0.005551 -0.003469 0.000000 0.000000 0.000000
# 2 -0.005551 0.019968 -0.007518 0.000000 0.000000 0.000000
# 3 -0.003469 -0.007518 0.010892 0.000000 0.000000 0.000000
# 4 0.000000 0.000000 0.000000 0.051816 0.000000 0.000000
# 5 0.000000 0.000000 0.000000 0.000000 0.043050 0.000000
# 6 0.000000 0.000000 0.000000 0.000000 0.000000 0.045682
#
#
# Mechanical properties :
#
#
# Convention : Reuss Voigt Hill
#
# Bulk Modulus (GPa) = 54.63444 68.07588 61.35516
# Shear Modulus (GPa) = 21.63532 23.28447 22.45990
#
# Velocity S-wave (km/s) = 3.42392 3.55202 3.48856
# Velocity P-wave (km/s) = 6.72570 7.32870 7.03367
#
# Compressibility (1/GPa) = 0.01830347
#
# Stress axis : x y z
#
# Youngs Moduli (GPa) = 48.73512 50.07901 91.81293
#
# Poissons Ratio (x) = 0.27799 0.31851
# Poissons Ratio (y) = 0.27053 0.69022
# Poissons Ratio (z) = 0.16907 0.37648
#
# Static dielectric constant tensor:
#      x y z
#    x 3.340880 0.000000 0.000000 
#    y 0.000000 3.003290 0.000000 
#    z 0.000000 0.000000 3.725550 
# 
# 
# High freq. dielectric constant tensor:
#      x y z
#    x 1.709570 0.000000 0.000000 
#    y 0.000000 1.683590 0.000000 
#    z 0.000000 0.000000 1.736000 
# 
# From -- ./inp_files/18408.got.cif
#   From: 2010.03.12/outbox.cif.g09.slc.cpg/sg35_10_cif.got.tgz:18408.got - 2010.04.14 02:02:04.
