data_PCOD8173968
_publ_section_title
;
Structure prediction by ZEFSAII (Michael W. Deem and Ramdas Pophale) SiO2 
 PCOD8173968
Probable space group: C M M 2
;
_chemical_formula_sum "Si O2"
_cell_formula_units_Z 56
_cell_length_a 28.564058
_cell_length_b 14.309929
_cell_length_c 5.489998
_cell_angle_alpha 90.000000
_cell_angle_beta 90.000000
_cell_angle_gamma 90.000000
_cell_volume 2244.034717
_symmetry_space_group_name_H-M "C M M 2"
_symmetry_group_IT_number 35
_symmetry_cell_setting 'orthorhombic'
loop_
_space_group_symop_operation_xyz
x,y,z
-x,-y,z
-x,y,z
x,-y,z
1/2+x,1/2+y,z
1/2-x,1/2-y,z
1/2-x,1/2+y,z
1/2+x,1/2-y,z
loop_
_atom_site_type_symbol
_atom_site_label
_atom_site_fract_x
_atom_site_fract_y
_atom_site_fract_z
Si Si1 0.081903 0.893596 0.497330
Si Si2 0.323331 0.753122 0.880441
Si Si3 0.638363 0.102941 0.526939
Si Si4 0.808476 0.103991 0.517338
Si Si5 0.418925 0.707575 0.010699
Si Si6 0.447592 0.896376 0.176566
Si Si7 0.773081 0.604381 0.177583
O O1 0.137362 0.893360 0.456459
O O2 0.068679 0.846635 0.758282
O O3 0.063111 0.000000 0.504552
O O4 0.060272 0.842707 0.256155
O O5 0.359119 0.813628 0.715608
O O6 0.296353 0.670524 0.742633
O O7 0.362333 0.710599 0.062991
O O8 0.282799 0.820829 0.970597
O O9 0.590431 0.120279 0.385004
O O10 0.684322 0.110393 0.362949
O O11 0.637527 0.000000 0.651138
O O12 0.776776 0.137282 0.289201
O O13 0.791618 0.000000 0.589653
O O14 0.441030 0.811849 0.984715
O O15 0.500000 0.892592 0.287155
O O16 0.439274 0.000000 0.056450
O O17 0.769065 0.500000 0.068479
#
# Coordination Sequence:
#
# PCOD8173968 Si02
#       7
#     8   8   8   8   8   8   8
#     4  10  22  44  71  98 133 180 232 291 351 417
#     4  11  22  39  67  93 128 179 237 290 353 420
#     4  10  21  40  63  92 133 180 233 285 351 428
#     4   9  21  41  60  89 128 169 224 283 343 407
#     4  11  22  41  69 100 137 180 234 284 349 424
#     4  10  21  40  69 106 147 187 231 290 357 432
#     4  10  21  41  63  88 128 176 225 287 349 411
#
# _framework density 24.955048999999999
#
# number of rings (size 3 to 8) (size 9 to 14) (size 15 to 20)
#    0.000    1.857    1.429    2.571    0.000    1.714 
#    7.714    3.571    0.000   11.143    0.000    0.000 
#    0.000    0.000    0.000    0.000    0.000    0.000 
#
# Total GULP energy -347023.280243 kJ/mol
# GULP energy per Si atom -12393.688580 kJ/mol
# Density = 2.489825 g / cm^3
# Si number density = 24.955049 Si / 1000 Ang^3
#
#
#
# Elastic Constant Matrix: (Units=GPa)
#
#
# Indices 1 2 3 4 5 6 
#
# 1 66.6618 14.7804 17.4888 0.0000 0.0000 0.0000
# 2 14.7804 171.0450 71.8058 0.0000 0.0000 0.0000
# 3 17.4888 71.8058 114.0229 0.0000 0.0000 0.0000
# 4 0.0000 0.0000 0.0000 38.8614 0.0000 0.0000
# 5 0.0000 0.0000 0.0000 0.0000 12.6807 0.0000
# 6 0.0000 0.0000 0.0000 0.0000 0.0000 25.6355
#
#
#
# Elastic Compliance Matrix: (Units=1/GPa)
#
#
# Indices 1 2 3 4 5 6 
#
# 1 0.015658 -0.000469 -0.002106 0.000000 0.000000 0.000000
# 2 -0.000469 0.007962 -0.004942 0.000000 0.000000 0.000000
# 3 -0.002106 -0.004942 0.012205 0.000000 0.000000 0.000000
# 4 0.000000 0.000000 0.000000 0.025732 0.000000 0.000000
# 5 0.000000 0.000000 0.000000 0.000000 0.078860 0.000000
# 6 0.000000 0.000000 0.000000 0.000000 0.000000 0.039008
#
#
# Mechanical properties :
#
#
# Convention : Reuss Voigt Hill
#
# Bulk Modulus (GPa) = 48.09873 62.20887 55.15380
# Shear Modulus (GPa) = 24.82753 31.94585 28.38669
#
# Velocity S-wave (km/s) = 3.15761 3.58178 3.37636
# Velocity P-wave (km/s) = 5.71052 6.48753 6.11138
#
# Compressibility (1/GPa) = 0.02079057
#
# Stress axis : x y z
#
# Youngs Moduli (GPa) = 63.86661 125.60370 81.93109
#
# Poissons Ratio (x) = 0.05888 0.17258
# Poissons Ratio (y) = 0.02994 0.40489
# Poissons Ratio (z) = 0.13453 0.62072
#
# Static dielectric constant tensor:
#      x y z
#    x 4.219720 0.000000 0.000000 
#    y 0.000000 5.065350 0.000000 
#    z 0.000000 0.000000 4.238500 
# 
# 
# High freq. dielectric constant tensor:
#      x y z
#    x 1.984640 0.000000 0.000000 
#    y 0.000000 2.022580 0.000000 
#    z 0.000000 0.000000 1.966670 
# 
# From -- ./inp_files/4016.got.cif
#   From: 2010.03.12/outbox.cif.g09.slc.cpg/sg35_3_cif.got.tgz:4016.got - 2010.04.14 02:02:04.
