data_PCOD8173598
_publ_section_title
;
Structure prediction by ZEFSAII (Michael W. Deem and Ramdas Pophale) SiO2 
 PCOD8173598
Probable space group: C M M 2
;
_chemical_formula_sum "Si O2"
_cell_formula_units_Z 60
_cell_length_a 20.381109
_cell_length_b 10.658345
_cell_length_c 12.729090
_cell_angle_alpha 90.000000
_cell_angle_beta 90.000000
_cell_angle_gamma 90.000000
_cell_volume 2765.126107
_symmetry_space_group_name_H-M "C M M 2"
_symmetry_group_IT_number 35
_symmetry_cell_setting 'orthorhombic'
loop_
_space_group_symop_operation_xyz
x,y,z
-x,-y,z
-x,y,z
x,-y,z
1/2+x,1/2+y,z
1/2-x,1/2-y,z
1/2-x,1/2+y,z
1/2+x,1/2-y,z
loop_
_atom_site_type_symbol
_atom_site_label
_atom_site_fract_x
_atom_site_fract_y
_atom_site_fract_z
Si Si1 0.831932 0.637498 0.112870
Si Si2 0.250000 0.250000 0.284351
Si Si3 0.292272 0.864133 0.660542
Si Si4 0.875656 0.859307 0.391612
Si Si5 0.425822 0.765080 0.598378
Si Si6 0.838208 0.361189 0.882394
Si Si7 0.073935 0.139511 0.167382
Si Si8 0.074672 0.138307 0.811661
O O1 0.865732 0.500000 0.126011
O O2 0.777110 0.644280 0.203992
O O3 0.883414 0.750047 0.119138
O O4 0.801225 0.647782 0.995189
O O5 0.194345 0.198917 0.360849
O O6 0.250000 0.750000 0.609129
O O7 0.368677 0.864697 0.625569
O O8 0.286575 0.849895 0.786890
O O9 0.263144 0.000000 0.625899
O O10 0.911991 0.785834 0.483153
O O11 0.924219 0.852888 0.293221
O O12 0.862841 0.000000 0.429885
O O13 0.500000 0.823589 0.601129
O O14 0.419942 0.656540 0.685852
O O15 0.872441 0.500000 0.873831
O O16 0.890517 0.248981 0.875425
O O17 0.000000 0.159080 0.128818
O O18 0.099087 0.000000 0.132196
O O19 0.000000 0.141816 0.849154
O O20 0.104679 0.000000 0.836851
#
# Coordination Sequence:
#
# PCOD8173598 Si02
#       8
#     8   4   8   8   8   8   8   8
#     4  10  21  38  59  83 115 156 202 248 304 369
#     4  10  22  38  58  84 118 158 198 264 312 368
#     4  10  23  42  63  92 128 165 206 254 306 363
#     4  10  20  36  59  86 117 158 205 252 310 370
#     4  10  21  38  62  91 125 165 206 251 303 368
#     4   9  20  37  56  81 114 155 202 247 298 363
#     4   9  19  36  57  84 118 153 196 251 307 364
#     4   9  18  33  54  84 120 155 196 245 297 357
#
# _framework density 21.698829
#
# number of rings (size 3 to 8) (size 9 to 14) (size 15 to 20)
#    0.000    2.400    0.000    1.200    1.867    6.400 
#    0.000    8.000    0.000    3.200    0.000    0.000 
#    0.000    0.000    0.000    0.000    0.000    0.000 
#
# Total GULP energy -371651.137730 kJ/mol
# GULP energy per Si atom -12388.371258 kJ/mol
# Density = 2.164944 g / cm^3
# Si number density = 21.698829 Si / 1000 Ang^3
#
#
#
# Elastic Constant Matrix: (Units=GPa)
#
#
# Indices 1 2 3 4 5 6 
#
# 1 88.1531 46.6873 11.4829 0.0000 0.0000 0.0000
# 2 46.6873 166.6126 19.3647 0.0000 0.0000 0.0000
# 3 11.4829 19.3647 80.5074 0.0000 0.0000 0.0000
# 4 0.0000 0.0000 0.0000 16.6888 0.0000 0.0000
# 5 0.0000 0.0000 0.0000 0.0000 4.6610 0.0000
# 6 0.0000 0.0000 0.0000 0.0000 0.0000 26.3563
#
#
#
# Elastic Compliance Matrix: (Units=1/GPa)
#
#
# Indices 1 2 3 4 5 6 
#
# 1 0.013404 -0.003636 -0.001037 0.000000 0.000000 0.000000
# 2 -0.003636 0.007161 -0.001204 0.000000 0.000000 0.000000
# 3 -0.001037 -0.001204 0.012859 0.000000 0.000000 0.000000
# 4 0.000000 0.000000 0.000000 0.059920 0.000000 0.000000
# 5 0.000000 0.000000 0.000000 0.000000 0.214548 0.000000
# 6 0.000000 0.000000 0.000000 0.000000 0.000000 0.037942
#
#
# Mechanical properties :
#
#
# Convention : Reuss Voigt Hill
#
# Bulk Modulus (GPa) = 46.14629 54.48255 50.31442
# Shear Modulus (GPa) = 13.70573 26.72376 20.21475
#
# Velocity S-wave (km/s) = 2.51596 3.51319 3.05553
# Velocity P-wave (km/s) = 5.45463 6.45133 5.97380
#
# Compressibility (1/GPa) = 0.02167022
#
# Stress axis : x y z
#
# Youngs Moduli (GPa) = 74.60187 139.65309 77.76809
#
# Poissons Ratio (x) = 0.50772 0.08068
# Poissons Ratio (y) = 0.27122 0.09362
# Poissons Ratio (z) = 0.07739 0.16812
#
# Static dielectric constant tensor:
#      x y z
#    x 3.710630 0.000000 0.000000 
#    y 0.000000 4.053620 0.000000 
#    z 0.000000 0.000000 3.915940 
# 
# 
# High freq. dielectric constant tensor:
#      x y z
#    x 1.828820 0.000000 0.000000 
#    y 0.000000 1.856570 0.000000 
#    z 0.000000 0.000000 1.856340 
# 
# From -- ./inp_files/13933.got.cif
#   From: 2010.03.12/outbox.cif.g09.slc.cpg/sg35_7_cif.got.tgz:13933.got - 2010.04.14 02:02:04.
