data_PCOD8173066
_publ_section_title
;
Structure prediction by ZEFSAII (Michael W. Deem and Ramdas Pophale) SiO2 
 PCOD8173066
Probable space group: C M M 2
;
_chemical_formula_sum "Si O2"
_cell_formula_units_Z 56
_cell_length_a 9.117774
_cell_length_b 19.269046
_cell_length_c 17.950429
_cell_angle_alpha 90.000000
_cell_angle_beta 90.000000
_cell_angle_gamma 90.000000
_cell_volume 3153.725350
_symmetry_space_group_name_H-M "C M M 2"
_symmetry_group_IT_number 35
_symmetry_cell_setting 'orthorhombic'
loop_
_space_group_symop_operation_xyz
x,y,z
-x,-y,z
-x,y,z
x,-y,z
1/2+x,1/2+y,z
1/2-x,1/2-y,z
1/2-x,1/2+y,z
1/2+x,1/2-y,z
loop_
_atom_site_type_symbol
_atom_site_label
_atom_site_fract_x
_atom_site_fract_y
_atom_site_fract_z
Si Si1 0.835227 0.417403 0.179520
Si Si2 0.167809 0.917440 0.642273
Si Si3 0.165209 0.916838 0.321805
Si Si4 0.169105 0.917968 0.033151
Si Si5 0.171744 0.320406 0.922631
Si Si6 0.826214 0.924047 0.481201
Si Si7 0.829924 0.319469 0.749718
O O1 0.833763 0.500000 0.181941
O O2 0.769108 0.387627 0.256603
O O3 0.737078 0.391051 0.110844
O O4 0.000000 0.388839 0.170064
O O5 0.215215 0.887394 0.559904
O O6 0.271871 0.884939 0.704096
O O7 0.000000 0.897178 0.659937
O O8 0.187285 0.000000 0.643872
O O9 0.220401 0.886919 0.402963
O O10 0.000000 0.891869 0.304421
O O11 0.169584 0.000000 0.325078
O O12 0.000000 0.895128 0.030208
O O13 0.186582 0.000000 0.025180
O O14 0.258140 0.884782 0.965537
O O15 0.250000 0.250000 0.949321
O O16 0.202529 0.334127 0.836003
O O17 0.000000 0.314930 0.940408
O O18 0.000000 0.932929 0.478992
O O19 0.752466 0.000000 0.482405
O O20 0.750000 0.250000 0.722285
O O21 0.000000 0.309452 0.733829
#
# Coordination Sequence:
#
# PCOD8173066 Si02
#       7
#     8   8   8   8   8   8   8
#     4   9  16  25  38  60  92 126 158 194 237 281
#     4   9  17  30  49  73 101 131 162 198 241 287
#     4   8  12  20  36  57  84 120 159 194 229 274
#     4  10  20  33  50  73 100 129 162 199 239 284
#     4  10  21  37  55  73  95 124 159 199 242 289
#     4   7  11  21  38  61  89 122 158 193 230 275
#     4  10  21  36  53  72  95 125 161 200 241 287
#
# _framework density 17.756779000000002
#
# number of rings (size 3 to 8) (size 9 to 14) (size 15 to 20)
#    0.000    3.000    0.000    3.429    0.000    5.143 
#    0.000    3.571    0.000    2.571    0.000    1.000 
#    0.000    2.286    0.000    0.000    0.000    0.000 
#
# Total GULP energy -346976.014064 kJ/mol
# GULP energy per Si atom -12392.000502 kJ/mol
# Density = 1.771636 g / cm^3
# Si number density = 17.756779 Si / 1000 Ang^3
#
#
#
# Elastic Constant Matrix: (Units=GPa)
#
#
# Indices 1 2 3 4 5 6 
#
# 1 106.8557 29.7520 67.0585 0.0000 0.0000 0.0000
# 2 29.7520 31.0053 37.9658 0.0000 0.0000 0.0000
# 3 67.0585 37.9658 121.7904 0.0000 0.0000 0.0000
# 4 0.0000 0.0000 0.0000 2.6135 0.0000 0.0000
# 5 0.0000 0.0000 0.0000 0.0000 27.1276 0.0000
# 6 0.0000 0.0000 0.0000 0.0000 0.0000 23.2700
#
#
#
# Elastic Compliance Matrix: (Units=1/GPa)
#
#
# Indices 1 2 3 4 5 6 
#
# 1 0.015186 -0.007009 -0.006177 0.000000 0.000000 0.000000
# 2 -0.007009 0.055399 -0.013410 0.000000 0.000000 0.000000
# 3 -0.006177 -0.013410 0.015792 0.000000 0.000000 0.000000
# 4 0.000000 0.000000 0.000000 0.382622 0.000000 0.000000
# 5 0.000000 0.000000 0.000000 0.000000 0.036863 0.000000
# 6 0.000000 0.000000 0.000000 0.000000 0.000000 0.042974
#
#
# Mechanical properties :
#
#
# Convention : Reuss Voigt Hill
#
# Bulk Modulus (GPa) = 30.13380 58.80045 44.46713
# Shear Modulus (GPa) = 8.15540 18.92725 13.54133
#
# Velocity S-wave (km/s) = 2.14542 3.26838 2.76452
# Velocity P-wave (km/s) = 4.81085 6.88690 5.94027
#
# Compressibility (1/GPa) = 0.03318532
#
# Stress axis : x y z
#
# Youngs Moduli (GPa) = 65.84935 18.05081 63.32253
#
# Poissons Ratio (x) = 0.12652 0.39112
# Poissons Ratio (y) = 0.46154 0.84918
# Poissons Ratio (z) = 0.40673 0.24207
#
# Static dielectric constant tensor:
#      x y z
#    x 3.271210 0.000000 0.000000 
#    y 0.000000 2.759090 0.000000 
#    z 0.000000 0.000000 3.671950 
# 
# 
# High freq. dielectric constant tensor:
#      x y z
#    x 1.681260 0.000000 0.000000 
#    y 0.000000 1.625980 0.000000 
#    z 0.000000 0.000000 1.707010 
# 
# From -- ./inp_files/15650.got.cif
#   From: 2010.03.12/outbox.cif.g09.slc.cpg/sg35_8_cif.got.tgz:15650.got - 2010.04.14 02:02:04.
