data_PCOD8173422
_publ_section_title
;
Structure prediction by ZEFSAII (Michael W. Deem and Ramdas Pophale) SiO2 
 PCOD8173422
Probable space group: C M M 2
;
_chemical_formula_sum "Si O2"
_cell_formula_units_Z 56
_cell_length_a 8.925459
_cell_length_b 18.147657
_cell_length_c 17.973179
_cell_angle_alpha 90.000000
_cell_angle_beta 90.000000
_cell_angle_gamma 90.000000
_cell_volume 2911.226670
_symmetry_space_group_name_H-M "C M M 2"
_symmetry_group_IT_number 35
_symmetry_cell_setting 'orthorhombic'
loop_
_space_group_symop_operation_xyz
x,y,z
-x,-y,z
-x,y,z
x,-y,z
1/2+x,1/2+y,z
1/2-x,1/2-y,z
1/2-x,1/2+y,z
1/2+x,1/2-y,z
loop_
_atom_site_type_symbol
_atom_site_label
_atom_site_fract_x
_atom_site_fract_y
_atom_site_fract_z
Si Si1 0.676762 0.828948 0.603250
Si Si2 0.822465 0.081489 0.306434
Si Si3 0.176469 0.670975 0.889221
Si Si4 0.327251 0.586286 0.473131
Si Si5 0.672631 0.913910 0.037745
Si Si6 0.822888 0.171681 0.167134
Si Si7 0.821781 0.417317 0.746766
O O1 0.500000 0.819391 0.604990
O O2 0.750000 0.750000 0.610911
O O3 0.722347 0.867143 0.526622
O O4 0.734969 0.878571 0.671551
O O5 0.776596 0.107080 0.389223
O O6 0.762227 0.139523 0.245726
O O7 0.000000 0.075863 0.301721
O O8 0.755407 0.000000 0.289721
O O9 0.250000 0.750000 0.894528
O O10 0.239834 0.627982 0.817337
O O11 0.000000 0.681408 0.882818
O O12 0.221462 0.624733 0.961536
O O13 0.500000 0.607817 0.486697
O O14 0.302464 0.500000 0.487567
O O15 0.500000 0.896564 0.057103
O O16 0.777605 0.884781 0.103043
O O17 0.700574 0.000000 0.027502
O O18 0.750000 0.250000 0.151422
O O19 0.000000 0.181098 0.167492
O O20 0.755701 0.500000 0.749096
O O21 0.000000 0.420361 0.749091
#
# Coordination Sequence:
#
# PCOD8173422 Si02
#       7
#     8   8   8   8   8   8   8
#     4  11  22  35  53  78 109 142 179 222 267 316
#     4   8  16  33  56  79 103 136 177 218 263 317
#     4  10  20  35  56  80 108 141 175 214 261 313
#     4   9  18  35  58  81 107 139 175 217 266 319
#     4  10  21  37  57  81 108 139 178 222 267 316
#     4  11  22  36  55  79 109 143 179 219 265 316
#     4   9  18  34  56  79 103 136 178 220 263 313
#
# _framework density 19.235876999999999
#
# number of rings (size 3 to 8) (size 9 to 14) (size 15 to 20)
#    0.000    2.286    0.000    3.857    0.000    5.714 
#    0.000    3.571    0.000    4.714    0.000    0.000 
#    0.000    0.000    0.000    0.000    0.000    0.000 
#
# Total GULP energy -347245.303992 kJ/mol
# GULP energy per Si atom -12401.618000 kJ/mol
# Density = 1.919210 g / cm^3
# Si number density = 19.235877 Si / 1000 Ang^3
#
#
#
# Elastic Constant Matrix: (Units=GPa)
#
#
# Indices 1 2 3 4 5 6 
#
# 1 45.7850 38.3480 40.3848 0.0000 0.0000 0.0000
# 2 38.3480 143.4357 82.4545 0.0000 0.0000 0.0000
# 3 40.3848 82.4545 153.5289 0.0000 0.0000 0.0000
# 4 0.0000 0.0000 0.0000 25.6233 0.0000 0.0000
# 5 0.0000 0.0000 0.0000 0.0000 22.3814 0.0000
# 6 0.0000 0.0000 0.0000 0.0000 0.0000 17.2325
#
#
#
# Elastic Compliance Matrix: (Units=1/GPa)
#
#
# Indices 1 2 3 4 5 6 
#
# 1 0.030899 -0.005191 -0.005340 0.000000 0.000000 0.000000
# 2 -0.005191 0.010958 -0.004519 0.000000 0.000000 0.000000
# 3 -0.005340 -0.004519 0.010345 0.000000 0.000000 0.000000
# 4 0.000000 0.000000 0.000000 0.039027 0.000000 0.000000
# 5 0.000000 0.000000 0.000000 0.000000 0.044680 0.000000
# 6 0.000000 0.000000 0.000000 0.000000 0.000000 0.058030
#
#
# Mechanical properties :
#
#
# Convention : Reuss Voigt Hill
#
# Bulk Modulus (GPa) = 45.24664 73.90267 59.57465
# Shear Modulus (GPa) = 21.60692 25.15160 23.37926
#
# Velocity S-wave (km/s) = 3.35515 3.61991 3.49004
# Velocity P-wave (km/s) = 6.21147 7.48159 6.87592
#
# Compressibility (1/GPa) = 0.02210109
#
# Stress axis : x y z
#
# Youngs Moduli (GPa) = 32.36313 91.26003 96.66320
#
# Poissons Ratio (x) = 0.47377 0.51616
# Poissons Ratio (y) = 0.16801 0.43686
# Poissons Ratio (z) = 0.17281 0.41244
#
# Static dielectric constant tensor:
#      x y z
#    x 3.229260 0.000000 0.000000 
#    y 0.000000 3.676430 0.000000 
#    z 0.000000 0.000000 3.796470 
# 
# 
# High freq. dielectric constant tensor:
#      x y z
#    x 1.716620 0.000000 0.000000 
#    y 0.000000 1.759080 0.000000 
#    z 0.000000 0.000000 1.765910 
# 
# From -- ./inp_files/15648.got.cif
#   From: 2010.03.12/outbox.cif.g09.slc.cpg/sg35_8_cif.got.tgz:15648.got - 2010.04.14 02:02:04.
