data_PCOD8173415
_publ_section_title
;
Structure prediction by ZEFSAII (Michael W. Deem and Ramdas Pophale) SiO2 
 PCOD8173415
Probable space group: C M M 2
;
_chemical_formula_sum "Si O2"
_cell_formula_units_Z 48
_cell_length_a 15.658055
_cell_length_b 8.950426
_cell_length_c 16.964139
_cell_angle_alpha 90.000000
_cell_angle_beta 90.000000
_cell_angle_gamma 90.000000
_cell_volume 2377.460679
_symmetry_space_group_name_H-M "C M M 2"
_symmetry_group_IT_number 35
_symmetry_cell_setting 'orthorhombic'
loop_
_space_group_symop_operation_xyz
x,y,z
-x,-y,z
-x,y,z
x,-y,z
1/2+x,1/2+y,z
1/2-x,1/2-y,z
1/2-x,1/2+y,z
1/2+x,1/2-y,z
loop_
_atom_site_type_symbol
_atom_site_label
_atom_site_fract_x
_atom_site_fract_y
_atom_site_fract_z
Si Si1 0.500000 0.322491 0.073370
Si Si2 0.000000 0.675452 0.241936
Si Si3 0.163152 0.676683 0.344415
Si Si4 0.596639 0.163752 0.652315
Si Si5 0.398408 0.671320 0.499811
Si Si6 0.161334 0.824286 0.974749
Si Si7 0.338428 0.323946 0.795341
O O1 0.500000 0.500000 0.073048
O O2 0.500000 0.263047 0.160881
O O3 0.584603 0.263146 0.028793
O O4 0.915796 0.724818 0.289331
O O5 0.000000 0.500000 0.225007
O O6 0.173847 0.500000 0.346364
O O7 0.250000 0.750000 0.310379
O O8 0.146663 0.734741 0.431893
O O9 0.500000 0.137119 0.627703
O O10 0.637602 0.262624 0.582345
O O11 0.594869 0.252454 0.735025
O O12 0.641534 0.000000 0.659508
O O13 0.500000 0.685336 0.491945
O O14 0.369127 0.500000 0.493699
O O15 0.250000 0.750000 0.001681
O O16 0.137629 0.781256 0.884899
O O17 0.173533 0.000000 0.983709
O O18 0.334997 0.500000 0.783906
O O19 0.250000 0.250000 0.770503
#
# Coordination Sequence:
#
# PCOD8173415 Si02
#       7
#     4   4   8   8   8   8   8
#     4  10  22  40  64  91 118 155 196 237 294 359
#     4  10  24  44  64  89 124 157 190 241 298 355
#     4  11  23  41  64  91 122 158 199 243 297 354
#     4  10  21  35  53  81 117 155 197 243 292 342
#     4  10  20  36  59  86 117 155 200 246 296 350
#     4   9  20  38  60  87 120 156 196 245 296 350
#     4  10  20  35  56  79 112 152 195 244 295 346
#
# _framework density 20.189608
#
# number of rings (size 3 to 8) (size 9 to 14) (size 15 to 20)
#    0.000    2.000    0.833    2.000    1.167    5.667 
#    0.000    6.667    0.000    0.000    0.000    0.000 
#    0.000    0.000    0.000    0.000    0.000    0.000 
#
# Total GULP energy -297601.536760 kJ/mol
# GULP energy per Si atom -12400.064032 kJ/mol
# Density = 2.014366 g / cm^3
# Si number density = 20.189608 Si / 1000 Ang^3
#
#
#
# Elastic Constant Matrix: (Units=GPa)
#
#
# Indices 1 2 3 4 5 6 
#
# 1 116.5200 48.1450 67.5807 0.0000 0.0000 0.0000
# 2 48.1450 94.6971 53.4023 0.0000 0.0000 0.0000
# 3 67.5807 53.4023 134.8312 0.0000 0.0000 0.0000
# 4 0.0000 0.0000 0.0000 37.6260 0.0000 0.0000
# 5 0.0000 0.0000 0.0000 0.0000 15.6622 0.0000
# 6 0.0000 0.0000 0.0000 0.0000 0.0000 32.1756
#
#
#
# Elastic Compliance Matrix: (Units=1/GPa)
#
#
# Indices 1 2 3 4 5 6 
#
# 1 0.013083 -0.003803 -0.005051 0.000000 0.000000 0.000000
# 2 -0.003803 0.014702 -0.003917 0.000000 0.000000 0.000000
# 3 -0.005051 -0.003917 0.011500 0.000000 0.000000 0.000000
# 4 0.000000 0.000000 0.000000 0.026577 0.000000 0.000000
# 5 0.000000 0.000000 0.000000 0.000000 0.063848 0.000000
# 6 0.000000 0.000000 0.000000 0.000000 0.000000 0.031079
#
#
# Mechanical properties :
#
#
# Convention : Reuss Voigt Hill
#
# Bulk Modulus (GPa) = 72.76532 76.03380 74.39956
# Shear Modulus (GPa) = 26.18973 28.88745 27.53859
#
# Velocity S-wave (km/s) = 3.60556 3.78671 3.69724
# Velocity P-wave (km/s) = 7.31113 7.54059 7.42675
#
# Compressibility (1/GPa) = 0.01374281
#
# Stress axis : x y z
#
# Youngs Moduli (GPa) = 76.43268 68.01613 86.95681
#
# Poissons Ratio (x) = 0.25867 0.43926
# Poissons Ratio (y) = 0.29068 0.34061
# Poissons Ratio (z) = 0.38609 0.26642
#
# Static dielectric constant tensor:
#      x y z
#    x 3.714820 0.000000 0.000000 
#    y 0.000000 3.749220 0.000000 
#    z 0.000000 0.000000 3.618310 
# 
# 
# High freq. dielectric constant tensor:
#      x y z
#    x 1.784590 0.000000 0.000000 
#    y 0.000000 1.794350 0.000000 
#    z 0.000000 0.000000 1.787110 
# 
# From -- ./inp_files/15234.got.cif
#   From: 2010.03.12/outbox.cif.g09.slc.cpg/sg35_8_cif.got.tgz:15234.got - 2010.04.14 02:02:04.
