data_PCOD8173800
_publ_section_title
;
Structure prediction by ZEFSAII (Michael W. Deem and Ramdas Pophale) SiO2 
 PCOD8173800
Probable space group: C M M 2
;
_chemical_formula_sum "Si O2"
_cell_formula_units_Z 48
_cell_length_a 8.918618
_cell_length_b 15.713260
_cell_length_c 16.889180
_cell_angle_alpha 90.000000
_cell_angle_beta 90.000000
_cell_angle_gamma 90.000000
_cell_volume 2366.859202
_symmetry_space_group_name_H-M "C M M 2"
_symmetry_group_IT_number 35
_symmetry_cell_setting 'orthorhombic'
loop_
_space_group_symop_operation_xyz
x,y,z
-x,-y,z
-x,y,z
x,-y,z
1/2+x,1/2+y,z
1/2-x,1/2-y,z
1/2-x,1/2+y,z
1/2+x,1/2-y,z
loop_
_atom_site_type_symbol
_atom_site_label
_atom_site_fract_x
_atom_site_fract_y
_atom_site_fract_z
Si Si1 0.324228 0.165172 0.043900
Si Si2 0.678317 0.500000 0.774888
Si Si3 0.321141 0.841173 0.686158
Si Si4 0.324320 0.000000 0.942389
Si Si5 0.826022 0.663600 0.507081
Si Si6 0.661593 0.403311 0.366807
Si Si7 0.677065 0.597291 0.195346
O O1 0.500000 0.178789 0.046157
O O2 0.250000 0.250000 0.006229
O O3 0.264564 0.154497 0.132716
O O4 0.280671 0.083588 0.991628
O O5 0.500000 0.500000 0.761993
O O6 0.749323 0.415150 0.737879
O O7 0.718653 0.500000 0.866451
O O8 0.500000 0.837763 0.699348
O O9 0.250000 0.750000 0.709755
O O10 0.277692 0.863923 0.595350
O O11 0.500000 0.000000 0.918724
O O12 0.750000 0.750000 0.480118
O O13 0.776697 0.597601 0.439988
O O14 0.000000 0.676930 0.504959
O O15 0.500000 0.362281 0.391340
O O16 0.632073 0.500000 0.344358
O O17 0.720232 0.365158 0.283096
O O18 0.500000 0.605545 0.181089
O O19 0.731064 0.500000 0.184329
#
# Coordination Sequence:
#
# PCOD8173800 Si02
#       7
#     8   4   8   4   8   8   8
#     4  11  23  40  64  93 122 159 202 246 301 359
#     4  12  26  42  68  99 124 163 204 241 308 377
#     4  10  22  42  65  92 128 164 206 258 308 364
#     4  10  24  46  66  89 126 159 194 251 304 359
#     4  10  21  36  56  81 113 155 199 247 300 350
#     4   9  19  34  53  81 116 156 199 246 297 347
#     4   9  18  35  58  83 117 159 202 251 303 353
#
# _framework density 20.280041000000001
#
# number of rings (size 3 to 8) (size 9 to 14) (size 15 to 20)
#    0.000    2.000    0.833    3.250    1.167    5.667 
#    0.000    3.333    0.000    0.000    0.000    0.000 
#    0.000    0.000    0.000    0.000    0.000    0.000 
#
# Total GULP energy -297503.324101 kJ/mol
# GULP energy per Si atom -12395.971838 kJ/mol
# Density = 2.023388 g / cm^3
# Si number density = 20.280041 Si / 1000 Ang^3
#
#
#
# Elastic Constant Matrix: (Units=GPa)
#
#
# Indices 1 2 3 4 5 6 
#
# 1 87.6205 53.3651 55.5561 0.0000 0.0000 0.0000
# 2 53.3651 124.1397 61.9404 0.0000 0.0000 0.0000
# 3 55.5561 61.9404 125.5106 0.0000 0.0000 0.0000
# 4 0.0000 0.0000 0.0000 11.4070 0.0000 0.0000
# 5 0.0000 0.0000 0.0000 0.0000 36.3225 0.0000
# 6 0.0000 0.0000 0.0000 0.0000 0.0000 32.5055
#
#
#
# Elastic Compliance Matrix: (Units=1/GPa)
#
#
# Indices 1 2 3 4 5 6 
#
# 1 0.017910 -0.004967 -0.005477 0.000000 0.000000 0.000000
# 2 -0.004967 0.012064 -0.003755 0.000000 0.000000 0.000000
# 3 -0.005477 -0.003755 0.012245 0.000000 0.000000 0.000000
# 4 0.000000 0.000000 0.000000 0.087665 0.000000 0.000000
# 5 0.000000 0.000000 0.000000 0.000000 0.027531 0.000000
# 6 0.000000 0.000000 0.000000 0.000000 0.000000 0.030764
#
#
# Mechanical properties :
#
#
# Convention : Reuss Voigt Hill
#
# Bulk Modulus (GPa) = 72.34808 75.44375 73.89592
# Shear Modulus (GPa) = 22.60550 27.14095 24.87322
#
# Velocity S-wave (km/s) = 3.34229 3.66226 3.50592
# Velocity P-wave (km/s) = 7.11663 7.42729 7.27362
#
# Compressibility (1/GPa) = 0.01382207
#
# Stress axis : x y z
#
# Youngs Moduli (GPa) = 55.83366 82.88949 81.66590
#
# Poissons Ratio (x) = 0.41168 0.44727
# Poissons Ratio (y) = 0.27730 0.30669
# Poissons Ratio (z) = 0.30579 0.31128
#
# Static dielectric constant tensor:
#      x y z
#    x 3.672840 0.000000 0.000000 
#    y 0.000000 3.640920 0.000000 
#    z 0.000000 0.000000 3.755550 
# 
# 
# High freq. dielectric constant tensor:
#      x y z
#    x 1.792400 0.000000 0.000000 
#    y 0.000000 1.789090 0.000000 
#    z 0.000000 0.000000 1.796100 
# 
# From -- ./inp_files/15249.got.cif
#   From: 2010.03.12/outbox.cif.g09.slc.cpg/sg35_8_cif.got.tgz:15249.got - 2010.04.14 02:02:04.
