data_PCOD8173176
_publ_section_title
;
Structure prediction by ZEFSAII (Michael W. Deem and Ramdas Pophale) SiO2 
 PCOD8173176
Probable space group: C M M 2
;
_chemical_formula_sum "Si O2"
_cell_formula_units_Z 64
_cell_length_a 8.886869
_cell_length_b 19.062883
_cell_length_c 20.882395
_cell_angle_alpha 90.000000
_cell_angle_beta 90.000000
_cell_angle_gamma 90.000000
_cell_volume 3537.672838
_symmetry_space_group_name_H-M "C M M 2"
_symmetry_group_IT_number 35
_symmetry_cell_setting 'orthorhombic'
loop_
_space_group_symop_operation_xyz
x,y,z
-x,-y,z
-x,y,z
x,-y,z
1/2+x,1/2+y,z
1/2-x,1/2-y,z
1/2-x,1/2+y,z
1/2+x,1/2-y,z
loop_
_atom_site_type_symbol
_atom_site_label
_atom_site_fract_x
_atom_site_fract_y
_atom_site_fract_z
Si Si1 0.325775 0.582535 0.267200
Si Si2 0.168782 0.416740 0.396617
Si Si3 0.822198 0.920110 0.778342
Si Si4 0.675499 0.674997 0.893172
Si Si5 0.330291 0.416262 0.523061
Si Si6 0.330201 0.083557 0.649901
Si Si7 0.178511 0.326895 0.158901
Si Si8 0.176330 0.825443 0.033543
O O1 0.500000 0.602859 0.259322
O O2 0.299772 0.500000 0.257446
O O3 0.271019 0.607156 0.337119
O O4 0.225166 0.622975 0.216298
O O5 0.164175 0.500000 0.400512
O O6 0.240793 0.386434 0.461749
O O7 0.000000 0.386662 0.388813
O O8 0.760901 0.877366 0.839445
O O9 0.749383 0.888123 0.714096
O O10 0.000000 0.914579 0.771009
O O11 0.770579 0.000000 0.788713
O O12 0.500000 0.687235 0.883532
O O13 0.750000 0.750000 0.884929
O O14 0.705084 0.639930 0.963581
O O15 0.500000 0.388090 0.519850
O O16 0.327302 0.500000 0.523004
O O17 0.254379 0.386467 0.587561
O O18 0.500000 0.111497 0.648605
O O19 0.323667 0.000000 0.648927
O O20 0.250000 0.250000 0.168190
O O21 0.240705 0.363502 0.093093
O O22 0.000000 0.320131 0.156178
O O23 0.250000 0.750000 0.029053
O O24 0.000000 0.820158 0.049164
#
# Coordination Sequence:
#
# PCOD8173176 Si02
#       8
#     8   8   8   8   8   8   8   8
#     4  10  20  34  51  72 100 132 164 199 242 291
#     4   9  16  26  41  63  92 124 157 195 238 281
#     4   9  17  30  46  65  92 124 155 188 230 280
#     4   9  18  31  49  71  93 120 155 194 234 278
#     4   9  15  23  37  58  85 119 157 194 232 275
#     4   9  16  25  38  59  87 118 152 191 234 276
#     4  11  21  34  53  75  99 127 162 202 243 288
#     4   9  16  29  48  70  94 120 155 196 238 281
#
# _framework density 18.090990000000001
#
# number of rings (size 3 to 8) (size 9 to 14) (size 15 to 20)
#    0.000    2.625    0.000    3.750    0.000    6.250 
#    0.000    0.625    0.000    2.250    0.000    0.875 
#    0.000    2.000    0.000    0.000    0.000    0.000 
#
# Total GULP energy -396649.876667 kJ/mol
# GULP energy per Si atom -12395.308646 kJ/mol
# Density = 1.804981 g / cm^3
# Si number density = 18.090990 Si / 1000 Ang^3
#
#
#
# Elastic Constant Matrix: (Units=GPa)
#
#
# Indices 1 2 3 4 5 6 
#
# 1 118.9626 24.3267 68.6491 0.0000 0.0000 0.0000
# 2 24.3267 28.9838 39.8629 0.0000 0.0000 0.0000
# 3 68.6491 39.8629 183.1794 0.0000 0.0000 0.0000
# 4 0.0000 0.0000 0.0000 0.3765 0.0000 0.0000
# 5 0.0000 0.0000 0.0000 0.0000 34.5043 0.0000
# 6 0.0000 0.0000 0.0000 0.0000 0.0000 16.3160
#
#
#
# Elastic Compliance Matrix: (Units=1/GPa)
#
#
# Indices 1 2 3 4 5 6 
#
# 1 0.011249 -0.005200 -0.003084 0.000000 0.000000 0.000000
# 2 -0.005200 0.051643 -0.009290 0.000000 0.000000 0.000000
# 3 -0.003084 -0.009290 0.008637 0.000000 0.000000 0.000000
# 4 0.000000 0.000000 0.000000 2.655870 0.000000 0.000000
# 5 0.000000 0.000000 0.000000 0.000000 0.028982 0.000000
# 6 0.000000 0.000000 0.000000 0.000000 0.000000 0.061289
#
#
# Mechanical properties :
#
#
# Convention : Reuss Voigt Hill
#
# Bulk Modulus (GPa) = 27.48671 66.31147 46.89909
# Shear Modulus (GPa) = 1.74523 23.45851 12.60187
#
# Velocity S-wave (km/s) = 0.98326 3.60487 2.64215
# Velocity P-wave (km/s) = 4.06394 7.35261 5.94039
#
# Compressibility (1/GPa) = 0.03638122
#
# Stress axis : x y z
#
# Youngs Moduli (GPa) = 88.89607 19.36381 115.78678
#
# Poissons Ratio (x) = 0.10069 0.35711
# Poissons Ratio (y) = 0.46223 1.07562
# Poissons Ratio (z) = 0.27417 0.17988
#
# Static dielectric constant tensor:
#      x y z
#    x 3.487270 0.000000 0.000000 
#    y 0.000000 2.767710 0.000000 
#    z 0.000000 0.000000 3.953500 
# 
# 
# High freq. dielectric constant tensor:
#      x y z
#    x 1.713960 0.000000 0.000000 
#    y 0.000000 1.627660 0.000000 
#    z 0.000000 0.000000 1.726070 
# 
# From -- ./inp_files/18492.got.cif
#   From: 2010.03.12/outbox.cif.g09.slc.cpg/sg35_10_cif.got.tgz:18492.got - 2010.04.14 02:02:04.
