data_PCOD8173038
_publ_section_title
;
Structure prediction by ZEFSAII (Michael W. Deem and Ramdas Pophale) SiO2 
 PCOD8173038
Probable space group: C M M 2
;
_chemical_formula_sum "Si O2"
_cell_formula_units_Z 32
_cell_length_a 10.410165
_cell_length_b 16.970084
_cell_length_c 9.184450
_cell_angle_alpha 90.000000
_cell_angle_beta 90.000000
_cell_angle_gamma 90.000000
_cell_volume 1622.537561
_symmetry_space_group_name_H-M "C M M 2"
_symmetry_group_IT_number 35
_symmetry_cell_setting 'orthorhombic'
loop_
_space_group_symop_operation_xyz
x,y,z
-x,-y,z
-x,y,z
x,-y,z
1/2+x,1/2+y,z
1/2-x,1/2-y,z
1/2-x,1/2+y,z
1/2+x,1/2-y,z
loop_
_atom_site_type_symbol
_atom_site_label
_atom_site_fract_x
_atom_site_fract_y
_atom_site_fract_z
Si Si1 0.500000 0.347884 0.063000
Si Si2 0.500000 0.670395 0.720987
Si Si3 0.729999 0.344145 0.530639
Si Si4 0.500000 0.170177 0.559893
Si Si5 0.500000 0.183862 0.224267
Si Si6 0.741034 0.591425 0.222968
O O1 0.500000 0.261977 0.130552
O O2 0.370847 0.394117 0.105915
O O3 0.500000 0.341949 0.890497
O O4 0.373363 0.630620 0.651105
O O5 0.500000 0.762418 0.681615
O O6 0.750000 0.250000 0.520119
O O7 0.685164 0.377905 0.376387
O O8 0.869593 0.381197 0.575944
O O9 0.500000 0.206608 0.395198
O O10 0.372424 0.135683 0.180713
O O11 0.774059 0.500000 0.232096
#
# Coordination Sequence:
#
# PCOD8173038 Si02
#       6
#     4   4   8   4   4   8
#     4  12  23  36  56  86 118 155 193 228 272 337
#     4  10  20  32  53  82 111 144 188 230 271 326
#     4   9  17  34  57  81 107 140 184 236 282 329
#     4   8  16  31  54  80 104 130 177 238 279 314
#     4  10  21  39  63  86 111 145 192 240 284 335
#     4  11  22  38  59  86 116 149 187 235 288 337
#
# _framework density 19.722193999999998
#
# number of rings (size 3 to 8) (size 9 to 14) (size 15 to 20)
#    0.000    2.000    0.000    6.750    0.000    6.000 
#    0.000    2.500    0.000    0.000    0.000    5.250 
#    0.000    0.000    0.000    0.000    0.000    0.000 
#
# Total GULP energy -198329.667665 kJ/mol
# GULP energy per Si atom -12395.604229 kJ/mol
# Density = 1.967730 g / cm^3
# Si number density = 19.722194 Si / 1000 Ang^3
#
#
#
# Elastic Constant Matrix: (Units=GPa)
#
#
# Indices 1 2 3 4 5 6 
#
# 1 165.2790 14.7588 62.0480 0.0000 0.0000 0.0000
# 2 14.7588 67.3142 12.3214 0.0000 0.0000 0.0000
# 3 62.0480 12.3214 122.7874 0.0000 0.0000 0.0000
# 4 0.0000 0.0000 0.0000 4.3004 0.0000 0.0000
# 5 0.0000 0.0000 0.0000 0.0000 15.6846 0.0000
# 6 0.0000 0.0000 0.0000 0.0000 0.0000 21.3853
#
#
#
# Elastic Compliance Matrix: (Units=1/GPa)
#
#
# Indices 1 2 3 4 5 6 
#
# 1 0.007529 -0.000972 -0.003707 0.000000 0.000000 0.000000
# 2 -0.000972 0.015259 -0.001040 0.000000 0.000000 0.000000
# 3 -0.003707 -0.001040 0.010122 0.000000 0.000000 0.000000
# 4 0.000000 0.000000 0.000000 0.232538 0.000000 0.000000
# 5 0.000000 0.000000 0.000000 0.000000 0.063757 0.000000
# 6 0.000000 0.000000 0.000000 0.000000 0.000000 0.046761
#
#
# Mechanical properties :
#
#
# Convention : Reuss Voigt Hill
#
# Bulk Modulus (GPa) = 46.57317 59.29299 52.93308
# Shear Modulus (GPa) = 12.67230 26.02423 19.34826
#
# Velocity S-wave (km/s) = 2.53759 3.63649 3.13555
# Velocity P-wave (km/s) = 5.67905 6.91096 6.32507
#
# Compressibility (1/GPa) = 0.02147159
#
# Stress axis : x y z
#
# Youngs Moduli (GPa) = 132.82255 65.53417 98.79702
#
# Poissons Ratio (x) = 0.06371 0.36624
# Poissons Ratio (y) = 0.12913 0.10274
# Poissons Ratio (z) = 0.49237 0.06815
#
# Static dielectric constant tensor:
#      x y z
#    x 4.518450 0.000000 0.000000 
#    y 0.000000 3.227120 0.000000 
#    z 0.000000 0.000000 3.336600 
# 
# 
# High freq. dielectric constant tensor:
#      x y z
#    x 1.805120 0.000000 0.000000 
#    y 0.000000 1.731130 0.000000 
#    z 0.000000 0.000000 1.744610 
# 
# From -- ./inp_files/5731.got.cif
#   From: 2010.03.12/outbox.cif.g09.slc.cpg/sg35_3_cif.got.tgz:5731.got - 2010.04.14 02:02:04.
