data_PCOD8173338
_publ_section_title
;
Structure prediction by ZEFSAII (Michael W. Deem and Ramdas Pophale) SiO2 
 PCOD8173338
Probable space group: C M M 2
;
_chemical_formula_sum "Si O2"
_cell_formula_units_Z 48
_cell_length_a 8.784950
_cell_length_b 17.989901
_cell_length_c 15.524444
_cell_angle_alpha 90.000000
_cell_angle_beta 90.000000
_cell_angle_gamma 90.000000
_cell_volume 2453.489041
_symmetry_space_group_name_H-M "C M M 2"
_symmetry_group_IT_number 35
_symmetry_cell_setting 'orthorhombic'
loop_
_space_group_symop_operation_xyz
x,y,z
-x,-y,z
-x,y,z
x,-y,z
1/2+x,1/2+y,z
1/2-x,1/2-y,z
1/2-x,1/2+y,z
1/2+x,1/2-y,z
loop_
_atom_site_type_symbol
_atom_site_label
_atom_site_fract_x
_atom_site_fract_y
_atom_site_fract_z
Si Si1 0.826141 0.912116 0.495200
Si Si2 0.677493 0.330200 0.167198
Si Si3 0.319437 0.830908 0.653678
Si Si4 0.822079 0.415326 0.824732
Si Si5 0.676541 0.330369 0.977295
Si Si6 0.180164 0.331897 0.336489
O O1 0.747741 0.883984 0.581465
O O2 0.733303 0.882730 0.414171
O O3 0.000000 0.883708 0.490844
O O4 0.817783 0.000000 0.494895
O O5 0.500000 0.324954 0.189301
O O6 0.750000 0.250000 0.161193
O O7 0.761510 0.370919 0.247131
O O8 0.705537 0.365845 0.072795
O O9 0.500000 0.827306 0.643641
O O10 0.250000 0.750000 0.643153
O O11 0.269592 0.864214 0.745448
O O12 0.776125 0.500000 0.804185
O O13 0.738625 0.389982 0.910733
O O14 0.000000 0.407476 0.841009
O O15 0.500000 0.317917 0.960918
O O16 0.750000 0.250000 0.963890
O O17 0.250000 0.250000 0.346785
O O18 0.000000 0.326057 0.336152
#
# Coordination Sequence:
#
# PCOD8173338 Si02
#       6
#     8   8   8   8   8   8
#     4  11  24  41  60  83 113 148 185 228 279 332
#     4   9  17  31  52  80 112 145 186 234 281 326
#     4  11  23  40  62  87 114 144 184 230 276 329
#     4  10  22  39  58  82 114 150 186 229 280 331
#     4  10  20  34  56  84 113 148 189 234 280 329
#     4  11  21  35  58  85 114 148 188 232 278 330
#
# _framework density 19.563974999999999
#
# number of rings (size 3 to 8) (size 9 to 14) (size 15 to 20)
#    0.000    1.667    0.000    6.000    0.000    7.000 
#    0.000    0.833    0.000    1.000    0.000    0.000 
#    0.000    0.000    0.000    0.000    0.000    0.000 
#
# Total GULP energy -297578.293235 kJ/mol
# GULP energy per Si atom -12399.095551 kJ/mol
# Density = 1.951945 g / cm^3
# Si number density = 19.563975 Si / 1000 Ang^3
#
#
#
# Elastic Constant Matrix: (Units=GPa)
#
#
# Indices 1 2 3 4 5 6 
#
# 1 126.9168 38.8457 72.4735 0.0000 0.0000 0.0000
# 2 38.8457 56.4724 33.2199 0.0000 0.0000 0.0000
# 3 72.4735 33.2199 152.7233 0.0000 0.0000 0.0000
# 4 0.0000 0.0000 0.0000 -1.4296 0.0000 0.0000
# 5 0.0000 0.0000 0.0000 0.0000 40.5054 0.0000
# 6 0.0000 0.0000 0.0000 0.0000 0.0000 25.6134
#
#
#
# Elastic Compliance Matrix: (Units=1/GPa)
#
#
# Indices 1 2 3 4 5 6 
#
# 1 0.012239 -0.005736 -0.004560 0.000000 0.000000 0.000000
# 2 -0.005736 0.022995 -0.002280 0.000000 0.000000 0.000000
# 3 -0.004560 -0.002280 0.009208 0.000000 0.000000 0.000000
# 4 0.000000 0.000000 0.000000 -0.699474 0.000000 0.000000
# 5 0.000000 0.000000 0.000000 0.000000 0.024688 0.000000
# 6 0.000000 0.000000 0.000000 0.000000 0.000000 0.039042
#
#
# Mechanical properties :
#
#
# Convention : Reuss Voigt Hill
#
# Bulk Modulus (GPa) = 51.84290 69.46563 60.65427
# Shear Modulus (GPa) = -8.93302 25.70939 8.38819
#
# Velocity S-wave (km/s) = -2.13915 3.62901 2.07289
# Velocity P-wave (km/s) = 4.52276 7.28997 6.06626
#
# Compressibility (1/GPa) = 0.01928904
#
# Stress axis : x y z
#
# Youngs Moduli (GPa) = 81.70700 43.48856 108.60596
#
# Poissons Ratio (x) = 0.24946 0.49525
# Poissons Ratio (y) = 0.46869 0.24758
# Poissons Ratio (z) = 0.37259 0.09914
#
# Static dielectric constant tensor:
#      x y z
#    x 3.871370 0.000000 0.000000 
#    y 0.000000 3.329480 0.000000 
#    z 0.000000 0.000000 4.388530 
# 
# 
# High freq. dielectric constant tensor:
#      x y z
#    x 1.777560 0.000000 0.000000 
#    y 0.000000 1.737030 0.000000 
#    z 0.000000 0.000000 1.787960 
# 
# From -- ./inp_files/15133.got.cif
#   From: 2010.03.12/outbox.cif.g09.slc.cpg/sg35_8_cif.got.tgz:15133.got - 2010.04.14 02:02:04.
