data_PCOD8173071
_publ_section_title
;
Structure prediction by ZEFSAII (Michael W. Deem and Ramdas Pophale) SiO2 
 PCOD8173071
Probable space group: C M M 2
;
_chemical_formula_sum "Si O2"
_cell_formula_units_Z 64
_cell_length_a 9.204059
_cell_length_b 18.490466
_cell_length_c 20.390070
_cell_angle_alpha 90.000000
_cell_angle_beta 90.000000
_cell_angle_gamma 90.000000
_cell_volume 3470.131776
_symmetry_space_group_name_H-M "C M M 2"
_symmetry_group_IT_number 35
_symmetry_cell_setting 'orthorhombic'
loop_
_space_group_symop_operation_xyz
x,y,z
-x,-y,z
-x,y,z
x,-y,z
1/2+x,1/2+y,z
1/2-x,1/2-y,z
1/2-x,1/2+y,z
1/2+x,1/2-y,z
loop_
_atom_site_type_symbol
_atom_site_label
_atom_site_fract_x
_atom_site_fract_y
_atom_site_fract_z
Si Si1 0.827696 0.826640 0.161320
Si Si2 0.668048 0.916055 0.270266
Si Si3 0.669768 0.417551 0.034887
Si Si4 0.829348 0.322665 0.539334
Si Si5 0.672158 0.173875 0.779556
Si Si6 0.172314 0.419673 0.657383
Si Si7 0.167460 0.321245 0.391824
Si Si8 0.169611 0.582764 0.905301
O O1 0.750000 0.750000 0.163040
O O2 0.773255 0.874829 0.221171
O O3 0.782615 0.867049 0.094740
O O4 0.000000 0.816184 0.167338
O O5 0.500000 0.902634 0.250867
O O6 0.700088 0.887643 0.343555
O O7 0.708056 0.000000 0.268743
O O8 0.500000 0.412370 0.021501
O O9 0.716360 0.500000 0.051193
O O10 0.749676 0.388834 0.970094
O O11 0.750000 0.250000 0.561614
O O12 0.778095 0.386042 0.587984
O O13 0.784164 0.344394 0.465189
O O14 0.000000 0.308888 0.545750
O O15 0.500000 0.185340 0.776678
O O16 0.750000 0.250000 0.779792
O O17 0.729970 0.128921 0.717194
O O18 0.719940 0.130857 0.844380
O O19 0.239696 0.500000 0.662691
O O20 0.000000 0.424444 0.661642
O O21 0.250000 0.250000 0.367106
O O22 0.000000 0.299721 0.391246
O O23 0.212299 0.500000 0.889852
O O24 0.000000 0.590569 0.918577
#
# Coordination Sequence:
#
# PCOD8173071 Si02
#       8
#     8   8   8   8   8   8   8   8
#     4  11  23  38  56  78 105 136 172 213 256 304
#     4  10  21  36  54  77 105 136 171 213 259 306
#     4   9  19  36  56  77 102 132 165 204 251 301
#     4   9  17  30  50  74 100 132 168 206 249 297
#     4  10  20  33  50  73 101 131 165 206 249 294
#     4   9  17  30  50  74  98 128 168 210 249 292
#     4   9  18  32  50  74 103 134 168 207 251 299
#     4   9  18  33  53  75  99 130 167 205 245 292
#
# _framework density 18.443104000000002
#
# number of rings (size 3 to 8) (size 9 to 14) (size 15 to 20)
#    0.000    2.500    0.000    1.875    0.000    6.250 
#    0.000    6.250    0.000    2.250    0.000    3.500 
#    0.000    0.000    0.000    0.000    0.000    0.000 
#
# Total GULP energy -396842.614847 kJ/mol
# GULP energy per Si atom -12401.331714 kJ/mol
# Density = 1.840113 g / cm^3
# Si number density = 18.443104 Si / 1000 Ang^3
#
#
#
# Elastic Constant Matrix: (Units=GPa)
#
#
# Indices 1 2 3 4 5 6 
#
# 1 40.2701 45.3314 45.8710 0.0000 0.0000 0.0000
# 2 45.3314 148.5532 90.6288 0.0000 0.0000 0.0000
# 3 45.8710 90.6288 144.3830 0.0000 0.0000 0.0000
# 4 0.0000 0.0000 0.0000 36.6515 0.0000 0.0000
# 5 0.0000 0.0000 0.0000 0.0000 20.5457 0.0000
# 6 0.0000 0.0000 0.0000 0.0000 0.0000 25.6701
#
#
#
# Elastic Compliance Matrix: (Units=1/GPa)
#
#
# Indices 1 2 3 4 5 6 
#
# 1 0.044028 -0.007944 -0.009002 0.000000 0.000000 0.000000
# 2 -0.007944 0.012342 -0.005224 0.000000 0.000000 0.000000
# 3 -0.009002 -0.005224 0.013065 0.000000 0.000000 0.000000
# 4 0.000000 0.000000 0.000000 0.027284 0.000000 0.000000
# 5 0.000000 0.000000 0.000000 0.000000 0.048672 0.000000
# 6 0.000000 0.000000 0.000000 0.000000 0.000000 0.038956
#
#
# Mechanical properties :
#
#
# Convention : Reuss Voigt Hill
#
# Bulk Modulus (GPa) = 39.84473 77.42986 58.63729
# Shear Modulus (GPa) = 21.09257 26.66513 23.87885
#
# Velocity S-wave (km/s) = 3.38547 3.80650 3.60214
# Velocity P-wave (km/s) = 6.07724 7.83540 7.01165
#
# Compressibility (1/GPa) = 0.02509743
#
# Stress axis : x y z
#
# Youngs Moduli (GPa) = 22.71284 81.02168 76.54195
#
# Poissons Ratio (x) = 0.64360 0.68901
# Poissons Ratio (y) = 0.18042 0.39982
# Poissons Ratio (z) = 0.20445 0.42322
#
# Static dielectric constant tensor:
#      x y z
#    x 3.219790 0.000000 0.000000 
#    y 0.000000 3.502750 0.000000 
#    z 0.000000 0.000000 3.633500 
# 
# 
# High freq. dielectric constant tensor:
#      x y z
#    x 1.695450 0.000000 0.000000 
#    y 0.000000 1.716680 0.000000 
#    z 0.000000 0.000000 1.730210 
# 
# From -- ./inp_files/18380.got.cif
#   From: 2010.03.12/outbox.cif.g09.slc.cpg/sg35_10_cif.got.tgz:18380.got - 2010.04.14 02:02:04.
