data_PCOD8173826
_publ_section_title
;
Structure prediction by ZEFSAII (Michael W. Deem and Ramdas Pophale) SiO2 
 PCOD8173826
Probable space group: C M M 2
;
_chemical_formula_sum "Si O2"
_cell_formula_units_Z 56
_cell_length_a 18.482948
_cell_length_b 8.828531
_cell_length_c 18.118888
_cell_angle_alpha 90.000000
_cell_angle_beta 90.000000
_cell_angle_gamma 90.000000
_cell_volume 2956.590849
_symmetry_space_group_name_H-M "C M M 2"
_symmetry_group_IT_number 35
_symmetry_cell_setting 'orthorhombic'
loop_
_space_group_symop_operation_xyz
x,y,z
-x,-y,z
-x,y,z
x,-y,z
1/2+x,1/2+y,z
1/2-x,1/2-y,z
1/2-x,1/2+y,z
1/2+x,1/2-y,z
loop_
_atom_site_type_symbol
_atom_site_label
_atom_site_fract_x
_atom_site_fract_y
_atom_site_fract_z
Si Si1 0.916070 0.825795 0.767490
Si Si2 0.672271 0.677476 0.486482
Si Si3 0.583118 0.177988 0.616242
Si Si4 0.328465 0.677991 0.067024
Si Si5 0.829135 0.321407 0.212154
Si Si6 0.827618 0.177415 0.906054
Si Si7 0.584341 0.675266 0.341138
O O1 0.891437 0.726675 0.697763
O O2 0.877789 0.760220 0.840661
O O3 0.000000 0.806976 0.783075
O O4 0.895371 0.000000 0.751926
O O5 0.682683 0.500000 0.495877
O O6 0.750000 0.750000 0.473022
O O7 0.635323 0.740236 0.559559
O O8 0.621267 0.718922 0.418085
O O9 0.500000 0.229041 0.602775
O O10 0.592139 0.000000 0.607482
O O11 0.324037 0.500000 0.082802
O O12 0.250000 0.750000 0.064085
O O13 0.367311 0.758081 0.136797
O O14 0.364175 0.712232 0.986681
O O15 0.820368 0.500000 0.207093
O O16 0.750000 0.250000 0.225108
O O17 0.881756 0.279896 0.278609
O O18 0.750000 0.250000 0.897933
O O19 0.816786 0.000000 0.898026
O O20 0.500000 0.712659 0.348490
O O21 0.597858 0.500000 0.321184
#
# Coordination Sequence:
#
# PCOD8173826 Si02
#       7
#     8   8   8   8   8   8   8
#     4   9  18  34  54  75 103 140 180 219 262 316
#     4  11  23  39  60  85 111 140 176 218 265 315
#     4  10  21  37  57  81 109 142 180 221 267 318
#     4   9  16  29  49  74 104 137 176 220 268 318
#     4  11  21  34  55  81 109 142 181 223 268 317
#     4   9  18  31  50  76 103 135 176 221 268 316
#     4  10  22  40  60  82 109 141 177 217 264 318
#
# _framework density 18.940733999999999
#
# number of rings (size 3 to 8) (size 9 to 14) (size 15 to 20)
#    0.000    2.143    0.000    4.286    0.000    5.714 
#    0.000    2.143    0.000    2.571    0.000    0.000 
#    0.000    0.000    0.000    0.000    0.000    0.000 
#
# Total GULP energy -347134.765182 kJ/mol
# GULP energy per Si atom -12397.670185 kJ/mol
# Density = 1.889762 g / cm^3
# Si number density = 18.940734 Si / 1000 Ang^3
#
#
#
# Elastic Constant Matrix: (Units=GPa)
#
#
# Indices 1 2 3 4 5 6 
#
# 1 87.5613 44.5751 67.4730 0.0000 0.0000 0.0000
# 2 44.5751 93.8932 63.8671 0.0000 0.0000 0.0000
# 3 67.4730 63.8671 158.4128 0.0000 0.0000 0.0000
# 4 0.0000 0.0000 0.0000 22.3758 0.0000 0.0000
# 5 0.0000 0.0000 0.0000 0.0000 8.5871 0.0000
# 6 0.0000 0.0000 0.0000 0.0000 0.0000 26.5139
#
#
#
# Elastic Compliance Matrix: (Units=1/GPa)
#
#
# Indices 1 2 3 4 5 6 
#
# 1 0.018384 -0.004687 -0.005941 0.000000 0.000000 0.000000
# 2 -0.004687 0.015870 -0.004402 0.000000 0.000000 0.000000
# 3 -0.005941 -0.004402 0.010618 0.000000 0.000000 0.000000
# 4 0.000000 0.000000 0.000000 0.044691 0.000000 0.000000
# 5 0.000000 0.000000 0.000000 0.000000 0.116454 0.000000
# 6 0.000000 0.000000 0.000000 0.000000 0.000000 0.037716
#
#
# Mechanical properties :
#
#
# Convention : Reuss Voigt Hill
#
# Bulk Modulus (GPa) = 67.51013 76.85529 72.18271
# Shear Modulus (GPa) = 17.93848 22.42548 20.18198
#
# Velocity S-wave (km/s) = 3.08081 3.44464 3.26779
# Velocity P-wave (km/s) = 6.95524 7.51568 7.24089
#
# Compressibility (1/GPa) = 0.01481259
#
# Stress axis : x y z
#
# Youngs Moduli (GPa) = 54.39375 63.01349 94.18177
#
# Poissons Ratio (x) = 0.29533 0.55953
# Poissons Ratio (y) = 0.25493 0.41458
# Poissons Ratio (z) = 0.32315 0.27738
#
# Static dielectric constant tensor:
#      x y z
#    x 3.170150 0.000000 0.000000 
#    y 0.000000 3.516870 0.000000 
#    z 0.000000 0.000000 4.103330 
# 
# 
# High freq. dielectric constant tensor:
#      x y z
#    x 1.710770 0.000000 0.000000 
#    y 0.000000 1.740010 0.000000 
#    z 0.000000 0.000000 1.759520 
# 
# From -- ./inp_files/17417.got.cif
#   From: 2010.03.12/outbox.cif.g09.slc.cpg/sg35_9_cif.got.tgz:17417.got - 2010.04.14 02:02:04.
