data_PCOD8173150
_publ_section_title
;
Structure prediction by ZEFSAII (Michael W. Deem and Ramdas Pophale) SiO2 
 PCOD8173150
Probable space group: C M M 2
;
_chemical_formula_sum "Si O2"
_cell_formula_units_Z 64
_cell_length_a 14.073859
_cell_length_b 18.425120
_cell_length_c 12.026158
_cell_angle_alpha 90.000000
_cell_angle_beta 90.000000
_cell_angle_gamma 90.000000
_cell_volume 3118.533589
_symmetry_space_group_name_H-M "C M M 2"
_symmetry_group_IT_number 35
_symmetry_cell_setting 'orthorhombic'
loop_
_space_group_symop_operation_xyz
x,y,z
-x,-y,z
-x,y,z
x,-y,z
1/2+x,1/2+y,z
1/2-x,1/2-y,z
1/2-x,1/2+y,z
1/2+x,1/2-y,z
loop_
_atom_site_type_symbol
_atom_site_label
_atom_site_fract_x
_atom_site_fract_y
_atom_site_fract_z
Si Si1 0.109431 0.708740 0.311660
Si Si2 0.390434 0.336336 0.148242
Si Si3 0.103359 0.418320 0.943904
Si Si4 0.109566 0.836336 0.475078
Si Si5 0.719452 0.331118 0.934233
Si Si6 0.603359 0.918320 0.679416
Si Si7 0.719452 0.668882 0.689087
Si Si8 0.736754 0.415588 0.311660
O O1 0.133681 0.758120 0.203443
O O2 0.133681 0.758120 0.419877
O O3 0.170010 0.635297 0.311660
O O4 0.000000 0.684701 0.311660
O O5 0.500000 0.355805 0.167988
O O6 0.326992 0.398951 0.203552
O O7 0.369788 0.335705 0.016570
O O8 0.116200 0.500000 0.987246
O O9 0.190523 0.371807 0.990900
O O10 0.105409 0.415398 0.811660
O O11 0.000000 0.388405 0.985246
O O12 0.130212 0.835705 0.606750
O O13 0.173008 0.898951 0.419768
O O14 0.000000 0.855805 0.455332
O O15 0.750000 0.250000 0.916178
O O16 0.692033 0.363363 0.811660
O O17 0.500000 0.888405 0.638074
O O18 0.690523 0.871807 0.632420
O O19 0.616200 0.000000 0.636074
O O20 0.750000 0.750000 0.707142
O O21 0.767609 0.500000 0.311660
#
# Coordination Sequence:
#
# PCOD8173150 Si02
#       8
#     8   8   8   8   8   8   8   8
#     4   9  19  39  65  87 110 143 181 224 280 341
#     4  10  21  38  59  81 111 153 193 226 267 326
#     4   8  15  30  51  73 100 138 183 228 275 326
#     4  10  21  38  59  81 111 153 193 226 267 326
#     4  10  20  33  52  82 118 151 186 230 276 325
#     4   8  15  30  51  73 100 138 183 228 275 326
#     4  10  20  33  52  82 118 151 186 230 276 325
#     4  11  22  38  63  89 111 137 179 237 288 330
#
# _framework density 20.522466999999999
#
# number of rings (size 3 to 8) (size 9 to 14) (size 15 to 20)
#    0.000    2.500    0.000    4.875    0.000    3.750 
#    0.000    3.750    0.000    0.000    0.000    5.250 
#    0.000    0.000    0.000    0.000    0.000    0.000 
#
# Total GULP energy -396625.030022 kJ/mol
# GULP energy per Si atom -12394.532188 kJ/mol
# Density = 2.047576 g / cm^3
# Si number density = 20.522467 Si / 1000 Ang^3
#
#
#
# Elastic Constant Matrix: (Units=GPa)
#
#
# Indices 1 2 3 4 5 6 
#
# 1 125.4361 64.2646 45.8027 0.0000 0.0000 0.0000
# 2 64.2646 110.8377 22.0547 0.0000 0.0000 0.0000
# 3 45.8027 22.0547 104.8970 0.0000 0.0000 0.0000
# 4 0.0000 0.0000 0.0000 16.3150 0.0000 0.0000
# 5 0.0000 0.0000 0.0000 0.0000 28.0601 0.0000
# 6 0.0000 0.0000 0.0000 0.0000 0.0000 29.0726
#
#
#
# Elastic Compliance Matrix: (Units=1/GPa)
#
#
# Indices 1 2 3 4 5 6 
#
# 1 0.012932 -0.006653 -0.004248 0.000000 0.000000 0.000000
# 2 -0.006653 0.012839 0.000206 0.000000 0.000000 0.000000
# 3 -0.004248 0.000206 0.011345 0.000000 0.000000 0.000000
# 4 0.000000 0.000000 0.000000 0.061293 0.000000 0.000000
# 5 0.000000 0.000000 0.000000 0.000000 0.035638 0.000000
# 6 0.000000 0.000000 0.000000 0.000000 0.000000 0.034397
#
#
# Mechanical properties :
#
#
# Convention : Reuss Voigt Hill
#
# Bulk Modulus (GPa) = 63.59266 67.26831 65.43049
# Shear Modulus (GPa) = 25.63130 28.62613 27.12871
#
# Velocity S-wave (km/s) = 3.53787 3.73884 3.63974
# Velocity P-wave (km/s) = 6.90962 7.17549 7.04381
#
# Compressibility (1/GPa) = 0.01572508
#
# Stress axis : x y z
#
# Youngs Moduli (GPa) = 77.33006 77.89045 88.14667
#
# Poissons Ratio (x) = 0.51817 0.37443
# Poissons Ratio (y) = 0.51445 -0.01812
# Poissons Ratio (z) = 0.32848 -0.01601
#
# Static dielectric constant tensor:
#      x y z
#    x 3.925470 0.000000 0.000000 
#    y 0.000000 3.545820 0.000000 
#    z 0.000000 0.000000 3.793140 
# 
# 
# High freq. dielectric constant tensor:
#      x y z
#    x 1.805420 0.000000 0.000000 
#    y 0.000000 1.779020 0.000000 
#    z 0.000000 0.000000 1.789890 
# 
# From -- ./inp_files/13239.got.cif
#   From: 2010.03.12/outbox.cif.g09.slc.cpg/sg35_7_cif.got.tgz:13239.got - 2010.04.14 02:02:04.
