data_PCOD8173532
_publ_section_title
;
Structure prediction by ZEFSAII (Michael W. Deem and Ramdas Pophale) SiO2 
 PCOD8173532
Probable space group: C M M 2
;
_chemical_formula_sum "Si O2"
_cell_formula_units_Z 64
_cell_length_a 8.658434
_cell_length_b 39.438467
_cell_length_c 9.962974
_cell_angle_alpha 90.000000
_cell_angle_beta 90.000000
_cell_angle_gamma 90.000000
_cell_volume 3402.110169
_symmetry_space_group_name_H-M "C M M 2"
_symmetry_group_IT_number 35
_symmetry_cell_setting 'orthorhombic'
loop_
_space_group_symop_operation_xyz
x,y,z
-x,-y,z
-x,y,z
x,-y,z
1/2+x,1/2+y,z
1/2-x,1/2-y,z
1/2-x,1/2+y,z
1/2+x,1/2-y,z
loop_
_atom_site_type_symbol
_atom_site_label
_atom_site_fract_x
_atom_site_fract_y
_atom_site_fract_z
Si Si1 0.178751 0.086048 0.416110
Si Si2 0.319650 0.785738 0.631644
Si Si3 0.323760 0.663182 0.433073
Si Si4 0.320658 0.657715 0.126363
Si Si5 0.817495 0.786143 0.915628
Si Si6 0.678494 0.461165 0.914387
Si Si7 0.820602 0.585947 0.133416
Si Si8 0.678115 0.039505 0.635640
O O1 0.214883 0.124106 0.465728
O O2 0.280490 0.077164 0.286763
O O3 0.216639 0.060148 0.533521
O O4 0.000000 0.083208 0.374517
O O5 0.500000 0.780998 0.654567
O O6 0.250000 0.750000 0.583500
O O7 0.290081 0.813765 0.519101
O O8 0.244275 0.797773 0.771011
O O9 0.500000 0.671844 0.471571
O O10 0.292619 0.670955 0.276906
O O11 0.500000 0.648415 0.105231
O O12 0.221042 0.624465 0.096953
O O13 0.263288 0.686590 0.025136
O O14 0.750000 0.750000 0.958878
O O15 0.000000 0.783283 0.909453
O O16 0.500000 0.455795 0.878438
O O17 0.714444 0.500000 0.951505
O O18 0.777839 0.449628 0.786042
O O19 0.723094 0.438906 0.040971
O O20 0.000000 0.579581 0.108117
O O21 0.500000 0.048290 0.610228
O O22 0.713559 0.000000 0.613005
#
# Coordination Sequence:
#
# PCOD8173532 Si02
#       8
#     8   8   8   8   8   8   8   8
#     4  10  21  38  59  81 110 147 184 223 269 327
#     4  11  22  36  55  79 108 142 179 220 265 317
#     4   9  19  37  57  79 107 139 177 221 267 315
#     4   9  20  38  58  80 109 143 179 220 269 326
#     4  10  20  36  57  80 108 141 177 221 268 317
#     4  10  21  38  59  81 108 145 186 225 270 328
#     4  11  22  36  57  83 112 144 181 229 276 319
#     4  10  21  37  57  83 114 144 179 227 276 321
#
# _framework density 18.811854
#
# number of rings (size 3 to 8) (size 9 to 14) (size 15 to 20)
#    0.000    2.000    0.000    5.250    0.000    7.000 
#    0.000    2.500    0.000    0.000    0.000    0.000 
#    0.000    0.000    0.000    0.000    0.000    0.000 
#
# Total GULP energy -396953.644310 kJ/mol
# GULP energy per Si atom -12404.801385 kJ/mol
# Density = 1.876904 g / cm^3
# Si number density = 18.811854 Si / 1000 Ang^3
#
#
#
# Elastic Constant Matrix: (Units=GPa)
#
#
# Indices 1 2 3 4 5 6 
#
# 1 65.5485 29.6164 24.1302 0.0000 0.0000 0.0000
# 2 29.6164 87.6337 68.3650 0.0000 0.0000 0.0000
# 3 24.1302 68.3650 95.1214 0.0000 0.0000 0.0000
# 4 0.0000 0.0000 0.0000 42.1246 0.0000 0.0000
# 5 0.0000 0.0000 0.0000 0.0000 32.7472 0.0000
# 6 0.0000 0.0000 0.0000 0.0000 0.0000 32.0998
#
#
#
# Elastic Compliance Matrix: (Units=1/GPa)
#
#
# Indices 1 2 3 4 5 6 
#
# 1 0.018013 -0.005743 -0.000442 0.000000 0.000000 0.000000
# 2 -0.005743 0.027806 -0.018527 0.000000 0.000000 0.000000
# 3 -0.000442 -0.018527 0.023941 0.000000 0.000000 0.000000
# 4 0.000000 0.000000 0.000000 0.023739 0.000000 0.000000
# 5 0.000000 0.000000 0.000000 0.000000 0.030537 0.000000
# 6 0.000000 0.000000 0.000000 0.000000 0.000000 0.031153
#
#
# Mechanical properties :
#
#
# Convention : Reuss Voigt Hill
#
# Bulk Modulus (GPa) = 49.17592 54.72518 51.95055
# Shear Modulus (GPa) = 23.65274 29.80714 26.72994
#
# Velocity S-wave (km/s) = 3.54973 3.98488 3.77358
# Velocity P-wave (km/s) = 6.55732 7.09410 6.83099
#
# Compressibility (1/GPa) = 0.02033515
#
# Stress axis : x y z
#
# Youngs Moduli (GPa) = 55.51429 35.96395 41.76938
#
# Poissons Ratio (x) = 0.20653 0.01847
# Poissons Ratio (y) = 0.31881 0.77388
# Poissons Ratio (z) = 0.02455 0.66632
#
# Static dielectric constant tensor:
#      x y z
#    x 3.441320 0.000000 0.000000 
#    y 0.000000 3.438210 0.000000 
#    z 0.000000 0.000000 3.422640 
# 
# 
# High freq. dielectric constant tensor:
#      x y z
#    x 1.739650 0.000000 0.000000 
#    y 0.000000 1.730160 0.000000 
#    z 0.000000 0.000000 1.733160 
# 
# From -- ./inp_files/11993.got.cif
#   From: 2010.03.12/outbox.cif.g09.slc.cpg/sg35_6_cif.got.tgz:11993.got - 2010.04.14 02:02:04.
