data_PCOD8173266
_publ_section_title
;
Structure prediction by ZEFSAII (Michael W. Deem and Ramdas Pophale) SiO2 
 PCOD8173266
Probable space group: C M M 2
;
_chemical_formula_sum "Si O2"
_cell_formula_units_Z 48
_cell_length_a 37.807537
_cell_length_b 9.152898
_cell_length_c 7.627986
_cell_angle_alpha 90.000000
_cell_angle_beta 90.000000
_cell_angle_gamma 90.000000
_cell_volume 2639.653341
_symmetry_space_group_name_H-M "C M M 2"
_symmetry_group_IT_number 35
_symmetry_cell_setting 'orthorhombic'
loop_
_space_group_symop_operation_xyz
x,y,z
-x,-y,z
-x,y,z
x,-y,z
1/2+x,1/2+y,z
1/2-x,1/2-y,z
1/2-x,1/2+y,z
1/2+x,1/2-y,z
loop_
_atom_site_type_symbol
_atom_site_label
_atom_site_fract_x
_atom_site_fract_y
_atom_site_fract_z
Si Si1 0.540750 0.331686 0.572730
Si Si2 0.337366 0.673000 0.237634
Si Si3 0.459003 0.829165 0.923818
Si Si4 0.917082 0.827043 0.228623
Si Si5 0.285984 0.671251 0.936061
Si Si6 0.786043 0.171487 0.538255
O O1 0.500000 0.304816 0.522491
O O2 0.547654 0.500000 0.622267
O O3 0.552541 0.233444 0.735862
O O4 0.564113 0.282210 0.408707
O O5 0.339072 0.500000 0.241410
O O6 0.377111 0.734137 0.236737
O O7 0.317067 0.729173 0.411238
O O8 0.317146 0.727255 0.063051
O O9 0.500000 0.794150 0.959541
O O10 0.451079 0.000000 0.926433
O O11 0.436304 0.750869 0.070129
O O12 0.918918 0.000000 0.197372
O O13 0.279427 0.500000 0.959284
O O14 0.250000 0.750000 0.991463
O O15 0.296940 0.710818 0.737257
O O16 0.750000 0.250000 0.483359
O O17 0.779715 0.000000 0.514625
#
# Coordination Sequence:
#
# PCOD8173266 Si02
#       6
#     8   8   8   8   8   8
#     4   9  18  33  54  78 101 129 169 214 255 298
#     4   9  18  31  48  72  99 127 159 197 245 297
#     4  10  21  36  54  76 103 136 171 208 253 305
#     4  10  20  34  54  79 105 134 170 212 256 302
#     4   9  17  30  49  71  95 125 161 200 240 285
#     4   9  17  30  48  69  93 123 161 201 240 285
#
# _framework density 18.184204999999999
#
# number of rings (size 3 to 8) (size 9 to 14) (size 15 to 20)
#    0.000    2.667    0.000    1.500    0.000    3.667 
#    0.000    8.333    0.000    4.000    0.000    0.000 
#    0.000    0.000    0.000    0.000    0.000    0.000 
#
# Total GULP energy -297627.396579 kJ/mol
# GULP energy per Si atom -12401.141524 kJ/mol
# Density = 1.814282 g / cm^3
# Si number density = 18.184205 Si / 1000 Ang^3
#
#
#
# Elastic Constant Matrix: (Units=GPa)
#
#
# Indices 1 2 3 4 5 6 
#
# 1 144.8644 47.2415 110.9456 0.0000 0.0000 0.0000
# 2 47.2415 41.1455 48.8137 0.0000 0.0000 0.0000
# 3 110.9456 48.8137 161.6949 0.0000 0.0000 0.0000
# 4 0.0000 0.0000 0.0000 12.1476 0.0000 0.0000
# 5 0.0000 0.0000 0.0000 0.0000 -136.1397 0.0000
# 6 0.0000 0.0000 0.0000 0.0000 0.0000 18.6971
#
#
#
# Elastic Compliance Matrix: (Units=1/GPa)
#
#
# Indices 1 2 3 4 5 6 
#
# 1 0.016238 -0.008454 -0.008590 0.000000 0.000000 0.000000
# 2 -0.008454 0.042266 -0.006959 0.000000 0.000000 0.000000
# 3 -0.008590 -0.006959 0.014179 0.000000 0.000000 0.000000
# 4 0.000000 0.000000 0.000000 0.082321 0.000000 0.000000
# 5 0.000000 0.000000 0.000000 0.000000 -0.007345 0.000000
# 6 0.000000 0.000000 0.000000 0.000000 0.000000 0.053484
#
#
# Mechanical properties :
#
#
# Convention : Reuss Voigt Hill
#
# Bulk Modulus (GPa) = 40.52097 84.63404 62.57751
# Shear Modulus (GPa) = 19.42687 -11.67875 3.87406
#
# Velocity S-wave (km/s) = 3.27209 -2.53701 1.46119
# Velocity P-wave (km/s) = 6.05041 6.16942 6.11020
#
# Compressibility (1/GPa) = 0.02467858
#
# Stress axis : x y z
#
# Youngs Moduli (GPa) = 61.58278 23.65945 70.52562
#
# Poissons Ratio (x) = 0.20001 0.60580
# Poissons Ratio (y) = 0.52059 0.49082
# Poissons Ratio (z) = 0.52898 0.16466
#
# Static dielectric constant tensor:
#      x y z
#    x 3.819810 0.000000 0.000000 
#    y 0.000000 3.148250 0.000000 
#    z 0.000000 0.000000 3.539160 
# 
# 
# High freq. dielectric constant tensor:
#      x y z
#    x 1.701690 0.000000 0.000000 
#    y 0.000000 1.680650 0.000000 
#    z 0.000000 0.000000 1.719010 
# 
# From -- ./inp_files/10479.got.cif
#   From: 2010.03.12/outbox.cif.g09.slc.cpg/sg35_6_cif.got.tgz:10479.got - 2010.04.14 02:02:04.
