data_PCOD8173081
_publ_section_title
;
Structure prediction by ZEFSAII (Michael W. Deem and Ramdas Pophale) SiO2 
 PCOD8173081
Probable space group: C M M 2
;
_chemical_formula_sum "Si O2"
_cell_formula_units_Z 52
_cell_length_a 26.839605
_cell_length_b 9.163863
_cell_length_c 11.939841
_cell_angle_alpha 90.000000
_cell_angle_beta 90.000000
_cell_angle_gamma 90.000000
_cell_volume 2936.657184
_symmetry_space_group_name_H-M "C M M 2"
_symmetry_group_IT_number 35
_symmetry_cell_setting 'orthorhombic'
loop_
_space_group_symop_operation_xyz
x,y,z
-x,-y,z
-x,y,z
x,-y,z
1/2+x,1/2+y,z
1/2-x,1/2-y,z
1/2-x,1/2+y,z
1/2+x,1/2-y,z
loop_
_atom_site_type_symbol
_atom_site_label
_atom_site_fract_x
_atom_site_fract_y
_atom_site_fract_z
Si Si1 0.362061 0.828071 0.077320
Si Si2 0.379935 0.663992 0.427726
Si Si3 0.943029 0.331617 0.260298
Si Si4 0.347652 0.664379 0.851642
Si Si5 0.346005 0.836158 0.644081
Si Si6 0.250000 0.250000 0.751290
Si Si7 0.296489 0.663590 0.242139
O O1 0.411272 0.791763 0.149862
O O2 0.314516 0.753953 0.134656
O O3 0.353037 0.000000 0.065233
O O4 0.366937 0.757367 0.955968
O O5 0.393829 0.500000 0.467297
O O6 0.427630 0.738439 0.369350
O O7 0.359254 0.758224 0.529165
O O8 0.337129 0.658172 0.337072
O O9 0.934724 0.500000 0.292101
O O10 0.000000 0.296287 0.230967
O O11 0.367654 0.500000 0.863580
O O12 0.372276 0.743471 0.743428
O O13 0.287143 0.659273 0.833593
O O14 0.286023 0.844100 0.668721
O O15 0.367206 0.000000 0.640719
O O16 0.281945 0.500000 0.204339
O O17 0.250000 0.750000 0.293534
#
# Coordination Sequence:
#
# PCOD8173081 Si02
#       7
#     8   8   8   8   8   4   8
#     4  10  20  34  53  77 105 136 175 221 268 321
#     4  10  21  35  52  78 108 137 176 223 270 321
#     4   9  19  38  62  84 105 135 176 222 276 334
#     4  10  20  33  50  73 106 141 180 222 259 307
#     4  10  20  33  51  73 104 142 183 221 260 309
#     4   8  22  32  50  72 102 146 190 222 256 306
#     4  10  21  33  46  68 101 140 176 213 259 312
#
# _framework density 17.707208999999999
#
# number of rings (size 3 to 8) (size 9 to 14) (size 15 to 20)
#    0.923    1.385    0.000    2.769    2.154    2.769 
#    0.000    0.000    0.000    0.923    0.000    2.154 
#    0.000    0.000    0.000    0.000    0.000    0.000 
#
# Total GULP energy -322194.682199 kJ/mol
# GULP energy per Si atom -12392.103161 kJ/mol
# Density = 1.766691 g / cm^3
# Si number density = 17.707209 Si / 1000 Ang^3
#
#
#
# Elastic Constant Matrix: (Units=GPa)
#
#
# Indices 1 2 3 4 5 6 
#
# 1 63.5059 31.1432 20.1305 0.0000 0.0000 0.0000
# 2 31.1432 150.7930 55.5133 0.0000 0.0000 0.0000
# 3 20.1305 55.5133 97.3564 0.0000 0.0000 0.0000
# 4 0.0000 0.0000 0.0000 26.7084 0.0000 0.0000
# 5 0.0000 0.0000 0.0000 0.0000 18.3375 0.0000
# 6 0.0000 0.0000 0.0000 0.0000 0.0000 20.0460
#
#
#
# Elastic Compliance Matrix: (Units=1/GPa)
#
#
# Indices 1 2 3 4 5 6 
#
# 1 0.017826 -0.002942 -0.002008 0.000000 0.000000 0.000000
# 2 -0.002942 0.008879 -0.004455 0.000000 0.000000 0.000000
# 3 -0.002008 -0.004455 0.013227 0.000000 0.000000 0.000000
# 4 0.000000 0.000000 0.000000 0.037441 0.000000 0.000000
# 5 0.000000 0.000000 0.000000 0.000000 0.054533 0.000000
# 6 0.000000 0.000000 0.000000 0.000000 0.000000 0.049885
#
#
# Mechanical properties :
#
#
# Convention : Reuss Voigt Hill
#
# Bulk Modulus (GPa) = 47.34425 58.35880 52.85153
# Shear Modulus (GPa) = 24.07983 26.67626 25.37805
#
# Velocity S-wave (km/s) = 3.69167 3.88560 3.78988
# Velocity P-wave (km/s) = 6.70571 7.29107 7.00451
#
# Compressibility (1/GPa) = 0.02112189
#
# Stress axis : x y z
#
# Youngs Moduli (GPa) = 56.09768 112.62260 75.60400
#
# Poissons Ratio (x) = 0.33137 0.15183
# Poissons Ratio (y) = 0.16506 0.33679
# Poissons Ratio (z) = 0.11265 0.50169
#
# Static dielectric constant tensor:
#      x y z
#    x 3.018000 0.000000 0.000000 
#    y 0.000000 3.507590 0.000000 
#    z 0.000000 0.000000 3.199240 
# 
# 
# High freq. dielectric constant tensor:
#      x y z
#    x 1.645720 0.000000 0.000000 
#    y 0.000000 1.699740 0.000000 
#    z 0.000000 0.000000 1.683040 
# 
# From -- ./inp_files/14268.got.cif
#   From: 2010.03.12/outbox.cif.g09.slc.cpg/sg35_8_cif.got.tgz:14268.got - 2010.04.14 02:02:04.
