data_PCOD8173230
_publ_section_title
;
Structure prediction by ZEFSAII (Michael W. Deem and Ramdas Pophale) SiO2 
 PCOD8173230
Probable space group: C M M 2
;
_chemical_formula_sum "Si O2"
_cell_formula_units_Z 48
_cell_length_a 9.155126
_cell_length_b 17.514482
_cell_length_c 15.615090
_cell_angle_alpha 90.000000
_cell_angle_beta 90.000000
_cell_angle_gamma 90.000000
_cell_volume 2503.837357
_symmetry_space_group_name_H-M "C M M 2"
_symmetry_group_IT_number 35
_symmetry_cell_setting 'orthorhombic'
loop_
_space_group_symop_operation_xyz
x,y,z
-x,-y,z
-x,y,z
x,-y,z
1/2+x,1/2+y,z
1/2-x,1/2-y,z
1/2-x,1/2+y,z
1/2+x,1/2-y,z
loop_
_atom_site_type_symbol
_atom_site_label
_atom_site_fract_x
_atom_site_fract_y
_atom_site_fract_z
Si Si1 0.328571 0.911101 0.524290
Si Si2 0.674686 0.669913 0.676210
Si Si3 0.835253 0.909227 0.987907
Si Si4 0.335945 0.909561 0.825682
Si Si5 0.660577 0.909471 0.333625
Si Si6 0.163082 0.909259 0.175487
O O1 0.500000 0.892169 0.537958
O O2 0.227585 0.860447 0.584656
O O3 0.276988 0.889875 0.427827
O O4 0.301073 0.000000 0.543871
O O5 0.500000 0.676711 0.677364
O O6 0.750000 0.750000 0.695917
O O7 0.728900 0.612108 0.748783
O O8 0.774151 0.884627 0.082036
O O9 0.000000 0.877908 0.974293
O O10 0.839409 0.000000 0.982366
O O11 0.729226 0.875863 0.914551
O O12 0.500000 0.876640 0.812298
O O13 0.342386 0.000000 0.829891
O O14 0.500000 0.874295 0.325698
O O15 0.751179 0.872459 0.255559
O O16 0.653859 0.000000 0.324221
O O17 0.000000 0.878084 0.182871
O O18 0.166143 0.000000 0.183013
#
# Coordination Sequence:
#
# PCOD8173230 Si02
#       6
#     8   8   8   8   8   8
#     4   9  18  34  54  76 104 135 167 206 250 295
#     4  12  25  39  55  74  98 129 166 208 254 304
#     4   8  14  25  41  64  96 132 167 202 242 287
#     4  10  20  34  53  77 104 133 166 206 250 296
#     4   8  14  24  40  64  95 130 163 196 238 287
#     4   8  13  21  35  59  94 131 163 199 240 280
#
# _framework density 19.170576000000001
#
# number of rings (size 3 to 8) (size 9 to 14) (size 15 to 20)
#    0.000    2.833    0.000    4.500    0.000    4.667 
#    0.000    5.000    0.000    0.000    0.000    1.167 
#    0.000    2.667    0.000    0.000    0.000    0.000 
#
# Total GULP energy -297414.052454 kJ/mol
# GULP energy per Si atom -12392.252186 kJ/mol
# Density = 1.912694 g / cm^3
# Si number density = 19.170576 Si / 1000 Ang^3
#
#
#
# Elastic Constant Matrix: (Units=GPa)
#
#
# Indices 1 2 3 4 5 6 
#
# 1 115.7555 16.5845 69.9444 0.0000 0.0000 0.0000
# 2 16.5845 15.1947 11.5601 0.0000 0.0000 0.0000
# 3 69.9444 11.5601 160.4443 0.0000 0.0000 0.0000
# 4 0.0000 0.0000 0.0000 0.1132 0.0000 0.0000
# 5 0.0000 0.0000 0.0000 0.0000 39.4346 0.0000
# 6 0.0000 0.0000 0.0000 0.0000 0.0000 18.3526
#
#
#
# Elastic Compliance Matrix: (Units=1/GPa)
#
#
# Indices 1 2 3 4 5 6 
#
# 1 0.013161 -0.010580 -0.004975 0.000000 0.000000 0.000000
# 2 -0.010580 0.078134 -0.001018 0.000000 0.000000 0.000000
# 3 -0.004975 -0.001018 0.008475 0.000000 0.000000 0.000000
# 4 0.000000 0.000000 0.000000 8.835485 0.000000 0.000000
# 5 0.000000 0.000000 0.000000 0.000000 0.025358 0.000000
# 6 0.000000 0.000000 0.000000 0.000000 0.000000 0.054488
#
#
# Mechanical properties :
#
#
# Convention : Reuss Voigt Hill
#
# Bulk Modulus (GPa) = 15.00935 54.17473 34.59204
# Shear Modulus (GPa) = 0.55124 24.46710 12.50917
#
# Velocity S-wave (km/s) = 0.53681 3.57639 2.55722
# Velocity P-wave (km/s) = 2.86890 6.73608 5.17713
#
# Compressibility (1/GPa) = 0.06662514
#
# Stress axis : x y z
#
# Youngs Moduli (GPa) = 75.98315 12.79856 117.99604
#
# Poissons Ratio (x) = 0.13540 0.58704
# Poissons Ratio (y) = 0.80387 0.12007
# Poissons Ratio (z) = 0.37802 0.01302
#
# Static dielectric constant tensor:
#      x y z
#    x 3.760120 0.000000 0.000000 
#    y 0.000000 2.886520 0.000000 
#    z 0.000000 0.000000 3.940470 
# 
# 
# High freq. dielectric constant tensor:
#      x y z
#    x 1.741560 0.000000 0.000000 
#    y 0.000000 1.679540 0.000000 
#    z 0.000000 0.000000 1.769320 
# 
# From -- ./inp_files/17829.got.cif
#   From: 2010.03.12/outbox.cif.g09.slc.cpg/sg35_9_cif.got.tgz:17829.got - 2010.04.14 02:02:04.
