data_PCOD8173156
_publ_section_title
;
Structure prediction by ZEFSAII (Michael W. Deem and Ramdas Pophale) SiO2 
 PCOD8173156
Probable space group: C M M 2
;
_chemical_formula_sum "Si O2"
_cell_formula_units_Z 56
_cell_length_a 23.291610
_cell_length_b 8.820365
_cell_length_c 15.312212
_cell_angle_alpha 90.000000
_cell_angle_beta 90.000000
_cell_angle_gamma 90.000000
_cell_volume 3145.748514
_symmetry_space_group_name_H-M "C M M 2"
_symmetry_group_IT_number 35
_symmetry_cell_setting 'orthorhombic'
loop_
_space_group_symop_operation_xyz
x,y,z
-x,-y,z
-x,y,z
x,-y,z
1/2+x,1/2+y,z
1/2-x,1/2-y,z
1/2-x,1/2+y,z
1/2+x,1/2-y,z
loop_
_atom_site_type_symbol
_atom_site_label
_atom_site_fract_x
_atom_site_fract_y
_atom_site_fract_z
Si Si1 0.311683 0.676176 0.125000
Si Si2 0.381452 0.325089 0.297958
Si Si3 0.500000 0.320501 0.219778
Si Si4 0.687900 0.824185 0.447455
Si Si5 0.622626 0.175647 0.969503
Si Si6 0.500000 0.171491 0.034773
Si Si7 0.188266 0.323448 0.640647
Si Si8 0.812999 0.179106 0.811450
O O1 0.308826 0.500000 0.098254
O O2 0.250000 0.750000 0.119177
O O3 0.335220 0.697871 0.222016
O O4 0.352904 0.765564 0.060534
O O5 0.387625 0.500000 0.323377
O O6 0.443120 0.257867 0.268184
O O7 0.360110 0.236662 0.382461
O O8 0.500000 0.500000 0.221935
O O9 0.500000 0.278113 0.118572
O O10 0.750000 0.750000 0.432877
O O11 0.661335 0.795694 0.544698
O O12 0.697914 0.000000 0.430136
O O13 0.646818 0.274302 0.890851
O O14 0.639141 0.000000 0.956260
O O15 0.554467 0.201378 0.972944
O O16 0.500000 0.000000 0.070660
O O17 0.192666 0.500000 0.662949
O O18 0.250000 0.250000 0.636305
O O19 0.156659 0.240191 0.721716
O O20 0.750000 0.250000 0.824591
O O21 0.807148 0.000000 0.807944
#
# Coordination Sequence:
#
# PCOD8173156 Si02
#       8
#     8   8   4   8   8   4   8   8
#     4  11  22  35  51  75 106 140 173 213 262 314
#     4  10  21  35  54  77 105 139 177 219 265 311
#     4  10  20  38  58  77 102 137 180 225 266 310
#     4  10  20  33  53  80 111 142 176 216 263 316
#     4  11  22  37  55  77 105 137 175 219 263 313
#     4  10  22  38  58  79 100 135 180 223 266 310
#     4   9  17  31  51  77 107 140 174 214 261 314
#     4  11  21  34  54  81 110 142 175 214 263 316
#
# _framework density 17.801805000000002
#
# number of rings (size 3 to 8) (size 9 to 14) (size 15 to 20)
#    0.000    1.714    1.429    4.714    0.000    5.143 
#    0.000    0.000    0.000    0.857    0.000    1.000 
#    0.000    0.000    0.000    0.000    0.000    0.000 
#
# Total GULP energy -347155.955546 kJ/mol
# GULP energy per Si atom -12398.426984 kJ/mol
# Density = 1.776129 g / cm^3
# Si number density = 17.801805 Si / 1000 Ang^3
#
#
#
# Elastic Constant Matrix: (Units=GPa)
#
#
# Indices 1 2 3 4 5 6 
#
# 1 85.1273 35.2291 33.0025 0.0000 0.0000 0.0000
# 2 35.2291 104.7204 52.9152 0.0000 0.0000 0.0000
# 3 33.0025 52.9152 114.3695 0.0000 0.0000 0.0000
# 4 0.0000 0.0000 0.0000 32.2243 0.0000 0.0000
# 5 0.0000 0.0000 0.0000 0.0000 9.3284 0.0000
# 6 0.0000 0.0000 0.0000 0.0000 0.0000 18.4239
#
#
#
# Elastic Compliance Matrix: (Units=1/GPa)
#
#
# Indices 1 2 3 4 5 6 
#
# 1 0.014157 -0.003522 -0.002456 0.000000 0.000000 0.000000
# 2 -0.003522 0.013339 -0.005155 0.000000 0.000000 0.000000
# 3 -0.002456 -0.005155 0.011837 0.000000 0.000000 0.000000
# 4 0.000000 0.000000 0.000000 0.031032 0.000000 0.000000
# 5 0.000000 0.000000 0.000000 0.000000 0.107199 0.000000
# 6 0.000000 0.000000 0.000000 0.000000 0.000000 0.054277
#
#
# Mechanical properties :
#
#
# Convention : Reuss Voigt Hill
#
# Bulk Modulus (GPa) = 58.59016 60.72340 59.65678
# Shear Modulus (GPa) = 19.24586 24.20002 21.72294
#
# Velocity S-wave (km/s) = 3.29160 3.69102 3.49702
# Velocity P-wave (km/s) = 6.88695 7.23531 7.06328
#
# Compressibility (1/GPa) = 0.01706771
#
# Stress axis : x y z
#
# Youngs Moduli (GPa) = 70.63888 74.96869 84.47794
#
# Poissons Ratio (x) = 0.26400 0.20745
# Poissons Ratio (y) = 0.24876 0.43551
# Poissons Ratio (z) = 0.17347 0.38649
#
# Static dielectric constant tensor:
#      x y z
#    x 3.228480 0.000000 0.000000 
#    y 0.000000 3.461630 0.000000 
#    z 0.000000 0.000000 3.829470 
# 
# 
# High freq. dielectric constant tensor:
#      x y z
#    x 1.663890 0.000000 0.000000 
#    y 0.000000 1.702560 0.000000 
#    z 0.000000 0.000000 1.698330 
# 
# From -- ./inp_files/15671.got.cif
#   From: 2010.03.12/outbox.cif.g09.slc.cpg/sg35_8_cif.got.tgz:15671.got - 2010.04.14 02:02:04.
