data_PCOD8173441
_publ_section_title
;
Structure prediction by ZEFSAII (Michael W. Deem and Ramdas Pophale) SiO2 
 PCOD8173441
Probable space group: C M M 2
;
_chemical_formula_sum "Si O2"
_cell_formula_units_Z 48
_cell_length_a 15.576769
_cell_length_b 8.912186
_cell_length_c 17.072769
_cell_angle_alpha 90.000000
_cell_angle_beta 90.000000
_cell_angle_gamma 90.000000
_cell_volume 2370.094080
_symmetry_space_group_name_H-M "C M M 2"
_symmetry_group_IT_number 35
_symmetry_cell_setting 'orthorhombic'
loop_
_space_group_symop_operation_xyz
x,y,z
-x,-y,z
-x,y,z
x,-y,z
1/2+x,1/2+y,z
1/2-x,1/2-y,z
1/2-x,1/2+y,z
1/2+x,1/2-y,z
loop_
_atom_site_type_symbol
_atom_site_label
_atom_site_fract_x
_atom_site_fract_y
_atom_site_fract_z
Si Si1 0.836725 0.175670 0.965300
Si Si2 0.343179 0.679237 0.604026
Si Si3 0.597634 0.335999 0.267599
Si Si4 0.102079 0.669567 0.118106
Si Si5 0.500000 0.821635 0.695511
Si Si6 0.838463 0.175407 0.429623
Si Si7 0.500000 0.676336 0.861470
O O1 0.750000 0.250000 0.931511
O O2 0.916165 0.221245 0.910707
O O3 0.822996 0.000000 0.966144
O O4 0.853622 0.228098 0.053443
O O5 0.339278 0.500000 0.616729
O O6 0.250000 0.750000 0.623096
O O7 0.414173 0.750499 0.659604
O O8 0.372203 0.724441 0.515377
O O9 0.500000 0.355559 0.243936
O O10 0.643102 0.500000 0.262380
O O11 0.637170 0.223047 0.203466
O O12 0.600932 0.275223 0.357354
O O13 0.132973 0.500000 0.105748
O O14 0.000000 0.682603 0.111016
O O15 0.500000 0.781149 0.786253
O O16 0.500000 0.000000 0.683261
O O17 0.750000 0.250000 0.408787
O O18 0.824473 0.000000 0.432759
O O19 0.500000 0.500000 0.839300
#
# Coordination Sequence:
#
# PCOD8173441 Si02
#       7
#     8   8   8   8   4   8   4
#     4  11  23  41  66  94 122 158 201 245 300 361
#     4  10  21  40  65  92 127 164 207 258 309 366
#     4   9  18  32  52  78 111 154 204 248 294 350
#     4  10  20  35  56  83 119 160 203 251 301 351
#     4  12  26  42  66  97 126 163 204 245 306 373
#     4   9  19  34  55  80 111 153 197 247 302 353
#     4  10  24  46  68  91 124 159 196 247 304 365
#
# _framework density 20.252361000000001
#
# number of rings (size 3 to 8) (size 9 to 14) (size 15 to 20)
#    0.000    2.000    0.833    2.250    1.167    4.667 
#    0.000    3.333    0.000    0.000    0.000    0.000 
#    0.000    0.000    0.000    0.000    0.000    0.000 
#
# Total GULP energy -297485.569989 kJ/mol
# GULP energy per Si atom -12395.232083 kJ/mol
# Density = 2.020627 g / cm^3
# Si number density = 20.252361 Si / 1000 Ang^3
#
#
#
# Elastic Constant Matrix: (Units=GPa)
#
#
# Indices 1 2 3 4 5 6 
#
# 1 107.7917 57.0547 63.6742 0.0000 0.0000 0.0000
# 2 57.0547 93.0618 60.0866 0.0000 0.0000 0.0000
# 3 63.6742 60.0866 135.7834 0.0000 0.0000 0.0000
# 4 0.0000 0.0000 0.0000 25.6241 0.0000 0.0000
# 5 0.0000 0.0000 0.0000 0.0000 7.8794 0.0000
# 6 0.0000 0.0000 0.0000 0.0000 0.0000 31.9544
#
#
#
# Elastic Compliance Matrix: (Units=1/GPa)
#
#
# Indices 1 2 3 4 5 6 
#
# 1 0.015294 -0.006644 -0.004232 0.000000 0.000000 0.000000
# 2 -0.006644 0.017930 -0.004819 0.000000 0.000000 0.000000
# 3 -0.004232 -0.004819 0.011481 0.000000 0.000000 0.000000
# 4 0.000000 0.000000 0.000000 0.039026 0.000000 0.000000
# 5 0.000000 0.000000 0.000000 0.000000 0.126913 0.000000
# 6 0.000000 0.000000 0.000000 0.000000 0.000000 0.031295
#
#
# Mechanical properties :
#
#
# Convention : Reuss Voigt Hill
#
# Bulk Modulus (GPa) = 75.09598 77.58534 76.34066
# Shear Modulus (GPa) = 18.00077 23.47967 20.74022
#
# Velocity S-wave (km/s) = 2.98455 3.40862 3.20361
# Velocity P-wave (km/s) = 7.00266 7.34058 7.17361
#
# Compressibility (1/GPa) = 0.01331629
#
# Stress axis : x y z
#
# Youngs Moduli (GPa) = 65.38693 55.77179 87.09682
#
# Poissons Ratio (x) = 0.37055 0.36856
# Poissons Ratio (y) = 0.43443 0.41970
# Poissons Ratio (z) = 0.27670 0.26875
#
# Static dielectric constant tensor:
#      x y z
#    x 3.640040 0.000000 0.000000 
#    y 0.000000 3.804330 0.000000 
#    z 0.000000 0.000000 3.842270 
# 
# 
# High freq. dielectric constant tensor:
#      x y z
#    x 1.783720 0.000000 0.000000 
#    y 0.000000 1.792440 0.000000 
#    z 0.000000 0.000000 1.798030 
# 
# From -- ./inp_files/17094.got.cif
#   From: 2010.03.12/outbox.cif.g09.slc.cpg/sg35_9_cif.got.tgz:17094.got - 2010.04.14 02:02:04.
