data_PCOD8173396
_publ_section_title
;
Structure prediction by ZEFSAII (Michael W. Deem and Ramdas Pophale) SiO2 
 PCOD8173396
Probable space group: C M M 2
;
_chemical_formula_sum "Si O2"
_cell_formula_units_Z 48
_cell_length_a 15.681071
_cell_length_b 9.062075
_cell_length_c 17.185123
_cell_angle_alpha 90.000000
_cell_angle_beta 90.000000
_cell_angle_gamma 90.000000
_cell_volume 2442.058247
_symmetry_space_group_name_H-M "C M M 2"
_symmetry_group_IT_number 35
_symmetry_cell_setting 'orthorhombic'
loop_
_space_group_symop_operation_xyz
x,y,z
-x,-y,z
-x,y,z
x,-y,z
1/2+x,1/2+y,z
1/2-x,1/2-y,z
1/2-x,1/2+y,z
1/2+x,1/2-y,z
loop_
_atom_site_type_symbol
_atom_site_label
_atom_site_fract_x
_atom_site_fract_y
_atom_site_fract_z
Si Si1 0.835939 0.172069 0.494550
Si Si2 0.601468 0.832374 0.801031
Si Si3 0.160558 0.174841 0.321116
Si Si4 0.000000 0.175731 0.223134
Si Si5 0.402983 0.661323 0.654675
Si Si6 0.836745 0.175637 0.951060
Si Si7 0.000000 0.824926 0.047702
O O1 0.750000 0.250000 0.518351
O O2 0.867608 0.221938 0.408950
O O3 0.899381 0.216026 0.564740
O O4 0.818938 0.000000 0.490988
O O5 0.500000 0.821100 0.809525
O O6 0.635254 0.778090 0.716218
O O7 0.646194 0.727637 0.863503
O O8 0.632382 0.000000 0.812963
O O9 0.250000 0.250000 0.297713
O O10 0.085436 0.234367 0.265494
O O11 0.172314 0.000000 0.312892
O O12 0.000000 0.237241 0.135429
O O13 0.000000 0.000000 0.225822
O O14 0.500000 0.642518 0.678145
O O15 0.357911 0.500000 0.662698
O O16 0.750000 0.250000 0.982991
O O17 0.827435 0.000000 0.953149
O O18 0.914937 0.232021 0.004634
O O19 0.000000 0.000000 0.047969
#
# Coordination Sequence:
#
# PCOD8173396 Si02
#       7
#     8   8   8   4   8   8   4
#     4   9  18  31  48  72 102 139 178 222 268 315
#     4  10  20  35  55  79 110 145 185 231 279 328
#     4   9  18  33  55  81 112 145 183 227 272 322
#     4   9  18  34  59  86 109 144 184 221 271 331
#     4   9  18  31  49  73 103 140 184 227 268 315
#     4  11  22  38  60  85 112 147 187 227 277 334
#     4   9  20  38  59  84 115 144 178 225 277 333
#
# _framework density 19.655552
#
# number of rings (size 3 to 8) (size 9 to 14) (size 15 to 20)
#    0.000    2.500    0.833    1.000    1.167    2.667 
#    0.000    2.083    0.000    3.000    0.000    0.000 
#    0.000    0.000    0.000    0.000    0.000    0.000 
#
# Total GULP energy -297452.668713 kJ/mol
# GULP energy per Si atom -12393.861196 kJ/mol
# Density = 1.961081 g / cm^3
# Si number density = 19.655552 Si / 1000 Ang^3
#
#
#
# Elastic Constant Matrix: (Units=GPa)
#
#
# Indices 1 2 3 4 5 6 
#
# 1 112.7229 37.8187 69.1027 0.0000 0.0000 0.0000
# 2 37.8187 54.1824 37.1236 0.0000 0.0000 0.0000
# 3 69.1027 37.1236 145.6822 0.0000 0.0000 0.0000
# 4 0.0000 0.0000 0.0000 11.9970 0.0000 0.0000
# 5 0.0000 0.0000 0.0000 0.0000 18.7632 0.0000
# 6 0.0000 0.0000 0.0000 0.0000 0.0000 28.5685
#
#
#
# Elastic Compliance Matrix: (Units=1/GPa)
#
#
# Indices 1 2 3 4 5 6 
#
# 1 0.014122 -0.006381 -0.005072 0.000000 0.000000 0.000000
# 2 -0.006381 0.025244 -0.003406 0.000000 0.000000 0.000000
# 3 -0.005072 -0.003406 0.010138 0.000000 0.000000 0.000000
# 4 0.000000 0.000000 0.000000 0.083354 0.000000 0.000000
# 5 0.000000 0.000000 0.000000 0.000000 0.053296 0.000000
# 6 0.000000 0.000000 0.000000 0.000000 0.000000 0.035004
#
#
# Mechanical properties :
#
#
# Convention : Reuss Voigt Hill
#
# Bulk Modulus (GPa) = 50.54446 66.74193 58.64319
# Shear Modulus (GPa) = 19.41963 23.10191 21.26077
#
# Velocity S-wave (km/s) = 3.14665 3.43204 3.29244
# Velocity P-wave (km/s) = 6.24282 7.05228 6.65986
#
# Compressibility (1/GPa) = 0.01978456
#
# Stress axis : x y z
#
# Youngs Moduli (GPa) = 70.81242 39.61356 98.63724
#
# Poissons Ratio (x) = 0.25279 0.50032
# Poissons Ratio (y) = 0.45189 0.33594
# Poissons Ratio (z) = 0.35919 0.13492
#
# Static dielectric constant tensor:
#      x y z
#    x 3.489880 0.000000 0.000000 
#    y 0.000000 3.466390 0.000000 
#    z 0.000000 0.000000 3.796650 
# 
# 
# High freq. dielectric constant tensor:
#      x y z
#    x 1.757380 0.000000 0.000000 
#    y 0.000000 1.743610 0.000000 
#    z 0.000000 0.000000 1.771090 
# 
# From -- ./inp_files/15191.got.cif
#   From: 2010.03.12/outbox.cif.g09.slc.cpg/sg35_8_cif.got.tgz:15191.got - 2010.04.14 02:02:04.
