data_PCOD8173894
_publ_section_title
;
Structure prediction by ZEFSAII (Michael W. Deem and Ramdas Pophale) SiO2 
 PCOD8173894
Probable space group: C M M 2
;
_chemical_formula_sum "Si O2"
_cell_formula_units_Z 48
_cell_length_a 15.783393
_cell_length_b 8.694038
_cell_length_c 16.776754
_cell_angle_alpha 90.000000
_cell_angle_beta 90.000000
_cell_angle_gamma 90.000000
_cell_volume 2302.129982
_symmetry_space_group_name_H-M "C M M 2"
_symmetry_group_IT_number 35
_symmetry_cell_setting 'orthorhombic'
loop_
_space_group_symop_operation_xyz
x,y,z
-x,-y,z
-x,y,z
x,-y,z
1/2+x,1/2+y,z
1/2-x,1/2-y,z
1/2-x,1/2+y,z
1/2+x,1/2-y,z
loop_
_atom_site_type_symbol
_atom_site_label
_atom_site_fract_x
_atom_site_fract_y
_atom_site_fract_z
Si Si1 0.596099 0.174647 0.577300
Si Si2 0.902152 0.820452 0.249973
Si Si3 0.500000 0.182251 0.000576
Si Si4 0.661836 0.318301 0.730254
Si Si5 0.500000 0.817602 0.817878
Si Si6 0.158440 0.817805 0.422907
Si Si7 0.162737 0.681015 0.094414
O O1 0.500000 0.177751 0.608930
O O2 0.653536 0.272440 0.637533
O O3 0.597215 0.249620 0.490079
O O4 0.630413 0.000000 0.574382
O O5 0.875760 0.763185 0.337430
O O6 0.847123 0.726553 0.186763
O O7 0.000000 0.781896 0.236192
O O8 0.882925 0.000000 0.239173
O O9 0.500000 0.235034 0.909540
O O10 0.500000 0.000000 0.008756
O O11 0.583998 0.248932 0.043687
O O12 0.662155 0.500000 0.739714
O O13 0.750000 0.250000 0.763856
O O14 0.584580 0.248555 0.779384
O O15 0.500000 0.000000 0.807557
O O16 0.250000 0.750000 0.438964
O O17 0.159086 0.000000 0.429284
O O18 0.167629 0.500000 0.086303
O O19 0.250000 0.750000 0.060087
#
# Coordination Sequence:
#
# PCOD8173894 Si02
#       7
#     8   8   4   8   4   8   8
#     4  11  23  40  63  90 123 164 212 263 318 376
#     4  10  21  38  60  88 121 162 210 262 316 371
#     4   9  22  43  67  94 129 166 203 255 318 379
#     4  12  25  43  68  98 132 172 216 262 319 382
#     4  11  23  45  71  98 133 166 207 265 322 387
#     4  11  23  38  56  83 122 163 210 263 314 371
#     4  11  22  40  64  94 127 167 211 257 313 375
#
# _framework density 20.850258
#
# number of rings (size 3 to 8) (size 9 to 14) (size 15 to 20)
#    0.000    1.167    1.667    4.750    0.000    5.000 
#    0.000    5.000    0.000    0.000    0.000    0.000 
#    0.000    0.000    0.000    0.000    0.000    0.000 
#
# Total GULP energy -297740.225343 kJ/mol
# GULP energy per Si atom -12405.842723 kJ/mol
# Density = 2.080280 g / cm^3
# Si number density = 20.850258 Si / 1000 Ang^3
#
#
#
# Elastic Constant Matrix: (Units=GPa)
#
#
# Indices 1 2 3 4 5 6 
#
# 1 156.0508 51.0371 59.6964 0.0000 0.0000 0.0000
# 2 51.0371 109.4150 46.5095 0.0000 0.0000 0.0000
# 3 59.6964 46.5095 129.3611 0.0000 0.0000 0.0000
# 4 0.0000 0.0000 0.0000 26.3128 0.0000 0.0000
# 5 0.0000 0.0000 0.0000 0.0000 21.1373 0.0000
# 6 0.0000 0.0000 0.0000 0.0000 0.0000 34.0226
#
#
#
# Elastic Compliance Matrix: (Units=1/GPa)
#
#
# Indices 1 2 3 4 5 6 
#
# 1 0.008399 -0.002680 -0.002912 0.000000 0.000000 0.000000
# 2 -0.002680 0.011643 -0.002950 0.000000 0.000000 0.000000
# 3 -0.002912 -0.002950 0.010135 0.000000 0.000000 0.000000
# 4 0.000000 0.000000 0.000000 0.038004 0.000000 0.000000
# 5 0.000000 0.000000 0.000000 0.000000 0.047310 0.000000
# 6 0.000000 0.000000 0.000000 0.000000 0.000000 0.029392
#
#
# Mechanical properties :
#
#
# Convention : Reuss Voigt Hill
#
# Bulk Modulus (GPa) = 76.37327 78.81253 77.59290
# Shear Modulus (GPa) = 30.06065 32.13346 31.09706
#
# Velocity S-wave (km/s) = 3.80114 3.93001 3.86612
# Velocity P-wave (km/s) = 7.48157 7.64688 7.56467
#
# Compressibility (1/GPa) = 0.01309359
#
# Stress axis : x y z
#
# Youngs Moduli (GPa) = 119.06681 85.88694 98.67084
#
# Poissons Ratio (x) = 0.23015 0.28736
# Poissons Ratio (y) = 0.31906 0.29103
# Poissons Ratio (z) = 0.34676 0.25333
#
# Static dielectric constant tensor:
#      x y z
#    x 3.938710 0.000000 0.000000 
#    y 0.000000 3.689610 0.000000 
#    z 0.000000 0.000000 3.843100 
# 
# 
# High freq. dielectric constant tensor:
#      x y z
#    x 1.832800 0.000000 0.000000 
#    y 0.000000 1.813560 0.000000 
#    z 0.000000 0.000000 1.815930 
# 
# From -- ./inp_files/17882.got.cif
#   From: 2010.03.12/outbox.cif.g09.slc.cpg/sg35_9_cif.got.tgz:17882.got - 2010.04.14 02:02:04.
