data_PCOD8173028
_publ_section_title
;
Structure prediction by ZEFSAII (Michael W. Deem and Ramdas Pophale) SiO2 
 PCOD8173028
Probable space group: C M M 2
;
_chemical_formula_sum "Si O2"
_cell_formula_units_Z 64
_cell_length_a 29.286667
_cell_length_b 9.269901
_cell_length_c 12.208414
_cell_angle_alpha 90.000000
_cell_angle_beta 90.000000
_cell_angle_gamma 90.000000
_cell_volume 3314.395216
_symmetry_space_group_name_H-M "C M M 2"
_symmetry_group_IT_number 35
_symmetry_cell_setting 'orthorhombic'
loop_
_space_group_symop_operation_xyz
x,y,z
-x,-y,z
-x,y,z
x,-y,z
1/2+x,1/2+y,z
1/2-x,1/2-y,z
1/2-x,1/2+y,z
1/2+x,1/2-y,z
loop_
_atom_site_type_symbol
_atom_site_label
_atom_site_fract_x
_atom_site_fract_y
_atom_site_fract_z
Si Si1 0.798188 0.830623 0.291080
Si Si2 0.068896 0.339572 0.785585
Si Si3 0.449524 0.169105 0.542949
Si Si4 0.640017 0.669895 0.496562
Si Si5 0.855201 0.831119 0.079787
Si Si6 0.206392 0.667731 0.922508
Si Si7 0.332476 0.159320 0.701395
Si Si8 0.450469 0.333524 0.000478
O O1 0.750000 0.750000 0.288504
O O2 0.826638 0.786817 0.398201
O O3 0.829886 0.781499 0.190010
O O4 0.787973 0.000000 0.288279
O O5 0.050400 0.500000 0.808458
O O6 0.049233 0.282377 0.669783
O O7 0.123214 0.338739 0.777831
O O8 0.052161 0.241991 0.883584
O O9 0.500000 0.200776 0.492167
O O10 0.409606 0.255882 0.480054
O O11 0.437151 0.000000 0.535287
O O12 0.632001 0.500000 0.503198
O O13 0.665688 0.722316 0.606385
O O14 0.846965 0.000000 0.058269
O O15 0.837455 0.739818 0.977530
O O16 0.909574 0.793390 0.084866
O O17 0.208769 0.500000 0.954399
O O18 0.250000 0.750000 0.971943
O O19 0.206853 0.690631 0.790474
O O20 0.326393 0.000000 0.647717
O O21 0.500000 0.296845 0.054736
O O22 0.446752 0.500000 0.971291
#
# Coordination Sequence:
#
# PCOD8173028 Si02
#       8
#     8   8   8   8   8   8   8   8
#     4  10  23  42  62  84 107 140 186 237 287 337
#     4   9  16  30  50  74 107 148 187 222 261 314
#     4   9  18  33  53  79 114 155 192 225 271 329
#     4  10  21  36  56  83 113 142 185 238 283 328
#     4  10  21  39  59  80 112 147 185 231 279 331
#     4  11  22  36  55  82 113 145 183 225 278 340
#     4   9  19  35  53  76 112 151 184 220 273 336
#     4  10  20  32  50  79 112 146 183 223 270 323
#
# _framework density 19.309707
#
# number of rings (size 3 to 8) (size 9 to 14) (size 15 to 20)
#    0.000    2.250    1.250    2.250    0.000    7.000 
#    0.000    3.125    0.000    2.250    0.000    0.000 
#    0.000    0.000    0.000    0.000    0.000    0.000 
#
# Total GULP energy -396622.368689 kJ/mol
# GULP energy per Si atom -12394.449022 kJ/mol
# Density = 1.926576 g / cm^3
# Si number density = 19.309707 Si / 1000 Ang^3
#
#
#
# Elastic Constant Matrix: (Units=GPa)
#
#
# Indices 1 2 3 4 5 6 
#
# 1 149.3640 59.3212 60.8269 0.0000 0.0000 0.0000
# 2 59.3212 73.9542 44.0892 0.0000 0.0000 0.0000
# 3 60.8269 44.0892 89.2762 0.0000 0.0000 0.0000
# 4 0.0000 0.0000 0.0000 20.4941 0.0000 0.0000
# 5 0.0000 0.0000 0.0000 0.0000 22.5647 0.0000
# 6 0.0000 0.0000 0.0000 0.0000 0.0000 17.5429
#
#
#
# Elastic Compliance Matrix: (Units=1/GPa)
#
#
# Indices 1 2 3 4 5 6 
#
# 1 0.010930 -0.006134 -0.004418 0.000000 0.000000 0.000000
# 2 -0.006134 0.022606 -0.006985 0.000000 0.000000 0.000000
# 3 -0.004418 -0.006985 0.017661 0.000000 0.000000 0.000000
# 4 0.000000 0.000000 0.000000 0.048794 0.000000 0.000000
# 5 0.000000 0.000000 0.000000 0.000000 0.044317 0.000000
# 6 0.000000 0.000000 0.000000 0.000000 0.000000 0.057003
#
#
# Mechanical properties :
#
#
# Convention : Reuss Voigt Hill
#
# Bulk Modulus (GPa) = 62.01972 71.22990 66.62481
# Shear Modulus (GPa) = 20.68169 22.01084 21.34626
#
# Velocity S-wave (km/s) = 3.27624 3.37988 3.32846
# Velocity P-wave (km/s) = 6.81908 7.22493 7.02494
#
# Compressibility (1/GPa) = 0.01612390
#
# Stress axis : x y z
#
# Youngs Moduli (GPa) = 91.48883 44.23583 56.62222
#
# Poissons Ratio (x) = 0.27133 0.25016
# Poissons Ratio (y) = 0.56116 0.39551
# Poissons Ratio (z) = 0.40420 0.30899
#
# Static dielectric constant tensor:
#      x y z
#    x 3.865630 0.000000 0.000000 
#    y 0.000000 3.449000 0.000000 
#    z 0.000000 0.000000 3.271460 
# 
# 
# High freq. dielectric constant tensor:
#      x y z
#    x 1.766400 0.000000 0.000000 
#    y 0.000000 1.746410 0.000000 
#    z 0.000000 0.000000 1.723540 
# 
# From -- ./inp_files/11944.got.cif
#   From: 2010.03.12/outbox.cif.g09.slc.cpg/sg35_6_cif.got.tgz:11944.got - 2010.04.14 02:02:04.
