data_PCOD8173362
_publ_section_title
;
Structure prediction by ZEFSAII (Michael W. Deem and Ramdas Pophale) SiO2 
 PCOD8173362
Probable space group: C M M 2
;
_chemical_formula_sum "Si O2"
_cell_formula_units_Z 40
_cell_length_a 8.661643
_cell_length_b 14.847868
_cell_length_c 16.619025
_cell_angle_alpha 90.000000
_cell_angle_beta 90.000000
_cell_angle_gamma 90.000000
_cell_volume 2137.321817
_symmetry_space_group_name_H-M "C M M 2"
_symmetry_group_IT_number 35
_symmetry_cell_setting 'orthorhombic'
loop_
_space_group_symop_operation_xyz
x,y,z
-x,-y,z
-x,y,z
x,-y,z
1/2+x,1/2+y,z
1/2-x,1/2-y,z
1/2-x,1/2+y,z
1/2+x,1/2-y,z
loop_
_atom_site_type_symbol
_atom_site_label
_atom_site_fract_x
_atom_site_fract_y
_atom_site_fract_z
Si Si1 0.818235 0.000000 0.220030
Si Si2 0.184284 0.500000 0.804702
Si Si3 0.182695 0.500000 0.393787
Si Si4 0.683422 0.851156 0.108801
Si Si5 0.682518 0.000000 0.984250
Si Si6 0.317020 0.844163 0.691306
Si Si7 0.681795 0.843638 0.511398
O O1 0.782278 0.000000 0.313844
O O2 0.745923 0.092066 0.184559
O O3 0.000000 0.000000 0.204058
O O4 0.254589 0.500000 0.894794
O O5 0.247368 0.585543 0.756042
O O6 0.000000 0.500000 0.807856
O O7 0.235717 0.415265 0.446247
O O8 0.000000 0.500000 0.374854
O O9 0.500000 0.844404 0.115933
O O10 0.750000 0.750000 0.105550
O O11 0.735574 0.908708 0.030157
O O12 0.500000 0.000000 0.979586
O O13 0.500000 0.841486 0.692819
O O14 0.250000 0.750000 0.719860
O O15 0.258208 0.868983 0.601199
O O16 0.500000 0.836614 0.514203
O O17 0.750000 0.750000 0.481771
#
# Coordination Sequence:
#
# PCOD8173362 Si02
#       7
#     4   4   4   8   4   8   8
#     4  11  23  38  56  81 108 134 171 214 261 317
#     4   9  16  29  50  74 103 138 172 207 251 301
#     4  10  20  35  53  73 102 136 170 211 258 306
#     4  10  20  37  59  80 105 138 174 212 260 314
#     4   8  17  32  51  78 107 134 169 212 254 304
#     4   9  17  30  49  72  99 134 175 213 251 298
#     4   9  18  32  50  72  99 134 174 213 253 300
#
# _framework density 18.715011000000001
#
# number of rings (size 3 to 8) (size 9 to 14) (size 15 to 20)
#    0.000    2.600    0.000    2.700    0.000    4.800 
#    0.000    2.500    0.000   10.800    0.000    0.000 
#    0.000    0.000    0.000    0.000    0.000    0.000 
#
# Total GULP energy -247921.215076 kJ/mol
# GULP energy per Si atom -12396.060754 kJ/mol
# Density = 1.867241 g / cm^3
# Si number density = 18.715011 Si / 1000 Ang^3
#
#
#
# Elastic Constant Matrix: (Units=GPa)
#
#
# Indices 1 2 3 4 5 6 
#
# 1 44.9223 40.0562 31.2721 0.0000 0.0000 0.0000
# 2 40.0562 182.6132 100.9418 0.0000 0.0000 0.0000
# 3 31.2721 100.9418 154.7315 0.0000 0.0000 0.0000
# 4 0.0000 0.0000 0.0000 10.4697 0.0000 0.0000
# 5 0.0000 0.0000 0.0000 0.0000 17.9166 0.0000
# 6 0.0000 0.0000 0.0000 0.0000 0.0000 32.4615
#
#
#
# Elastic Compliance Matrix: (Units=1/GPa)
#
#
# Indices 1 2 3 4 5 6 
#
# 1 0.028334 -0.004770 -0.002615 0.000000 0.000000 0.000000
# 2 -0.004770 0.009367 -0.005147 0.000000 0.000000 0.000000
# 3 -0.002615 -0.005147 0.010349 0.000000 0.000000 0.000000
# 4 0.000000 0.000000 0.000000 0.095513 0.000000 0.000000
# 5 0.000000 0.000000 0.000000 0.000000 0.055814 0.000000
# 6 0.000000 0.000000 0.000000 0.000000 0.000000 0.030806
#
#
# Mechanical properties :
#
#
# Convention : Reuss Voigt Hill
#
# Bulk Modulus (GPa) = 43.50227 80.75637 62.12932
# Shear Modulus (GPa) = 19.01799 26.16937 22.59368
#
# Velocity S-wave (km/s) = 3.19123 3.74345 3.47832
# Velocity P-wave (km/s) = 6.07237 7.86949 7.02860
#
# Compressibility (1/GPa) = 0.02298731
#
# Stress axis : x y z
#
# Youngs Moduli (GPa) = 35.29330 106.75397 96.62763
#
# Poissons Ratio (x) = 0.50918 0.25267
# Poissons Ratio (y) = 0.16834 0.49734
# Poissons Ratio (z) = 0.09229 0.54946
#
# Static dielectric constant tensor:
#      x y z
#    x 3.163830 0.000000 0.000000 
#    y 0.000000 3.574520 0.000000 
#    z 0.000000 0.000000 3.697950 
# 
# 
# High freq. dielectric constant tensor:
#      x y z
#    x 1.703290 0.000000 0.000000 
#    y 0.000000 1.735160 0.000000 
#    z 0.000000 0.000000 1.730160 
# 
# From -- ./inp_files/14860.got.cif
#   From: 2010.03.12/outbox.cif.g09.slc.cpg/sg35_8_cif.got.tgz:14860.got - 2010.04.14 02:02:04.
