data_PCOD8173953
_publ_section_title
;
Structure prediction by ZEFSAII (Michael W. Deem and Ramdas Pophale) SiO2 
 PCOD8173953
Probable space group: C M M 2
;
_chemical_formula_sum "Si O2"
_cell_formula_units_Z 40
_cell_length_a 28.677208
_cell_length_b 8.775180
_cell_length_c 7.773784
_cell_angle_alpha 90.000000
_cell_angle_beta 90.000000
_cell_angle_gamma 90.000000
_cell_volume 1956.254569
_symmetry_space_group_name_H-M "C M M 2"
_symmetry_group_IT_number 35
_symmetry_cell_setting 'orthorhombic'
loop_
_space_group_symop_operation_xyz
x,y,z
-x,-y,z
-x,y,z
x,-y,z
1/2+x,1/2+y,z
1/2-x,1/2-y,z
1/2-x,1/2+y,z
1/2+x,1/2-y,z
loop_
_atom_site_type_symbol
_atom_site_label
_atom_site_fract_x
_atom_site_fract_y
_atom_site_fract_z
Si Si1 0.949421 0.180913 0.030220
Si Si2 0.052554 0.177083 0.639341
Si Si3 0.853636 0.819733 0.179816
Si Si4 0.800397 0.820240 0.836820
Si Si5 0.857727 0.678424 0.529015
O O1 0.906382 0.240588 0.143407
O O2 0.000000 0.238525 0.101301
O O3 0.948919 0.000000 0.028195
O O4 0.943152 0.236118 0.834603
O O5 0.087668 0.276450 0.524682
O O6 0.000000 0.201826 0.570409
O O7 0.066641 0.000000 0.623387
O O8 0.834930 0.735429 0.350019
O O9 0.852730 0.000000 0.209608
O O10 0.820757 0.771671 0.021723
O O11 0.750000 0.750000 0.811839
O O12 0.833994 0.761136 0.688515
O O13 0.797139 0.000000 0.820510
O O14 0.850287 0.500000 0.547119
#
# Coordination Sequence:
#
# PCOD8173953 Si02
#       5
#     8   8   8   8   8
#     4   8  14  29  57  89 117 152 201 251 297 348
#     4   9  17  34  61  89 120 163 213 257 300 356
#     4  10  21  39  64  91 122 160 206 256 301 359
#     4  11  24  45  70  93 119 155 202 257 314 369
#     4  12  25  39  60  92 132 168 202 248 304 369
#
# _framework density 20.447234999999999
#
# number of rings (size 3 to 8) (size 9 to 14) (size 15 to 20)
#    0.000    2.000    2.000    3.600    0.000    3.600 
#    0.000    4.000    0.000    0.000    0.000    0.000 
#    0.000    0.000    0.000    0.000    0.000    0.000 
#
# Total GULP energy -247975.658444 kJ/mol
# GULP energy per Si atom -12398.782922 kJ/mol
# Density = 2.040070 g / cm^3
# Si number density = 20.447235 Si / 1000 Ang^3
#
#
#
# Elastic Constant Matrix: (Units=GPa)
#
#
# Indices 1 2 3 4 5 6 
#
# 1 94.7467 31.7623 31.8558 0.0000 0.0000 0.0000
# 2 31.7623 67.4170 44.8397 0.0000 0.0000 0.0000
# 3 31.8558 44.8397 118.2256 0.0000 0.0000 0.0000
# 4 0.0000 0.0000 0.0000 18.6405 0.0000 0.0000
# 5 0.0000 0.0000 0.0000 0.0000 12.0435 0.0000
# 6 0.0000 0.0000 0.0000 0.0000 0.0000 26.1596
#
#
#
# Elastic Compliance Matrix: (Units=1/GPa)
#
#
# Indices 1 2 3 4 5 6 
#
# 1 0.012742 -0.004975 -0.001547 0.000000 0.000000 0.000000
# 2 -0.004975 0.021779 -0.006920 0.000000 0.000000 0.000000
# 3 -0.001547 -0.006920 0.011500 0.000000 0.000000 0.000000
# 4 0.000000 0.000000 0.000000 0.053647 0.000000 0.000000
# 5 0.000000 0.000000 0.000000 0.000000 0.083032 0.000000
# 6 0.000000 0.000000 0.000000 0.000000 0.000000 0.038227
#
#
# Mechanical properties :
#
#
# Convention : Reuss Voigt Hill
#
# Bulk Modulus (GPa) = 52.24968 55.25611 53.75290
# Shear Modulus (GPa) = 19.67043 22.83080 21.25062
#
# Velocity S-wave (km/s) = 3.10499 3.34514 3.22730
# Velocity P-wave (km/s) = 6.20190 6.48092 6.34294
#
# Compressibility (1/GPa) = 0.01913887
#
# Stress axis : x y z
#
# Youngs Moduli (GPa) = 78.47992 45.91544 86.95914
#
# Poissons Ratio (x) = 0.22841 0.13450
# Poissons Ratio (y) = 0.39040 0.60174
# Poissons Ratio (z) = 0.12138 0.31773
#
# Static dielectric constant tensor:
#      x y z
#    x 3.983840 0.000000 0.000000 
#    y 0.000000 3.326150 0.000000 
#    z 0.000000 0.000000 3.747710 
# 
# 
# High freq. dielectric constant tensor:
#      x y z
#    x 1.803800 0.000000 0.000000 
#    y 0.000000 1.763650 0.000000 
#    z 0.000000 0.000000 1.802910 
# 
# From -- ./inp_files/4983.got.cif
#   From: 2010.03.12/outbox.cif.g09.slc.cpg/sg35_3_cif.got.tgz:4983.got - 2010.04.14 02:02:04.
