data_PCOD8173205
_publ_section_title
;
Structure prediction by ZEFSAII (Michael W. Deem and Ramdas Pophale) SiO2 
 PCOD8173205
Probable space group: C M M 2
;
_chemical_formula_sum "Si O2"
_cell_formula_units_Z 56
_cell_length_a 8.848019
_cell_length_b 19.219330
_cell_length_c 17.971648
_cell_angle_alpha 90.000000
_cell_angle_beta 90.000000
_cell_angle_gamma 90.000000
_cell_volume 3056.132604
_symmetry_space_group_name_H-M "C M M 2"
_symmetry_group_IT_number 35
_symmetry_cell_setting 'orthorhombic'
loop_
_space_group_symop_operation_xyz
x,y,z
-x,-y,z
-x,y,z
x,-y,z
1/2+x,1/2+y,z
1/2-x,1/2-y,z
1/2-x,1/2+y,z
1/2+x,1/2-y,z
loop_
_atom_site_type_symbol
_atom_site_label
_atom_site_fract_x
_atom_site_fract_y
_atom_site_fract_z
Si Si1 0.168636 0.583053 0.612900
Si Si2 0.168869 0.082681 0.466813
Si Si3 0.320564 0.323346 0.197494
Si Si4 0.175205 0.081505 0.922787
Si Si5 0.173640 0.417886 0.317414
Si Si6 0.678766 0.177231 0.040892
Si Si7 0.667568 0.417324 0.757338
O O1 0.174004 0.500000 0.613726
O O2 0.266949 0.612553 0.544431
O O3 0.227838 0.612987 0.691730
O O4 0.000000 0.610679 0.601647
O O5 0.273697 0.107573 0.398851
O O6 0.000000 0.111874 0.455164
O O7 0.167552 0.000000 0.470462
O O8 0.500000 0.316273 0.190868
O O9 0.250000 0.250000 0.222975
O O10 0.278730 0.381979 0.256631
O O11 0.252083 0.346556 0.118562
O O12 0.225075 0.104593 0.839378
O O13 0.000000 0.101049 0.936670
O O14 0.200137 0.000000 0.934311
O O15 0.284762 0.119936 0.979511
O O16 0.195904 0.500000 0.308558
O O17 0.000000 0.395960 0.306248
O O18 0.500000 0.185080 0.050901
O O19 0.750000 0.250000 0.014707
O O20 0.500000 0.387557 0.744159
O O21 0.662753 0.500000 0.753483
#
# Coordination Sequence:
#
# PCOD8173205 Si02
#       7
#     8   8   8   8   8   8   8
#     4   9  15  22  35  58  90 127 164 202 244 288
#     4   9  16  26  41  63  93 129 167 204 245 293
#     4  11  22  38  58  77 100 130 167 207 249 299
#     4   9  18  33  52  75 104 135 167 206 253 301
#     4  10  20  34  52  76 106 135 166 207 253 298
#     4  11  22  37  56  76 100 130 167 208 250 298
#     4   8  14  25  41  62  91 127 163 199 241 290
#
# _framework density 18.323813000000001
#
# number of rings (size 3 to 8) (size 9 to 14) (size 15 to 20)
#    0.000    2.429    0.000    5.571    0.000    5.714 
#    0.000    1.429    0.000    0.000    0.000    1.000 
#    0.000    4.571    0.000    0.000    0.000    0.000 
#
# Total GULP energy -347151.848538 kJ/mol
# GULP energy per Si atom -12398.280305 kJ/mol
# Density = 1.828211 g / cm^3
# Si number density = 18.323813 Si / 1000 Ang^3
#
#
#
# Elastic Constant Matrix: (Units=GPa)
#
#
# Indices 1 2 3 4 5 6 
#
# 1 143.2203 30.0548 65.0172 0.0000 0.0000 0.0000
# 2 30.0548 30.1461 40.2799 0.0000 0.0000 0.0000
# 3 65.0172 40.2799 134.8016 0.0000 0.0000 0.0000
# 4 0.0000 0.0000 0.0000 -2.6600 0.0000 0.0000
# 5 0.0000 0.0000 0.0000 0.0000 37.7695 0.0000
# 6 0.0000 0.0000 0.0000 0.0000 0.0000 20.2233
#
#
#
# Elastic Compliance Matrix: (Units=1/GPa)
#
#
# Indices 1 2 3 4 5 6 
#
# 1 0.009467 -0.005555 -0.002906 0.000000 0.000000 0.000000
# 2 -0.005555 0.058478 -0.014794 0.000000 0.000000 0.000000
# 3 -0.002906 -0.014794 0.013241 0.000000 0.000000 0.000000
# 4 0.000000 0.000000 0.000000 -0.375941 0.000000 0.000000
# 5 0.000000 0.000000 0.000000 0.000000 0.026476 0.000000
# 6 0.000000 0.000000 0.000000 0.000000 0.000000 0.049448
#
#
# Mechanical properties :
#
#
# Convention : Reuss Voigt Hill
#
# Bulk Modulus (GPa) = 28.84006 64.31907 46.57957
# Shear Modulus (GPa) = -31.10197 22.58764 -4.25717
#
# Velocity S-wave (km/s) = -4.12436 3.51478 -1.52589
# Velocity P-wave (km/s) = 2.62816 7.18673 4.72980
#
# Compressibility (1/GPa) = 0.03467399
#
# Stress axis : x y z
#
# Youngs Moduli (GPa) = 105.62533 17.10054 75.52488
#
# Poissons Ratio (x) = 0.09500 0.21950
# Poissons Ratio (y) = 0.58680 1.11732
# Poissons Ratio (z) = 0.30698 0.25299
#
# Static dielectric constant tensor:
#      x y z
#    x 3.528780 0.000000 0.000000 
#    y 0.000000 2.850070 0.000000 
#    z 0.000000 0.000000 3.596300 
# 
# 
# High freq. dielectric constant tensor:
#      x y z
#    x 1.722240 0.000000 0.000000 
#    y 0.000000 1.649700 0.000000 
#    z 0.000000 0.000000 1.727050 
# 
# From -- ./inp_files/15634.got.cif
#   From: 2010.03.12/outbox.cif.g09.slc.cpg/sg35_8_cif.got.tgz:15634.got - 2010.04.14 02:02:04.
