data_PCOD8173474
_publ_section_title
;
Structure prediction by ZEFSAII (Michael W. Deem and Ramdas Pophale) SiO2 
 PCOD8173474
Probable space group: C M M 2
;
_chemical_formula_sum "Si O2"
_cell_formula_units_Z 48
_cell_length_a 16.467958
_cell_length_b 10.516750
_cell_length_c 14.266942
_cell_angle_alpha 90.000000
_cell_angle_beta 90.000000
_cell_angle_gamma 90.000000
_cell_volume 2470.883086
_symmetry_space_group_name_H-M "C M M 2"
_symmetry_group_IT_number 35
_symmetry_cell_setting 'orthorhombic'
loop_
_space_group_symop_operation_xyz
x,y,z
-x,-y,z
-x,y,z
x,-y,z
1/2+x,1/2+y,z
1/2-x,1/2-y,z
1/2-x,1/2+y,z
1/2+x,1/2-y,z
loop_
_atom_site_type_symbol
_atom_site_label
_atom_site_fract_x
_atom_site_fract_y
_atom_site_fract_z
Si Si1 0.680247 0.500000 0.767330
Si Si2 0.095022 0.500000 0.483959
Si Si3 0.589357 0.644656 0.281082
Si Si4 0.313798 0.356528 0.105725
Si Si5 0.655214 0.255995 0.463390
Si Si6 0.405046 0.500000 0.963620
Si Si7 0.409279 0.275720 0.669234
Si Si8 0.856358 0.500000 0.688685
O O1 0.654031 0.500000 0.874585
O O2 0.650018 0.629636 0.721417
O O3 0.776169 0.500000 0.751407
O O4 0.119621 0.622536 0.423781
O O5 0.154391 0.500000 0.575671
O O6 0.000000 0.500000 0.513713
O O7 0.500000 0.710345 0.285918
O O8 0.577004 0.500000 0.251273
O O9 0.645530 0.703734 0.199528
O O10 0.634345 0.645781 0.381521
O O11 0.275339 0.500000 0.122898
O O12 0.250000 0.250000 0.071618
O O13 0.382627 0.373821 0.024631
O O14 0.750000 0.250000 0.484059
O O15 0.608944 0.287326 0.559001
O O16 0.500000 0.500000 0.935705
O O17 0.500000 0.324083 0.686543
O O18 0.402905 0.132136 0.710454
#
# Coordination Sequence:
#
# PCOD8173474 Si02
#       8
#     4   4   8   8   8   4   8   4
#     4  12  24  38  59  92 117 147 199 258 292 341
#     4  10  20  38  55  75 116 168 203 229 292 355
#     4  10  20  35  57  85 117 156 196 235 290 351
#     4   9  20  39  66  92 117 148 195 240 292 353
#     4  11  22  34  55  81 117 157 200 246 284 335
#     4  10  22  42  66  86 120 160 188 231 308 377
#     4  11  22  38  58  84 121 162 203 244 294 349
#     4  10  20  38  58  79 115 159 198 236 294 351
#
# _framework density 19.426252000000002
#
# number of rings (size 3 to 8) (size 9 to 14) (size 15 to 20)
#    0.500    1.167    0.000    7.500    2.333    1.333 
#    1.500    0.000    0.000    1.500    0.000    0.000 
#    0.000    0.000    0.000    0.000    0.000    0.000 
#
# Total GULP energy -297390.330223 kJ/mol
# GULP energy per Si atom -12391.263759 kJ/mol
# Density = 1.938204 g / cm^3
# Si number density = 19.426252 Si / 1000 Ang^3
#
#
#
# Elastic Constant Matrix: (Units=GPa)
#
#
# Indices 1 2 3 4 5 6 
#
# 1 106.9454 11.7480 27.0939 0.0000 0.0000 0.0000
# 2 11.7480 73.9138 17.8727 0.0000 0.0000 0.0000
# 3 27.0939 17.8727 88.3241 0.0000 0.0000 0.0000
# 4 0.0000 0.0000 0.0000 1.6185 0.0000 0.0000
# 5 0.0000 0.0000 0.0000 0.0000 33.7035 0.0000
# 6 0.0000 0.0000 0.0000 0.0000 0.0000 28.7853
#
#
#
# Elastic Compliance Matrix: (Units=1/GPa)
#
#
# Indices 1 2 3 4 5 6 
#
# 1 0.010196 -0.000909 -0.002944 0.000000 0.000000 0.000000
# 2 -0.000909 0.014306 -0.002616 0.000000 0.000000 0.000000
# 3 -0.002944 -0.002616 0.012754 0.000000 0.000000 0.000000
# 4 0.000000 0.000000 0.000000 0.617854 0.000000 0.000000
# 5 0.000000 0.000000 0.000000 0.000000 0.029671 0.000000
# 6 0.000000 0.000000 0.000000 0.000000 0.000000 0.034740
#
#
# Mechanical properties :
#
#
# Convention : Reuss Voigt Hill
#
# Bulk Modulus (GPa) = 41.11956 42.51250 41.81603
# Shear Modulus (GPa) = 6.75160 26.98604 16.86882
#
# Velocity S-wave (km/s) = 1.86629 3.73118 2.94998
# Velocity P-wave (km/s) = 5.08498 6.36347 5.75981
#
# Compressibility (1/GPa) = 0.02431932
#
# Stress axis : x y z
#
# Youngs Moduli (GPa) = 98.07576 69.89924 78.40447
#
# Poissons Ratio (x) = 0.06352 0.23081
# Poissons Ratio (y) = 0.08913 0.20512
# Poissons Ratio (z) = 0.28872 0.18287
#
# Static dielectric constant tensor:
#      x y z
#    x 3.535500 0.000000 0.000000 
#    y 0.000000 3.672950 0.000000 
#    z 0.000000 0.000000 3.323660 
# 
# 
# High freq. dielectric constant tensor:
#      x y z
#    x 1.759510 0.000000 0.000000 
#    y 0.000000 1.748870 0.000000 
#    z 0.000000 0.000000 1.736260 
# 
# From -- ./inp_files/16730.got.cif
#   From: 2010.03.12/outbox.cif.g09.slc.cpg/sg35_9_cif.got.tgz:16730.got - 2010.04.14 02:02:04.
