data_PCOD8173399
_publ_section_title
;
Structure prediction by ZEFSAII (Michael W. Deem and Ramdas Pophale) SiO2 
 PCOD8173399
Probable space group: C M M 2
;
_chemical_formula_sum "Si O2"
_cell_formula_units_Z 64
_cell_length_a 15.268186
_cell_length_b 22.877249
_cell_length_c 9.370420
_cell_angle_alpha 90.000000
_cell_angle_beta 90.000000
_cell_angle_gamma 90.000000
_cell_volume 3273.032354
_symmetry_space_group_name_H-M "C M M 2"
_symmetry_group_IT_number 35
_symmetry_cell_setting 'orthorhombic'
loop_
_space_group_symop_operation_xyz
x,y,z
-x,-y,z
-x,y,z
x,-y,z
1/2+x,1/2+y,z
1/2-x,1/2-y,z
1/2-x,1/2+y,z
1/2+x,1/2-y,z
loop_
_atom_site_type_symbol
_atom_site_label
_atom_site_fract_x
_atom_site_fract_y
_atom_site_fract_z
Si Si1 0.097363 0.217375 0.113500
Si Si2 0.597548 0.620903 0.461542
Si Si3 0.760869 0.931285 0.653745
Si Si4 0.400480 0.846596 0.611504
Si Si5 0.198584 0.883038 0.953699
Si Si6 0.331320 0.794483 0.892482
Si Si7 0.151889 0.245648 0.421519
Si Si8 0.097074 0.063154 0.174217
O O1 0.153843 0.235829 0.251147
O O2 0.000000 0.205648 0.169475
O O3 0.127992 0.163143 0.016258
O O4 0.098865 0.271982 0.006000
O O5 0.500000 0.600890 0.508255
O O6 0.669841 0.578803 0.528779
O O7 0.609692 0.689146 0.499385
O O8 0.609605 0.614472 0.290333
O O9 0.668749 0.900122 0.612939
O O10 0.810778 0.903589 0.790295
O O11 0.741760 0.000000 0.675206
O O12 0.500000 0.871439 0.621262
O O13 0.380278 0.804323 0.744230
O O14 0.395134 0.805877 0.469589
O O15 0.295125 0.855041 0.961790
O O16 0.176641 0.936893 0.058190
O O17 0.250000 0.750000 0.869341
O O18 0.250000 0.250000 0.478547
O O19 0.000000 0.069505 0.103167
O O20 0.103300 0.000000 0.251111
#
# Coordination Sequence:
#
# PCOD8173399 Si02
#       8
#     8   8   8   8   8   8   8   8
#     4  11  21  34  54  87 123 155 193 238 299 367
#     4  11  23  39  59  87 123 159 198 248 308 367
#     4  11  25  43  62  87 120 162 211 256 305 364
#     4  11  23  40  62  88 117 156 206 256 308 360
#     4  10  20  36  56  80 112 152 199 244 295 358
#     4   9  20  35  54  82 117 154 189 241 307 364
#     4  12  22  38  61  89 123 161 198 250 305 371
#     4  10  20  35  55  80 113 155 200 243 293 359
#
# _framework density 19.553732
#
# number of rings (size 3 to 8) (size 9 to 14) (size 15 to 20)
#    0.000    1.375    2.500    4.125    3.500    2.000 
#    0.000    0.000    0.000    0.000    0.000    0.000 
#    0.000    8.000    0.000    0.000    0.000    0.000 
#
# Total GULP energy -396489.283019 kJ/mol
# GULP energy per Si atom -12390.290094 kJ/mol
# Density = 1.950923 g / cm^3
# Si number density = 19.553732 Si / 1000 Ang^3
#
#
#
# Elastic Constant Matrix: (Units=GPa)
#
#
# Indices 1 2 3 4 5 6 
#
# 1 118.9649 33.7658 39.7955 0.0000 0.0000 0.0000
# 2 33.7658 98.9356 40.7231 0.0000 0.0000 0.0000
# 3 39.7955 40.7231 74.0954 0.0000 0.0000 0.0000
# 4 0.0000 0.0000 0.0000 28.1376 0.0000 0.0000
# 5 0.0000 0.0000 0.0000 0.0000 24.4845 0.0000
# 6 0.0000 0.0000 0.0000 0.0000 0.0000 22.0472
#
#
#
# Elastic Compliance Matrix: (Units=1/GPa)
#
#
# Indices 1 2 3 4 5 6 
#
# 1 0.010445 -0.001623 -0.004718 0.000000 0.000000 0.000000
# 2 -0.001623 0.013315 -0.006446 0.000000 0.000000 0.000000
# 3 -0.004718 -0.006446 0.019573 0.000000 0.000000 0.000000
# 4 0.000000 0.000000 0.000000 0.035540 0.000000 0.000000
# 5 0.000000 0.000000 0.000000 0.000000 0.040842 0.000000
# 6 0.000000 0.000000 0.000000 0.000000 0.000000 0.045357
#
#
# Mechanical properties :
#
#
# Convention : Reuss Voigt Hill
#
# Bulk Modulus (GPa) = 56.31071 57.84053 57.07562
# Shear Modulus (GPa) = 25.43692 26.78127 26.10910
#
# Velocity S-wave (km/s) = 3.61067 3.70486 3.65807
# Velocity P-wave (km/s) = 6.80023 6.92429 6.86254
#
# Compressibility (1/GPa) = 0.01775861
#
# Stress axis : x y z
#
# Youngs Moduli (GPa) = 95.74336 75.10446 51.09117
#
# Poissons Ratio (x) = 0.12188 0.24104
# Poissons Ratio (y) = 0.15537 0.32935
# Poissons Ratio (z) = 0.45169 0.48415
#
# Static dielectric constant tensor:
#      x y z
#    x 3.567780 0.000000 0.000000 
#    y 0.000000 3.734270 0.000000 
#    z 0.000000 0.000000 3.580140 
# 
# 
# High freq. dielectric constant tensor:
#      x y z
#    x 1.751210 0.000000 0.000000 
#    y 0.000000 1.759790 0.000000 
#    z 0.000000 0.000000 1.757860 
# 
# From -- ./inp_files/7858.got.cif
#   From: 2010.03.12/outbox.cif.g09.slc.cpg/sg35_4_cif.got.tgz:7858.got - 2010.04.14 02:02:04.
