data_PCOD8173298
_publ_section_title
;
Structure prediction by ZEFSAII (Michael W. Deem and Ramdas Pophale) SiO2 
 PCOD8173298
Probable space group: C M M 2
;
_chemical_formula_sum "Si O2"
_cell_formula_units_Z 48
_cell_length_a 17.998466
_cell_length_b 7.815084
_cell_length_c 17.166954
_cell_angle_alpha 90.000000
_cell_angle_beta 90.000000
_cell_angle_gamma 90.000000
_cell_volume 2414.695572
_symmetry_space_group_name_H-M "C M M 2"
_symmetry_group_IT_number 35
_symmetry_cell_setting 'orthorhombic'
loop_
_space_group_symop_operation_xyz
x,y,z
-x,-y,z
-x,y,z
x,-y,z
1/2+x,1/2+y,z
1/2-x,1/2-y,z
1/2-x,1/2+y,z
1/2+x,1/2-y,z
loop_
_atom_site_type_symbol
_atom_site_label
_atom_site_fract_x
_atom_site_fract_y
_atom_site_fract_z
Si Si1 0.165846 0.807109 0.569360
Si Si2 0.088027 0.500000 0.310448
Si Si3 0.335765 0.701574 0.039232
Si Si4 0.668415 0.808859 0.732874
Si Si5 0.088484 0.500000 0.133580
Si Si6 0.084313 0.198198 0.879944
Si Si7 0.412322 0.303660 0.418830
O O1 0.250000 0.750000 0.569385
O O2 0.134378 0.785826 0.657154
O O3 0.118727 0.721385 0.499978
O O4 0.160375 0.000000 0.544742
O O5 0.116962 0.500000 0.222199
O O6 0.116915 0.325401 0.351694
O O7 0.000000 0.500000 0.311770
O O8 0.348762 0.500000 0.059722
O O9 0.250000 0.750000 0.044029
O O10 0.381096 0.824059 0.096759
O O11 0.364277 0.744072 0.952816
O O12 0.750000 0.750000 0.759873
O O13 0.612449 0.798743 0.804718
O O14 0.676918 0.000000 0.703566
O O15 0.000000 0.500000 0.125815
O O16 0.000000 0.253923 0.898951
O O17 0.089402 0.000000 0.859217
O O18 0.500000 0.297910 0.426063
O O19 0.386614 0.500000 0.399957
#
# Coordination Sequence:
#
# PCOD8173298 Si02
#       7
#     8   4   8   8   4   8   8
#     4  10  20  34  55  79 112 152 194 243 296 350
#     4   9  20  38  62  89 119 154 191 243 303 362
#     4  11  23  42  68  94 127 170 208 257 315 381
#     4  11  22  35  54  80 112 157 200 245 296 355
#     4  11  24  42  68  99 128 164 209 263 318 376
#     4  10  22  39  59  86 119 154 200 252 303 357
#     4   9  19  36  59  85 114 152 198 241 292 358
#
# _framework density 19.878283
#
# number of rings (size 3 to 8) (size 9 to 14) (size 15 to 20)
#    0.000    1.833    0.833    4.000    3.500    4.000 
#    0.000    4.167    0.000    0.000    0.000    0.000 
#    0.000    0.000    0.000    0.000    0.000    0.000 
#
# Total GULP energy -297478.789680 kJ/mol
# GULP energy per Si atom -12394.949570 kJ/mol
# Density = 1.983304 g / cm^3
# Si number density = 19.878283 Si / 1000 Ang^3
#
#
#
# Elastic Constant Matrix: (Units=GPa)
#
#
# Indices 1 2 3 4 5 6 
#
# 1 75.4595 32.4166 47.5753 0.0000 0.0000 0.0000
# 2 32.4166 109.8589 65.6719 0.0000 0.0000 0.0000
# 3 47.5753 65.6719 160.4666 0.0000 0.0000 0.0000
# 4 0.0000 0.0000 0.0000 34.5003 0.0000 0.0000
# 5 0.0000 0.0000 0.0000 0.0000 27.8727 0.0000
# 6 0.0000 0.0000 0.0000 0.0000 0.0000 21.5036
#
#
#
# Elastic Compliance Matrix: (Units=1/GPa)
#
#
# Indices 1 2 3 4 5 6 
#
# 1 0.016854 -0.002629 -0.003921 0.000000 0.000000 0.000000
# 2 -0.002629 0.012461 -0.004320 0.000000 0.000000 0.000000
# 3 -0.003921 -0.004320 0.009162 0.000000 0.000000 0.000000
# 4 0.000000 0.000000 0.000000 0.028985 0.000000 0.000000
# 5 0.000000 0.000000 0.000000 0.000000 0.035877 0.000000
# 6 0.000000 0.000000 0.000000 0.000000 0.000000 0.046504
#
#
# Mechanical properties :
#
#
# Convention : Reuss Voigt Hill
#
# Bulk Modulus (GPa) = 59.74992 70.79028 65.27010
# Shear Modulus (GPa) = 28.22268 30.11674 29.16971
#
# Velocity S-wave (km/s) = 3.77208 3.89660 3.83484
# Velocity P-wave (km/s) = 7.00675 7.47889 7.24667
#
# Compressibility (1/GPa) = 0.01673642
#
# Stress axis : x y z
#
# Youngs Moduli (GPa) = 59.33465 80.25063 109.14298
#
# Poissons Ratio (x) = 0.21101 0.42792
# Poissons Ratio (y) = 0.15601 0.47152
# Poissons Ratio (z) = 0.23263 0.34670
#
# Static dielectric constant tensor:
#      x y z
#    x -8.345760 0.000000 0.000000 
#    y 0.000000 3.906450 0.000000 
#    z 0.000000 0.000000 3.747120 
# 
# 
# High freq. dielectric constant tensor:
#      x y z
#    x 1.760970 0.000000 0.000000 
#    y 0.000000 1.787620 0.000000 
#    z 0.000000 0.000000 1.778480 
# 
# From -- ./inp_files/17124.got.cif
#   From: 2010.03.12/outbox.cif.g09.slc.cpg/sg35_9_cif.got.tgz:17124.got - 2010.04.14 02:02:04.
