data_PCOD8173049
_publ_section_title
;
Structure prediction by ZEFSAII (Michael W. Deem and Ramdas Pophale) SiO2 
 PCOD8173049
Probable space group: C M M 2
;
_chemical_formula_sum "Si O2"
_cell_formula_units_Z 56
_cell_length_a 9.173692
_cell_length_b 18.645433
_cell_length_c 18.080902
_cell_angle_alpha 90.000000
_cell_angle_beta 90.000000
_cell_angle_gamma 90.000000
_cell_volume 3092.692353
_symmetry_space_group_name_H-M "C M M 2"
_symmetry_group_IT_number 35
_symmetry_cell_setting 'orthorhombic'
loop_
_space_group_symop_operation_xyz
x,y,z
-x,-y,z
-x,y,z
x,-y,z
1/2+x,1/2+y,z
1/2-x,1/2-y,z
1/2-x,1/2+y,z
1/2+x,1/2-y,z
loop_
_atom_site_type_symbol
_atom_site_label
_atom_site_fract_x
_atom_site_fract_y
_atom_site_fract_z
Si Si1 0.326592 0.326022 0.670700
Si Si2 0.673025 0.174632 0.091390
Si Si3 0.826518 0.079973 0.534048
Si Si4 0.338111 0.585363 0.372613
Si Si5 0.332748 0.915662 0.791266
Si Si6 0.670950 0.081672 0.230994
Si Si7 0.328074 0.920857 0.957969
O O1 0.500000 0.316648 0.672226
O O2 0.250000 0.250000 0.674493
O O3 0.270802 0.365689 0.596563
O O4 0.221401 0.126996 0.740336
O O5 0.500000 0.185179 0.089106
O O6 0.750000 0.250000 0.097698
O O7 0.722776 0.127704 0.161350
O O8 0.733024 0.135339 0.017679
O O9 0.774355 0.108482 0.453164
O O10 0.000000 0.075750 0.533713
O O11 0.763886 0.000000 0.550312
O O12 0.500000 0.616923 0.361231
O O13 0.342556 0.500000 0.371789
O O14 0.239484 0.614736 0.305848
O O15 0.500000 0.893858 0.774111
O O16 0.290788 0.894621 0.875300
O O17 0.311145 0.000000 0.778605
O O18 0.500000 0.085318 0.241442
O O19 0.723011 0.000000 0.217774
O O20 0.500000 0.927358 0.967683
O O21 0.260220 0.000000 0.972304
#
# Coordination Sequence:
#
# PCOD8173049 Si02
#       7
#     8   8   8   8   8   8   8
#     4  11  22  35  51  72 102 137 171 206 246 294
#     4  10  20  33  49  70  98 131 164 197 236 284
#     4   8  15  30  52  74  94 122 162 203 244 294
#     4   8  14  27  49  74  96 120 155 199 245 291
#     4   9  18  34  56  80 103 127 161 205 250 298
#     4   9  17  30  49  72  96 123 159 201 241 283
#     4   8  15  31  55  77  96 124 162 200 239 286
#
# _framework density 18.107199999999999
#
# number of rings (size 3 to 8) (size 9 to 14) (size 15 to 20)
#    0.000    3.000    0.000    3.000    0.000    3.714 
#    0.000    4.286    0.000    9.000    0.000    0.000 
#    0.000    0.000    0.000    0.000    0.000    0.000 
#
# Total GULP energy -347080.010236 kJ/mol
# GULP energy per Si atom -12395.714651 kJ/mol
# Density = 1.806599 g / cm^3
# Si number density = 18.107200 Si / 1000 Ang^3
#
#
#
# Elastic Constant Matrix: (Units=GPa)
#
#
# Indices 1 2 3 4 5 6 
#
# 1 39.2289 35.4660 46.6459 0.0000 0.0000 0.0000
# 2 35.4660 90.2643 77.2405 0.0000 0.0000 0.0000
# 3 46.6459 77.2405 172.7174 0.0000 0.0000 0.0000
# 4 0.0000 0.0000 0.0000 5.8521 0.0000 0.0000
# 5 0.0000 0.0000 0.0000 0.0000 27.4790 0.0000
# 6 0.0000 0.0000 0.0000 0.0000 0.0000 19.8009
#
#
#
# Elastic Compliance Matrix: (Units=1/GPa)
#
#
# Indices 1 2 3 4 5 6 
#
# 1 0.043854 -0.011495 -0.006703 0.000000 0.000000 0.000000
# 2 -0.011495 0.020959 -0.006269 0.000000 0.000000 0.000000
# 3 -0.006703 -0.006269 0.010404 0.000000 0.000000 0.000000
# 4 0.000000 0.000000 0.000000 0.170879 0.000000 0.000000
# 5 0.000000 0.000000 0.000000 0.000000 0.036391 0.000000
# 6 0.000000 0.000000 0.000000 0.000000 0.000000 0.050503
#
#
# Mechanical properties :
#
#
# Convention : Reuss Voigt Hill
#
# Bulk Modulus (GPa) = 38.04663 68.99062 53.51862
# Shear Modulus (GPa) = 12.79804 20.15028 16.47416
#
# Velocity S-wave (km/s) = 2.66144 3.33953 3.01958
# Velocity P-wave (km/s) = 5.52285 7.28381 6.46358
#
# Compressibility (1/GPa) = 0.02628354
#
# Stress axis : x y z
#
# Youngs Moduli (GPa) = 22.80281 47.71148 96.12108
#
# Poissons Ratio (x) = 0.54844 0.64431
# Poissons Ratio (y) = 0.26212 0.60256
# Poissons Ratio (z) = 0.15285 0.29909
#
# Static dielectric constant tensor:
#      x y z
#    x 3.052880 0.000000 0.000000 
#    y 0.000000 3.285390 0.000000 
#    z 0.000000 0.000000 3.775370 
# 
# 
# High freq. dielectric constant tensor:
#      x y z
#    x 1.667540 0.000000 0.000000 
#    y 0.000000 1.682470 0.000000 
#    z 0.000000 0.000000 1.720900 
# 
# From -- ./inp_files/16414.got.cif
#   From: 2010.03.12/outbox.cif.g09.slc.cpg/sg35_9_cif.got.tgz:16414.got - 2010.04.14 02:02:04.
