data_PCOD8173767
_publ_section_title
;
Structure prediction by ZEFSAII (Michael W. Deem and Ramdas Pophale) SiO2 
 PCOD8173767
Probable space group: C M M 2
;
_chemical_formula_sum "Si O2"
_cell_formula_units_Z 64
_cell_length_a 8.699442
_cell_length_b 19.091267
_cell_length_c 20.690528
_cell_angle_alpha 90.000000
_cell_angle_beta 90.000000
_cell_angle_gamma 90.000000
_cell_volume 3436.352617
_symmetry_space_group_name_H-M "C M M 2"
_symmetry_group_IT_number 35
_symmetry_cell_setting 'orthorhombic'
loop_
_space_group_symop_operation_xyz
x,y,z
-x,-y,z
-x,y,z
x,-y,z
1/2+x,1/2+y,z
1/2-x,1/2-y,z
1/2-x,1/2+y,z
1/2+x,1/2-y,z
loop_
_atom_site_type_symbol
_atom_site_label
_atom_site_fract_x
_atom_site_fract_y
_atom_site_fract_z
Si Si1 0.681833 0.675854 0.896040
Si Si2 0.818798 0.418946 0.788473
Si Si3 0.820120 0.419284 0.273209
Si Si4 0.680224 0.825540 0.529996
Si Si5 0.318403 0.173229 0.669550
Si Si6 0.680958 0.823056 0.034463
Si Si7 0.681917 0.173277 0.390870
Si Si8 0.323718 0.582422 0.139757
O O1 0.500000 0.682489 0.898312
O O2 0.750000 0.750000 0.871886
O O3 0.731050 0.613836 0.848885
O O4 0.743734 0.656010 0.966552
O O5 0.773296 0.500000 0.783012
O O6 0.759383 0.380579 0.723595
O O7 0.000000 0.409084 0.798432
O O8 0.783884 0.500000 0.287031
O O9 0.755295 0.377001 0.334730
O O10 0.730133 0.392109 0.210293
O O11 0.000000 0.406507 0.261620
O O12 0.500000 0.817331 0.530608
O O13 0.750000 0.750000 0.528832
O O14 0.731224 0.859640 0.598860
O O15 0.729401 0.860974 0.461373
O O16 0.500000 0.181325 0.673850
O O17 0.250000 0.250000 0.681772
O O18 0.500000 0.815480 0.024859
O O19 0.750000 0.750000 0.059938
O O20 0.717577 0.882637 0.086016
O O21 0.500000 0.179438 0.385826
O O22 0.750000 0.250000 0.381161
O O23 0.500000 0.604463 0.129354
O O24 0.299243 0.500000 0.133077
#
# Coordination Sequence:
#
# PCOD8173767 Si02
#       8
#     8   8   8   8   8   8   8   8
#     4  11  22  38  59  81 106 136 172 211 253 304
#     4  10  21  36  52  74 106 140 174 214 259 305
#     4   9  18  33  50  69  97 134 173 210 252 304
#     4   8  14  26  44  68  96 125 162 206 254 304
#     4   9  17  30  50  73  97 130 170 211 255 306
#     4  11  22  38  60  84 110 137 168 209 256 304
#     4   9  17  29  47  71  98 128 164 210 258 304
#     4  10  21  37  56  78 105 138 176 215 255 304
#
# _framework density 18.624399
#
# number of rings (size 3 to 8) (size 9 to 14) (size 15 to 20)
#    0.000    2.375    0.000    3.750    0.000    4.000 
#    0.000    1.875    0.000    3.750    0.000    0.000 
#    0.000   12.000    0.000    0.000    0.000    0.000 
#
# Total GULP energy -396604.678222 kJ/mol
# GULP energy per Si atom -12393.896194 kJ/mol
# Density = 1.858201 g / cm^3
# Si number density = 18.624399 Si / 1000 Ang^3
#
#
#
# Elastic Constant Matrix: (Units=GPa)
#
#
# Indices 1 2 3 4 5 6 
#
# 1 67.0400 35.7446 44.9638 0.0000 0.0000 0.0000
# 2 35.7446 85.7191 78.0528 0.0000 0.0000 0.0000
# 3 44.9638 78.0528 157.4556 0.0000 0.0000 0.0000
# 4 0.0000 0.0000 0.0000 14.7385 0.0000 0.0000
# 5 0.0000 0.0000 0.0000 0.0000 34.3089 0.0000
# 6 0.0000 0.0000 0.0000 0.0000 0.0000 24.5633
#
#
#
# Elastic Compliance Matrix: (Units=1/GPa)
#
#
# Indices 1 2 3 4 5 6 
#
# 1 0.019861 -0.005683 -0.002855 0.000000 0.000000 0.000000
# 2 -0.005683 0.022890 -0.009724 0.000000 0.000000 0.000000
# 3 -0.002855 -0.009724 0.011987 0.000000 0.000000 0.000000
# 4 0.000000 0.000000 0.000000 0.067849 0.000000 0.000000
# 5 0.000000 0.000000 0.000000 0.000000 0.029147 0.000000
# 6 0.000000 0.000000 0.000000 0.000000 0.000000 0.040711
#
#
# Mechanical properties :
#
#
# Convention : Reuss Voigt Hill
#
# Bulk Modulus (GPa) = 54.90043 69.74857 62.32450
# Shear Modulus (GPa) = 21.27300 24.81905 23.04602
#
# Velocity S-wave (km/s) = 3.38333 3.65445 3.52150
# Velocity P-wave (km/s) = 6.69360 7.43896 7.07610
#
# Compressibility (1/GPa) = 0.01821479
#
# Stress axis : x y z
#
# Youngs Moduli (GPa) = 50.35007 43.68685 83.42651
#
# Poissons Ratio (x) = 0.24826 0.23815
# Poissons Ratio (y) = 0.28612 0.81126
# Poissons Ratio (z) = 0.14373 0.42482
#
# Static dielectric constant tensor:
#      x y z
#    x 2.439490 0.000000 0.000000 
#    y 0.000000 3.232300 0.000000 
#    z 0.000000 0.000000 4.017740 
# 
# 
# High freq. dielectric constant tensor:
#      x y z
#    x 1.720720 0.000000 0.000000 
#    y 0.000000 1.696200 0.000000 
#    z 0.000000 0.000000 1.746480 
# 
# From -- ./inp_files/18441.got.cif
#   From: 2010.03.12/outbox.cif.g09.slc.cpg/sg35_10_cif.got.tgz:18441.got - 2010.04.14 02:02:04.
