data_PCOD8173003
_publ_section_title
;
Structure prediction by ZEFSAII (Michael W. Deem and Ramdas Pophale) SiO2 
 PCOD8173003
Probable space group: C M M 2
;
_chemical_formula_sum "Si O2"
_cell_formula_units_Z 64
_cell_length_a 9.153489
_cell_length_b 18.353351
_cell_length_c 20.559611
_cell_angle_alpha 90.000000
_cell_angle_beta 90.000000
_cell_angle_gamma 90.000000
_cell_volume 3453.957009
_symmetry_space_group_name_H-M "C M M 2"
_symmetry_group_IT_number 35
_symmetry_cell_setting 'orthorhombic'
loop_
_space_group_symop_operation_xyz
x,y,z
-x,-y,z
-x,y,z
x,-y,z
1/2+x,1/2+y,z
1/2-x,1/2-y,z
1/2-x,1/2+y,z
1/2+x,1/2-y,z
loop_
_atom_site_type_symbol
_atom_site_label
_atom_site_fract_x
_atom_site_fract_y
_atom_site_fract_z
Si Si1 0.326897 0.172585 0.146850
Si Si2 0.673359 0.581252 0.646401
Si Si3 0.673528 0.418338 0.790659
Si Si4 0.330162 0.416271 0.401116
Si Si5 0.167621 0.914978 0.037543
Si Si6 0.673226 0.673804 0.526398
Si Si7 0.169790 0.824941 0.909307
Si Si8 0.171458 0.416981 0.272756
O O1 0.500000 0.183215 0.142334
O O2 0.250000 0.250000 0.141689
O O3 0.276091 0.121581 0.088407
O O4 0.278746 0.133934 0.213606
O O5 0.500000 0.578536 0.641406
O O6 0.735085 0.500000 0.633904
O O7 0.721191 0.608238 0.718420
O O8 0.735077 0.635131 0.591468
O O9 0.500000 0.421053 0.796447
O O10 0.734478 0.500000 0.803421
O O11 0.735638 0.362037 0.843948
O O12 0.500000 0.405090 0.387652
O O13 0.290321 0.500000 0.413898
O O14 0.278262 0.373064 0.464366
O O15 0.246435 0.386370 0.337873
O O16 0.000000 0.901677 0.058967
O O17 0.204276 0.000000 0.033349
O O18 0.198089 0.880918 0.967362
O O19 0.500000 0.683772 0.529399
O O20 0.750000 0.750000 0.519717
O O21 0.250000 0.750000 0.924427
O O22 0.000000 0.807144 0.900974
O O23 0.222219 0.500000 0.258272
O O24 0.000000 0.413429 0.283472
#
# Coordination Sequence:
#
# PCOD8173003 Si02
#       8
#     8   8   8   8   8   8   8   8
#     4  11  23  38  56  79 108 139 171 209 254 304
#     4   8  14  27  49  73  95 125 168 212 248 287
#     4   8  14  27  49  74  97 126 168 212 249 289
#     4   9  18  33  53  74  96 127 168 210 247 288
#     4  10  21  37  57  79 103 134 173 216 259 304
#     4  10  20  32  47  71 102 131 162 203 250 298
#     4  10  20  33  50  75 106 136 167 206 252 301
#     4   9  19  36  56  77 101 130 165 206 252 301
#
# _framework density 18.529471999999998
#
# number of rings (size 3 to 8) (size 9 to 14) (size 15 to 20)
#    0.000    2.625    0.000    2.625    0.000    7.750 
#    0.000    3.750    0.000    2.250    0.000    1.750 
#    0.000    0.000    0.000    0.000    0.000    0.000 
#
# Total GULP energy -396782.550006 kJ/mol
# GULP energy per Si atom -12399.454688 kJ/mol
# Density = 1.848730 g / cm^3
# Si number density = 18.529472 Si / 1000 Ang^3
#
#
#
# Elastic Constant Matrix: (Units=GPa)
#
#
# Indices 1 2 3 4 5 6 
#
# 1 35.9516 39.6328 45.9402 0.0000 0.0000 0.0000
# 2 39.6328 123.9732 78.7552 0.0000 0.0000 0.0000
# 3 45.9402 78.7552 154.2234 0.0000 0.0000 0.0000
# 4 0.0000 0.0000 0.0000 11.5016 0.0000 0.0000
# 5 0.0000 0.0000 0.0000 0.0000 9.3799 0.0000
# 6 0.0000 0.0000 0.0000 0.0000 0.0000 23.5400
#
#
#
# Elastic Compliance Matrix: (Units=1/GPa)
#
#
# Indices 1 2 3 4 5 6 
#
# 1 0.052236 -0.010087 -0.010409 0.000000 0.000000 0.000000
# 2 -0.010087 0.013887 -0.004087 0.000000 0.000000 0.000000
# 3 -0.010409 -0.004087 0.011672 0.000000 0.000000 0.000000
# 4 0.000000 0.000000 0.000000 0.086945 0.000000 0.000000
# 5 0.000000 0.000000 0.000000 0.000000 0.106611 0.000000
# 6 0.000000 0.000000 0.000000 0.000000 0.000000 0.042481
#
#
# Mechanical properties :
#
#
# Convention : Reuss Voigt Hill
#
# Bulk Modulus (GPa) = 34.92930 71.42275 53.17602
# Shear Modulus (GPa) = 13.42137 18.87229 16.14683
#
# Velocity S-wave (km/s) = 2.69425 3.19486 2.95517
# Velocity P-wave (km/s) = 5.34511 7.22763 6.35645
#
# Compressibility (1/GPa) = 0.02862926
#
# Stress axis : x y z
#
# Youngs Moduli (GPa) = 19.14385 72.00929 85.67614
#
# Poissons Ratio (x) = 0.72633 0.89183
# Poissons Ratio (y) = 0.19310 0.35015
# Poissons Ratio (z) = 0.19927 0.29430
#
# Static dielectric constant tensor:
#      x y z
#    x 3.088150 0.000000 0.000000 
#    y 0.000000 3.459640 0.000000 
#    z 0.000000 0.000000 3.728970 
# 
# 
# High freq. dielectric constant tensor:
#      x y z
#    x 1.683840 0.000000 0.000000 
#    y 0.000000 1.721200 0.000000 
#    z 0.000000 0.000000 1.736380 
# 
# From -- ./inp_files/18445.got.cif
#   From: 2010.03.12/outbox.cif.g09.slc.cpg/sg35_10_cif.got.tgz:18445.got - 2010.04.14 02:02:04.
