data_PCOD8173022
_publ_section_title
;
Structure prediction by ZEFSAII (Michael W. Deem and Ramdas Pophale) SiO2 
 PCOD8173022
Probable space group: C M M 2
;
_chemical_formula_sum "Si O2"
_cell_formula_units_Z 48
_cell_length_a 8.636151
_cell_length_b 31.374679
_cell_length_c 9.756285
_cell_angle_alpha 90.000000
_cell_angle_beta 90.000000
_cell_angle_gamma 90.000000
_cell_volume 2643.528499
_symmetry_space_group_name_H-M "C M M 2"
_symmetry_group_IT_number 35
_symmetry_cell_setting 'orthorhombic'
loop_
_space_group_symop_operation_xyz
x,y,z
-x,-y,z
-x,y,z
x,-y,z
1/2+x,1/2+y,z
1/2-x,1/2-y,z
1/2-x,1/2+y,z
1/2+x,1/2-y,z
loop_
_atom_site_type_symbol
_atom_site_label
_atom_site_fract_x
_atom_site_fract_y
_atom_site_fract_z
Si Si1 0.683285 0.295098 0.040300
Si Si2 0.678890 0.545881 0.548830
Si Si3 0.682241 0.870090 0.532561
Si Si4 0.316707 0.204888 0.334587
Si Si5 0.681285 0.368249 0.833137
Si Si6 0.319347 0.953633 0.843911
O O1 0.500000 0.291837 0.052576
O O2 0.750000 0.250000 0.989659
O O3 0.751361 0.308062 0.186917
O O4 0.736545 0.330511 0.931895
O O5 0.500000 0.552453 0.589877
O O6 0.699732 0.500000 0.470866
O O7 0.739065 0.587204 0.465754
O O8 0.783326 0.544783 0.683493
O O9 0.500000 0.875551 0.524085
O O10 0.738993 0.830175 0.443482
O O11 0.732415 0.862758 0.688993
O O12 0.500000 0.208236 0.325198
O O13 0.250000 0.250000 0.384447
O O14 0.500000 0.366460 0.806092
O O15 0.725604 0.413467 0.906302
O O16 0.500000 0.945294 0.866089
O O17 0.272151 0.000000 0.908754
#
# Coordination Sequence:
#
# PCOD8173022 Si02
#       6
#     8   8   8   8   8   8
#     4  10  21  36  54  74  96 127 165 201 242 292
#     4   9  16  26  43  68  97 129 162 196 237 284
#     4  10  20  32  49  75 102 129 162 200 243 287
#     4  10  21  36  54  74  96 127 165 201 242 292
#     4  10  20  32  49  75 102 129 162 200 243 287
#     4   9  16  26  43  68  97 129 162 196 237 284
#
# _framework density 18.157547999999998
#
# number of rings (size 3 to 8) (size 9 to 14) (size 15 to 20)
#    0.000    2.333    0.000    6.000    0.000    8.000 
#    0.000    3.333    0.000    1.000    0.000    0.000 
#    0.000    0.000    0.000    0.000    0.000    0.000 
#
# Total GULP energy -297415.644067 kJ/mol
# GULP energy per Si atom -12392.318503 kJ/mol
# Density = 1.811622 g / cm^3
# Si number density = 18.157548 Si / 1000 Ang^3
#
#
#
# Elastic Constant Matrix: (Units=GPa)
#
#
# Indices 1 2 3 4 5 6 
#
# 1 60.3252 51.3018 23.4421 0.0000 0.0000 0.0000
# 2 51.3018 199.1193 76.3280 0.0000 0.0000 0.0000
# 3 23.4421 76.3280 56.5487 0.0000 0.0000 0.0000
# 4 0.0000 0.0000 0.0000 5.1820 0.0000 0.0000
# 5 0.0000 0.0000 0.0000 0.0000 20.4356 0.0000
# 6 0.0000 0.0000 0.0000 0.0000 0.0000 24.5052
#
#
#
# Elastic Compliance Matrix: (Units=1/GPa)
#
#
# Indices 1 2 3 4 5 6 
#
# 1 0.021466 -0.004392 -0.002971 0.000000 0.000000 0.000000
# 2 -0.004392 0.011305 -0.013439 0.000000 0.000000 0.000000
# 3 -0.002971 -0.013439 0.037054 0.000000 0.000000 0.000000
# 4 0.000000 0.000000 0.000000 0.192976 0.000000 0.000000
# 5 0.000000 0.000000 0.000000 0.000000 0.048934 0.000000
# 6 0.000000 0.000000 0.000000 0.000000 0.000000 0.040808
#
#
# Mechanical properties :
#
#
# Convention : Reuss Voigt Hill
#
# Bulk Modulus (GPa) = 35.43176 68.68188 52.05682
# Shear Modulus (GPa) = 12.38991 21.01930 16.70460
#
# Velocity S-wave (km/s) = 2.61503 3.40605 3.03641
# Velocity P-wave (km/s) = 5.35478 7.30588 6.40506
#
# Compressibility (1/GPa) = 0.02822327
#
# Stress axis : x y z
#
# Youngs Moduli (GPa) = 46.58496 88.45613 26.98731
#
# Poissons Ratio (x) = 0.38849 0.08017
# Poissons Ratio (y) = 0.20459 0.36267
# Poissons Ratio (z) = 0.13839 1.18873
#
# Static dielectric constant tensor:
#      x y z
#    x 3.409670 0.000000 0.000000 
#    y 0.000000 4.221460 0.000000 
#    z 0.000000 0.000000 2.950920 
# 
# 
# High freq. dielectric constant tensor:
#      x y z
#    x 1.719660 0.000000 0.000000 
#    y 0.000000 1.732530 0.000000 
#    z 0.000000 0.000000 1.644520 
# 
# From -- ./inp_files/11627.got.cif
#   From: 2010.03.12/outbox.cif.g09.slc.cpg/sg35_6_cif.got.tgz:11627.got - 2010.04.14 02:02:04.
