data_PCOD8173235
_publ_section_title
;
Structure prediction by ZEFSAII (Michael W. Deem and Ramdas Pophale) SiO2 
 PCOD8173235
Probable space group: C M M 2
;
_chemical_formula_sum "Si O2"
_cell_formula_units_Z 64
_cell_length_a 9.253276
_cell_length_b 18.316688
_cell_length_c 20.497220
_cell_angle_alpha 90.000000
_cell_angle_beta 90.000000
_cell_angle_gamma 90.000000
_cell_volume 3474.060894
_symmetry_space_group_name_H-M "C M M 2"
_symmetry_group_IT_number 35
_symmetry_cell_setting 'orthorhombic'
loop_
_space_group_symop_operation_xyz
x,y,z
-x,-y,z
-x,y,z
x,-y,z
1/2+x,1/2+y,z
1/2-x,1/2-y,z
1/2-x,1/2+y,z
1/2+x,1/2-y,z
loop_
_atom_site_type_symbol
_atom_site_label
_atom_site_fract_x
_atom_site_fract_y
_atom_site_fract_z
Si Si1 0.667833 0.174807 0.265820
Si Si2 0.834336 0.414670 0.395613
Si Si3 0.668871 0.175821 0.024784
Si Si4 0.331109 0.583444 0.631518
Si Si5 0.168606 0.676650 0.878662
Si Si6 0.671299 0.327153 0.503958
Si Si7 0.328507 0.081389 0.144805
Si Si8 0.332758 0.084257 0.757431
O O1 0.500000 0.193649 0.257145
O O2 0.750000 0.250000 0.277611
O O3 0.694839 0.121218 0.325945
O O4 0.730476 0.133748 0.202032
O O5 0.799188 0.500000 0.389852
O O6 0.725276 0.379158 0.446605
O O7 0.000000 0.401701 0.417857
O O8 0.500000 0.192149 0.032384
O O9 0.750000 0.250000 0.042187
O O10 0.719733 0.113516 0.074874
O O11 0.706924 0.148565 0.951551
O O12 0.500000 0.586623 0.644800
O O13 0.281432 0.500000 0.617104
O O14 0.286032 0.634058 0.571406
O O15 0.253007 0.616057 0.695435
O O16 0.250000 0.750000 0.861826
O O17 0.220904 0.618525 0.825302
O O18 0.000000 0.692501 0.872711
O O19 0.500000 0.315835 0.497048
O O20 0.750000 0.250000 0.499560
O O21 0.500000 0.076724 0.150279
O O22 0.262457 0.000000 0.151555
O O23 0.500000 0.100345 0.744787
O O24 0.297408 0.000000 0.764621
#
# Coordination Sequence:
#
# PCOD8173235 Si02
#       8
#     8   8   8   8   8   8   8   8
#     4  10  20  34  53  77 105 136 170 209 251 297
#     4  10  21  37  57  80 106 137 172 211 256 305
#     4   9  17  30  49  71  96 129 166 204 247 295
#     4   9  19  36  55  74  98 130 167 206 250 301
#     4   9  18  31  47  70  99 129 163 203 247 295
#     4  11  23  38  56  79 107 137 171 212 256 303
#     4   9  17  30  50  75 100 129 168 210 250 294
#     4   9  18  32  50  72  98 128 163 205 250 295
#
# _framework density 18.422245
#
# number of rings (size 3 to 8) (size 9 to 14) (size 15 to 20)
#    0.000    2.500    0.000    1.875    0.000    6.250 
#    0.000    6.250    0.000    2.250    0.000    3.500 
#    0.000    0.000    0.000    0.000    0.000    0.000 
#
# Total GULP energy -396808.062734 kJ/mol
# GULP energy per Si atom -12400.251960 kJ/mol
# Density = 1.838032 g / cm^3
# Si number density = 18.422245 Si / 1000 Ang^3
#
#
#
# Elastic Constant Matrix: (Units=GPa)
#
#
# Indices 1 2 3 4 5 6 
#
# 1 44.2333 44.3911 48.7602 0.0000 0.0000 0.0000
# 2 44.3911 123.8552 74.3140 0.0000 0.0000 0.0000
# 3 48.7602 74.3140 140.8276 0.0000 0.0000 0.0000
# 4 0.0000 0.0000 0.0000 31.9599 0.0000 0.0000
# 5 0.0000 0.0000 0.0000 0.0000 19.9090 0.0000
# 6 0.0000 0.0000 0.0000 0.0000 0.0000 24.5053
#
#
#
# Elastic Compliance Matrix: (Units=1/GPa)
#
#
# Indices 1 2 3 4 5 6 
#
# 1 0.043036 -0.009488 -0.009894 0.000000 0.000000 0.000000
# 2 -0.009488 0.013907 -0.004053 0.000000 0.000000 0.000000
# 3 -0.009894 -0.004053 0.012665 0.000000 0.000000 0.000000
# 4 0.000000 0.000000 0.000000 0.031289 0.000000 0.000000
# 5 0.000000 0.000000 0.000000 0.000000 0.050229 0.000000
# 6 0.000000 0.000000 0.000000 0.000000 0.000000 0.040807
#
#
# Mechanical properties :
#
#
# Convention : Reuss Voigt Hill
#
# Bulk Modulus (GPa) = 43.98069 71.53852 57.75960
# Shear Modulus (GPa) = 20.29365 24.70489 22.49927
#
# Velocity S-wave (km/s) = 3.32261 3.66599 3.49852
# Velocity P-wave (km/s) = 6.21653 7.53898 6.90947
#
# Compressibility (1/GPa) = 0.02273725
#
# Stress axis : x y z
#
# Youngs Moduli (GPa) = 23.23652 71.90849 78.95502
#
# Poissons Ratio (x) = 0.68227 0.78117
# Poissons Ratio (y) = 0.22047 0.32003
# Poissons Ratio (z) = 0.22990 0.29146
#
# Static dielectric constant tensor:
#      x y z
#    x 3.247000 0.000000 0.000000 
#    y 0.000000 3.528590 0.000000 
#    z 0.000000 0.000000 3.699620 
# 
# 
# High freq. dielectric constant tensor:
#      x y z
#    x 1.694630 0.000000 0.000000 
#    y 0.000000 1.714850 0.000000 
#    z 0.000000 0.000000 1.731130 
# 
# From -- ./inp_files/18687.got.cif
#   From: 2010.03.12/outbox.cif.g09.slc.cpg/sg35_10_cif.got.tgz:18687.got - 2010.04.14 02:02:04.
