data_PCOD8173492
_publ_section_title
;
Structure prediction by ZEFSAII (Michael W. Deem and Ramdas Pophale) SiO2 
 PCOD8173492
Probable space group: C M M 2
;
_chemical_formula_sum "Si O2"
_cell_formula_units_Z 40
_cell_length_a 8.550224
_cell_length_b 15.697068
_cell_length_c 14.279989
_cell_angle_alpha 90.000000
_cell_angle_beta 90.000000
_cell_angle_gamma 90.000000
_cell_volume 1916.566555
_symmetry_space_group_name_H-M "C M M 2"
_symmetry_group_IT_number 35
_symmetry_cell_setting 'orthorhombic'
loop_
_space_group_symop_operation_xyz
x,y,z
-x,-y,z
-x,y,z
x,-y,z
1/2+x,1/2+y,z
1/2-x,1/2-y,z
1/2-x,1/2+y,z
1/2+x,1/2-y,z
loop_
_atom_site_type_symbol
_atom_site_label
_atom_site_fract_x
_atom_site_fract_y
_atom_site_fract_z
Si Si1 0.182502 0.500000 0.612320
Si Si2 0.814511 0.157326 0.500443
Si Si3 0.682551 0.839615 0.921686
Si Si4 0.678350 0.403974 0.099116
Si Si5 0.683174 0.500000 0.815331
Si Si6 0.683322 0.660360 0.292907
O O1 0.254477 0.585497 0.569781
O O2 0.215776 0.500000 0.721774
O O3 0.000000 0.500000 0.592762
O O4 0.750000 0.250000 0.530228
O O5 0.752990 0.132882 0.395392
O O6 0.000000 0.160260 0.506300
O O7 0.500000 0.846098 0.898605
O O8 0.750000 0.750000 0.884399
O O9 0.776020 0.915344 0.872552
O O10 0.711521 0.846315 0.033671
O O11 0.500000 0.370630 0.089949
O O12 0.691975 0.500000 0.062985
O O13 0.731712 0.402468 0.208351
O O14 0.500000 0.500000 0.791797
O O15 0.500000 0.667279 0.303170
O O16 0.750000 0.750000 0.261563
#
# Coordination Sequence:
#
# PCOD8173492 Si02
#       6
#     4   8   8   8   4   8
#     4  12  26  44  67  96 127 162 207 260 318 380
#     4  10  21  40  65  94 129 169 213 261 314 371
#     4  12  25  43  67  96 129 168 210 257 313 374
#     4  10  20  35  58  89 128 171 213 258 309 366
#     4  12  26  48  71  96 125 158 205 262 320 380
#     4   9  19  34  56  85 122 166 211 257 305 362
#
# _framework density 20.870656
#
# number of rings (size 3 to 8) (size 9 to 14) (size 15 to 20)
#    0.000    1.400    1.000    4.800    1.400    4.000 
#    0.000    4.000    0.000    0.000    0.000    0.000 
#    0.000    0.000    0.000    0.000    0.000    0.000 
#
# Total GULP energy -247980.616408 kJ/mol
# GULP energy per Si atom -12399.030820 kJ/mol
# Density = 2.082315 g / cm^3
# Si number density = 20.870656 Si / 1000 Ang^3
#
#
#
# Elastic Constant Matrix: (Units=GPa)
#
#
# Indices 1 2 3 4 5 6 
#
# 1 70.9185 29.6759 14.9756 0.0000 0.0000 0.0000
# 2 29.6759 130.2419 47.4954 0.0000 0.0000 0.0000
# 3 14.9756 47.4954 96.5880 0.0000 0.0000 0.0000
# 4 0.0000 0.0000 0.0000 22.5193 0.0000 0.0000
# 5 0.0000 0.0000 0.0000 0.0000 31.2619 0.0000
# 6 0.0000 0.0000 0.0000 0.0000 0.0000 33.1544
#
#
#
# Elastic Compliance Matrix: (Units=1/GPa)
#
#
# Indices 1 2 3 4 5 6 
#
# 1 0.015640 -0.003265 -0.000820 0.000000 0.000000 0.000000
# 2 -0.003265 0.010037 -0.004429 0.000000 0.000000 0.000000
# 3 -0.000820 -0.004429 0.012658 0.000000 0.000000 0.000000
# 4 0.000000 0.000000 0.000000 0.044406 0.000000 0.000000
# 5 0.000000 0.000000 0.000000 0.000000 0.031988 0.000000
# 6 0.000000 0.000000 0.000000 0.000000 0.000000 0.030162
#
#
# Mechanical properties :
#
#
# Convention : Reuss Voigt Hill
#
# Bulk Modulus (GPa) = 46.93048 53.56024 50.24536
# Shear Modulus (GPa) = 29.58203 31.09389 30.33796
#
# Velocity S-wave (km/s) = 3.76892 3.86403 3.81677
# Velocity P-wave (km/s) = 6.44010 6.75472 6.59928
#
# Compressibility (1/GPa) = 0.02130811
#
# Stress axis : x y z
#
# Youngs Moduli (GPa) = 63.93910 99.62964 78.99885
#
# Poissons Ratio (x) = 0.32526 0.06474
# Poissons Ratio (y) = 0.20874 0.34992
# Poissons Ratio (z) = 0.05240 0.44130
#
# Static dielectric constant tensor:
#      x y z
#    x 3.743860 0.000000 0.000000 
#    y 0.000000 3.735540 0.000000 
#    z 0.000000 0.000000 3.963510 
# 
# 
# High freq. dielectric constant tensor:
#      x y z
#    x 1.814050 0.000000 0.000000 
#    y 0.000000 1.820590 0.000000 
#    z 0.000000 0.000000 1.823110 
# 
# From -- ./inp_files/14778.got.cif
#   From: 2010.03.12/outbox.cif.g09.slc.cpg/sg35_8_cif.got.tgz:14778.got - 2010.04.14 02:02:04.
