data_PCOD8173618
_publ_section_title
;
Structure prediction by ZEFSAII (Michael W. Deem and Ramdas Pophale) SiO2 
 PCOD8173618
Probable space group: C M M 2
;
_chemical_formula_sum "Si O2"
_cell_formula_units_Z 64
_cell_length_a 8.522881
_cell_length_b 30.963408
_cell_length_c 11.879554
_cell_angle_alpha 90.000000
_cell_angle_beta 90.000000
_cell_angle_gamma 90.000000
_cell_volume 3134.983910
_symmetry_space_group_name_H-M "C M M 2"
_symmetry_group_IT_number 35
_symmetry_cell_setting 'orthorhombic'
loop_
_space_group_symop_operation_xyz
x,y,z
-x,-y,z
-x,y,z
x,-y,z
1/2+x,1/2+y,z
1/2-x,1/2-y,z
1/2-x,1/2+y,z
1/2+x,1/2-y,z
loop_
_atom_site_type_symbol
_atom_site_label
_atom_site_fract_x
_atom_site_fract_y
_atom_site_fract_z
Si Si1 0.185118 0.822371 0.092520
Si Si2 0.184156 0.294268 0.862522
Si Si3 0.185787 0.080417 0.093828
Si Si4 0.682730 0.450789 0.853552
Si Si5 0.686595 0.547434 0.329555
Si Si6 0.316196 0.371414 0.470354
Si Si7 0.684269 0.794546 0.328071
Si Si8 0.183635 0.625320 0.714601
O O1 0.251770 0.871038 0.088939
O O2 0.230562 0.800913 0.209503
O O3 0.000000 0.821122 0.077079
O O4 0.261732 0.796129 0.991276
O O5 0.250000 0.250000 0.808071
O O6 0.245669 0.335732 0.793332
O O7 0.000000 0.292756 0.856751
O O8 0.254469 0.057332 0.204865
O O9 0.000000 0.081617 0.103213
O O10 0.238762 0.054748 0.982640
O O11 0.500000 0.438306 0.841466
O O12 0.712656 0.500000 0.816320
O O13 0.785002 0.420222 0.774448
O O14 0.500000 0.547577 0.325968
O O15 0.747886 0.500000 0.367294
O O16 0.745604 0.583587 0.416906
O O17 0.500000 0.364929 0.446328
O O18 0.222148 0.332496 0.414608
O O19 0.284016 0.372531 0.601929
O O20 0.500000 0.791776 0.308863
O O21 0.750000 0.750000 0.380602
O O22 0.000000 0.629609 0.687236
#
# Coordination Sequence:
#
# PCOD8173618 Si02
#       8
#     8   8   8   8   8   8   8   8
#     4  11  20  36  63  93 125 160 199 245 304 362
#     4  11  24  41  62  89 120 157 200 247 305 368
#     4   9  16  30  57  91 124 154 191 243 302 357
#     4  10  20  36  62  94 123 158 205 253 304 365
#     4   9  17  32  58  92 124 153 192 244 298 353
#     4  11  23  41  64  91 121 159 208 258 307 358
#     4  12  25  42  64  91 125 162 203 249 304 365
#     4  11  25  43  61  85 120 163 208 255 312 367
#
# _framework density 20.414777000000001
#
# number of rings (size 3 to 8) (size 9 to 14) (size 15 to 20)
#    0.000    1.500    2.500    3.375    0.000    4.250 
#    0.000    2.500    0.000    1.125    0.000    0.000 
#    0.000    0.000    0.000    0.000    0.000    0.000 
#
# Total GULP energy -396896.449039 kJ/mol
# GULP energy per Si atom -12403.014032 kJ/mol
# Density = 2.036831 g / cm^3
# Si number density = 20.414777 Si / 1000 Ang^3
#
#
#
# Elastic Constant Matrix: (Units=GPa)
#
#
# Indices 1 2 3 4 5 6 
#
# 1 35.7637 21.5576 6.6313 0.0000 0.0000 0.0000
# 2 21.5576 160.2207 45.8206 0.0000 0.0000 0.0000
# 3 6.6313 45.8206 110.8394 0.0000 0.0000 0.0000
# 4 0.0000 0.0000 0.0000 11.3493 0.0000 0.0000
# 5 0.0000 0.0000 0.0000 0.0000 27.3416 0.0000
# 6 0.0000 0.0000 0.0000 0.0000 0.0000 28.0051
#
#
#
# Elastic Compliance Matrix: (Units=1/GPa)
#
#
# Indices 1 2 3 4 5 6 
#
# 1 0.030431 -0.004053 -0.000145 0.000000 0.000000 0.000000
# 2 -0.004053 0.007618 -0.002907 0.000000 0.000000 0.000000
# 3 -0.000145 -0.002907 0.010232 0.000000 0.000000 0.000000
# 4 0.000000 0.000000 0.000000 0.088111 0.000000 0.000000
# 5 0.000000 0.000000 0.000000 0.000000 0.036574 0.000000
# 6 0.000000 0.000000 0.000000 0.000000 0.000000 0.035708
#
#
# Mechanical properties :
#
#
# Convention : Reuss Voigt Hill
#
# Bulk Modulus (GPa) = 29.34974 50.53810 39.94392
# Shear Modulus (GPa) = 21.34540 28.86013 25.10277
#
# Velocity S-wave (km/s) = 3.23706 3.76398 3.51042
# Velocity P-wave (km/s) = 5.32723 6.61056 6.00328
#
# Compressibility (1/GPa) = 0.03407185
#
# Stress axis : x y z
#
# Youngs Moduli (GPa) = 32.86089 131.26785 97.72881
#
# Poissons Ratio (x) = 0.53203 0.01419
# Poissons Ratio (y) = 0.13319 0.28408
# Poissons Ratio (z) = 0.00477 0.38157
#
# Static dielectric constant tensor:
#      x y z
#    x 3.395410 0.000000 0.000000 
#    y 0.000000 4.147810 0.000000 
#    z 0.000000 0.000000 3.685230 
# 
# 
# High freq. dielectric constant tensor:
#      x y z
#    x 1.773160 0.000000 0.000000 
#    y 0.000000 1.817440 0.000000 
#    z 0.000000 0.000000 1.794080 
# 
# From -- ./inp_files/11886.got.cif
#   From: 2010.03.12/outbox.cif.g09.slc.cpg/sg35_6_cif.got.tgz:11886.got - 2010.04.14 02:02:04.
