data_PCOD8173386
_publ_section_title
;
Structure prediction by ZEFSAII (Michael W. Deem and Ramdas Pophale) SiO2 
 PCOD8173386
Probable space group: C M M 2
;
_chemical_formula_sum "Si O2"
_cell_formula_units_Z 56
_cell_length_a 19.143560
_cell_length_b 8.712957
_cell_length_c 17.795394
_cell_angle_alpha 90.000000
_cell_angle_beta 90.000000
_cell_angle_gamma 90.000000
_cell_volume 2968.218602
_symmetry_space_group_name_H-M "C M M 2"
_symmetry_group_IT_number 35
_symmetry_cell_setting 'orthorhombic'
loop_
_space_group_symop_operation_xyz
x,y,z
-x,-y,z
-x,y,z
x,-y,z
1/2+x,1/2+y,z
1/2-x,1/2-y,z
1/2-x,1/2+y,z
1/2+x,1/2-y,z
loop_
_atom_site_type_symbol
_atom_site_label
_atom_site_fract_x
_atom_site_fract_y
_atom_site_fract_z
Si Si1 0.173462 0.181049 0.713080
Si Si2 0.417952 0.675150 0.014544
Si Si3 0.922504 0.817812 0.846104
Si Si4 0.580626 0.178690 0.585997
Si Si5 0.675035 0.681680 0.292690
Si Si6 0.324448 0.820296 0.136636
Si Si7 0.080409 0.823662 0.430096
O O1 0.250000 0.250000 0.709192
O O2 0.133062 0.247693 0.786245
O O3 0.129742 0.223940 0.639847
O O4 0.180450 0.000000 0.717744
O O5 0.500000 0.689589 0.028637
O O6 0.393366 0.500000 0.027626
O O7 0.378933 0.787606 0.070885
O O8 0.399304 0.729906 0.929994
O O9 0.000000 0.751297 0.827970
O O10 0.926410 0.000000 0.841208
O O11 0.500000 0.223926 0.601191
O O12 0.601459 0.219987 0.500955
O O13 0.593928 0.000000 0.599810
O O14 0.679790 0.500000 0.285932
O O15 0.750000 0.750000 0.312375
O O16 0.646839 0.747661 0.213924
O O17 0.623311 0.734373 0.358409
O O18 0.250000 0.750000 0.114360
O O19 0.315439 0.000000 0.148129
O O20 0.000000 0.801801 0.408857
O O21 0.097506 0.000000 0.449886
#
# Coordination Sequence:
#
# PCOD8173386 Si02
#       7
#     8   8   8   8   8   8   8
#     4  11  22  36  55  80 111 143 179 222 266 315
#     4   9  18  35  58  82 109 140 176 219 267 319
#     4   8  16  33  57  81 104 137 179 219 264 319
#     4  10  21  37  57  81 109 141 178 220 267 318
#     4  10  20  35  55  78 105 139 178 219 266 318
#     4  11  22  36  54  77 108 144 183 223 266 318
#     4   9  19  36  57  80 105 137 178 219 261 313
#
# _framework density 18.866534999999999
#
# number of rings (size 3 to 8) (size 9 to 14) (size 15 to 20)
#    0.000    2.286    0.000    4.714    0.000    4.571 
#    0.000    5.714    0.000    1.714    0.000    0.000 
#    0.000    0.000    0.000    0.000    0.000    0.000 
#
# Total GULP energy -347243.698412 kJ/mol
# GULP energy per Si atom -12401.560658 kJ/mol
# Density = 1.882359 g / cm^3
# Si number density = 18.866535 Si / 1000 Ang^3
#
#
#
# Elastic Constant Matrix: (Units=GPa)
#
#
# Indices 1 2 3 4 5 6 
#
# 1 96.3302 35.3661 82.6321 0.0000 0.0000 0.0000
# 2 35.3661 72.7459 40.1643 0.0000 0.0000 0.0000
# 3 82.6321 40.1643 141.1726 0.0000 0.0000 0.0000
# 4 0.0000 0.0000 0.0000 24.6547 0.0000 0.0000
# 5 0.0000 0.0000 0.0000 0.0000 17.0068 0.0000
# 6 0.0000 0.0000 0.0000 0.0000 0.0000 25.3923
#
#
#
# Elastic Compliance Matrix: (Units=1/GPa)
#
#
# Indices 1 2 3 4 5 6 
#
# 1 0.021896 -0.004234 -0.011612 0.000000 0.000000 0.000000
# 2 -0.004234 0.017127 -0.002394 0.000000 0.000000 0.000000
# 3 -0.011612 -0.002394 0.014561 0.000000 0.000000 0.000000
# 4 0.000000 0.000000 0.000000 0.040560 0.000000 0.000000
# 5 0.000000 0.000000 0.000000 0.000000 0.058800 0.000000
# 6 0.000000 0.000000 0.000000 0.000000 0.000000 0.039382
#
#
# Mechanical properties :
#
#
# Convention : Reuss Voigt Hill
#
# Bulk Modulus (GPa) = 58.46568 69.61931 64.04250
# Shear Modulus (GPa) = 21.32126 23.54983 22.43554
#
# Velocity S-wave (km/s) = 3.36536 3.53687 3.45218
# Velocity P-wave (km/s) = 6.79391 7.32532 7.06461
#
# Compressibility (1/GPa) = 0.01710405
#
# Stress axis : x y z
#
# Youngs Moduli (GPa) = 45.67072 58.38789 68.67471
#
# Poissons Ratio (x) = 0.24721 0.79743
# Poissons Ratio (y) = 0.19336 0.16444
# Poissons Ratio (z) = 0.53031 0.13981
#
# Static dielectric constant tensor:
#      x y z
#    x 3.558760 0.000000 0.000000 
#    y 0.000000 3.323120 0.000000 
#    z 0.000000 0.000000 3.621190 
# 
# 
# High freq. dielectric constant tensor:
#      x y z
#    x 1.729430 0.000000 0.000000 
#    y 0.000000 1.723840 0.000000 
#    z 0.000000 0.000000 1.744150 
# 
# From -- ./inp_files/17421.got.cif
#   From: 2010.03.12/outbox.cif.g09.slc.cpg/sg35_9_cif.got.tgz:17421.got - 2010.04.14 02:02:04.
