data_PCOD8173352
_publ_section_title
;
Structure prediction by ZEFSAII (Michael W. Deem and Ramdas Pophale) SiO2 
 PCOD8173352
Probable space group: C M M 2
;
_chemical_formula_sum "Si O2"
_cell_formula_units_Z 56
_cell_length_a 10.024034
_cell_length_b 18.226845
_cell_length_c 15.076519
_cell_angle_alpha 90.000000
_cell_angle_beta 90.000000
_cell_angle_gamma 90.000000
_cell_volume 2754.578230
_symmetry_space_group_name_H-M "C M M 2"
_symmetry_group_IT_number 35
_symmetry_cell_setting 'orthorhombic'
loop_
_space_group_symop_operation_xyz
x,y,z
-x,-y,z
-x,y,z
x,-y,z
1/2+x,1/2+y,z
1/2-x,1/2-y,z
1/2-x,1/2+y,z
1/2+x,1/2-y,z
loop_
_atom_site_type_symbol
_atom_site_label
_atom_site_fract_x
_atom_site_fract_y
_atom_site_fract_z
Si Si1 0.349804 0.587240 0.280730
Si Si2 0.000000 0.412248 0.760125
Si Si3 0.643467 0.688655 0.621540
Si Si4 0.351588 0.415683 0.976658
Si Si5 0.737452 0.663577 0.809688
Si Si6 0.275310 0.413428 0.476607
Si Si7 0.500000 0.913808 0.558001
Si Si8 0.653200 0.912691 0.129136
O O1 0.500000 0.615458 0.257715
O O2 0.348645 0.500000 0.276954
O O3 0.309134 0.614589 0.378371
O O4 0.237685 0.618068 0.213069
O O5 0.876583 0.378963 0.813273
O O6 0.000000 0.500000 0.767038
O O7 0.000000 0.382786 0.658436
O O8 0.500000 0.728402 0.628430
O O9 0.750000 0.750000 0.596476
O O10 0.673003 0.647969 0.714053
O O11 0.630174 0.626702 0.546512
O O12 0.500000 0.407908 0.020066
O O13 0.323205 0.500000 0.952623
O O14 0.353477 0.368538 0.887259
O O15 0.235878 0.386605 0.042713
O O16 0.750000 0.750000 0.824670
O O17 0.297915 0.500000 0.485247
O O18 0.126336 0.387937 0.501553
O O19 0.500000 0.000000 0.567850
O O20 0.500000 0.882009 0.128640
O O21 0.648606 0.000000 0.133192
#
# Coordination Sequence:
#
# PCOD8173352 Si02
#       8
#     8   4   8   8   8   8   4   8
#     4   9  17  30  51  80 114 148 187 239 298 352
#     4  11  22  40  62  89 124 170 212 259 311 366
#     4  11  25  40  59  82 118 159 201 245 297 360
#     4  10  21  38  59  83 114 150 192 241 298 358
#     4  11  25  38  62  85 121 155 205 249 307 362
#     4  10  20  34  57  86 117 152 197 247 297 350
#     4   9  18  32  52  83 117 154 198 247 298 346
#     4   9  18  32  52  82 115 148 188 237 294 357
#
# _framework density 20.329792000000001
#
# number of rings (size 3 to 8) (size 9 to 14) (size 15 to 20)
#    0.000    2.000    1.429    1.714    8.000    3.143 
#    0.000    0.000    0.000    0.857    0.000    2.000 
#    0.000    0.000    0.000    0.000    0.000    0.000 
#
# Total GULP energy -347103.870811 kJ/mol
# GULP energy per Si atom -12396.566815 kJ/mol
# Density = 2.028352 g / cm^3
# Si number density = 20.329792 Si / 1000 Ang^3
#
#
#
# Elastic Constant Matrix: (Units=GPa)
#
#
# Indices 1 2 3 4 5 6 
#
# 1 163.3285 32.0361 51.8711 0.0000 0.0000 0.0000
# 2 32.0361 55.5413 37.9998 0.0000 0.0000 0.0000
# 3 51.8711 37.9998 138.8366 0.0000 0.0000 0.0000
# 4 0.0000 0.0000 0.0000 -35.1310 0.0000 0.0000
# 5 0.0000 0.0000 0.0000 0.0000 34.1048 0.0000
# 6 0.0000 0.0000 0.0000 0.0000 0.0000 13.1860
#
#
#
# Elastic Compliance Matrix: (Units=1/GPa)
#
#
# Indices 1 2 3 4 5 6 
#
# 1 0.007305 -0.002887 -0.001939 0.000000 0.000000 0.000000
# 2 -0.002887 0.023294 -0.005297 0.000000 0.000000 0.000000
# 3 -0.001939 -0.005297 0.009377 0.000000 0.000000 0.000000
# 4 0.000000 0.000000 0.000000 -0.028465 0.000000 0.000000
# 5 0.000000 0.000000 0.000000 0.000000 0.029321 0.000000
# 6 0.000000 0.000000 0.000000 0.000000 0.000000 0.075838
#
#
# Mechanical properties :
#
#
# Convention : Reuss Voigt Hill
#
# Bulk Modulus (GPa) = 50.68453 66.83558 58.76005
# Shear Modulus (GPa) = 34.84515 18.15192 26.49853
#
# Velocity S-wave (km/s) = 4.14453 2.99134 3.61423
# Velocity P-wave (km/s) = 6.92013 6.69909 6.81051
#
# Compressibility (1/GPa) = 0.01972989
#
# Stress axis : x y z
#
# Youngs Moduli (GPa) = 136.89915 42.93000 106.64441
#
# Poissons Ratio (x) = 0.12393 0.20679
# Poissons Ratio (y) = 0.39518 0.56490
# Poissons Ratio (z) = 0.26545 0.22740
#
# Static dielectric constant tensor:
#      x y z
#    x 3.977470 0.000000 0.000000 
#    y 0.000000 3.196710 0.000000 
#    z 0.000000 0.000000 3.747840 
# 
# 
# High freq. dielectric constant tensor:
#      x y z
#    x 1.814340 0.000000 0.000000 
#    y 0.000000 1.747630 0.000000 
#    z 0.000000 0.000000 1.794330 
# 
# From -- ./inp_files/15799.got.cif
#   From: 2010.03.12/outbox.cif.g09.slc.cpg/sg35_8_cif.got.tgz:15799.got - 2010.04.14 02:02:04.
