data_PCOD8173372
_publ_section_title
;
Structure prediction by ZEFSAII (Michael W. Deem and Ramdas Pophale) SiO2 
 PCOD8173372
Probable space group: C M M 2
;
_chemical_formula_sum "Si O2"
_cell_formula_units_Z 48
_cell_length_a 34.622106
_cell_length_b 9.083387
_cell_length_c 8.032835
_cell_angle_alpha 90.000000
_cell_angle_beta 90.000000
_cell_angle_gamma 90.000000
_cell_volume 2526.214048
_symmetry_space_group_name_H-M "C M M 2"
_symmetry_group_IT_number 35
_symmetry_cell_setting 'orthorhombic'
loop_
_space_group_symop_operation_xyz
x,y,z
-x,-y,z
-x,y,z
x,-y,z
1/2+x,1/2+y,z
1/2-x,1/2-y,z
1/2-x,1/2+y,z
1/2+x,1/2-y,z
loop_
_atom_site_type_symbol
_atom_site_label
_atom_site_fract_x
_atom_site_fract_y
_atom_site_fract_z
Si Si1 0.079050 0.327594 0.969160
Si Si2 0.843436 0.825735 0.956227
Si Si3 0.500000 0.663690 0.504985
Si Si4 0.075966 0.164245 0.293558
Si Si5 0.338809 0.332749 0.333364
Si Si6 0.291154 0.675340 0.646061
Si Si7 0.500000 0.829035 0.823605
O O1 0.083361 0.500000 0.933114
O O2 0.116230 0.244789 0.894801
O O3 0.039447 0.259675 0.894916
O O4 0.075826 0.296122 0.163657
O O5 0.812020 0.778648 0.818919
O O6 0.849312 0.000000 0.962187
O O7 0.832671 0.766842 0.144491
O O8 0.500000 0.500000 0.586039
O O9 0.538797 0.686353 0.403820
O O10 0.500000 0.797570 0.630134
O O11 0.116465 0.180368 0.392594
O O12 0.075235 0.000000 0.210881
O O13 0.325248 0.500000 0.322308
O O14 0.313378 0.260394 0.481751
O O15 0.287369 0.500000 0.637648
O O16 0.250000 0.750000 0.649360
O O17 0.500000 0.000000 0.864206
#
# Coordination Sequence:
#
# PCOD8173372 Si02
#       7
#     8   8   4   8   8   8   4
#     4  10  20  35  54  76 105 145 185 221 268 325
#     4   9  19  36  58  80 106 143 180 224 277 317
#     4  10  21  32  52  82 106 138 187 232 264 312
#     4   9  18  34  54  78 105 135 179 230 272 314
#     4   8  16  33  54  76 105 137 172 213 265 325
#     4  10  21  36  56  80 108 141 173 216 275 329
#     4  10  23  36  46  72 114 150 177 218 274 324
#
# _framework density 19.000765999999999
#
# number of rings (size 3 to 8) (size 9 to 14) (size 15 to 20)
#    0.000    2.667    0.000    2.000    2.333    3.333 
#    0.000    3.333    0.000    0.000    0.000    0.000 
#    0.000    0.000    0.000    0.000    0.000    0.000 
#
# Total GULP energy -297326.574299 kJ/mol
# GULP energy per Si atom -12388.607262 kJ/mol
# Density = 1.895752 g / cm^3
# Si number density = 19.000766 Si / 1000 Ang^3
#
#
#
# Elastic Constant Matrix: (Units=GPa)
#
#
# Indices 1 2 3 4 5 6 
#
# 1 178.9532 33.7899 90.3784 0.0000 0.0000 0.0000
# 2 33.7899 23.3562 20.7619 0.0000 0.0000 0.0000
# 3 90.3784 20.7619 116.3841 0.0000 0.0000 0.0000
# 4 0.0000 0.0000 0.0000 21.9554 0.0000 0.0000
# 5 0.0000 0.0000 0.0000 0.0000 -20.5530 0.0000
# 6 0.0000 0.0000 0.0000 0.0000 0.0000 28.3836
#
#
#
# Elastic Compliance Matrix: (Units=1/GPa)
#
#
# Indices 1 2 3 4 5 6 
#
# 1 0.010766 -0.009678 -0.006634 0.000000 0.000000 0.000000
# 2 -0.009678 0.059585 -0.003114 0.000000 0.000000 0.000000
# 3 -0.006634 -0.003114 0.014299 0.000000 0.000000 0.000000
# 4 0.000000 0.000000 0.000000 0.045547 0.000000 0.000000
# 5 0.000000 0.000000 0.000000 0.000000 -0.048655 0.000000
# 6 0.000000 0.000000 0.000000 0.000000 0.000000 0.035232
#
#
# Mechanical properties :
#
#
# Convention : Reuss Voigt Hill
#
# Bulk Modulus (GPa) = 21.83483 67.61710 44.72597
# Shear Modulus (GPa) = 29.25847 17.54143 23.39995
#
# Velocity S-wave (km/s) = 3.92836 3.04171 3.51312
# Velocity P-wave (km/s) = 5.66502 6.92819 6.32820
#
# Compressibility (1/GPa) = 0.04579838
#
# Stress axis : x y z
#
# Youngs Moduli (GPa) = 92.88717 16.78281 69.93448
#
# Poissons Ratio (x) = 0.16243 0.46392
# Poissons Ratio (y) = 0.89898 0.21776
# Poissons Ratio (z) = 0.61618 0.05226
#
# Static dielectric constant tensor:
#      x y z
#    x 21.837420 0.000000 0.000000 
#    y 0.000000 3.191640 0.000000 
#    z 0.000000 0.000000 3.585100 
# 
# 
# High freq. dielectric constant tensor:
#      x y z
#    x 1.750920 0.000000 0.000000 
#    y 0.000000 1.708670 0.000000 
#    z 0.000000 0.000000 1.731980 
# 
# From -- ./inp_files/5416.got.cif
#   From: 2010.03.12/outbox.cif.g09.slc.cpg/sg35_3_cif.got.tgz:5416.got - 2010.04.14 02:02:04.
