data_PCOD8173676
_publ_section_title
;
Structure prediction by ZEFSAII (Michael W. Deem and Ramdas Pophale) SiO2 
 PCOD8173676
Probable space group: C M M 2
;
_chemical_formula_sum "Si O2"
_cell_formula_units_Z 32
_cell_length_a 9.927647
_cell_length_b 14.566274
_cell_length_c 10.761963
_cell_angle_alpha 90.000000
_cell_angle_beta 90.000000
_cell_angle_gamma 90.000000
_cell_volume 1556.274839
_symmetry_space_group_name_H-M "C M M 2"
_symmetry_group_IT_number 35
_symmetry_cell_setting 'orthorhombic'
loop_
_space_group_symop_operation_xyz
x,y,z
-x,-y,z
-x,y,z
x,-y,z
1/2+x,1/2+y,z
1/2-x,1/2-y,z
1/2-x,1/2+y,z
1/2+x,1/2-y,z
loop_
_atom_site_type_symbol
_atom_site_label
_atom_site_fract_x
_atom_site_fract_y
_atom_site_fract_z
Si Si1 0.743257 0.141788 0.522070
Si Si2 0.164026 0.657296 0.255078
Si Si3 0.000000 0.500000 0.883883
Si Si4 0.500000 0.500000 0.899809
Si Si5 0.000000 0.865304 0.672494
Si Si6 0.500000 0.147787 0.685684
Si Si7 0.737532 0.000000 0.067287
O O1 0.750000 0.250000 0.512723
O O2 0.710429 0.107135 0.383051
O O3 0.626938 0.109704 0.612401
O O4 0.877409 0.102395 0.585037
O O5 0.250000 0.750000 0.236491
O O6 0.212434 0.591077 0.146606
O O7 0.000000 0.674111 0.254276
O O8 0.000000 0.597278 0.815297
O O9 0.866407 0.500000 0.959043
O O10 0.500000 0.412166 0.807904
O O11 0.378812 0.500000 0.997197
O O12 0.000000 0.757332 0.702249
#
# Coordination Sequence:
#
# PCOD8173676 Si02
#       7
#     8   8   2   2   4   4   4
#     4   9  19  37  66  97 128 157 207 271 335 404
#     4  11  24  44  72 101 133 174 219 278 343 398
#     4  12  24  40  64  88 124 182 226 264 318 388
#     4  12  28  44  62  94 134 184 234 272 316 390
#     4  10  22  41  63  95 133 164 211 272 334 394
#     4  10  20  37  63  93 123 166 209 268 332 388
#     4  12  28  46  63  93 139 175 238 280 309 393
#
# _framework density 20.561919
#
# number of rings (size 3 to 8) (size 9 to 14) (size 15 to 20)
#    0.000    1.500    2.500    1.500    7.000    4.000 
#    0.000    0.000    0.000    0.000    0.000    0.000 
#    0.000    0.000    0.000    0.000    0.000    0.000 
#
# Total GULP energy -198251.145545 kJ/mol
# GULP energy per Si atom -12390.696597 kJ/mol
# Density = 2.051512 g / cm^3
# Si number density = 20.561919 Si / 1000 Ang^3
#
#
#
# Elastic Constant Matrix: (Units=GPa)
#
#
# Indices 1 2 3 4 5 6 
#
# 1 214.7148 49.9063 100.6192 0.0000 0.0000 0.0000
# 2 49.9063 101.5534 65.9337 0.0000 0.0000 0.0000
# 3 100.6192 65.9337 177.5562 0.0000 0.0000 0.0000
# 4 0.0000 0.0000 0.0000 58.8675 0.0000 0.0000
# 5 0.0000 0.0000 0.0000 0.0000 51.1901 0.0000
# 6 0.0000 0.0000 0.0000 0.0000 0.0000 -139.3309
#
#
#
# Elastic Compliance Matrix: (Units=1/GPa)
#
#
# Indices 1 2 3 4 5 6 
#
# 1 0.006425 -0.001046 -0.003252 0.000000 0.000000 0.000000
# 2 -0.001046 0.013145 -0.004289 0.000000 0.000000 0.000000
# 3 -0.003252 -0.004289 0.009068 0.000000 0.000000 0.000000
# 4 0.000000 0.000000 0.000000 0.016987 0.000000 0.000000
# 5 0.000000 0.000000 0.000000 0.000000 0.019535 0.000000
# 6 0.000000 0.000000 0.000000 0.000000 0.000000 -0.007177
#
#
# Mechanical properties :
#
#
# Convention : Reuss Voigt Hill
#
# Bulk Modulus (GPa) = 87.23025 102.97144 95.10084
# Shear Modulus (GPa) = 63.30869 12.63634 37.97252
#
# Velocity S-wave (km/s) = 5.55483 2.48170 4.30203
# Velocity P-wave (km/s) = 9.14641 7.64194 8.42781
#
# Compressibility (1/GPa) = 0.01146391
#
# Stress axis : x y z
#
# Youngs Moduli (GPa) = 155.65378 76.07195 110.28020
#
# Poissons Ratio (x) = 0.07954 0.35868
# Poissons Ratio (y) = 0.16274 0.47299
# Poissons Ratio (z) = 0.50626 0.32627
#
# Static dielectric constant tensor:
#      x y z
#    x 4.305560 0.000000 0.000000 
#    y 0.000000 3.609570 0.000000 
#    z 0.000000 0.000000 3.996930 
# 
# 
# High freq. dielectric constant tensor:
#      x y z
#    x 1.825260 0.000000 0.000000 
#    y 0.000000 1.803290 0.000000 
#    z 0.000000 0.000000 1.815670 
# 
# From -- ./inp_files/6768.got.cif
#   From: 2010.03.12/outbox.cif.g09.slc.cpg/sg35_4_cif.got.tgz:6768.got - 2010.04.14 02:02:04.
