data_PCOD8173409
_publ_section_title
;
Structure prediction by ZEFSAII (Michael W. Deem and Ramdas Pophale) SiO2 
 PCOD8173409
Probable space group: C M M 2
;
_chemical_formula_sum "Si O2"
_cell_formula_units_Z 56
_cell_length_a 20.831167
_cell_length_b 9.133695
_cell_length_c 14.572071
_cell_angle_alpha 90.000000
_cell_angle_beta 90.000000
_cell_angle_gamma 90.000000
_cell_volume 2772.562752
_symmetry_space_group_name_H-M "C M M 2"
_symmetry_group_IT_number 35
_symmetry_cell_setting 'orthorhombic'
loop_
_space_group_symop_operation_xyz
x,y,z
-x,-y,z
-x,y,z
x,-y,z
1/2+x,1/2+y,z
1/2-x,1/2-y,z
1/2-x,1/2+y,z
1/2+x,1/2-y,z
loop_
_atom_site_type_symbol
_atom_site_label
_atom_site_fract_x
_atom_site_fract_y
_atom_site_fract_z
Si Si1 0.686958 0.331667 0.674030
Si Si2 0.376985 0.667272 0.856562
Si Si3 0.571769 0.326924 0.548459
Si Si4 0.812287 0.673445 0.226581
Si Si5 0.500000 0.160849 0.848523
Si Si6 0.072689 0.330711 0.360635
Si Si7 0.500000 0.834885 0.065526
Si Si8 0.871243 0.826006 0.064683
O O1 0.696655 0.500000 0.649187
O O2 0.750000 0.250000 0.638496
O O3 0.680239 0.308752 0.783999
O O4 0.623678 0.270585 0.622551
O O5 0.399993 0.500000 0.859429
O O6 0.436711 0.756263 0.816063
O O7 0.355633 0.715412 0.958601
O O8 0.500000 0.276221 0.578979
O O9 0.574260 0.500000 0.538962
O O10 0.589707 0.260758 0.450440
O O11 0.802059 0.500000 0.217517
O O12 0.750000 0.750000 0.273469
O O13 0.876092 0.713512 0.283325
O O14 0.817525 0.747982 0.126158
O O15 0.500000 0.000000 0.804260
O O16 0.500000 0.151502 0.957345
O O17 0.079679 0.500000 0.386648
O O18 0.000000 0.296398 0.325485
O O19 0.561583 0.743747 0.097351
O O20 0.500000 0.000000 0.109363
O O21 0.872124 0.000000 0.080432
#
# Coordination Sequence:
#
# PCOD8173409 Si02
#       8
#     8   8   8   8   4   8   4   8
#     4  10  22  38  57  83 116 155 194 235 286 341
#     4   9  19  35  55  78 112 157 196 236 285 339
#     4   9  19  37  62  89 113 144 187 233 284 343
#     4  11  24  40  59  84 117 157 195 238 293 351
#     4   9  17  29  49  79 108 139 186 241 287 330
#     4   9  20  40  64  88 113 146 186 232 292 350
#     4   9  17  31  51  77 110 147 188 235 291 342
#     4  10  20  35  55  83 115 151 200 246 288 339
#
# _framework density 20.197918999999999
#
# number of rings (size 3 to 8) (size 9 to 14) (size 15 to 20)
#    0.000    2.429    0.000    1.286    2.000    5.714 
#    0.000    4.286    0.000    0.000    0.000    0.000 
#    0.000    0.000    0.000    0.000    0.000    0.000 
#
# Total GULP energy -347149.419885 kJ/mol
# GULP energy per Si atom -12398.193567 kJ/mol
# Density = 2.015195 g / cm^3
# Si number density = 20.197919 Si / 1000 Ang^3
#
#
#
# Elastic Constant Matrix: (Units=GPa)
#
#
# Indices 1 2 3 4 5 6 
#
# 1 132.5673 51.6090 62.8864 0.0000 0.0000 0.0000
# 2 51.6090 73.8228 35.9935 0.0000 0.0000 0.0000
# 3 62.8864 35.9935 90.4357 0.0000 0.0000 0.0000
# 4 0.0000 0.0000 0.0000 26.8545 0.0000 0.0000
# 5 0.0000 0.0000 0.0000 0.0000 22.8473 0.0000
# 6 0.0000 0.0000 0.0000 0.0000 0.0000 36.2693
#
#
#
# Elastic Compliance Matrix: (Units=1/GPa)
#
#
# Indices 1 2 3 4 5 6 
#
# 1 0.012993 -0.005805 -0.006725 0.000000 0.000000 0.000000
# 2 -0.005805 0.019401 -0.003685 0.000000 0.000000 0.000000
# 3 -0.006725 -0.003685 0.017201 0.000000 0.000000 0.000000
# 4 0.000000 0.000000 0.000000 0.037238 0.000000 0.000000
# 5 0.000000 0.000000 0.000000 0.000000 0.043769 0.000000
# 6 0.000000 0.000000 0.000000 0.000000 0.000000 0.027572
#
#
# Mechanical properties :
#
#
# Convention : Reuss Voigt Hill
#
# Bulk Modulus (GPa) = 58.25740 66.42264 62.34002
# Shear Modulus (GPa) = 25.46818 26.95000 26.20909
#
# Velocity S-wave (km/s) = 3.55481 3.65676 3.60615
# Velocity P-wave (km/s) = 6.76423 7.12647 6.94771
#
# Compressibility (1/GPa) = 0.01716520
#
# Stress axis : x y z
#
# Youngs Moduli (GPa) = 76.96337 51.54460 58.13781
#
# Poissons Ratio (x) = 0.29920 0.39097
# Poissons Ratio (y) = 0.44675 0.21424
# Poissons Ratio (z) = 0.51757 0.18995
#
# Static dielectric constant tensor:
#      x y z
#    x 3.719420 0.000000 0.000000 
#    y 0.000000 3.669870 0.000000 
#    z 0.000000 0.000000 3.535670 
# 
# 
# High freq. dielectric constant tensor:
#      x y z
#    x 1.787570 0.000000 0.000000 
#    y 0.000000 1.786280 0.000000 
#    z 0.000000 0.000000 1.777710 
# 
# From -- ./inp_files/15692.got.cif
#   From: 2010.03.12/outbox.cif.g09.slc.cpg/sg35_8_cif.got.tgz:15692.got - 2010.04.14 02:02:04.
