data_PCOD8173384
_publ_section_title
;
Structure prediction by ZEFSAII (Michael W. Deem and Ramdas Pophale) SiO2 
 PCOD8173384
Probable space group: C M M 2
;
_chemical_formula_sum "Si O2"
_cell_formula_units_Z 64
_cell_length_a 8.830046
_cell_length_b 19.213506
_cell_length_c 20.431409
_cell_angle_alpha 90.000000
_cell_angle_beta 90.000000
_cell_angle_gamma 90.000000
_cell_volume 3466.314023
_symmetry_space_group_name_H-M "C M M 2"
_symmetry_group_IT_number 35
_symmetry_cell_setting 'orthorhombic'
loop_
_space_group_symop_operation_xyz
x,y,z
-x,-y,z
-x,y,z
x,-y,z
1/2+x,1/2+y,z
1/2-x,1/2-y,z
1/2-x,1/2+y,z
1/2+x,1/2-y,z
loop_
_atom_site_type_symbol
_atom_site_label
_atom_site_fract_x
_atom_site_fract_y
_atom_site_fract_z
Si Si1 0.820866 0.322733 0.311680
Si Si2 0.174360 0.419680 0.574074
Si Si3 0.677594 0.674811 0.945640
Si Si4 0.823274 0.824922 0.089481
Si Si5 0.821086 0.326305 0.817204
Si Si6 0.675489 0.418691 0.708004
Si Si7 0.322162 0.820888 0.459880
Si Si8 0.320894 0.420031 0.207445
O O1 0.750000 0.250000 0.286683
O O2 0.768567 0.337998 0.386133
O O3 0.759306 0.386790 0.269955
O O4 0.000000 0.317513 0.304312
O O5 0.197135 0.500000 0.558322
O O6 0.276337 0.396156 0.635134
O O7 0.231897 0.380895 0.509052
O O8 0.000000 0.402069 0.590436
O O9 0.500000 0.678844 0.930929
O O10 0.750000 0.750000 0.948284
O O11 0.758615 0.636843 0.884266
O O12 0.710753 0.641896 0.017291
O O13 0.750000 0.750000 0.101120
O O14 0.763491 0.880169 0.142404
O O15 0.000000 0.812044 0.097530
O O16 0.750000 0.250000 0.807255
O O17 0.776702 0.375621 0.757842
O O18 0.000000 0.318940 0.820924
O O19 0.500000 0.400759 0.718445
O O20 0.709158 0.500000 0.719080
O O21 0.500000 0.811706 0.461126
O O22 0.250000 0.750000 0.485611
O O23 0.500000 0.413398 0.215909
O O24 0.269981 0.500000 0.201625
#
# Coordination Sequence:
#
# PCOD8173384 Si02
#       8
#     8   8   8   8   8   8   8   8
#     4  10  20  35  55  78 104 136 175 214 256 307
#     4   9  18  34  54  74  99 134 173 210 252 303
#     4   9  16  29  49  74 102 131 168 212 258 306
#     4   9  18  32  52  75  99 132 172 212 256 308
#     4  11  21  34  54  79 107 137 172 214 259 306
#     4  10  21  37  55  76 104 138 176 215 255 304
#     4   9  19  34  53  77 104 133 165 208 257 305
#     4  10  21  36  52  74 106 140 174 214 259 305
#
# _framework density 18.463415999999999
#
# number of rings (size 3 to 8) (size 9 to 14) (size 15 to 20)
#    0.000    2.375    0.000    3.375    0.000    5.000 
#    0.000    3.125    0.000    3.750    0.000    0.000 
#    0.000    0.000    0.000    0.000    0.000    0.000 
#
# Total GULP energy -396727.770826 kJ/mol
# GULP energy per Si atom -12397.742838 kJ/mol
# Density = 1.842139 g / cm^3
# Si number density = 18.463416 Si / 1000 Ang^3
#
#
#
# Elastic Constant Matrix: (Units=GPa)
#
#
# Indices 1 2 3 4 5 6 
#
# 1 76.2840 39.9037 48.7902 0.0000 0.0000 0.0000
# 2 39.9037 95.6221 74.7853 0.0000 0.0000 0.0000
# 3 48.7902 74.7853 139.4570 0.0000 0.0000 0.0000
# 4 0.0000 0.0000 0.0000 20.9129 0.0000 0.0000
# 5 0.0000 0.0000 0.0000 0.0000 30.4150 0.0000
# 6 0.0000 0.0000 0.0000 0.0000 0.0000 26.5028
#
#
#
# Elastic Compliance Matrix: (Units=1/GPa)
#
#
# Indices 1 2 3 4 5 6 
#
# 1 0.017917 -0.004434 -0.003891 0.000000 0.000000 0.000000
# 2 -0.004434 0.019110 -0.008696 0.000000 0.000000 0.000000
# 3 -0.003891 -0.008696 0.013195 0.000000 0.000000 0.000000
# 4 0.000000 0.000000 0.000000 0.047817 0.000000 0.000000
# 5 0.000000 0.000000 0.000000 0.000000 0.032878 0.000000
# 6 0.000000 0.000000 0.000000 0.000000 0.000000 0.037732
#
#
# Mechanical properties :
#
#
# Convention : Reuss Voigt Hill
#
# Bulk Modulus (GPa) = 61.80592 70.92462 66.36527
# Shear Modulus (GPa) = 24.02869 25.42506 24.72688
#
# Velocity S-wave (km/s) = 3.61144 3.71489 3.66353
# Velocity P-wave (km/s) = 7.13705 7.54304 7.34285
#
# Compressibility (1/GPa) = 0.01617968
#
# Stress axis : x y z
#
# Youngs Moduli (GPa) = 55.81409 52.32966 75.78413
#
# Poissons Ratio (x) = 0.23203 0.29484
# Poissons Ratio (y) = 0.24748 0.65905
# Poissons Ratio (z) = 0.21715 0.45508
#
# Static dielectric constant tensor:
#      x y z
#    x 3.414560 0.000000 0.000000 
#    y 0.000000 3.212170 0.000000 
#    z 0.000000 0.000000 4.034440 
# 
# 
# High freq. dielectric constant tensor:
#      x y z
#    x 1.718910 0.000000 0.000000 
#    y 0.000000 1.691940 0.000000 
#    z 0.000000 0.000000 1.734110 
# 
# From -- ./inp_files/18429.got.cif
#   From: 2010.03.12/outbox.cif.g09.slc.cpg/sg35_10_cif.got.tgz:18429.got - 2010.04.14 02:02:04.
