data_PCOD8173842
_publ_section_title
;
Structure prediction by ZEFSAII (Michael W. Deem and Ramdas Pophale) SiO2 
 PCOD8173842
Probable space group: C M M 2
;
_chemical_formula_sum "Si O2"
_cell_formula_units_Z 48
_cell_length_a 16.991336
_cell_length_b 9.961354
_cell_length_c 14.268801
_cell_angle_alpha 90.000000
_cell_angle_beta 90.000000
_cell_angle_gamma 90.000000
_cell_volume 2415.090353
_symmetry_space_group_name_H-M "C M M 2"
_symmetry_group_IT_number 35
_symmetry_cell_setting 'orthorhombic'
loop_
_space_group_symop_operation_xyz
x,y,z
-x,-y,z
-x,y,z
x,-y,z
1/2+x,1/2+y,z
1/2-x,1/2-y,z
1/2-x,1/2+y,z
1/2+x,1/2-y,z
loop_
_atom_site_type_symbol
_atom_site_label
_atom_site_fract_x
_atom_site_fract_y
_atom_site_fract_z
Si Si1 0.367315 0.500000 0.180681
Si Si2 0.172627 0.657598 0.459495
Si Si3 0.144664 0.000000 0.965649
Si Si4 0.155648 0.256788 0.858410
Si Si5 0.588747 0.769778 0.281834
Si Si6 0.831859 0.500000 0.978579
Si Si7 0.323792 0.845792 0.666301
Si Si8 0.680768 0.000000 0.187251
O O1 0.403387 0.374404 0.234628
O O2 0.274084 0.500000 0.187222
O O3 0.392624 0.500000 0.070346
O O4 0.190878 0.500000 0.432870
O O5 0.250000 0.750000 0.451350
O O6 0.107780 0.726233 0.392567
O O7 0.134793 0.661266 0.564473
O O8 0.116528 0.874584 0.903183
O O9 0.238016 0.000000 0.974027
O O10 0.250000 0.250000 0.851100
O O11 0.130325 0.371982 0.929601
O O12 0.123181 0.290054 0.753249
O O13 0.500000 0.822123 0.267247
O O14 0.652833 0.865991 0.236548
O O15 0.858183 0.500000 0.085385
O O16 0.250000 0.750000 0.657403
O O17 0.298382 0.000000 0.689051
#
# Coordination Sequence:
#
# PCOD8173842 Si02
#       8
#     4   8   4   8   8   4   8   4
#     4  11  23  41  60  85 116 158 197 239 288 345
#     4  10  21  37  58  85 116 153 194 240 292 350
#     4   9  18  29  48  75 110 144 187 223 280 331
#     4   9  15  25  42  72 111 146 173 221 283 333
#     4  12  25  40  58  85 116 152 195 244 299 349
#     4   9  16  27  46  75 106 142 175 231 276 333
#     4   9  17  28  46  75 112 150 182 226 284 342
#     4  11  21  37  62  85 114 150 197 241 288 343
#
# _framework density 19.875032999999998
#
# number of rings (size 3 to 8) (size 9 to 14) (size 15 to 20)
#    0.000    2.000    1.667    3.000    4.667    2.667 
#    0.000    0.000    0.000    0.000    0.000    7.000 
#    0.000    0.000    0.000    0.000    0.000    0.000 
#
# Total GULP energy -297385.396549 kJ/mol
# GULP energy per Si atom -12391.058190 kJ/mol
# Density = 1.982980 g / cm^3
# Si number density = 19.875033 Si / 1000 Ang^3
#
#
#
# Elastic Constant Matrix: (Units=GPa)
#
#
# Indices 1 2 3 4 5 6 
#
# 1 43.3168 6.9283 19.5011 0.0000 0.0000 0.0000
# 2 6.9283 142.0343 64.3487 0.0000 0.0000 0.0000
# 3 19.5011 64.3487 172.0870 0.0000 0.0000 0.0000
# 4 0.0000 0.0000 0.0000 45.9385 0.0000 0.0000
# 5 0.0000 0.0000 0.0000 0.0000 0.4088 0.0000
# 6 0.0000 0.0000 0.0000 0.0000 0.0000 11.0685
#
#
#
# Elastic Compliance Matrix: (Units=1/GPa)
#
#
# Indices 1 2 3 4 5 6 
#
# 1 0.024327 0.000075 -0.002785 0.000000 0.000000 0.000000
# 2 0.000075 0.008477 -0.003178 0.000000 0.000000 0.000000
# 3 -0.002785 -0.003178 0.007315 0.000000 0.000000 0.000000
# 4 0.000000 0.000000 0.000000 0.021768 0.000000 0.000000
# 5 0.000000 0.000000 0.000000 0.000000 2.446425 0.000000
# 6 0.000000 0.000000 0.000000 0.000000 0.000000 0.090346
#
#
# Mechanical properties :
#
#
# Convention : Reuss Voigt Hill
#
# Bulk Modulus (GPa) = 35.28190 59.88824 47.58507
# Shear Modulus (GPa) = 1.90848 29.26049 15.58449
#
# Velocity S-wave (km/s) = 0.98098 3.84112 2.80326
# Velocity P-wave (km/s) = 4.36732 7.06187 5.87127
#
# Compressibility (1/GPa) = 0.02834314
#
# Stress axis : x y z
#
# Youngs Moduli (GPa) = 41.10576 117.96912 136.70468
#
# Poissons Ratio (x) = -0.00885 0.38070
# Poissons Ratio (y) = -0.00308 0.43448
# Poissons Ratio (z) = 0.11447 0.37493
#
# Static dielectric constant tensor:
#      x y z
#    x 2.929990 0.000000 0.000000 
#    y 0.000000 3.726640 0.000000 
#    z 0.000000 0.000000 4.401710 
# 
# 
# High freq. dielectric constant tensor:
#      x y z
#    x 1.702480 0.000000 0.000000 
#    y 0.000000 1.792080 0.000000 
#    z 0.000000 0.000000 1.806220 
# 
# From -- ./inp_files/15360.got.cif
#   From: 2010.03.12/outbox.cif.g09.slc.cpg/sg35_8_cif.got.tgz:15360.got - 2010.04.14 02:02:04.
