data_PCOD8173571
_publ_section_title
;
Structure prediction by ZEFSAII (Michael W. Deem and Ramdas Pophale) SiO2 
 PCOD8173571
Probable space group: C M M 2
;
_chemical_formula_sum "Si O2"
_cell_formula_units_Z 56
_cell_length_a 21.613433
_cell_length_b 8.819405
_cell_length_c 14.604292
_cell_angle_alpha 90.000000
_cell_angle_beta 90.000000
_cell_angle_gamma 90.000000
_cell_volume 2783.835369
_symmetry_space_group_name_H-M "C M M 2"
_symmetry_group_IT_number 35
_symmetry_cell_setting 'orthorhombic'
loop_
_space_group_symop_operation_xyz
x,y,z
-x,-y,z
-x,y,z
x,-y,z
1/2+x,1/2+y,z
1/2-x,1/2-y,z
1/2-x,1/2+y,z
1/2+x,1/2-y,z
loop_
_atom_site_type_symbol
_atom_site_label
_atom_site_fract_x
_atom_site_fract_y
_atom_site_fract_z
Si Si1 0.000000 0.176844 0.713470
Si Si2 0.684553 0.820611 0.303330
Si Si3 0.366996 0.827317 0.494433
Si Si4 0.929235 0.327812 0.004631
Si Si5 0.884553 0.321771 0.810876
Si Si6 0.687761 0.321976 0.661827
Si Si7 0.500000 0.168967 0.526756
Si Si8 0.428937 0.322143 0.193379
O O1 0.940693 0.247266 0.759039
O O2 0.000000 0.207055 0.605961
O O3 0.000000 0.000000 0.732195
O O4 0.750000 0.750000 0.269104
O O5 0.675569 0.775509 0.409795
O O6 0.624164 0.760699 0.250709
O O7 0.687643 0.000000 0.289165
O O8 0.361412 0.720390 0.583297
O O9 0.439012 0.812162 0.463603
O O10 0.350776 0.000000 0.522161
O O11 0.915493 0.500000 0.036732
O O12 0.885711 0.282247 0.918893
O O13 0.000000 0.313644 0.970841
O O14 0.915320 0.214518 0.087290
O O15 0.886836 0.500000 0.795918
O O16 0.824468 0.252163 0.761565
O O17 0.691700 0.500000 0.673946
O O18 0.750000 0.250000 0.622597
O O19 0.500000 0.000000 0.571510
O O20 0.500000 0.269514 0.217733
O O21 0.422260 0.500000 0.209570
#
# Coordination Sequence:
#
# PCOD8173571 Si02
#       8
#     4   8   8   8   8   8   4   8
#     4  12  22  32  52  87 120 155 196 237 288 342
#     4  11  24  42  66  92 121 161 208 255 306 371
#     4  10  22  39  62  89 120 159 200 247 301 360
#     4   9  18  35  60  89 119 156 198 241 295 359
#     4  11  21  37  59  85 119 158 197 243 294 347
#     4  12  25  40  58  82 115 158 205 251 299 357
#     4  10  20  36  58  85 122 161 198 243 300 358
#     4  10  22  40  63  94 128 160 197 253 315 368
#
# _framework density 20.116133000000001
#
# number of rings (size 3 to 8) (size 9 to 14) (size 15 to 20)
#    0.000    1.429    2.143    3.643    1.000    4.286 
#    0.000    0.714    0.000    3.429    0.000    0.000 
#    0.000    0.000    0.000    0.000    0.000    0.000 
#
# Total GULP energy -347114.642907 kJ/mol
# GULP energy per Si atom -12396.951532 kJ/mol
# Density = 2.007035 g / cm^3
# Si number density = 20.116133 Si / 1000 Ang^3
#
#
#
# Elastic Constant Matrix: (Units=GPa)
#
#
# Indices 1 2 3 4 5 6 
#
# 1 112.5734 46.9433 44.9998 0.0000 0.0000 0.0000
# 2 46.9433 113.4666 49.7263 0.0000 0.0000 0.0000
# 3 44.9998 49.7263 92.3802 0.0000 0.0000 0.0000
# 4 0.0000 0.0000 0.0000 23.7637 0.0000 0.0000
# 5 0.0000 0.0000 0.0000 0.0000 29.4354 0.0000
# 6 0.0000 0.0000 0.0000 0.0000 0.0000 29.8672
#
#
#
# Elastic Compliance Matrix: (Units=1/GPa)
#
#
# Indices 1 2 3 4 5 6 
#
# 1 0.011807 -0.003094 -0.004086 0.000000 0.000000 0.000000
# 2 -0.003094 0.012345 -0.005138 0.000000 0.000000 0.000000
# 3 -0.004086 -0.005138 0.015581 0.000000 0.000000 0.000000
# 4 0.000000 0.000000 0.000000 0.042081 0.000000 0.000000
# 5 0.000000 0.000000 0.000000 0.000000 0.033973 0.000000
# 6 0.000000 0.000000 0.000000 0.000000 0.000000 0.033481
#
#
# Mechanical properties :
#
#
# Convention : Reuss Voigt Hill
#
# Bulk Modulus (GPa) = 66.23877 66.86211 66.55044
# Shear Modulus (GPa) = 27.94317 28.39665 28.16991
#
# Velocity S-wave (km/s) = 3.73110 3.76125 3.74620
# Velocity P-wave (km/s) = 7.18061 7.22308 7.20187
#
# Compressibility (1/GPa) = 0.01509690
#
# Stress axis : x y z
#
# Youngs Moduli (GPa) = 84.69908 81.00529 64.18240
#
# Poissons Ratio (x) = 0.25063 0.26223
# Poissons Ratio (y) = 0.26206 0.32976
# Poissons Ratio (z) = 0.34605 0.41619
#
# Static dielectric constant tensor:
#      x y z
#    x 3.692890 0.000000 0.000000 
#    y 0.000000 3.620220 0.000000 
#    z 0.000000 0.000000 3.567790 
# 
# 
# High freq. dielectric constant tensor:
#      x y z
#    x 1.785440 0.000000 0.000000 
#    y 0.000000 1.787590 0.000000 
#    z 0.000000 0.000000 1.774620 
# 
# From -- ./inp_files/17443.got.cif
#   From: 2010.03.12/outbox.cif.g09.slc.cpg/sg35_9_cif.got.tgz:17443.got - 2010.04.14 02:02:04.
