data_PCOD8173756
_publ_section_title
;
Structure prediction by ZEFSAII (Michael W. Deem and Ramdas Pophale) SiO2 
 PCOD8173756
Probable space group: C M M 2
;
_chemical_formula_sum "Si O2"
_cell_formula_units_Z 64
_cell_length_a 29.480992
_cell_length_b 8.722582
_cell_length_c 12.173916
_cell_angle_alpha 90.000000
_cell_angle_beta 90.000000
_cell_angle_gamma 90.000000
_cell_volume 3130.527006
_symmetry_space_group_name_H-M "C M M 2"
_symmetry_group_IT_number 35
_symmetry_cell_setting 'orthorhombic'
loop_
_space_group_symop_operation_xyz
x,y,z
-x,-y,z
-x,y,z
x,-y,z
1/2+x,1/2+y,z
1/2-x,1/2-y,z
1/2-x,1/2+y,z
1/2+x,1/2-y,z
loop_
_atom_site_type_symbol
_atom_site_label
_atom_site_fract_x
_atom_site_fract_y
_atom_site_fract_z
Si Si1 0.949878 0.819983 0.852740
Si Si2 0.295931 0.320419 0.471999
Si Si3 0.549108 0.819677 0.383811
Si Si4 0.068493 0.170537 0.610384
Si Si5 0.642354 0.178267 0.910820
Si Si6 0.800135 0.819261 0.103344
Si Si7 0.357092 0.819142 0.299440
Si Si8 0.166481 0.169341 0.693417
O O1 0.950460 0.764393 0.726198
O O2 0.910051 0.734134 0.919486
O O3 0.000000 0.785564 0.903621
O O4 0.938235 0.000000 0.856496
O O5 0.299815 0.500000 0.442603
O O6 0.250000 0.250000 0.422733
O O7 0.336180 0.224676 0.416675
O O8 0.294860 0.292294 0.604203
O O9 0.500000 0.763657 0.337142
O O10 0.552413 0.773685 0.510759
O O11 0.590341 0.760527 0.306708
O O12 0.552086 0.000000 0.383262
O O13 0.122456 0.168379 0.616593
O O14 0.049359 0.000000 0.590088
O O15 0.663241 0.206680 0.789916
O O16 0.643789 0.000000 0.938792
O O17 0.674536 0.266676 0.993947
O O18 0.750000 0.750000 0.111281
O O19 0.830996 0.770765 0.205207
O O20 0.794717 0.000000 0.102462
O O21 0.353525 0.000000 0.277012
O O22 0.173488 0.000000 0.746421
#
# Coordination Sequence:
#
# PCOD8173756 Si02
#       8
#     8   8   8   8   8   8   8   8
#     4   9  18  34  56  85 124 169 212 253 300 355
#     4  11  22  37  58  86 120 158 200 244 299 363
#     4  10  21  35  54  84 122 161 199 244 297 351
#     4   9  16  30  52  80 116 161 207 248 290 342
#     4  11  23  39  62  92 125 159 202 252 308 365
#     4  12  26  47  72  93 116 150 200 254 310 369
#     4  11  23  41  63  88 122 158 200 250 304 361
#     4   9  19  36  56  81 121 165 203 246 299 356
#
# _framework density 20.443843000000001
#
# number of rings (size 3 to 8) (size 9 to 14) (size 15 to 20)
#    0.000    1.750    1.250    4.500    0.000    5.000 
#    0.000    1.875    0.000    2.250    0.000    0.000 
#    0.000    0.000    0.000    0.000    0.000    0.000 
#
# Total GULP energy -396641.881063 kJ/mol
# GULP energy per Si atom -12395.058783 kJ/mol
# Density = 2.039731 g / cm^3
# Si number density = 20.443843 Si / 1000 Ang^3
#
#
#
# Elastic Constant Matrix: (Units=GPa)
#
#
# Indices 1 2 3 4 5 6 
#
# 1 158.4392 55.3952 56.0952 0.0000 0.0000 0.0000
# 2 55.3952 93.3322 35.1490 0.0000 0.0000 0.0000
# 3 56.0952 35.1490 79.6354 0.0000 0.0000 0.0000
# 4 0.0000 0.0000 0.0000 29.0227 0.0000 0.0000
# 5 0.0000 0.0000 0.0000 0.0000 20.8421 0.0000
# 6 0.0000 0.0000 0.0000 0.0000 0.0000 19.0903
#
#
#
# Elastic Compliance Matrix: (Units=1/GPa)
#
#
# Indices 1 2 3 4 5 6 
#
# 1 0.009358 -0.003684 -0.004965 0.000000 0.000000 0.000000
# 2 -0.003684 0.014301 -0.003717 0.000000 0.000000 0.000000
# 3 -0.004965 -0.003717 0.017696 0.000000 0.000000 0.000000
# 4 0.000000 0.000000 0.000000 0.034456 0.000000 0.000000
# 5 0.000000 0.000000 0.000000 0.000000 0.047980 0.000000
# 6 0.000000 0.000000 0.000000 0.000000 0.000000 0.052383
#
#
# Mechanical properties :
#
#
# Convention : Reuss Voigt Hill
#
# Bulk Modulus (GPa) = 60.16500 69.40952 64.78726
# Shear Modulus (GPa) = 24.21946 26.10884 25.16415
#
# Velocity S-wave (km/s) = 3.44566 3.57753 3.51221
# Velocity P-wave (km/s) = 6.73226 7.14773 6.94310
#
# Compressibility (1/GPa) = 0.01662096
#
# Stress axis : x y z
#
# Youngs Moduli (GPa) = 106.86455 69.92618 56.51151
#
# Poissons Ratio (x) = 0.25761 0.28061
# Poissons Ratio (y) = 0.39369 0.21005
# Poissons Ratio (z) = 0.53064 0.25992
#
# Static dielectric constant tensor:
#      x y z
#    x 4.208110 0.000000 0.000000 
#    y 0.000000 3.616770 0.000000 
#    z 0.000000 0.000000 3.478380 
# 
# 
# High freq. dielectric constant tensor:
#      x y z
#    x 1.815940 0.000000 0.000000 
#    y 0.000000 1.792470 0.000000 
#    z 0.000000 0.000000 1.776060 
# 
# From -- ./inp_files/14563.got.cif
#   From: 2010.03.12/outbox.cif.g09.slc.cpg/sg35_8_cif.got.tgz:14563.got - 2010.04.14 02:02:04.
