data_PCOD8173454
_publ_section_title
;
Structure prediction by ZEFSAII (Michael W. Deem and Ramdas Pophale) SiO2 
 PCOD8173454
Probable space group: C M M 2
;
_chemical_formula_sum "Si O2"
_cell_formula_units_Z 64
_cell_length_a 8.981347
_cell_length_b 19.071476
_cell_length_c 20.526359
_cell_angle_alpha 90.000000
_cell_angle_beta 90.000000
_cell_angle_gamma 90.000000
_cell_volume 3515.909615
_symmetry_space_group_name_H-M "C M M 2"
_symmetry_group_IT_number 35
_symmetry_cell_setting 'orthorhombic'
loop_
_space_group_symop_operation_xyz
x,y,z
-x,-y,z
-x,y,z
x,-y,z
1/2+x,1/2+y,z
1/2-x,1/2-y,z
1/2-x,1/2+y,z
1/2+x,1/2-y,z
loop_
_atom_site_type_symbol
_atom_site_label
_atom_site_fract_x
_atom_site_fract_y
_atom_site_fract_z
Si Si1 0.825146 0.920219 0.008960
Si Si2 0.325135 0.418083 0.372378
Si Si3 0.824533 0.177737 0.894155
Si Si4 0.177096 0.673668 0.261796
Si Si5 0.673579 0.580974 0.631943
Si Si6 0.325102 0.322122 0.748188
Si Si7 0.675146 0.079864 0.140155
Si Si8 0.667155 0.083112 0.503698
O O1 0.748399 0.890819 0.074113
O O2 0.000000 0.911418 0.018243
O O3 0.777434 0.000000 0.997784
O O4 0.766990 0.879611 0.945390
O O5 0.500000 0.403286 0.366668
O O6 0.288617 0.500000 0.359686
O O7 0.235626 0.370810 0.322214
O O8 0.269824 0.393840 0.443453
O O9 0.750000 0.250000 0.914445
O O10 0.776249 0.154864 0.821135
O O11 0.000000 0.187338 0.898523
O O12 0.250000 0.750000 0.260302
O O13 0.226621 0.631171 0.197659
O O14 0.000000 0.681232 0.267045
O O15 0.500000 0.592887 0.618289
O O16 0.711349 0.500000 0.642449
O O17 0.727746 0.618971 0.697598
O O18 0.762058 0.612891 0.570338
O O19 0.500000 0.310676 0.745003
O O20 0.250000 0.250000 0.727381
O O21 0.500000 0.081666 0.131083
O O22 0.729002 0.000000 0.155163
O O23 0.500000 0.113017 0.495041
O O24 0.664403 0.000000 0.507998
#
# Coordination Sequence:
#
# PCOD8173454 Si02
#       8
#     8   8   8   8   8   8   8   8
#     4   9  18  32  51  75 101 128 162 207 252 294
#     4  10  20  35  57  82 106 135 172 212 254 304
#     4   9  18  32  49  70  97 130 167 204 246 297
#     4  11  23  38  55  77 107 139 172 212 257 304
#     4   9  17  30  49  73  99 127 163 208 254 298
#     4   9  18  32  49  69  96 131 167 204 247 297
#     4   9  19  36  56  76 100 133 170 206 248 301
#     4   9  17  30  50  76 104 133 166 206 252 301
#
# _framework density 18.202970000000001
#
# number of rings (size 3 to 8) (size 9 to 14) (size 15 to 20)
#    0.000    2.625    0.000    1.500    0.000    5.750 
#    0.000    6.875    0.000    1.500    0.000    7.000 
#    0.000    0.000    0.000    0.000    0.000    0.000 
#
# Total GULP energy -396788.141559 kJ/mol
# GULP energy per Si atom -12399.629424 kJ/mol
# Density = 1.816154 g / cm^3
# Si number density = 18.202970 Si / 1000 Ang^3
#
#
#
# Elastic Constant Matrix: (Units=GPa)
#
#
# Indices 1 2 3 4 5 6 
#
# 1 51.6517 37.5626 48.6291 0.0000 0.0000 0.0000
# 2 37.5626 87.9446 80.5654 0.0000 0.0000 0.0000
# 3 48.6291 80.5654 161.5380 0.0000 0.0000 0.0000
# 4 0.0000 0.0000 0.0000 7.9356 0.0000 0.0000
# 5 0.0000 0.0000 0.0000 0.0000 31.9056 0.0000
# 6 0.0000 0.0000 0.0000 0.0000 0.0000 25.9363
#
#
#
# Elastic Compliance Matrix: (Units=1/GPa)
#
#
# Indices 1 2 3 4 5 6 
#
# 1 0.030027 -0.008367 -0.004866 0.000000 0.000000 0.000000
# 2 -0.008367 0.023268 -0.009086 0.000000 0.000000 0.000000
# 3 -0.004866 -0.009086 0.012187 0.000000 0.000000 0.000000
# 4 0.000000 0.000000 0.000000 0.126014 0.000000 0.000000
# 5 0.000000 0.000000 0.000000 0.000000 0.031343 0.000000
# 6 0.000000 0.000000 0.000000 0.000000 0.000000 0.038556
#
#
# Mechanical properties :
#
#
# Convention : Reuss Voigt Hill
#
# Bulk Modulus (GPa) = 47.97694 70.51650 59.24672
# Shear Modulus (GPa) = 15.97547 22.11398 19.04472
#
# Velocity S-wave (km/s) = 2.96570 3.48926 3.23808
# Velocity P-wave (km/s) = 6.17584 7.42000 6.82632
#
# Compressibility (1/GPa) = 0.02084335
#
# Stress axis : x y z
#
# Youngs Moduli (GPa) = 33.30382 42.97756 82.05535
#
# Poissons Ratio (x) = 0.35959 0.39930
# Poissons Ratio (y) = 0.27865 0.74554
# Poissons Ratio (z) = 0.16206 0.39049
#
# Static dielectric constant tensor:
#      x y z
#    x 3.349940 0.000000 0.000000 
#    y 0.000000 2.737660 0.000000 
#    z 0.000000 0.000000 3.656880 
# 
# 
# High freq. dielectric constant tensor:
#      x y z
#    x 1.704300 0.000000 0.000000 
#    y 0.000000 1.684720 0.000000 
#    z 0.000000 0.000000 1.719780 
# 
# From -- ./inp_files/18424.got.cif
#   From: 2010.03.12/outbox.cif.g09.slc.cpg/sg35_10_cif.got.tgz:18424.got - 2010.04.14 02:02:04.
