data_PCOD8173547
_publ_section_title
;
Structure prediction by ZEFSAII (Michael W. Deem and Ramdas Pophale) SiO2 
 PCOD8173547
Probable space group: C M M 2
;
_chemical_formula_sum "Si O2"
_cell_formula_units_Z 64
_cell_length_a 24.268479
_cell_length_b 13.709768
_cell_length_c 9.604692
_cell_angle_alpha 90.000000
_cell_angle_beta 90.000000
_cell_angle_gamma 90.000000
_cell_volume 3195.627181
_symmetry_space_group_name_H-M "C M M 2"
_symmetry_group_IT_number 35
_symmetry_cell_setting 'orthorhombic'
loop_
_space_group_symop_operation_xyz
x,y,z
-x,-y,z
-x,y,z
x,-y,z
1/2+x,1/2+y,z
1/2-x,1/2-y,z
1/2-x,1/2+y,z
1/2+x,1/2-y,z
loop_
_atom_site_type_symbol
_atom_site_label
_atom_site_fract_x
_atom_site_fract_y
_atom_site_fract_z
Si Si1 0.236093 0.610091 0.010060
Si Si2 0.664090 0.385147 0.213076
Si Si3 0.371398 0.109770 0.618934
Si Si4 0.130291 0.708756 0.901784
Si Si5 0.563652 0.894568 0.360225
Si Si6 0.692842 0.285038 0.489099
Si Si7 0.064563 0.763725 0.143140
Si Si8 0.817425 0.890414 0.769118
O O1 0.218155 0.500000 0.048609
O O2 0.282703 0.646964 0.120225
O O3 0.182293 0.679019 0.001309
O O4 0.260758 0.614356 0.854760
O O5 0.665201 0.500000 0.232557
O O6 0.660767 0.334047 0.362764
O O7 0.605992 0.356486 0.140493
O O8 0.382149 0.131238 0.780782
O O9 0.426505 0.121710 0.525258
O O10 0.330180 0.185029 0.549973
O O11 0.347513 0.000000 0.608281
O O12 0.138731 0.815115 0.833025
O O13 0.075251 0.709987 0.995950
O O14 0.500000 0.898278 0.330065
O O15 0.586748 0.807098 0.266112
O O16 0.589853 0.000000 0.316209
O O17 0.750000 0.250000 0.425817
O O18 0.697643 0.364504 0.611188
O O19 0.000000 0.793518 0.158122
O O20 0.842487 0.000000 0.777023
#
# Coordination Sequence:
#
# PCOD8173547 Si02
#       8
#     8   8   8   8   8   8   8   8
#     4  10  21  37  60  88 122 161 195 241 303 367
#     4  11  24  41  62  90 122 160 207 253 304 360
#     4  10  21  38  60  91 123 157 197 242 301 368
#     4  11  22  36  61  89 125 160 201 250 305 363
#     4   9  19  38  62  86 117 157 198 246 304 361
#     4  11  23  36  58  88 124 160 194 244 297 362
#     4  11  24  41  62  87 120 161 209 259 307 358
#     4  10  20  36  57  85 122 161 197 239 298 362
#
# _framework density 20.027369
#
# number of rings (size 3 to 8) (size 9 to 14) (size 15 to 20)
#    0.000    1.625    2.500    2.625    1.750    3.750 
#    0.000    2.500    0.000    0.000    0.000    0.000 
#    0.000    0.000    0.000    0.000    0.000    0.000 
#
# Total GULP energy -396533.495608 kJ/mol
# GULP energy per Si atom -12391.671738 kJ/mol
# Density = 1.998179 g / cm^3
# Si number density = 20.027369 Si / 1000 Ang^3
#
#
#
# Elastic Constant Matrix: (Units=GPa)
#
#
# Indices 1 2 3 4 5 6 
#
# 1 57.0682 21.7903 33.5669 0.0000 0.0000 0.0000
# 2 21.7903 106.1656 35.9470 0.0000 0.0000 0.0000
# 3 33.5669 35.9470 114.4064 0.0000 0.0000 0.0000
# 4 0.0000 0.0000 0.0000 19.1857 0.0000 0.0000
# 5 0.0000 0.0000 0.0000 0.0000 27.2374 0.0000
# 6 0.0000 0.0000 0.0000 0.0000 0.0000 18.8618
#
#
#
# Elastic Compliance Matrix: (Units=1/GPa)
#
#
# Indices 1 2 3 4 5 6 
#
# 1 0.021793 -0.002583 -0.005582 0.000000 0.000000 0.000000
# 2 -0.002583 0.010847 -0.002650 0.000000 0.000000 0.000000
# 3 -0.005582 -0.002650 0.011211 0.000000 0.000000 0.000000
# 4 0.000000 0.000000 0.000000 0.052122 0.000000 0.000000
# 5 0.000000 0.000000 0.000000 0.000000 0.036714 0.000000
# 6 0.000000 0.000000 0.000000 0.000000 0.000000 0.053017
#
#
# Mechanical properties :
#
#
# Convention : Reuss Voigt Hill
#
# Bulk Modulus (GPa) = 45.00503 51.13874 48.07188
# Shear Modulus (GPa) = 23.28376 25.47937 24.38156
#
# Velocity S-wave (km/s) = 3.41339 3.57070 3.49293
# Velocity P-wave (km/s) = 6.16891 6.52608 6.35001
#
# Compressibility (1/GPa) = 0.02221974
#
# Stress axis : x y z
#
# Youngs Moduli (GPa) = 45.88715 92.19371 89.19480
#
# Poissons Ratio (x) = 0.23811 0.49793
# Poissons Ratio (y) = 0.11851 0.23639
# Poissons Ratio (z) = 0.25616 0.24434
#
# Static dielectric constant tensor:
#      x y z
#    x 3.309260 0.000000 0.000000 
#    y 0.000000 3.994710 0.000000 
#    z 0.000000 0.000000 3.869500 
# 
# 
# High freq. dielectric constant tensor:
#      x y z
#    x 1.746160 0.000000 0.000000 
#    y 0.000000 1.794090 0.000000 
#    z 0.000000 0.000000 1.792090 
# 
# From -- ./inp_files/9902.got.cif
#   From: 2010.03.12/outbox.cif.g09.slc.cpg/sg35_5_cif.got.tgz:9902.got - 2010.04.14 02:02:04.
