data_PCOD8173013
_publ_section_title
;
Structure prediction by ZEFSAII (Michael W. Deem and Ramdas Pophale) SiO2 
 PCOD8173013
Probable space group: C M M 2
;
_chemical_formula_sum "Si O2"
_cell_formula_units_Z 56
_cell_length_a 9.022847
_cell_length_b 19.354376
_cell_length_c 17.780093
_cell_angle_alpha 90.000000
_cell_angle_beta 90.000000
_cell_angle_gamma 90.000000
_cell_volume 3104.965616
_symmetry_space_group_name_H-M "C M M 2"
_symmetry_group_IT_number 35
_symmetry_cell_setting 'orthorhombic'
loop_
_space_group_symop_operation_xyz
x,y,z
-x,-y,z
-x,y,z
x,-y,z
1/2+x,1/2+y,z
1/2-x,1/2-y,z
1/2-x,1/2+y,z
1/2+x,1/2-y,z
loop_
_atom_site_type_symbol
_atom_site_label
_atom_site_fract_x
_atom_site_fract_y
_atom_site_fract_z
Si Si1 0.824095 0.922262 0.519590
Si Si2 0.824906 0.175648 0.650709
Si Si3 0.673899 0.679486 0.228478
Si Si4 0.174079 0.821713 0.057376
Si Si5 0.170103 0.580907 0.942346
Si Si6 0.176047 0.076387 0.352517
Si Si7 0.671781 0.579245 0.789589
O O1 0.761579 0.866404 0.578715
O O2 0.775447 0.898132 0.435796
O O3 0.000000 0.924855 0.526588
O O4 0.763462 0.000000 0.536266
O O5 0.750000 0.250000 0.655728
O O6 0.781654 0.130179 0.722903
O O7 0.000000 0.186449 0.645049
O O8 0.500000 0.688672 0.239109
O O9 0.750000 0.750000 0.251129
O O10 0.712696 0.658006 0.143252
O O11 0.741229 0.623906 0.286481
O O12 0.250000 0.750000 0.034383
O O13 0.000000 0.813654 0.044638
O O14 0.235890 0.882477 0.006487
O O15 0.189106 0.500000 0.956031
O O16 0.231839 0.601852 0.860981
O O17 0.000000 0.604419 0.947141
O O18 0.000000 0.075008 0.347788
O O19 0.239935 0.000000 0.338700
O O20 0.500000 0.587789 0.810803
O O21 0.705160 0.500000 0.765550
#
# Coordination Sequence:
#
# PCOD8173013 Si02
#       7
#     8   8   8   8   8   8   8
#     4   8  14  27  48  71  95 126 164 202 237 277
#     4  10  20  32  48  73 101 127 159 199 242 287
#     4   9  18  31  48  71  98 129 163 199 241 289
#     4  10  20  34  52  73 100 134 170 207 248 296
#     4  10  21  36  54  77 103 129 161 203 250 300
#     4   8  14  26  46  72  98 124 160 204 242 277
#     4   9  18  34  54  72  93 126 167 205 240 284
#
# _framework density 18.035626000000001
#
# number of rings (size 3 to 8) (size 9 to 14) (size 15 to 20)
#    0.000    2.857    0.000    2.143    0.000    5.429 
#    0.000    2.857    0.000    1.714    0.000    2.000 
#    0.000    0.000    0.000    0.000    0.000    0.000 
#
# Total GULP energy -347132.369474 kJ/mol
# GULP energy per Si atom -12397.584624 kJ/mol
# Density = 1.799458 g / cm^3
# Si number density = 18.035626 Si / 1000 Ang^3
#
#
#
# Elastic Constant Matrix: (Units=GPa)
#
#
# Indices 1 2 3 4 5 6 
#
# 1 44.5608 38.1433 42.1655 0.0000 0.0000 0.0000
# 2 38.1433 119.3534 95.3657 0.0000 0.0000 0.0000
# 3 42.1655 95.3657 141.8438 0.0000 0.0000 0.0000
# 4 0.0000 0.0000 0.0000 27.5551 0.0000 0.0000
# 5 0.0000 0.0000 0.0000 0.0000 15.6116 0.0000
# 6 0.0000 0.0000 0.0000 0.0000 0.0000 28.8966
#
#
#
# Elastic Compliance Matrix: (Units=1/GPa)
#
#
# Indices 1 2 3 4 5 6 
#
# 1 0.033015 -0.005854 -0.005878 0.000000 0.000000 0.000000
# 2 -0.005854 0.019142 -0.011130 0.000000 0.000000 0.000000
# 3 -0.005878 -0.011130 0.016280 0.000000 0.000000 0.000000
# 4 0.000000 0.000000 0.000000 0.036291 0.000000 0.000000
# 5 0.000000 0.000000 0.000000 0.000000 0.064055 0.000000
# 6 0.000000 0.000000 0.000000 0.000000 0.000000 0.034606
#
#
# Mechanical properties :
#
#
# Convention : Reuss Voigt Hill
#
# Bulk Modulus (GPa) = 44.02765 73.01189 58.51977
# Shear Modulus (GPa) = 19.47923 23.08488 21.28206
#
# Velocity S-wave (km/s) = 3.28996 3.58153 3.43884
# Velocity P-wave (km/s) = 6.23669 7.59428 6.94872
#
# Compressibility (1/GPa) = 0.02271300
#
# Stress axis : x y z
#
# Youngs Moduli (GPa) = 30.28970 52.24103 61.42448
#
# Poissons Ratio (x) = 0.30582 0.36107
# Poissons Ratio (y) = 0.17732 0.68363
# Poissons Ratio (z) = 0.17805 0.58142
#
# Static dielectric constant tensor:
#      x y z
#    x 3.054460 0.000000 0.000000 
#    y 0.000000 3.442270 0.000000 
#    z 0.000000 0.000000 3.567080 
# 
# 
# High freq. dielectric constant tensor:
#      x y z
#    x 1.667900 0.000000 0.000000 
#    y 0.000000 1.697860 0.000000 
#    z 0.000000 0.000000 1.710190 
# 
# From -- ./inp_files/15653.got.cif
#   From: 2010.03.12/outbox.cif.g09.slc.cpg/sg35_8_cif.got.tgz:15653.got - 2010.04.14 02:02:04.
