data_PCOD8173760
_publ_section_title
;
Structure prediction by ZEFSAII (Michael W. Deem and Ramdas Pophale) SiO2 
 PCOD8173760
Probable space group: C M M 2
;
_chemical_formula_sum "Si O2"
_cell_formula_units_Z 48
_cell_length_a 18.216442
_cell_length_b 7.726180
_cell_length_c 17.193588
_cell_angle_alpha 90.000000
_cell_angle_beta 90.000000
_cell_angle_gamma 90.000000
_cell_volume 2419.885922
_symmetry_space_group_name_H-M "C M M 2"
_symmetry_group_IT_number 35
_symmetry_cell_setting 'orthorhombic'
loop_
_space_group_symop_operation_xyz
x,y,z
-x,-y,z
-x,y,z
x,-y,z
1/2+x,1/2+y,z
1/2-x,1/2-y,z
1/2-x,1/2+y,z
1/2+x,1/2-y,z
loop_
_atom_site_type_symbol
_atom_site_label
_atom_site_fract_x
_atom_site_fract_y
_atom_site_fract_z
Si Si1 0.167627 0.807086 0.569360
Si Si2 0.086718 0.500000 0.308655
Si Si3 0.335092 0.704234 0.037128
Si Si4 0.582483 0.802781 0.715101
Si Si5 0.087807 0.500000 0.132389
Si Si6 0.082500 0.202834 0.882301
Si Si7 0.413718 0.299829 0.420944
O O1 0.250000 0.750000 0.578598
O O2 0.130635 0.798854 0.653486
O O3 0.123360 0.717255 0.498990
O O4 0.167522 0.000000 0.540131
O O5 0.116244 0.500000 0.220967
O O6 0.113951 0.323976 0.351055
O O7 0.000000 0.500000 0.307368
O O8 0.348938 0.500000 0.054933
O O9 0.250000 0.750000 0.043591
O O10 0.380888 0.822925 0.095984
O O11 0.362930 0.755637 0.951240
O O12 0.500000 0.726821 0.713977
O O13 0.613935 0.784437 0.802525
O O14 0.584031 0.000000 0.688609
O O15 0.000000 0.500000 0.124501
O O16 0.000000 0.273256 0.900191
O O17 0.080130 0.000000 0.870877
O O18 0.500000 0.283195 0.434846
O O19 0.392922 0.500000 0.401370
#
# Coordination Sequence:
#
# PCOD8173760 Si02
#       7
#     8   4   8   8   4   8   8
#     4  11  23  37  55  79 115 155 196 246 295 353
#     4   9  20  38  64  93 119 150 193 249 301 358
#     4  11  23  41  65  92 130 171 209 258 315 380
#     4  10  21  35  55  84 116 155 200 246 295 349
#     4  11  24  42  68  99 128 164 209 261 318 378
#     4   9  19  36  58  85 117 156 204 253 302 358
#     4   9  19  37  62  88 115 151 196 244 300 359
#
# _framework density 19.835646000000001
#
# number of rings (size 3 to 8) (size 9 to 14) (size 15 to 20)
#    0.000    2.000    0.833    2.000    3.500    4.000 
#    0.000    4.167    0.000    0.000    0.000    0.000 
#    0.000    0.000    0.000    0.000    0.000    0.000 
#
# Total GULP energy -297498.978032 kJ/mol
# GULP energy per Si atom -12395.790751 kJ/mol
# Density = 1.979050 g / cm^3
# Si number density = 19.835646 Si / 1000 Ang^3
#
#
#
# Elastic Constant Matrix: (Units=GPa)
#
#
# Indices 1 2 3 4 5 6 
#
# 1 94.2147 35.6205 65.5798 0.0000 0.0000 0.0000
# 2 35.6205 96.5331 63.2089 0.0000 0.0000 0.0000
# 3 65.5798 63.2089 163.2704 0.0000 0.0000 0.0000
# 4 0.0000 0.0000 0.0000 33.1951 0.0000 0.0000
# 5 0.0000 0.0000 0.0000 0.0000 8.8720 0.0000
# 6 0.0000 0.0000 0.0000 0.0000 0.0000 20.9528
#
#
#
# Elastic Compliance Matrix: (Units=1/GPa)
#
#
# Indices 1 2 3 4 5 6 
#
# 1 0.015055 -0.002138 -0.005220 0.000000 0.000000 0.000000
# 2 -0.002138 0.014180 -0.004631 0.000000 0.000000 0.000000
# 3 -0.005220 -0.004631 0.010014 0.000000 0.000000 0.000000
# 4 0.000000 0.000000 0.000000 0.030125 0.000000 0.000000
# 5 0.000000 0.000000 0.000000 0.000000 0.112714 0.000000
# 6 0.000000 0.000000 0.000000 0.000000 0.000000 0.047726
#
#
# Mechanical properties :
#
#
# Convention : Reuss Voigt Hill
#
# Bulk Modulus (GPa) = 65.47452 75.87074 70.67263
# Shear Modulus (GPa) = 19.31372 25.24459 22.27915
#
# Velocity S-wave (km/s) = 3.12378 3.57135 3.35504
# Velocity P-wave (km/s) = 6.78902 7.43900 7.12143
#
# Compressibility (1/GPa) = 0.01527312
#
# Stress axis : x y z
#
# Youngs Moduli (GPa) = 66.42095 70.51985 99.85712
#
# Poissons Ratio (x) = 0.15075 0.52122
# Poissons Ratio (y) = 0.14198 0.46246
# Poissons Ratio (z) = 0.34670 0.32659
#
# Static dielectric constant tensor:
#      x y z
#    x 3.482440 0.000000 0.000000 
#    y 0.000000 3.737040 0.000000 
#    z 0.000000 0.000000 3.734570 
# 
# 
# High freq. dielectric constant tensor:
#      x y z
#    x 1.758300 0.000000 0.000000 
#    y 0.000000 1.781950 0.000000 
#    z 0.000000 0.000000 1.775840 
# 
# From -- ./inp_files/15172.got.cif
#   From: 2010.03.12/outbox.cif.g09.slc.cpg/sg35_8_cif.got.tgz:15172.got - 2010.04.14 02:02:04.
