data_PCOD8173887
_publ_section_title
;
Structure prediction by ZEFSAII (Michael W. Deem and Ramdas Pophale) SiO2 
 PCOD8173887
Probable space group: C M M 2
;
_chemical_formula_sum "Si O2"
_cell_formula_units_Z 64
_cell_length_a 29.889054
_cell_length_b 8.701855
_cell_length_c 12.259944
_cell_angle_alpha 90.000000
_cell_angle_beta 90.000000
_cell_angle_gamma 90.000000
_cell_volume 3188.691459
_symmetry_space_group_name_H-M "C M M 2"
_symmetry_group_IT_number 35
_symmetry_cell_setting 'orthorhombic'
loop_
_space_group_symop_operation_xyz
x,y,z
-x,-y,z
-x,y,z
x,-y,z
1/2+x,1/2+y,z
1/2-x,1/2-y,z
1/2-x,1/2+y,z
1/2+x,1/2-y,z
loop_
_atom_site_type_symbol
_atom_site_label
_atom_site_fract_x
_atom_site_fract_y
_atom_site_fract_z
Si Si1 0.298368 0.178047 0.214620
Si Si2 0.200495 0.818683 0.999083
Si Si3 0.372588 0.318244 0.606781
Si Si4 0.946969 0.830553 0.212211
Si Si5 0.450167 0.180582 0.993463
Si Si6 0.299185 0.819955 0.455501
Si Si7 0.129185 0.318300 0.843741
Si Si8 0.950204 0.816928 0.449130
O O1 0.250000 0.250000 0.223774
O O2 0.320637 0.202741 0.333774
O O3 0.294590 0.000000 0.184628
O O4 0.322997 0.262777 0.113246
O O5 0.250000 0.750000 0.988984
O O6 0.171987 0.761180 0.897155
O O7 0.203264 0.000000 0.996509
O O8 0.373336 0.500000 0.627061
O O9 0.328600 0.273516 0.540647
O O10 0.373131 0.228130 0.718965
O O11 0.416181 0.259563 0.541198
O O12 0.933079 0.758597 0.329804
O O13 0.000000 0.843249 0.212986
O O14 0.925880 0.000000 0.195668
O O15 0.930856 0.724546 0.112606
O O16 0.500000 0.251518 0.973475
O O17 0.416164 0.242469 0.901922
O O18 0.453307 0.000000 0.987578
O O19 0.250000 0.750000 0.462360
O O20 0.297546 0.000000 0.485552
O O21 0.134264 0.500000 0.855800
O O22 0.000000 0.753255 0.476488
O O23 0.951486 0.000000 0.443631
#
# Coordination Sequence:
#
# PCOD8173887 Si02
#       8
#     8   8   8   8   8   8   8   8
#     4   9  17  32  56  86 117 147 180 220 271 331
#     4  11  22  38  61  87 115 146 183 227 278 332
#     4  11  23  38  57  82 110 144 191 238 279 327
#     4   8  14  28  53  83 112 142 178 220 269 328
#     4   9  19  36  57  81 111 146 181 224 278 329
#     4  10  21  38  60  85 115 149 184 225 275 330
#     4  11  24  41  57  77 110 149 191 235 278 330
#     4   8  16  33  56  82 113 146 179 222 275 327
#
# _framework density 20.070929
#
# number of rings (size 3 to 8) (size 9 to 14) (size 15 to 20)
#    0.000    2.375    0.000    4.125    0.000    4.500 
#    0.000    6.250    0.000    2.625    0.000    0.000 
#    0.000    0.000    0.000    0.000    0.000    0.000 
#
# Total GULP energy -396640.270008 kJ/mol
# GULP energy per Si atom -12395.008438 kJ/mol
# Density = 2.002525 g / cm^3
# Si number density = 20.070929 Si / 1000 Ang^3
#
#
#
# Elastic Constant Matrix: (Units=GPa)
#
#
# Indices 1 2 3 4 5 6 
#
# 1 91.5055 29.0525 61.5214 0.0000 0.0000 0.0000
# 2 29.0525 75.8349 32.5835 0.0000 0.0000 0.0000
# 3 61.5214 32.5835 153.7949 0.0000 0.0000 0.0000
# 4 0.0000 0.0000 0.0000 35.3135 0.0000 0.0000
# 5 0.0000 0.0000 0.0000 0.0000 33.3147 0.0000
# 6 0.0000 0.0000 0.0000 0.0000 0.0000 18.9314
#
#
#
# Elastic Compliance Matrix: (Units=1/GPa)
#
#
# Indices 1 2 3 4 5 6 
#
# 1 0.015829 -0.003678 -0.005553 0.000000 0.000000 0.000000
# 2 -0.003678 0.015362 -0.001783 0.000000 0.000000 0.000000
# 3 -0.005553 -0.001783 0.009101 0.000000 0.000000 0.000000
# 4 0.000000 0.000000 0.000000 0.028318 0.000000 0.000000
# 5 0.000000 0.000000 0.000000 0.000000 0.030017 0.000000
# 6 0.000000 0.000000 0.000000 0.000000 0.000000 0.052822
#
#
# Mechanical properties :
#
#
# Convention : Reuss Voigt Hill
#
# Bulk Modulus (GPa) = 54.75332 63.05001 58.90166
# Shear Modulus (GPa) = 27.84485 30.71044 29.27764
#
# Velocity S-wave (km/s) = 3.72872 3.91589 3.82345
# Velocity P-wave (km/s) = 6.77325 7.20606 6.99301
#
# Compressibility (1/GPa) = 0.01826373
#
# Stress axis : x y z
#
# Youngs Moduli (GPa) = 63.17320 65.09597 109.87565
#
# Poissons Ratio (x) = 0.23945 0.61012
# Poissons Ratio (y) = 0.23238 0.19592
# Poissons Ratio (z) = 0.35079 0.11608
#
# Static dielectric constant tensor:
#      x y z
#    x 3.670090 0.000000 0.000000 
#    y 0.000000 3.564230 0.000000 
#    z 0.000000 0.000000 4.044740 
# 
# 
# High freq. dielectric constant tensor:
#      x y z
#    x 1.772390 0.000000 0.000000 
#    y 0.000000 1.773980 0.000000 
#    z 0.000000 0.000000 1.791450 
# 
# From -- ./inp_files/14590.got.cif
#   From: 2010.03.12/outbox.cif.g09.slc.cpg/sg35_8_cif.got.tgz:14590.got - 2010.04.14 02:02:04.
