data_PCOD8173709
_publ_section_title
;
Structure prediction by ZEFSAII (Michael W. Deem and Ramdas Pophale) SiO2 
 PCOD8173709
Probable space group: C M M 2
;
_chemical_formula_sum "Si O2"
_cell_formula_units_Z 48
_cell_length_a 7.716841
_cell_length_b 18.199858
_cell_length_c 17.037385
_cell_angle_alpha 90.000000
_cell_angle_beta 90.000000
_cell_angle_gamma 90.000000
_cell_volume 2392.822529
_symmetry_space_group_name_H-M "C M M 2"
_symmetry_group_IT_number 35
_symmetry_cell_setting 'orthorhombic'
loop_
_space_group_symop_operation_xyz
x,y,z
-x,-y,z
-x,y,z
x,-y,z
1/2+x,1/2+y,z
1/2-x,1/2-y,z
1/2-x,1/2+y,z
1/2+x,1/2-y,z
loop_
_atom_site_type_symbol
_atom_site_label
_atom_site_fract_x
_atom_site_fract_y
_atom_site_fract_z
Si Si1 0.000000 0.587159 0.602520
Si Si2 0.295352 0.665158 0.876232
Si Si3 0.191600 0.084086 0.495488
Si Si4 0.704596 0.418858 0.029525
Si Si5 0.697615 0.586335 0.202063
Si Si6 0.192368 0.667812 0.350388
Si Si7 0.500000 0.087736 0.780265
O O1 0.828681 0.616628 0.557820
O O2 0.000000 0.616764 0.690930
O O3 0.000000 0.500000 0.604746
O O4 0.500000 0.650665 0.859440
O O5 0.250000 0.750000 0.866839
O O6 0.177496 0.618345 0.817337
O O7 0.241340 0.639951 0.963867
O O8 0.187522 0.128414 0.414209
O O9 0.000000 0.090260 0.533163
O O10 0.238798 0.000000 0.475224
O O11 0.500000 0.425625 0.036271
O O12 0.779005 0.500000 0.007521
O O13 0.772961 0.393774 0.115305
O O14 0.500000 0.612889 0.210713
O O15 0.713081 0.500000 0.216085
O O16 0.808880 0.627489 0.266941
O O17 0.250000 0.750000 0.335824
O O18 0.000000 0.665322 0.385205
O O19 0.500000 0.000000 0.787109
#
# Coordination Sequence:
#
# PCOD8173709 Si02
#       7
#     4   8   8   8   8   8   4
#     4   9  20  40  64  93 123 150 195 251 297 360
#     4  11  22  40  64  91 131 171 210 258 315 381
#     4  10  20  38  65  91 118 153 194 242 301 360
#     4   8  16  33  58  86 117 156 205 256 304 360
#     4   9  18  35  57  83 116 155 200 248 300 355
#     4  12  24  37  54  79 118 156 202 252 296 358
#     4  11  24  42  68  99 128 162 209 263 318 376
#
# _framework density 20.059991
#
# number of rings (size 3 to 8) (size 9 to 14) (size 15 to 20)
#    0.000    2.000    1.667    3.500    0.000    4.667 
#    1.500    4.167    0.000    0.000    0.000    0.000 
#    0.000    0.000    0.000    0.000    0.000    0.000 
#
# Total GULP energy -297555.556691 kJ/mol
# GULP energy per Si atom -12398.148195 kJ/mol
# Density = 2.001433 g / cm^3
# Si number density = 20.059991 Si / 1000 Ang^3
#
#
#
# Elastic Constant Matrix: (Units=GPa)
#
#
# Indices 1 2 3 4 5 6 
#
# 1 113.1848 31.9931 52.8972 0.0000 0.0000 0.0000
# 2 31.9931 82.4302 55.3600 0.0000 0.0000 0.0000
# 3 52.8972 55.3600 152.7511 0.0000 0.0000 0.0000
# 4 0.0000 0.0000 0.0000 5.0232 0.0000 0.0000
# 5 0.0000 0.0000 0.0000 0.0000 28.3415 0.0000
# 6 0.0000 0.0000 0.0000 0.0000 0.0000 13.2030
#
#
#
# Elastic Compliance Matrix: (Units=1/GPa)
#
#
# Indices 1 2 3 4 5 6 
#
# 1 0.010842 -0.002229 -0.002947 0.000000 0.000000 0.000000
# 2 -0.002229 0.016493 -0.005205 0.000000 0.000000 0.000000
# 3 -0.002947 -0.005205 0.009454 0.000000 0.000000 0.000000
# 4 0.000000 0.000000 0.000000 0.199076 0.000000 0.000000
# 5 0.000000 0.000000 0.000000 0.000000 0.035284 0.000000
# 6 0.000000 0.000000 0.000000 0.000000 0.000000 0.075740
#
#
# Mechanical properties :
#
#
# Convention : Reuss Voigt Hill
#
# Bulk Modulus (GPa) = 62.39834 69.87408 66.13621
# Shear Modulus (GPa) = 13.40506 23.18794 18.29650
#
# Velocity S-wave (km/s) = 2.58785 3.40358 3.02336
# Velocity P-wave (km/s) = 6.33267 7.09606 6.72520
#
# Compressibility (1/GPa) = 0.01602607
#
# Stress axis : x y z
#
# Youngs Moduli (GPa) = 92.23058 60.63361 105.78024
#
# Poissons Ratio (x) = 0.13516 0.31171
# Poissons Ratio (y) = 0.20559 0.55061
# Poissons Ratio (z) = 0.27179 0.31561
#
# Static dielectric constant tensor:
#      x y z
#    x 3.654100 0.000000 0.000000 
#    y 0.000000 3.484200 0.000000 
#    z 0.000000 0.000000 3.757010 
# 
# 
# High freq. dielectric constant tensor:
#      x y z
#    x 1.785430 0.000000 0.000000 
#    y 0.000000 1.767460 0.000000 
#    z 0.000000 0.000000 1.780550 
# 
# From -- ./inp_files/15180.got.cif
#   From: 2010.03.12/outbox.cif.g09.slc.cpg/sg35_8_cif.got.tgz:15180.got - 2010.04.14 02:02:04.
