data_PCOD8173037
_publ_section_title
;
Structure prediction by ZEFSAII (Michael W. Deem and Ramdas Pophale) SiO2 
 PCOD8173037
Probable space group: C M M 2
;
_chemical_formula_sum "Si O2"
_cell_formula_units_Z 52
_cell_length_a 28.073947
_cell_length_b 14.291942
_cell_length_c 7.685312
_cell_angle_alpha 90.000000
_cell_angle_beta 90.000000
_cell_angle_gamma 90.000000
_cell_volume 3083.587127
_symmetry_space_group_name_H-M "C M M 2"
_symmetry_group_IT_number 35
_symmetry_cell_setting 'orthorhombic'
loop_
_space_group_symop_operation_xyz
x,y,z
-x,-y,z
-x,y,z
x,-y,z
1/2+x,1/2+y,z
1/2-x,1/2-y,z
1/2-x,1/2+y,z
1/2+x,1/2-y,z
loop_
_atom_site_type_symbol
_atom_site_label
_atom_site_fract_x
_atom_site_fract_y
_atom_site_fract_z
Si Si1 0.799863 0.000000 0.904371
Si Si2 0.303129 0.206170 0.205041
Si Si3 0.446648 0.394365 0.410270
Si Si4 0.147167 0.810332 0.509608
Si Si5 0.774409 0.500000 0.205040
Si Si6 0.352833 0.689667 0.900473
Si Si7 0.553352 0.394365 0.999811
Si Si8 0.700136 0.500000 0.505709
O O1 0.831192 0.910378 0.949206
O O2 0.782214 0.000000 0.705040
O O3 0.754905 0.000000 0.027854
O O4 0.250000 0.250000 0.205040
O O5 0.331498 0.235384 0.377534
O O6 0.305230 0.094119 0.205041
O O7 0.331498 0.235384 0.032548
O O8 0.500000 0.362220 0.461326
O O9 0.437799 0.500000 0.479762
O O10 0.409911 0.321258 0.495632
O O11 0.439669 0.392594 0.205041
O O12 0.160667 0.778662 0.705041
O O13 0.168807 0.910378 0.460875
O O14 0.745095 0.500000 0.382224
O O15 0.409911 0.678741 0.914449
O O16 0.500000 0.362219 0.948755
O O17 0.562201 0.500000 0.930319
#
# Coordination Sequence:
#
# PCOD8173037 Si02
#       8
#     4   8   8   8   4   8   8   4
#     4  10  20  32  53  81 109 139 178 215 254 314
#     4  12  24  38  57  75 103 139 183 227 266 321
#     4   9  17  29  50  80 114 148 178 211 254 312
#     4  11  21  34  54  81 111 146 179 212 259 316
#     4  12  24  40  56  74  98 142 178 232 278 302
#     4  11  21  34  54  81 111 146 179 212 259 316
#     4   9  17  29  50  80 114 148 178 211 254 312
#     4  10  20  32  53  81 109 139 178 215 254 314
#
# _framework density 16.863475999999999
#
# number of rings (size 3 to 8) (size 9 to 14) (size 15 to 20)
#    0.000    1.538    6.154    0.923    0.000    2.462 
#    0.000    1.538    0.000    0.000    0.000    2.154 
#    0.000    2.462    0.000    0.000    0.000    0.000 
#
# Total GULP energy -322386.950683 kJ/mol
# GULP energy per Si atom -12399.498103 kJ/mol
# Density = 1.682509 g / cm^3
# Si number density = 16.863476 Si / 1000 Ang^3
#
#
#
# Elastic Constant Matrix: (Units=GPa)
#
#
# Indices 1 2 3 4 5 6 
#
# 1 105.2968 51.1444 46.7476 0.0000 0.0000 0.0000
# 2 51.1444 104.4523 48.4683 0.0000 0.0000 0.0000
# 3 46.7476 48.4683 93.5685 0.0000 0.0000 0.0000
# 4 0.0000 0.0000 0.0000 47.3062 0.0000 0.0000
# 5 0.0000 0.0000 0.0000 0.0000 14.3220 0.0000
# 6 0.0000 0.0000 0.0000 0.0000 0.0000 0.3930
#
#
#
# Elastic Compliance Matrix: (Units=1/GPa)
#
#
# Indices 1 2 3 4 5 6 
#
# 1 0.013736 -0.004662 -0.004448 0.000000 0.000000 0.000000
# 2 -0.004662 0.014185 -0.005019 0.000000 0.000000 0.000000
# 3 -0.004448 -0.005019 0.015509 0.000000 0.000000 0.000000
# 4 0.000000 0.000000 0.000000 0.021139 0.000000 0.000000
# 5 0.000000 0.000000 0.000000 0.000000 0.069823 0.000000
# 6 0.000000 0.000000 0.000000 0.000000 0.000000 2.544425
#
#
# Mechanical properties :
#
#
# Convention : Reuss Voigt Hill
#
# Bulk Modulus (GPa) = 65.90418 66.22646 66.06532
# Shear Modulus (GPa) = 1.84357 22.86805 12.35581
#
# Velocity S-wave (km/s) = 1.04671 3.68648 2.70977
# Velocity P-wave (km/s) = 6.37391 7.58140 7.00372
#
# Compressibility (1/GPa) = 0.01517354
#
# Stress axis : x y z
#
# Youngs Moduli (GPa) = 72.80180 70.49578 64.47765
#
# Poissons Ratio (x) = 0.32864 0.28678
# Poissons Ratio (y) = 0.33939 0.32360
# Poissons Ratio (z) = 0.32381 0.35381
#
# Static dielectric constant tensor:
#      x y z
#    x 3.237150 0.000000 0.000000 
#    y 0.000000 2.628860 0.000000 
#    z 0.000000 0.000000 3.209560 
# 
# 
# High freq. dielectric constant tensor:
#      x y z
#    x 1.646800 0.000000 0.000000 
#    y 0.000000 1.602250 0.000000 
#    z 0.000000 0.000000 1.665960 
# 
# From -- ./inp_files/9852.got.cif
#   From: 2010.03.12/outbox.cif.g09.slc.cpg/sg35_5_cif.got.tgz:9852.got - 2010.04.14 02:02:04.
