data_PCOD8173830
_publ_section_title
;
Structure prediction by ZEFSAII (Michael W. Deem and Ramdas Pophale) SiO2 
 PCOD8173830
Probable space group: C M M 2
;
_chemical_formula_sum "Si O2"
_cell_formula_units_Z 48
_cell_length_a 8.885056
_cell_length_b 18.587404
_cell_length_c 15.091636
_cell_angle_alpha 90.000000
_cell_angle_beta 90.000000
_cell_angle_gamma 90.000000
_cell_volume 2492.385578
_symmetry_space_group_name_H-M "C M M 2"
_symmetry_group_IT_number 35
_symmetry_cell_setting 'orthorhombic'
loop_
_space_group_symop_operation_xyz
x,y,z
-x,-y,z
-x,y,z
x,-y,z
1/2+x,1/2+y,z
1/2-x,1/2-y,z
1/2-x,1/2+y,z
1/2+x,1/2-y,z
loop_
_atom_site_type_symbol
_atom_site_label
_atom_site_fract_x
_atom_site_fract_y
_atom_site_fract_z
Si Si1 0.675830 0.917482 0.103180
Si Si2 0.178110 0.671978 0.931734
Si Si3 0.324095 0.675956 0.245802
Si Si4 0.823806 0.916018 0.774790
Si Si5 0.323129 0.324217 0.449609
Si Si6 0.670040 0.084859 0.594031
O O1 0.500000 0.908528 0.121428
O O2 0.763457 0.890589 0.189463
O O3 0.719785 0.000000 0.085563
O O4 0.727657 0.871776 0.018565
O O5 0.250000 0.750000 0.936887
O O6 0.237809 0.629417 0.847622
O O7 0.000000 0.679165 0.924155
O O8 0.500000 0.684100 0.231230
O O9 0.250000 0.750000 0.212408
O O10 0.282329 0.660392 0.347563
O O11 0.761891 0.889748 0.680143
O O12 0.000000 0.899465 0.779210
O O13 0.788963 0.000000 0.790373
O O14 0.500000 0.320447 0.465308
O O15 0.250000 0.250000 0.481759
O O16 0.252444 0.387763 0.506456
O O17 0.500000 0.114970 0.599649
O O18 0.669548 0.000000 0.587219
#
# Coordination Sequence:
#
# PCOD8173830 Si02
#       6
#     8   8   8   8   8   8
#     4  10  22  39  59  84 114 148 185 228 278 331
#     4  11  23  39  59  84 114 147 186 230 277 330
#     4  10  21  37  58  83 112 148 188 232 280 330
#     4  10  21  38  60  85 113 146 185 230 279 330
#     4  10  21  37  57  82 113 148 188 233 280 330
#     4  10  21  37  58  84 114 149 187 228 277 332
#
# _framework density 19.258655999999998
#
# number of rings (size 3 to 8) (size 9 to 14) (size 15 to 20)
#    0.000    1.833    0.000    3.500    0.000    9.000 
#    0.000    6.667    0.000    0.000    0.000    0.000 
#    0.000    0.000    0.000    0.000    0.000    0.000 
#
# Total GULP energy -297734.378544 kJ/mol
# GULP energy per Si atom -12405.599106 kJ/mol
# Density = 1.921482 g / cm^3
# Si number density = 19.258656 Si / 1000 Ang^3
#
#
#
# Elastic Constant Matrix: (Units=GPa)
#
#
# Indices 1 2 3 4 5 6 
#
# 1 92.2454 50.6093 54.9033 0.0000 0.0000 0.0000
# 2 50.6093 85.5677 64.1502 0.0000 0.0000 0.0000
# 3 54.9033 64.1502 118.8579 0.0000 0.0000 0.0000
# 4 0.0000 0.0000 0.0000 50.4507 0.0000 0.0000
# 5 0.0000 0.0000 0.0000 0.0000 37.0873 0.0000
# 6 0.0000 0.0000 0.0000 0.0000 0.0000 32.3773
#
#
#
# Elastic Compliance Matrix: (Units=1/GPa)
#
#
# Indices 1 2 3 4 5 6 
#
# 1 0.017168 -0.007069 -0.004115 0.000000 0.000000 0.000000
# 2 -0.007069 0.022540 -0.008900 0.000000 0.000000 0.000000
# 3 -0.004115 -0.008900 0.015118 0.000000 0.000000 0.000000
# 4 0.000000 0.000000 0.000000 0.019821 0.000000 0.000000
# 5 0.000000 0.000000 0.000000 0.000000 0.026963 0.000000
# 6 0.000000 0.000000 0.000000 0.000000 0.000000 0.030886
#
#
# Mechanical properties :
#
#
# Convention : Reuss Voigt Hill
#
# Bulk Modulus (GPa) = 68.22333 70.66628 69.44481
# Shear Modulus (GPa) = 28.16095 32.45028 30.30561
#
# Velocity S-wave (km/s) = 3.82808 4.10929 3.97118
# Velocity P-wave (km/s) = 7.41894 7.69987 7.56071
#
# Compressibility (1/GPa) = 0.01465774
#
# Stress axis : x y z
#
# Youngs Moduli (GPa) = 58.24682 44.36554 66.14752
#
# Poissons Ratio (x) = 0.31363 0.27220
# Poissons Ratio (y) = 0.41176 0.58871
# Poissons Ratio (z) = 0.23969 0.39485
#
# Static dielectric constant tensor:
#      x y z
#    x 3.652050 0.000000 0.000000 
#    y 0.000000 3.505920 0.000000 
#    z 0.000000 0.000000 3.612030 
# 
# 
# High freq. dielectric constant tensor:
#      x y z
#    x 1.763210 0.000000 0.000000 
#    y 0.000000 1.748590 0.000000 
#    z 0.000000 0.000000 1.759440 
# 
# From -- ./inp_files/15091.got.cif
#   From: 2010.03.12/outbox.cif.g09.slc.cpg/sg35_8_cif.got.tgz:15091.got - 2010.04.14 02:02:04.
