data_PCOD8173827
_publ_section_title
;
Structure prediction by ZEFSAII (Michael W. Deem and Ramdas Pophale) SiO2 
 PCOD8173827
Probable space group: C M M 2
;
_chemical_formula_sum "Si O2"
_cell_formula_units_Z 48
_cell_length_a 8.937118
_cell_length_b 30.193138
_cell_length_c 9.359322
_cell_angle_alpha 90.000000
_cell_angle_beta 90.000000
_cell_angle_gamma 90.000000
_cell_volume 2525.516052
_symmetry_space_group_name_H-M "C M M 2"
_symmetry_group_IT_number 35
_symmetry_cell_setting 'orthorhombic'
loop_
_space_group_symop_operation_xyz
x,y,z
-x,-y,z
-x,y,z
x,-y,z
1/2+x,1/2+y,z
1/2-x,1/2-y,z
1/2-x,1/2+y,z
1/2+x,1/2-y,z
loop_
_atom_site_type_symbol
_atom_site_label
_atom_site_fract_x
_atom_site_fract_y
_atom_site_fract_z
Si Si1 0.825023 0.704954 0.140350
Si Si2 0.328070 0.550124 0.170997
Si Si3 0.827696 0.871224 0.967885
Si Si4 0.324755 0.374833 0.636438
Si Si5 0.176519 0.295649 0.467413
Si Si6 0.326552 0.948458 0.461841
O O1 0.750000 0.750000 0.085466
O O2 0.778059 0.694817 0.303502
O O3 0.000000 0.711392 0.125715
O O4 0.774447 0.665244 0.040794
O O5 0.500000 0.554707 0.219985
O O6 0.291159 0.500000 0.123404
O O7 0.225471 0.564891 0.303188
O O8 0.291643 0.581128 0.036725
O O9 0.786059 0.874000 0.802818
O O10 0.000000 0.858057 0.991452
O O11 0.500000 0.369790 0.606530
O O12 0.237976 0.335136 0.562120
O O13 0.268221 0.421636 0.577256
O O14 0.250000 0.250000 0.520723
O O15 0.000000 0.291939 0.487427
O O16 0.500000 0.935984 0.476250
O O17 0.296046 0.000000 0.490910
#
# Coordination Sequence:
#
# PCOD8173827 Si02
#       6
#     8   8   8   8   8   8
#     4  10  21  37  59  83 107 139 180 225 272 322
#     4   9  18  35  59  83 107 140 182 226 271 321
#     4  10  22  37  54  80 113 146 181 222 269 322
#     4  11  23  37  55  81 113 149 185 223 271 325
#     4  10  21  38  60  85 111 142 183 228 273 323
#     4  10  21  37  57  82 111 143 182 228 275 324
#
# _framework density 19.006015999999999
#
# number of rings (size 3 to 8) (size 9 to 14) (size 15 to 20)
#    0.000    2.000    0.000    3.000    0.000    9.000 
#    0.000    1.667    0.000    2.000    0.000    0.000 
#    0.000    0.000    0.000    0.000    0.000    0.000 
#
# Total GULP energy -297724.176243 kJ/mol
# GULP energy per Si atom -12405.174010 kJ/mol
# Density = 1.896276 g / cm^3
# Si number density = 19.006016 Si / 1000 Ang^3
#
#
#
# Elastic Constant Matrix: (Units=GPa)
#
#
# Indices 1 2 3 4 5 6 
#
# 1 76.6542 47.7191 48.0653 0.0000 0.0000 0.0000
# 2 47.7191 116.0048 67.5179 0.0000 0.0000 0.0000
# 3 48.0653 67.5179 107.3707 0.0000 0.0000 0.0000
# 4 0.0000 0.0000 0.0000 -0.1471 0.0000 0.0000
# 5 0.0000 0.0000 0.0000 0.0000 27.3933 0.0000
# 6 0.0000 0.0000 0.0000 0.0000 0.0000 37.5006
#
#
#
# Elastic Compliance Matrix: (Units=1/GPa)
#
#
# Indices 1 2 3 4 5 6 
#
# 1 0.019617 -0.004666 -0.005847 0.000000 0.000000 0.000000
# 2 -0.004666 0.014707 -0.007159 0.000000 0.000000 0.000000
# 3 -0.005847 -0.007159 0.016433 0.000000 0.000000 0.000000
# 4 0.000000 0.000000 0.000000 -6.797498 0.000000 0.000000
# 5 0.000000 0.000000 0.000000 0.000000 0.036505 0.000000
# 6 0.000000 0.000000 0.000000 0.000000 0.000000 0.026666
#
#
# Mechanical properties :
#
#
# Convention : Reuss Voigt Hill
#
# Bulk Modulus (GPa) = 64.88803 69.62604 67.25703
# Shear Modulus (GPa) = -0.75266 22.06453 10.65593
#
# Velocity S-wave (km/s) = -0.62998 3.41093 2.37040
# Velocity P-wave (km/s) = 5.80394 7.22674 6.55406
#
# Compressibility (1/GPa) = 0.01541116
#
# Stress axis : x y z
#
# Youngs Moduli (GPa) = 50.97616 67.99696 60.85303
#
# Poissons Ratio (x) = 0.31728 0.35584
# Poissons Ratio (y) = 0.23786 0.43565
# Poissons Ratio (z) = 0.29808 0.48679
#
# Static dielectric constant tensor:
#      x y z
#    x 3.548510 0.000000 0.000000 
#    y 0.000000 3.619830 0.000000 
#    z 0.000000 0.000000 3.438500 
# 
# 
# High freq. dielectric constant tensor:
#      x y z
#    x 1.747270 0.000000 0.000000 
#    y 0.000000 1.751490 0.000000 
#    z 0.000000 0.000000 1.731560 
# 
# From -- ./inp_files/5272.got.cif
#   From: 2010.03.12/outbox.cif.g09.slc.cpg/sg35_3_cif.got.tgz:5272.got - 2010.04.14 02:02:04.
