data_PCOD8173996
_publ_section_title
;
Structure prediction by ZEFSAII (Michael W. Deem and Ramdas Pophale) SiO2 
 PCOD8173996
Probable space group: C M M 2
;
_chemical_formula_sum "Si O2"
_cell_formula_units_Z 40
_cell_length_a 14.750538
_cell_length_b 16.366001
_cell_length_c 7.638480
_cell_angle_alpha 90.000000
_cell_angle_beta 90.000000
_cell_angle_gamma 90.000000
_cell_volume 1843.984983
_symmetry_space_group_name_H-M "C M M 2"
_symmetry_group_IT_number 35
_symmetry_cell_setting 'orthorhombic'
loop_
_space_group_symop_operation_xyz
x,y,z
-x,-y,z
-x,y,z
x,-y,z
1/2+x,1/2+y,z
1/2-x,1/2-y,z
1/2-x,1/2+y,z
1/2+x,1/2-y,z
loop_
_atom_site_type_symbol
_atom_site_label
_atom_site_fract_x
_atom_site_fract_y
_atom_site_fract_z
Si Si1 0.894852 0.322736 0.062830
Si Si2 0.728680 0.844356 0.747056
Si Si3 0.096646 0.089855 0.308389
Si Si4 0.707900 0.096642 0.379749
Si Si5 0.598960 0.640631 0.941084
O O1 0.856156 0.353655 0.248481
O O2 0.000000 0.347804 0.052042
O O3 0.839976 0.364315 0.904788
O O4 0.880094 0.226123 0.041459
O O5 0.750000 0.750000 0.711805
O O6 0.680475 0.885833 0.580048
O O7 0.826553 0.883607 0.796261
O O8 0.188963 0.133220 0.370803
O O9 0.000000 0.135512 0.356868
O O10 0.094024 0.000000 0.393200
O O11 0.101090 0.076531 0.098507
O O12 0.702631 0.000000 0.336118
O O13 0.500000 0.643179 0.847956
#
# Coordination Sequence:
#
# PCOD8173996 Si02
#       5
#     8   8   8   8   8
#     4  10  22  41  61  84 117 158 206 254 295 341
#     4  10  22  37  60  87 121 153 197 248 302 355
#     4   9  18  33  55  85 119 151 184 230 295 364
#     4  11  24  38  59  89 120 158 201 243 301 364
#     4   9  18  36  62  89 116 152 194 239 298 360
#
# _framework density 21.692152
#
# number of rings (size 3 to 8) (size 9 to 14) (size 15 to 20)
#    0.000    2.200    2.000    0.000    2.800    3.600 
#    0.000    0.000    0.000    0.000    0.000    0.000 
#    0.000    0.000    0.000    0.000    0.000    0.000 
#
# Total GULP energy -247773.426962 kJ/mol
# GULP energy per Si atom -12388.671348 kJ/mol
# Density = 2.164278 g / cm^3
# Si number density = 21.692152 Si / 1000 Ang^3
#
#
#
# Elastic Constant Matrix: (Units=GPa)
#
#
# Indices 1 2 3 4 5 6 
#
# 1 153.5396 20.9958 56.2028 0.0000 0.0000 0.0000
# 2 20.9958 37.6468 17.4653 0.0000 0.0000 0.0000
# 3 56.2028 17.4653 128.1855 0.0000 0.0000 0.0000
# 4 0.0000 0.0000 0.0000 24.9361 0.0000 0.0000
# 5 0.0000 0.0000 0.0000 0.0000 18.0767 0.0000
# 6 0.0000 0.0000 0.0000 0.0000 0.0000 15.7330
#
#
#
# Elastic Compliance Matrix: (Units=1/GPa)
#
#
# Indices 1 2 3 4 5 6 
#
# 1 0.008074 -0.003054 -0.003124 0.000000 0.000000 0.000000
# 2 -0.003054 0.029510 -0.002682 0.000000 0.000000 0.000000
# 3 -0.003124 -0.002682 0.009536 0.000000 0.000000 0.000000
# 4 0.000000 0.000000 0.000000 0.040103 0.000000 0.000000
# 5 0.000000 0.000000 0.000000 0.000000 0.055320 0.000000
# 6 0.000000 0.000000 0.000000 0.000000 0.000000 0.063561
#
#
# Mechanical properties :
#
#
# Convention : Reuss Voigt Hill
#
# Bulk Modulus (GPa) = 34.01218 56.52218 45.26718
# Shear Modulus (GPa) = 21.40202 26.72969 24.06585
#
# Velocity S-wave (km/s) = 3.14447 3.51412 3.33442
# Velocity P-wave (km/s) = 5.37560 6.52522 5.97811
#
# Compressibility (1/GPa) = 0.02940124
#
# Stress axis : x y z
#
# Youngs Moduli (GPa) = 123.85306 33.88697 104.86222
#
# Poissons Ratio (x) = 0.10348 0.32759
# Poissons Ratio (y) = 0.37820 0.28123
# Poissons Ratio (z) = 0.38692 0.09088
#
# Static dielectric constant tensor:
#      x y z
#    x 4.251800 0.000000 0.000000 
#    y 0.000000 3.581560 0.000000 
#    z 0.000000 0.000000 3.682960 
# 
# 
# High freq. dielectric constant tensor:
#      x y z
#    x 1.863350 0.000000 0.000000 
#    y 0.000000 1.822700 0.000000 
#    z 0.000000 0.000000 1.838200 
# 
# From -- ./inp_files/6999.got.cif
#   From: 2010.03.12/outbox.cif.g09.slc.cpg/sg35_4_cif.got.tgz:6999.got - 2010.04.14 02:02:04.
