data_PCOD8173099
_publ_section_title
;
Structure prediction by ZEFSAII (Michael W. Deem and Ramdas Pophale) SiO2 
 PCOD8173099
Probable space group: C M M 2
;
_chemical_formula_sum "Si O2"
_cell_formula_units_Z 64
_cell_length_a 9.251020
_cell_length_b 18.473558
_cell_length_c 20.338660
_cell_angle_alpha 90.000000
_cell_angle_beta 90.000000
_cell_angle_gamma 90.000000
_cell_volume 3475.861832
_symmetry_space_group_name_H-M "C M M 2"
_symmetry_group_IT_number 35
_symmetry_cell_setting 'orthorhombic'
loop_
_space_group_symop_operation_xyz
x,y,z
-x,-y,z
-x,y,z
x,-y,z
1/2+x,1/2+y,z
1/2-x,1/2-y,z
1/2-x,1/2+y,z
1/2+x,1/2-y,z
loop_
_atom_site_type_symbol
_atom_site_label
_atom_site_fract_x
_atom_site_fract_y
_atom_site_fract_z
Si Si1 0.330450 0.174649 0.001350
Si Si2 0.333308 0.084078 0.873262
Si Si3 0.667727 0.678266 0.621636
Si Si4 0.330159 0.082805 0.125848
Si Si5 0.330260 0.323680 0.772100
Si Si6 0.328956 0.674194 0.381920
Si Si7 0.328675 0.419716 0.504132
Si Si8 0.168042 0.083087 0.255344
O O1 0.500000 0.189779 0.004709
O O2 0.250000 0.250000 0.995348
O O3 0.276530 0.132255 0.065864
O O4 0.289640 0.125995 0.939056
O O5 0.500000 0.098197 0.854433
O O6 0.231909 0.110452 0.814212
O O7 0.303446 0.000000 0.885772
O O8 0.500000 0.695076 0.612035
O O9 0.750000 0.750000 0.599959
O O10 0.702741 0.656527 0.696472
O O11 0.719229 0.613797 0.574061
O O12 0.500000 0.089697 0.136324
O O13 0.253749 0.111178 0.191741
O O14 0.285718 0.000000 0.110669
O O15 0.500000 0.313816 0.785518
O O16 0.250000 0.250000 0.792973
O O17 0.500000 0.686557 0.385552
O O18 0.250000 0.750000 0.381049
O O19 0.271075 0.629301 0.444507
O O20 0.283463 0.630553 0.317081
O O21 0.500000 0.425032 0.499381
O O22 0.260816 0.500000 0.498989
O O23 0.000000 0.092442 0.240102
O O24 0.206720 0.000000 0.271448
#
# Coordination Sequence:
#
# PCOD8173099 Si02
#       8
#     8   8   8   8   8   8   8   8
#     4  10  21  36  54  76 102 132 168 209 251 299
#     4  10  21  37  56  77 103 136 172 212 259 308
#     4   9  18  32  52  76 102 133 167 206 250 297
#     4   9  18  34  55  76  99 130 166 203 246 296
#     4  10  20  34  53  78 107 138 172 211 255 304
#     4  10  20  33  51  74 100 131 166 206 249 294
#     4   9  17  31  52  75  98 129 170 210 248 293
#     4   9  18  33  52  74 100 130 165 204 245 291
#
# _framework density 18.412699
#
# number of rings (size 3 to 8) (size 9 to 14) (size 15 to 20)
#    0.000    2.500    0.000    1.875    0.000    7.250 
#    0.000    3.750    0.000    4.500    0.000    0.000 
#    0.000    0.000    0.000    0.000    0.000    0.000 
#
# Total GULP energy -396876.203568 kJ/mol
# GULP energy per Si atom -12402.381362 kJ/mol
# Density = 1.837079 g / cm^3
# Si number density = 18.412699 Si / 1000 Ang^3
#
#
#
# Elastic Constant Matrix: (Units=GPa)
#
#
# Indices 1 2 3 4 5 6 
#
# 1 44.6153 48.6479 48.8851 0.0000 0.0000 0.0000
# 2 48.6479 147.1488 91.1737 0.0000 0.0000 0.0000
# 3 48.8851 91.1737 143.9155 0.0000 0.0000 0.0000
# 4 0.0000 0.0000 0.0000 37.8299 0.0000 0.0000
# 5 0.0000 0.0000 0.0000 0.0000 24.1447 0.0000
# 6 0.0000 0.0000 0.0000 0.0000 0.0000 30.9126
#
#
#
# Elastic Compliance Matrix: (Units=1/GPa)
#
#
# Indices 1 2 3 4 5 6 
#
# 1 0.040793 -0.008068 -0.008746 0.000000 0.000000 0.000000
# 2 -0.008068 0.012783 -0.005358 0.000000 0.000000 0.000000
# 3 -0.008746 -0.005358 0.013313 0.000000 0.000000 0.000000
# 4 0.000000 0.000000 0.000000 0.026434 0.000000 0.000000
# 5 0.000000 0.000000 0.000000 0.000000 0.041417 0.000000
# 6 0.000000 0.000000 0.000000 0.000000 0.000000 0.032349
#
#
# Mechanical properties :
#
#
# Convention : Reuss Voigt Hill
#
# Bulk Modulus (GPa) = 44.35074 79.23255 61.79165
# Shear Modulus (GPa) = 22.83654 28.37564 25.60609
#
# Velocity S-wave (km/s) = 3.52555 3.92993 3.73322
# Velocity P-wave (km/s) = 6.38060 7.98232 7.22597
#
# Compressibility (1/GPa) = 0.02254754
#
# Stress axis : x y z
#
# Youngs Moduli (GPa) = 24.51385 78.23088 75.11200
#
# Poissons Ratio (x) = 0.63114 0.65690
# Poissons Ratio (y) = 0.19777 0.40243
# Poissons Ratio (z) = 0.21439 0.41914
#
# Static dielectric constant tensor:
#      x y z
#    x 3.215900 0.000000 0.000000 
#    y 0.000000 3.441100 0.000000 
#    z 0.000000 0.000000 3.583550 
# 
# 
# High freq. dielectric constant tensor:
#      x y z
#    x 1.693990 0.000000 0.000000 
#    y 0.000000 1.716220 0.000000 
#    z 0.000000 0.000000 1.728250 
# 
# From -- ./inp_files/18334.got.cif
#   From: 2010.03.12/outbox.cif.g09.slc.cpg/sg35_10_cif.got.tgz:18334.got - 2010.04.14 02:02:04.
