data_PCOD8173394
_publ_section_title
;
Structure prediction by ZEFSAII (Michael W. Deem and Ramdas Pophale) SiO2 
 PCOD8173394
Probable space group: C M M 2
;
_chemical_formula_sum "Si O2"
_cell_formula_units_Z 64
_cell_length_a 29.559775
_cell_length_b 9.017184
_cell_length_c 12.150471
_cell_angle_alpha 90.000000
_cell_angle_beta 90.000000
_cell_angle_gamma 90.000000
_cell_volume 3238.658595
_symmetry_space_group_name_H-M "C M M 2"
_symmetry_group_IT_number 35
_symmetry_cell_setting 'orthorhombic'
loop_
_space_group_symop_operation_xyz
x,y,z
-x,-y,z
-x,y,z
x,-y,z
1/2+x,1/2+y,z
1/2-x,1/2-y,z
1/2-x,1/2+y,z
1/2+x,1/2-y,z
loop_
_atom_site_type_symbol
_atom_site_label
_atom_site_fract_x
_atom_site_fract_y
_atom_site_fract_z
Si Si1 0.702229 0.327311 0.863020
Si Si2 0.623958 0.170405 0.242434
Si Si3 0.798274 0.826385 0.619513
Si Si4 0.879321 0.824755 0.013681
Si Si5 0.551901 0.172528 0.422651
Si Si6 0.702261 0.827848 0.411384
Si Si7 0.446820 0.828290 0.858888
Si Si8 0.446288 0.334286 0.641056
O O1 0.711755 0.500000 0.877776
O O2 0.750000 0.250000 0.884480
O O3 0.681439 0.295133 0.740827
O O4 0.665557 0.269004 0.950059
O O5 0.581563 0.217609 0.317824
O O6 0.670659 0.194092 0.306296
O O7 0.618681 0.000000 0.204065
O O8 0.624783 0.278949 0.139604
O O9 0.750000 0.750000 0.616569
O O10 0.823733 0.746974 0.517138
O O11 0.794634 0.000000 0.595665
O O12 0.923339 0.748317 0.962533
O O13 0.884976 0.000000 0.003378
O O14 0.500000 0.214172 0.396163
O O15 0.570538 0.259178 0.528935
O O16 0.557259 0.000000 0.450366
O O17 0.750000 0.750000 0.385152
O O18 0.710384 0.000000 0.436865
O O19 0.500000 0.802686 0.873078
O O20 0.428411 0.756049 0.746087
O O21 0.434122 0.000000 0.855930
O O22 0.500000 0.337583 0.642610
O O23 0.425780 0.500000 0.647088
#
# Coordination Sequence:
#
# PCOD8173394 Si02
#       8
#     8   8   8   8   8   8   8   8
#     4   9  20  37  57  83 113 145 180 223 275 330
#     4  10  23  40  55  77 108 144 189 233 272 323
#     4   9  16  30  53  80 109 137 171 215 267 328
#     4  11  24  40  57  81 112 145 188 237 282 329
#     4   9  18  35  58  81 108 142 179 221 270 326
#     4  10  20  35  55  79 109 141 177 222 271 324
#     4  10  21  38  60  84 112 148 187 226 273 330
#     4   9  17  31  54  85 117 144 175 219 272 329
#
# _framework density 19.761268000000001
#
# number of rings (size 3 to 8) (size 9 to 14) (size 15 to 20)
#    0.000    2.375    0.000    2.625    0.000    7.250 
#    0.000    6.250    0.000    0.000    0.000    0.000 
#    0.000    0.000    0.000    0.000    0.000    0.000 
#
# Total GULP energy -396745.796365 kJ/mol
# GULP energy per Si atom -12398.306136 kJ/mol
# Density = 1.971629 g / cm^3
# Si number density = 19.761268 Si / 1000 Ang^3
#
#
#
# Elastic Constant Matrix: (Units=GPa)
#
#
# Indices 1 2 3 4 5 6 
#
# 1 74.8568 46.8826 51.2905 0.0000 0.0000 0.0000
# 2 46.8826 117.5221 70.7005 0.0000 0.0000 0.0000
# 3 51.2905 70.7005 147.7642 0.0000 0.0000 0.0000
# 4 0.0000 0.0000 0.0000 40.4639 0.0000 0.0000
# 5 0.0000 0.0000 0.0000 0.0000 19.2376 0.0000
# 6 0.0000 0.0000 0.0000 0.0000 0.0000 21.1066
#
#
#
# Elastic Compliance Matrix: (Units=1/GPa)
#
#
# Indices 1 2 3 4 5 6 
#
# 1 0.019574 -0.005225 -0.004294 0.000000 0.000000 0.000000
# 2 -0.005225 0.013343 -0.004571 0.000000 0.000000 0.000000
# 3 -0.004294 -0.004571 0.010445 0.000000 0.000000 0.000000
# 4 0.000000 0.000000 0.000000 0.024713 0.000000 0.000000
# 5 0.000000 0.000000 0.000000 0.000000 0.051982 0.000000
# 6 0.000000 0.000000 0.000000 0.000000 0.000000 0.047379
#
#
# Mechanical properties :
#
#
# Convention : Reuss Voigt Hill
#
# Bulk Modulus (GPa) = 65.86742 75.32115 70.59428
# Shear Modulus (GPa) = 24.91586 27.57959 26.24773
#
# Velocity S-wave (km/s) = 3.55469 3.73988 3.64846
# Velocity P-wave (km/s) = 7.08884 7.53971 7.31775
#
# Compressibility (1/GPa) = 0.01518201
#
# Stress axis : x y z
#
# Youngs Moduli (GPa) = 51.08936 74.94529 95.74000
#
# Poissons Ratio (x) = 0.39159 0.41112
# Poissons Ratio (y) = 0.26694 0.43759
# Poissons Ratio (z) = 0.21939 0.34254
#
# Static dielectric constant tensor:
#      x y z
#    x 3.475130 0.000000 0.000000 
#    y 0.000000 3.696890 0.000000 
#    z 0.000000 0.000000 3.897840 
# 
# 
# High freq. dielectric constant tensor:
#      x y z
#    x 1.761280 0.000000 0.000000 
#    y 0.000000 1.775830 0.000000 
#    z 0.000000 0.000000 1.773530 
# 
# From -- ./inp_files/14603.got.cif
#   From: 2010.03.12/outbox.cif.g09.slc.cpg/sg35_8_cif.got.tgz:14603.got - 2010.04.14 02:02:04.
