data_PCOD8173815
_publ_section_title
;
Structure prediction by ZEFSAII (Michael W. Deem and Ramdas Pophale) SiO2 
 PCOD8173815
Probable space group: C M M 2
;
_chemical_formula_sum "Si O2"
_cell_formula_units_Z 56
_cell_length_a 8.889712
_cell_length_b 18.647088
_cell_length_c 18.313455
_cell_angle_alpha 90.000000
_cell_angle_beta 90.000000
_cell_angle_gamma 90.000000
_cell_volume 3035.770926
_symmetry_space_group_name_H-M "C M M 2"
_symmetry_group_IT_number 35
_symmetry_cell_setting 'orthorhombic'
loop_
_space_group_symop_operation_xyz
x,y,z
-x,-y,z
-x,y,z
x,-y,z
1/2+x,1/2+y,z
1/2-x,1/2-y,z
1/2-x,1/2+y,z
1/2+x,1/2-y,z
loop_
_atom_site_type_symbol
_atom_site_label
_atom_site_fract_x
_atom_site_fract_y
_atom_site_fract_z
Si Si1 0.324317 0.916759 0.852560
Si Si2 0.174987 0.174130 0.409781
Si Si3 0.678838 0.580510 0.117416
Si Si4 0.177591 0.172243 0.252041
Si Si5 0.672727 0.416889 0.703007
Si Si6 0.321601 0.672105 0.979431
Si Si7 0.677492 0.327310 0.566787
O O1 0.500000 0.901177 0.862175
O O2 0.274829 0.894419 0.771346
O O3 0.230265 0.867991 0.906937
O O4 0.285302 0.000000 0.867331
O O5 0.250000 0.250000 0.409501
O O6 0.218165 0.136906 0.332130
O O7 0.219707 0.136320 0.487112
O O8 0.000000 0.188592 0.409988
O O9 0.500000 0.577169 0.118299
O O10 0.745499 0.500000 0.112828
O O11 0.740658 0.618173 0.190898
O O12 0.735750 0.625802 0.048203
O O13 0.250000 0.250000 0.241346
O O14 0.000000 0.182164 0.242665
O O15 0.500000 0.396158 0.719981
O O16 0.688114 0.500000 0.685536
O O17 0.737801 0.377179 0.631657
O O18 0.500000 0.679976 0.978491
O O19 0.250000 0.750000 0.984468
O O20 0.500000 0.318527 0.573678
O O21 0.750000 0.250000 0.575236
#
# Coordination Sequence:
#
# PCOD8173815 Si02
#       7
#     8   8   8   8   8   8   8
#     4  10  21  37  56  77 101 129 164 205 248 298
#     4   8  14  25  42  66  94 124 158 196 240 285
#     4   9  18  32  50  73 100 130 163 198 240 291
#     4   9  16  28  48  71  96 126 161 201 241 284
#     4   9  18  33  51  70  96 131 166 199 241 293
#     4  11  22  36  55  77 102 131 165 205 248 295
#     4   9  17  29  46  69  96 126 162 202 242 286
#
# _framework density 18.446715000000001
#
# number of rings (size 3 to 8) (size 9 to 14) (size 15 to 20)
#    0.000    2.714    0.000    1.714    0.000    2.571 
#    0.000    2.857    0.000    6.429    0.000    0.000 
#    0.000   11.429    0.000    0.000    0.000    0.000 
#
# Total GULP energy -346947.467263 kJ/mol
# GULP energy per Si atom -12390.980974 kJ/mol
# Density = 1.840473 g / cm^3
# Si number density = 18.446715 Si / 1000 Ang^3
#
#
#
# Elastic Constant Matrix: (Units=GPa)
#
#
# Indices 1 2 3 4 5 6 
#
# 1 34.9647 28.4099 34.6587 0.0000 0.0000 0.0000
# 2 28.4099 102.2786 87.1314 0.0000 0.0000 0.0000
# 3 34.6587 87.1314 183.8018 0.0000 0.0000 0.0000
# 4 0.0000 0.0000 0.0000 23.6360 0.0000 0.0000
# 5 0.0000 0.0000 0.0000 0.0000 19.0901 0.0000
# 6 0.0000 0.0000 0.0000 0.0000 0.0000 21.0988
#
#
#
# Elastic Compliance Matrix: (Units=1/GPa)
#
#
# Indices 1 2 3 4 5 6 
#
# 1 0.038350 -0.007535 -0.003660 0.000000 0.000000 0.000000
# 2 -0.007535 0.017881 -0.007056 0.000000 0.000000 0.000000
# 3 -0.003660 -0.007056 0.009475 0.000000 0.000000 0.000000
# 4 0.000000 0.000000 0.000000 0.042308 0.000000 0.000000
# 5 0.000000 0.000000 0.000000 0.000000 0.052383 0.000000
# 6 0.000000 0.000000 0.000000 0.000000 0.000000 0.047396
#
#
# Mechanical properties :
#
#
# Convention : Reuss Voigt Hill
#
# Bulk Modulus (GPa) = 34.23921 69.04944 51.64432
# Shear Modulus (GPa) = 19.68275 24.15467 21.91871
#
# Velocity S-wave (km/s) = 3.27005 3.62253 3.45079
# Velocity P-wave (km/s) = 5.73228 7.41688 6.62831
#
# Compressibility (1/GPa) = 0.02920628
#
# Stress axis : x y z
#
# Youngs Moduli (GPa) = 26.07550 55.92565 105.53598
#
# Poissons Ratio (x) = 0.42139 0.38622
# Poissons Ratio (y) = 0.19648 0.74462
# Poissons Ratio (z) = 0.09543 0.39459
#
# Static dielectric constant tensor:
#      x y z
#    x 2.338630 0.000000 0.000000 
#    y 0.000000 3.289990 0.000000 
#    z 0.000000 0.000000 4.079280 
# 
# 
# High freq. dielectric constant tensor:
#      x y z
#    x 1.698050 0.000000 0.000000 
#    y 0.000000 1.689910 0.000000 
#    z 0.000000 0.000000 1.743770 
# 
# From -- ./inp_files/18203.got.cif
#   From: 2010.03.12/outbox.cif.g09.slc.cpg/sg35_10_cif.got.tgz:18203.got - 2010.04.14 02:02:04.
