data_PCOD8173999
_publ_section_title
;
Structure prediction by ZEFSAII (Michael W. Deem and Ramdas Pophale) SiO2 
 PCOD8173999
Probable space group: C M M 2
;
_chemical_formula_sum "Si O2"
_cell_formula_units_Z 48
_cell_length_a 8.776134
_cell_length_b 28.183344
_cell_length_c 10.203885
_cell_angle_alpha 90.000000
_cell_angle_beta 90.000000
_cell_angle_gamma 90.000000
_cell_volume 2523.837115
_symmetry_space_group_name_H-M "C M M 2"
_symmetry_group_IT_number 35
_symmetry_cell_setting 'orthorhombic'
loop_
_space_group_symop_operation_xyz
x,y,z
-x,-y,z
-x,y,z
x,-y,z
1/2+x,1/2+y,z
1/2-x,1/2-y,z
1/2-x,1/2+y,z
1/2+x,1/2-y,z
loop_
_atom_site_type_symbol
_atom_site_label
_atom_site_fract_x
_atom_site_fract_y
_atom_site_fract_z
Si Si1 0.680677 0.699837 0.040190
Si Si2 0.178834 0.447137 0.864184
Si Si3 0.678133 0.644115 0.781994
Si Si4 0.319178 0.698486 0.527186
Si Si5 0.180707 0.551801 0.158844
Si Si6 0.181399 0.352145 0.284267
O O1 0.500000 0.703200 0.060871
O O2 0.750000 0.750000 0.000894
O O3 0.760923 0.682826 0.171922
O O4 0.725975 0.665129 0.921980
O O5 0.220126 0.500000 0.813306
O O6 0.252184 0.408432 0.767847
O O7 0.000000 0.439133 0.863111
O O8 0.243999 0.440372 0.011705
O O9 0.500000 0.638968 0.767210
O O10 0.738223 0.678457 0.666907
O O11 0.500000 0.702357 0.517987
O O12 0.250000 0.750000 0.502653
O O13 0.258487 0.661990 0.419540
O O14 0.236346 0.500000 0.211630
O O15 0.237182 0.594095 0.252760
O O16 0.000000 0.552214 0.150920
O O17 0.000000 0.348211 0.294873
#
# Coordination Sequence:
#
# PCOD8173999 Si02
#       6
#     8   8   8   8   8   8
#     4  11  22  36  55  81 110 141 184 235 283 335
#     4   9  17  32  57  87 116 147 185 229 275 329
#     4  10  22  38  57  82 113 148 186 231 284 334
#     4  11  24  42  59  79 111 151 192 235 280 336
#     4   8  15  30  54  84 114 143 179 225 274 323
#     4  11  21  36  59  85 112 148 186 229 282 333
#
# _framework density 19.018660000000001
#
# number of rings (size 3 to 8) (size 9 to 14) (size 15 to 20)
#    0.000    2.000    1.667    3.500    0.000    2.333 
#    0.000    0.833    0.000    5.000    0.000    0.000 
#    0.000    0.000    0.000    0.000    0.000    0.000 
#
# Total GULP energy -297584.319303 kJ/mol
# GULP energy per Si atom -12399.346638 kJ/mol
# Density = 1.897537 g / cm^3
# Si number density = 19.018660 Si / 1000 Ang^3
#
#
#
# Elastic Constant Matrix: (Units=GPa)
#
#
# Indices 1 2 3 4 5 6 
#
# 1 46.0196 33.3159 30.7492 0.0000 0.0000 0.0000
# 2 33.3159 139.6867 30.9872 0.0000 0.0000 0.0000
# 3 30.7492 30.9872 73.1420 0.0000 0.0000 0.0000
# 4 0.0000 0.0000 0.0000 32.6001 0.0000 0.0000
# 5 0.0000 0.0000 0.0000 0.0000 23.5030 0.0000
# 6 0.0000 0.0000 0.0000 0.0000 0.0000 30.2288
#
#
#
# Elastic Compliance Matrix: (Units=1/GPa)
#
#
# Indices 1 2 3 4 5 6 
#
# 1 0.033512 -0.005372 -0.011813 0.000000 0.000000 0.000000
# 2 -0.005372 0.008763 -0.001454 0.000000 0.000000 0.000000
# 3 -0.011813 -0.001454 0.019254 0.000000 0.000000 0.000000
# 4 0.000000 0.000000 0.000000 0.030675 0.000000 0.000000
# 5 0.000000 0.000000 0.000000 0.000000 0.042548 0.000000
# 6 0.000000 0.000000 0.000000 0.000000 0.000000 0.033081
#
#
# Mechanical properties :
#
#
# Convention : Reuss Voigt Hill
#
# Bulk Modulus (GPa) = 41.23493 49.88364 45.55929
# Shear Modulus (GPa) = 23.45287 28.18612 25.81949
#
# Velocity S-wave (km/s) = 3.51543 3.85388 3.68854
# Velocity P-wave (km/s) = 6.18111 6.78888 6.49211
#
# Compressibility (1/GPa) = 0.02425129
#
# Stress axis : x y z
#
# Youngs Moduli (GPa) = 29.84002 114.11987 51.93718
#
# Poissons Ratio (x) = 0.61309 0.61351
# Poissons Ratio (y) = 0.16031 0.07551
# Poissons Ratio (z) = 0.35249 0.16591
#
# Static dielectric constant tensor:
#      x y z
#    x 3.302530 0.000000 0.000000 
#    y 0.000000 3.836670 0.000000 
#    z 0.000000 0.000000 3.478790 
# 
# 
# High freq. dielectric constant tensor:
#      x y z
#    x 1.725970 0.000000 0.000000 
#    y 0.000000 1.758370 0.000000 
#    z 0.000000 0.000000 1.722710 
# 
# From -- ./inp_files/5311.got.cif
#   From: 2010.03.12/outbox.cif.g09.slc.cpg/sg35_3_cif.got.tgz:5311.got - 2010.04.14 02:02:04.
