data_PCOD8173883
_publ_section_title
;
Structure prediction by ZEFSAII (Michael W. Deem and Ramdas Pophale) SiO2 
 PCOD8173883
Probable space group: C M M 2
;
_chemical_formula_sum "Si O2"
_cell_formula_units_Z 52
_cell_length_a 23.210242
_cell_length_b 15.883377
_cell_length_c 6.782820
_cell_angle_alpha 90.000000
_cell_angle_beta 90.000000
_cell_angle_gamma 90.000000
_cell_volume 2500.534235
_symmetry_space_group_name_H-M "C M M 2"
_symmetry_group_IT_number 35
_symmetry_cell_setting 'orthorhombic'
loop_
_space_group_symop_operation_xyz
x,y,z
-x,-y,z
-x,y,z
x,-y,z
1/2+x,1/2+y,z
1/2-x,1/2-y,z
1/2-x,1/2+y,z
1/2+x,1/2-y,z
loop_
_atom_site_type_symbol
_atom_site_label
_atom_site_fract_x
_atom_site_fract_y
_atom_site_fract_z
Si Si1 0.500000 0.784865 0.930380
Si Si2 0.701733 0.404879 0.563951
Si Si3 0.211622 0.831552 0.976454
Si Si4 0.000000 0.597461 0.549116
Si Si5 0.500000 0.593217 0.048670
Si Si6 0.586100 0.824574 0.261089
Si Si7 0.609265 0.354528 0.267317
Si Si8 0.206355 0.406286 0.250825
O O1 0.500000 0.833043 0.722149
O O2 0.500000 0.680480 0.915752
O O3 0.555504 0.818313 0.048632
O O4 0.711018 0.500000 0.636908
O O5 0.697159 0.343064 0.747939
O O6 0.643005 0.403714 0.437493
O O7 0.756025 0.373231 0.435701
O O8 0.250000 0.750000 0.016929
O O9 0.150941 0.828702 0.087027
O O10 0.251888 0.906612 0.059798
O O11 0.055976 0.611149 0.411948
O O12 0.000000 0.500000 0.625629
O O13 0.500000 0.500000 0.937061
O O14 0.443353 0.590438 0.185851
O O15 0.584179 0.732001 0.359274
O O16 0.651534 0.848504 0.220765
O O17 0.184235 0.500000 0.288237
#
# Coordination Sequence:
#
# PCOD8173883 Si02
#       8
#     4   8   8   4   4   8   8   8
#     4   9  23  41  61  92 128 162 215 269 321 387
#     4  10  23  38  59  92 127 161 206 260 312 378
#     4  11  22  37  62  91 123 167 205 253 316 376
#     4  11  24  41  63  89 123 166 212 265 327 382
#     4  10  21  42  70  95 127 174 217 268 330 385
#     4  10  21  40  62  87 120 162 210 260 317 380
#     4  10  22  41  65  91 125 167 212 263 320 384
#     4  10  21  38  59  86 122 160 205 256 309 374
#
# _framework density 20.795556999999999
#
# number of rings (size 3 to 8) (size 9 to 14) (size 15 to 20)
#    0.000    1.846    1.538    1.846    2.154    7.385 
#    0.000    0.769    0.000    8.308    0.000    0.000 
#    0.000    0.000    0.000    0.000    0.000    0.000 
#
# Total GULP energy -322245.909477 kJ/mol
# GULP energy per Si atom -12394.073441 kJ/mol
# Density = 2.074823 g / cm^3
# Si number density = 20.795557 Si / 1000 Ang^3
#
#
#
# Elastic Constant Matrix: (Units=GPa)
#
#
# Indices 1 2 3 4 5 6 
#
# 1 119.4536 27.6270 32.8822 0.0000 0.0000 0.0000
# 2 27.6270 102.4585 31.6720 0.0000 0.0000 0.0000
# 3 32.8822 31.6720 98.1709 0.0000 0.0000 0.0000
# 4 0.0000 0.0000 0.0000 28.6285 0.0000 0.0000
# 5 0.0000 0.0000 0.0000 0.0000 12.6565 0.0000
# 6 0.0000 0.0000 0.0000 0.0000 0.0000 27.4586
#
#
#
# Elastic Compliance Matrix: (Units=1/GPa)
#
#
# Indices 1 2 3 4 5 6 
#
# 1 0.009497 -0.001752 -0.002616 0.000000 0.000000 0.000000
# 2 -0.001752 0.011165 -0.003015 0.000000 0.000000 0.000000
# 3 -0.002616 -0.003015 0.012035 0.000000 0.000000 0.000000
# 4 0.000000 0.000000 0.000000 0.034930 0.000000 0.000000
# 5 0.000000 0.000000 0.000000 0.000000 0.079011 0.000000
# 6 0.000000 0.000000 0.000000 0.000000 0.000000 0.036418
#
#
# Mechanical properties :
#
#
# Convention : Reuss Voigt Hill
#
# Bulk Modulus (GPa) = 55.77020 56.04950 55.90985
# Shear Modulus (GPa) = 24.53407 28.94218 26.73812
#
# Velocity S-wave (km/s) = 3.43851 3.73466 3.58964
# Velocity P-wave (km/s) = 6.53001 6.75337 6.64263
#
# Compressibility (1/GPa) = 0.01793072
#
# Stress axis : x y z
#
# Youngs Moduli (GPa) = 105.29985 89.56959 83.09011
#
# Poissons Ratio (x) = 0.15694 0.21733
# Poissons Ratio (y) = 0.18450 0.25052
# Poissons Ratio (z) = 0.27542 0.27005
#
# Static dielectric constant tensor:
#      x y z
#    x 3.842480 0.000000 0.000000 
#    y 0.000000 3.791180 0.000000 
#    z 0.000000 0.000000 3.427960 
# 
# 
# High freq. dielectric constant tensor:
#      x y z
#    x 1.827410 0.000000 0.000000 
#    y 0.000000 1.822220 0.000000 
#    z 0.000000 0.000000 1.787020 
# 
# From -- ./inp_files/3754.got.cif
#   From: 2010.03.12/outbox.cif.g09.slc.cpg/sg35_2_cif.got.tgz:3754.got - 2010.04.14 02:02:04.
