data_PCOD8173928
_publ_section_title
;
Structure prediction by ZEFSAII (Michael W. Deem and Ramdas Pophale) SiO2 
 PCOD8173928
Probable space group: C M M 2
;
_chemical_formula_sum "Si O2"
_cell_formula_units_Z 32
_cell_length_a 23.258762
_cell_length_b 12.912631
_cell_length_c 5.213194
_cell_angle_alpha 90.000000
_cell_angle_beta 90.000000
_cell_angle_gamma 90.000000
_cell_volume 1565.687996
_symmetry_space_group_name_H-M "C M M 2"
_symmetry_group_IT_number 35
_symmetry_cell_setting 'orthorhombic'
loop_
_space_group_symop_operation_xyz
x,y,z
-x,-y,z
-x,y,z
x,-y,z
1/2+x,1/2+y,z
1/2-x,1/2-y,z
1/2-x,1/2+y,z
1/2+x,1/2-y,z
loop_
_atom_site_type_symbol
_atom_site_label
_atom_site_fract_x
_atom_site_fract_y
_atom_site_fract_z
Si Si1 0.262495 0.000000 0.772550
Si Si2 0.639284 0.223988 0.325952
Si Si3 0.327776 0.679516 0.818011
Si Si4 0.564674 0.615845 0.557267
Si Si5 0.336821 0.000000 0.271798
O O1 0.223914 0.899739 0.815152
O O2 0.286220 0.000000 0.482790
O O3 0.312226 0.000000 0.984385
O O4 0.679003 0.241327 0.578120
O O5 0.582231 0.296648 0.346392
O O6 0.623502 0.102185 0.307534
O O7 0.676104 0.256147 0.079012
O O8 0.390353 0.623232 0.794176
O O9 0.500000 0.637818 0.655122
O O10 0.568992 0.500000 0.437068
#
# Coordination Sequence:
#
# PCOD8173928 Si02
#       5
#     4   8   8   8   4
#     4  12  24  38  65  90 121 168 200 254 309 353
#     4  10  23  40  61  88 127 159 202 254 291 371
#     4  10  21  39  60  90 124 151 204 251 303 360
#     4   9  20  40  68  94 121 155 196 257 322 361
#     4  12  26  40  59  88 125 170 212 236 299 357
#
# _framework density 20.438298
#
# number of rings (size 3 to 8) (size 9 to 14) (size 15 to 20)
#    1.500    0.250    1.250    3.000    1.750    7.000 
#    0.000    3.125    0.000    0.000    0.000    0.000 
#    0.000    0.000    0.000    0.000    0.000    0.000 
#
# Total GULP energy -198223.192434 kJ/mol
# GULP energy per Si atom -12388.949527 kJ/mol
# Density = 2.039178 g / cm^3
# Si number density = 20.438298 Si / 1000 Ang^3
#
#
#
# Elastic Constant Matrix: (Units=GPa)
#
#
# Indices 1 2 3 4 5 6 
#
# 1 72.1200 30.2063 3.1128 0.0000 0.0000 0.0000
# 2 30.2063 142.4787 12.1610 0.0000 0.0000 0.0000
# 3 3.1128 12.1610 110.4296 0.0000 0.0000 0.0000
# 4 0.0000 0.0000 0.0000 19.6393 0.0000 0.0000
# 5 0.0000 0.0000 0.0000 0.0000 9.0312 0.0000
# 6 0.0000 0.0000 0.0000 0.0000 0.0000 16.5815
#
#
#
# Elastic Compliance Matrix: (Units=1/GPa)
#
#
# Indices 1 2 3 4 5 6 
#
# 1 0.015218 -0.003220 -0.000074 0.000000 0.000000 0.000000
# 2 -0.003220 0.007766 -0.000765 0.000000 0.000000 0.000000
# 3 -0.000074 -0.000765 0.009142 0.000000 0.000000 0.000000
# 4 0.000000 0.000000 0.000000 0.050918 0.000000 0.000000
# 5 0.000000 0.000000 0.000000 0.000000 0.110727 0.000000
# 6 0.000000 0.000000 0.000000 0.000000 0.000000 0.060308
#
#
# Mechanical properties :
#
#
# Convention : Reuss Voigt Hill
#
# Bulk Modulus (GPa) = 41.65210 46.22094 43.93652
# Shear Modulus (GPa) = 18.50481 27.68695 23.09588
#
# Velocity S-wave (km/s) = 3.01225 3.68456 3.36524
# Velocity P-wave (km/s) = 5.70279 6.38477 6.05339
#
# Compressibility (1/GPa) = 0.02400840
#
# Stress axis : x y z
#
# Youngs Moduli (GPa) = 65.71346 128.75857 109.38729
#
# Poissons Ratio (x) = 0.41458 0.00813
# Poissons Ratio (y) = 0.21159 0.08363
# Poissons Ratio (z) = 0.00489 0.09844
#
# Static dielectric constant tensor:
#      x y z
#    x 3.327540 0.000000 0.000000 
#    y 0.000000 3.909060 0.000000 
#    z 0.000000 0.000000 3.595890 
# 
# 
# High freq. dielectric constant tensor:
#      x y z
#    x 1.763540 0.000000 0.000000 
#    y 0.000000 1.814410 0.000000 
#    z 0.000000 0.000000 1.793090 
# 
# From -- ./inp_files/1221.got.cif
#   From: 2010.03.12/outbox.cif.g09.slc.cpg/sg35_1_cif.got.tgz:1221.got - 2010.04.14 02:02:04.
