data_PCOD8173041
_publ_section_title
;
Structure prediction by ZEFSAII (Michael W. Deem and Ramdas Pophale) SiO2 
 PCOD8173041
Probable space group: C M M 2
;
_chemical_formula_sum "Si O2"
_cell_formula_units_Z 64
_cell_length_a 9.754158
_cell_length_b 18.335378
_cell_length_c 20.647694
_cell_angle_alpha 90.000000
_cell_angle_beta 90.000000
_cell_angle_gamma 90.000000
_cell_volume 3692.761074
_symmetry_space_group_name_H-M "C M M 2"
_symmetry_group_IT_number 35
_symmetry_cell_setting 'orthorhombic'
loop_
_space_group_symop_operation_xyz
x,y,z
-x,-y,z
-x,y,z
x,-y,z
1/2+x,1/2+y,z
1/2-x,1/2-y,z
1/2-x,1/2+y,z
1/2+x,1/2-y,z
loop_
_atom_site_type_symbol
_atom_site_label
_atom_site_fract_x
_atom_site_fract_y
_atom_site_fract_z
Si Si1 0.837285 0.918918 0.660430
Si Si2 0.347387 0.586838 0.802900
Si Si3 0.343102 0.415693 0.416892
Si Si4 0.652613 0.913162 0.302900
Si Si5 0.843102 0.584307 0.916892
Si Si6 0.160852 0.678503 0.042454
Si Si7 0.660852 0.678503 0.542455
Si Si8 0.162715 0.418918 0.160430
O O1 0.794448 0.888784 0.731581
O O2 0.784166 0.863249 0.606153
O O3 0.000000 0.925015 0.656775
O O4 0.775316 0.000000 0.648152
O O5 0.500000 0.617642 0.816409
O O6 0.350258 0.500000 0.803684
O O7 0.246838 0.617225 0.858208
O O8 0.500000 0.405808 0.396123
O O9 0.307795 0.500000 0.430068
O O10 0.253163 0.382775 0.358208
O O11 0.308593 0.372937 0.481812
O O12 0.500000 0.882358 0.316409
O O13 0.705552 0.888784 0.231581
O O14 0.649741 0.000000 0.303685
O O15 0.807798 0.500000 0.930068
O O16 0.000000 0.594194 0.896124
O O17 0.808591 0.627062 0.981812
O O18 0.250000 0.750000 0.033689
O O19 0.215833 0.636751 0.106153
O O20 0.000000 0.698125 0.047605
O O21 0.500000 0.698125 0.547606
O O22 0.750000 0.750000 0.533689
O O23 0.224684 0.500000 0.148152
O O24 0.000000 0.425015 0.156775
#
# Coordination Sequence:
#
# PCOD8173041 Si02
#       8
#     8   8   8   8   8   8   8   8
#     4   8  14  28  51  73  90 115 154 192 225 268
#     4   8  14  26  47  73  95 115 145 188 232 271
#     4   9  17  30  49  71  93 119 152 189 228 270
#     4   8  14  26  47  73  95 115 145 188 232 271
#     4   9  17  30  49  71  93 119 152 189 228 270
#     4  10  20  33  48  67  93 124 156 190 227 268
#     4  10  20  33  48  67  93 124 156 190 227 268
#     4   8  14  28  51  73  90 115 154 192 225 268
#
# _framework density 17.331206000000002
#
# number of rings (size 3 to 8) (size 9 to 14) (size 15 to 20)
#    0.000    3.250    0.000    2.250    0.000    4.000 
#    0.000    2.500    0.000    9.750    0.000    0.000 
#    0.000    0.000    0.000    0.000    0.000    0.000 
#
# Total GULP energy -396647.887166 kJ/mol
# GULP energy per Si atom -12395.246474 kJ/mol
# Density = 1.729176 g / cm^3
# Si number density = 17.331206 Si / 1000 Ang^3
#
#
#
# Elastic Constant Matrix: (Units=GPa)
#
#
# Indices 1 2 3 4 5 6 
#
# 1 62.4445 41.4297 70.3767 0.0000 0.0000 0.0000
# 2 41.4297 66.8523 55.7195 0.0000 0.0000 0.0000
# 3 70.3767 55.7195 167.2087 0.0000 0.0000 0.0000
# 4 0.0000 0.0000 0.0000 2.3309 0.0000 0.0000
# 5 0.0000 0.0000 0.0000 0.0000 28.2250 0.0000
# 6 0.0000 0.0000 0.0000 0.0000 0.0000 22.0715
#
#
#
# Elastic Compliance Matrix: (Units=1/GPa)
#
#
# Indices 1 2 3 4 5 6 
#
# 1 0.038270 -0.014249 -0.011359 0.000000 0.000000 0.000000
# 2 -0.014249 0.026016 -0.002672 0.000000 0.000000 0.000000
# 3 -0.011359 -0.002672 0.011652 0.000000 0.000000 0.000000
# 4 0.000000 0.000000 0.000000 0.429018 0.000000 0.000000
# 5 0.000000 0.000000 0.000000 0.000000 0.035430 0.000000
# 6 0.000000 0.000000 0.000000 0.000000 0.000000 0.045307
#
#
# Mechanical properties :
#
#
# Convention : Reuss Voigt Hill
#
# Bulk Modulus (GPa) = 51.60713 70.17302 60.89007
# Shear Modulus (GPa) = 7.70756 19.12412 13.41584
#
# Velocity S-wave (km/s) = 2.11113 3.32543 2.78526
# Velocity P-wave (km/s) = 5.98198 7.43787 6.74930
#
# Compressibility (1/GPa) = 0.01937717
#
# Stress axis : x y z
#
# Youngs Moduli (GPa) = 26.12989 38.43809 85.82211
#
# Poissons Ratio (x) = 0.54771 0.97488
# Poissons Ratio (y) = 0.37233 0.22932
# Poissons Ratio (z) = 0.29682 0.10271
#
# Static dielectric constant tensor:
#      x y z
#    x 3.089800 0.000000 0.000000 
#    y 0.000000 3.029560 0.000000 
#    z 0.000000 0.000000 3.664910 
# 
# 
# High freq. dielectric constant tensor:
#      x y z
#    x 1.640310 0.000000 0.000000 
#    y 0.000000 1.638160 0.000000 
#    z 0.000000 0.000000 1.687590 
# 
# From -- ./inp_files/18645.got.cif
#   From: 2010.03.12/outbox.cif.g09.slc.cpg/sg35_10_cif.got.tgz:18645.got - 2010.04.14 02:02:04.
