data_PCOD8173489
_publ_section_title
;
Structure prediction by ZEFSAII (Michael W. Deem and Ramdas Pophale) SiO2 
 PCOD8173489
Probable space group: C M M 2
;
_chemical_formula_sum "Si O2"
_cell_formula_units_Z 64
_cell_length_a 15.069867
_cell_length_b 17.643617
_cell_length_c 10.915091
_cell_angle_alpha 90.000000
_cell_angle_beta 90.000000
_cell_angle_gamma 90.000000
_cell_volume 2902.180381
_symmetry_space_group_name_H-M "C M M 2"
_symmetry_group_IT_number 35
_symmetry_cell_setting 'orthorhombic'
loop_
_space_group_symop_operation_xyz
x,y,z
-x,-y,z
-x,y,z
x,-y,z
1/2+x,1/2+y,z
1/2-x,1/2-y,z
1/2-x,1/2+y,z
1/2+x,1/2-y,z
loop_
_atom_site_type_symbol
_atom_site_label
_atom_site_fract_x
_atom_site_fract_y
_atom_site_fract_z
Si Si1 0.598080 0.915801 0.251590
Si Si2 0.898708 0.086072 0.319014
Si Si3 0.215829 0.085138 0.558343
Si Si4 0.398132 0.291079 0.669167
Si Si5 0.399648 0.150706 0.504265
Si Si6 0.788302 0.414339 0.011686
Si Si7 0.831976 0.802043 0.116286
Si Si8 0.400568 0.795818 0.905653
O O1 0.500000 0.906514 0.192682
O O2 0.611948 0.852684 0.356718
O O3 0.670135 0.906675 0.147133
O O4 0.607492 0.000000 0.311248
O O5 0.827079 0.099058 0.425039
O O6 0.884134 0.153753 0.222252
O O7 0.000000 0.093763 0.368508
O O8 0.885314 0.000000 0.264561
O O9 0.165286 0.137310 0.654969
O O10 0.321474 0.100113 0.561652
O O11 0.199359 0.000000 0.601924
O O12 0.500000 0.317637 0.683977
O O13 0.387905 0.236574 0.550671
O O14 0.361891 0.251106 0.791848
O O15 0.500000 0.121565 0.539130
O O16 0.769661 0.500000 0.972353
O O17 0.698565 0.366468 0.019785
O O18 0.850813 0.376275 0.910540
O O19 0.750000 0.750000 0.165265
O O20 0.895189 0.747799 0.035955
O O21 0.500000 0.816714 0.873622
#
# Coordination Sequence:
#
# PCOD8173489 Si02
#       8
#     8   8   8   8   8   8   8   8
#     4   9  17  31  53  83 119 153 185 225 276 340
#     4  10  21  38  60  87 120 156 198 248 297 347
#     4  11  23  39  62  88 117 155 196 242 297 356
#     4  10  23  43  63  83 113 154 202 253 295 340
#     4  10  21  37  60  90 122 156 191 234 294 356
#     4  10  20  35  58  87 118 151 189 233 286 349
#     4  10  21  35  56  86 119 157 194 236 292 351
#     4  10  22  41  61  82 112 151 197 244 288 340
#
# _framework density 22.052385999999998
#
# number of rings (size 3 to 8) (size 9 to 14) (size 15 to 20)
#    0.000    2.000    0.000    3.000    0.000   10.250 
#    0.000    7.500    0.000    6.000    0.000    0.000 
#    0.000    0.000    0.000    0.000    0.000    0.000 
#
# Total GULP energy -396640.476038 kJ/mol
# GULP energy per Si atom -12395.014876 kJ/mol
# Density = 2.200219 g / cm^3
# Si number density = 22.052386 Si / 1000 Ang^3
#
#
#
# Elastic Constant Matrix: (Units=GPa)
#
#
# Indices 1 2 3 4 5 6 
#
# 1 99.0192 40.5734 11.3529 0.0000 0.0000 0.0000
# 2 40.5734 124.4994 22.4279 0.0000 0.0000 0.0000
# 3 11.3529 22.4279 46.6292 0.0000 0.0000 0.0000
# 4 0.0000 0.0000 0.0000 36.3970 0.0000 0.0000
# 5 0.0000 0.0000 0.0000 0.0000 22.1973 0.0000
# 6 0.0000 0.0000 0.0000 0.0000 0.0000 23.1046
#
#
#
# Elastic Compliance Matrix: (Units=1/GPa)
#
#
# Indices 1 2 3 4 5 6 
#
# 1 0.011708 -0.003615 -0.001112 0.000000 0.000000 0.000000
# 2 -0.003615 0.009910 -0.003887 0.000000 0.000000 0.000000
# 3 -0.001112 -0.003887 0.023586 0.000000 0.000000 0.000000
# 4 0.000000 0.000000 0.000000 0.027475 0.000000 0.000000
# 5 0.000000 0.000000 0.000000 0.000000 0.045050 0.000000
# 6 0.000000 0.000000 0.000000 0.000000 0.000000 0.043281
#
#
# Mechanical properties :
#
#
# Convention : Reuss Voigt Hill
#
# Bulk Modulus (GPa) = 35.74338 46.53957 41.14147
# Shear Modulus (GPa) = 26.65763 29.39269 28.02516
#
# Velocity S-wave (km/s) = 3.48060 3.65479 3.56876
# Velocity P-wave (km/s) = 5.69178 6.24179 5.97312
#
# Compressibility (1/GPa) = 0.02797721
#
# Stress axis : x y z
#
# Youngs Moduli (GPa) = 85.41272 100.90311 42.39836
#
# Poissons Ratio (x) = 0.36479 0.04713
# Poissons Ratio (y) = 0.30879 0.16479
# Poissons Ratio (z) = 0.09495 0.39217
#
# Static dielectric constant tensor:
#      x y z
#    x 4.104720 0.000000 0.000000 
#    y 0.000000 4.181250 0.000000 
#    z 0.000000 0.000000 3.694060 
# 
# 
# High freq. dielectric constant tensor:
#      x y z
#    x 1.874960 0.000000 0.000000 
#    y 0.000000 1.870500 0.000000 
#    z 0.000000 0.000000 1.840390 
# 
# From -- ./inp_files/13157.got.cif
#   From: 2010.03.12/outbox.cif.g09.slc.cpg/sg35_7_cif.got.tgz:13157.got - 2010.04.14 02:02:04.
