data_PCOD8173001
_publ_section_title
;
Structure prediction by ZEFSAII (Michael W. Deem and Ramdas Pophale) SiO2 
 PCOD8173001
Probable space group: C M M 2
;
_chemical_formula_sum "Si O2"
_cell_formula_units_Z 64
_cell_length_a 8.707317
_cell_length_b 28.466022
_cell_length_c 15.487800
_cell_angle_alpha 90.000000
_cell_angle_beta 90.000000
_cell_angle_gamma 90.000000
_cell_volume 3838.847573
_symmetry_space_group_name_H-M "C M M 2"
_symmetry_group_IT_number 35
_symmetry_cell_setting 'orthorhombic'
loop_
_space_group_symop_operation_xyz
x,y,z
-x,-y,z
-x,y,z
x,-y,z
1/2+x,1/2+y,z
1/2-x,1/2-y,z
1/2-x,1/2+y,z
1/2+x,1/2-y,z
loop_
_atom_site_type_symbol
_atom_site_label
_atom_site_fract_x
_atom_site_fract_y
_atom_site_fract_z
Si Si1 0.822826 0.397599 0.510990
Si Si2 0.181198 0.201448 0.259313
Si Si3 0.818899 0.610325 0.193833
Si Si4 0.678537 0.202443 0.445299
Si Si5 0.682802 0.052261 0.031555
Si Si6 0.677737 0.554946 0.349110
Si Si7 0.829507 0.444257 0.843694
Si Si8 0.322933 0.445148 0.670152
O O1 0.793060 0.341487 0.508502
O O2 0.718160 0.424528 0.442458
O O3 0.780736 0.415107 0.605886
O O4 0.000000 0.408833 0.490773
O O5 0.250000 0.250000 0.223589
O O6 0.234604 0.160160 0.196360
O O7 0.241539 0.190429 0.354956
O O8 0.000000 0.204861 0.261267
O O9 0.755117 0.585330 0.107658
O O10 0.781285 0.578844 0.276677
O O11 0.000000 0.618510 0.190912
O O12 0.500000 0.211187 0.427258
O O13 0.750000 0.250000 0.486390
O O14 0.500000 0.049549 0.034569
O O15 0.751319 0.000000 0.046172
O O16 0.732825 0.072992 0.937546
O O17 0.500000 0.565514 0.329554
O O18 0.713613 0.500000 0.349818
O O19 0.839065 0.500000 0.849170
O O20 0.716063 0.428287 0.767346
O O21 0.000000 0.423945 0.825013
O O22 0.500000 0.434883 0.651287
O O23 0.283501 0.500000 0.658073
#
# Coordination Sequence:
#
# PCOD8173001 Si02
#       8
#     8   8   8   8   8   8   8   8
#     4  11  22  34  50  71  95 127 167 202 240 291
#     4  11  21  34  52  71  95 126 162 206 251 292
#     4  11  20  32  50  73  99 130 167 202 243 293
#     4  10  20  34  52  73  94 121 159 203 247 293
#     4   8  15  28  48  73  99 129 165 203 239 281
#     4  11  23  35  46  65  97 135 170 202 239 283
#     4   8  14  28  49  70  93 124 163 203 242 284
#     4  10  20  32  47  70 100 131 163 201 245 289
#
# _framework density 16.671669999999999
#
# number of rings (size 3 to 8) (size 9 to 14) (size 15 to 20)
#    0.000    2.000    1.250    5.250    0.000    5.250 
#    0.000    1.250    0.000    3.000    0.000    0.875 
#    0.000    4.000    0.000    0.000    0.000    0.000 
#
# Total GULP energy -396796.581855 kJ/mol
# GULP energy per Si atom -12399.893183 kJ/mol
# Density = 1.663372 g / cm^3
# Si number density = 16.671670 Si / 1000 Ang^3
#
#
#
# Elastic Constant Matrix: (Units=GPa)
#
#
# Indices 1 2 3 4 5 6 
#
# 1 78.3801 41.4243 23.3173 0.0000 0.0000 0.0000
# 2 41.4243 100.9816 49.6003 0.0000 0.0000 0.0000
# 3 23.3173 49.6003 103.1265 0.0000 0.0000 0.0000
# 4 0.0000 0.0000 0.0000 10.4426 0.0000 0.0000
# 5 0.0000 0.0000 0.0000 0.0000 17.5937 0.0000
# 6 0.0000 0.0000 0.0000 0.0000 0.0000 24.7098
#
#
#
# Elastic Compliance Matrix: (Units=1/GPa)
#
#
# Indices 1 2 3 4 5 6 
#
# 1 0.016320 -0.006392 -0.000615 0.000000 0.000000 0.000000
# 2 -0.006392 0.015470 -0.005995 0.000000 0.000000 0.000000
# 3 -0.000615 -0.005995 0.012719 0.000000 0.000000 0.000000
# 4 0.000000 0.000000 0.000000 0.095761 0.000000 0.000000
# 5 0.000000 0.000000 0.000000 0.000000 0.056839 0.000000
# 6 0.000000 0.000000 0.000000 0.000000 0.000000 0.040470
#
#
# Mechanical properties :
#
#
# Convention : Reuss Voigt Hill
#
# Bulk Modulus (GPa) = 54.04481 56.79689 55.42085
# Shear Modulus (GPa) = 18.53554 21.75898 20.14726
#
# Velocity S-wave (km/s) = 3.33798 3.61660 3.48008
# Velocity P-wave (km/s) = 6.88068 7.18203 7.03297
#
# Compressibility (1/GPa) = 0.01850317
#
# Stress axis : x y z
#
# Youngs Moduli (GPa) = 61.27519 64.64248 78.62004
#
# Poissons Ratio (x) = 0.41322 0.04839
# Poissons Ratio (y) = 0.39169 0.47133
# Poissons Ratio (z) = 0.03771 0.38754
#
# Static dielectric constant tensor:
#      x y z
#    x 3.120130 0.000000 0.000000 
#    y 0.000000 3.144170 0.000000 
#    z 0.000000 0.000000 3.220280 
# 
# 
# High freq. dielectric constant tensor:
#      x y z
#    x 1.646300 0.000000 0.000000 
#    y 0.000000 1.625110 0.000000 
#    z 0.000000 0.000000 1.629060 
# 
# From -- ./inp_files/16218.got.cif
#   From: 2010.03.12/outbox.cif.g09.slc.cpg/sg35_9_cif.got.tgz:16218.got - 2010.04.14 02:02:04.
