data_PCOD8173193
_publ_section_title
;
Structure prediction by ZEFSAII (Michael W. Deem and Ramdas Pophale) SiO2 
 PCOD8173193
Probable space group: C M M 2
;
_chemical_formula_sum "Si O2"
_cell_formula_units_Z 64
_cell_length_a 9.008561
_cell_length_b 19.285502
_cell_length_c 20.172417
_cell_angle_alpha 90.000000
_cell_angle_beta 90.000000
_cell_angle_gamma 90.000000
_cell_volume 3504.647226
_symmetry_space_group_name_H-M "C M M 2"
_symmetry_group_IT_number 35
_symmetry_cell_setting 'orthorhombic'
loop_
_space_group_symop_operation_xyz
x,y,z
-x,-y,z
-x,y,z
x,-y,z
1/2+x,1/2+y,z
1/2-x,1/2-y,z
1/2-x,1/2+y,z
1/2+x,1/2-y,z
loop_
_atom_site_type_symbol
_atom_site_label
_atom_site_fract_x
_atom_site_fract_y
_atom_site_fract_z
Si Si1 0.173975 0.679293 0.223040
Si Si2 0.173144 0.319678 0.375539
Si Si3 0.672183 0.580980 0.473775
Si Si4 0.674496 0.078077 0.748561
Si Si5 0.671986 0.419996 0.124514
Si Si6 0.665205 0.417506 0.619951
Si Si7 0.324905 0.678213 0.002819
Si Si8 0.177534 0.677495 0.865989
O O1 0.250000 0.750000 0.197194
O O2 0.215454 0.665689 0.299366
O O3 0.232602 0.613359 0.183035
O O4 0.000000 0.687574 0.211529
O O5 0.250000 0.250000 0.401416
O O6 0.227800 0.383496 0.418753
O O7 0.000000 0.309961 0.384878
O O8 0.500000 0.598555 0.461735
O O9 0.701723 0.500000 0.466544
O O10 0.720929 0.607383 0.547355
O O11 0.500000 0.078356 0.743190
O O12 0.733835 0.110996 0.679740
O O13 0.728265 0.122653 0.810823
O O14 0.735512 0.000000 0.758641
O O15 0.500000 0.412727 0.143548
O O16 0.718768 0.500000 0.116343
O O17 0.706796 0.381206 0.056036
O O18 0.500000 0.389304 0.632585
O O19 0.665821 0.500000 0.619155
O O20 0.500000 0.690395 0.991257
O O21 0.250000 0.750000 0.026929
O O22 0.246784 0.652606 0.935448
O O23 0.250000 0.750000 0.845096
O O24 0.000000 0.684045 0.871862
#
# Coordination Sequence:
#
# PCOD8173193 Si02
#       8
#     8   8   8   8   8   8   8   8
#     4  10  21  37  57  79 103 136 176 214 254 306
#     4  10  21  36  54  77 105 136 173 215 258 306
#     4   9  18  33  53  77 105 137 173 213 258 308
#     4   9  18  32  50  73 100 130 166 208 252 298
#     4  10  22  38  55  79 110 139 169 210 257 303
#     4   8  15  29  49  73 100 131 168 207 248 299
#     4  10  20  35  55  76 100 133 172 209 248 300
#     4  10  20  34  52  74 101 132 167 207 251 300
#
# _framework density 18.261465999999999
#
# number of rings (size 3 to 8) (size 9 to 14) (size 15 to 20)
#    0.000    2.500    0.000    3.375    0.000    6.500 
#    0.000    4.375    0.000    1.500    0.000    0.000 
#    0.000    0.000    0.000    0.000    0.000    0.000 
#
# Total GULP energy -396783.319856 kJ/mol
# GULP energy per Si atom -12399.478746 kJ/mol
# Density = 1.821990 g / cm^3
# Si number density = 18.261466 Si / 1000 Ang^3
#
#
#
# Elastic Constant Matrix: (Units=GPa)
#
#
# Indices 1 2 3 4 5 6 
#
# 1 73.0934 45.4776 56.8240 0.0000 0.0000 0.0000
# 2 45.4776 93.7526 72.0374 0.0000 0.0000 0.0000
# 3 56.8240 72.0374 122.2609 0.0000 0.0000 0.0000
# 4 0.0000 0.0000 0.0000 27.6454 0.0000 0.0000
# 5 0.0000 0.0000 0.0000 0.0000 36.2187 0.0000
# 6 0.0000 0.0000 0.0000 0.0000 0.0000 28.0723
#
#
#
# Elastic Compliance Matrix: (Units=1/GPa)
#
#
# Indices 1 2 3 4 5 6 
#
# 1 0.022790 -0.005329 -0.007453 0.000000 0.000000 0.000000
# 2 -0.005329 0.020736 -0.009741 0.000000 0.000000 0.000000
# 3 -0.007453 -0.009741 0.017383 0.000000 0.000000 0.000000
# 4 0.000000 0.000000 0.000000 0.036172 0.000000 0.000000
# 5 0.000000 0.000000 0.000000 0.000000 0.027610 0.000000
# 6 0.000000 0.000000 0.000000 0.000000 0.000000 0.035622
#
#
# Mechanical properties :
#
#
# Convention : Reuss Voigt Hill
#
# Bulk Modulus (GPa) = 63.03617 70.86499 66.95058
# Shear Modulus (GPa) = 23.73629 26.03847 24.88738
#
# Velocity S-wave (km/s) = 3.60919 3.78017 3.69567
# Velocity P-wave (km/s) = 7.20846 7.61202 7.41299
#
# Compressibility (1/GPa) = 0.01586391
#
# Stress axis : x y z
#
# Youngs Moduli (GPa) = 43.87803 48.22464 57.52807
#
# Poissons Ratio (x) = 0.25697 0.42874
# Poissons Ratio (y) = 0.23381 0.56040
# Poissons Ratio (z) = 0.32701 0.46977
#
# Static dielectric constant tensor:
#      x y z
#    x 3.408370 0.000000 0.000000 
#    y 0.000000 3.280410 0.000000 
#    z 0.000000 0.000000 3.550810 
# 
# 
# High freq. dielectric constant tensor:
#      x y z
#    x 1.711030 0.000000 0.000000 
#    y 0.000000 1.690230 0.000000 
#    z 0.000000 0.000000 1.718600 
# 
# From -- ./inp_files/18447.got.cif
#   From: 2010.03.12/outbox.cif.g09.slc.cpg/sg35_10_cif.got.tgz:18447.got - 2010.04.14 02:02:04.
