data_PCOD8173881
_publ_section_title
;
Structure prediction by ZEFSAII (Michael W. Deem and Ramdas Pophale) SiO2 
 PCOD8173881
Probable space group: C M M 2
;
_chemical_formula_sum "Si O2"
_cell_formula_units_Z 32
_cell_length_a 8.447778
_cell_length_b 19.720903
_cell_length_c 9.949471
_cell_angle_alpha 90.000000
_cell_angle_beta 90.000000
_cell_angle_gamma 90.000000
_cell_volume 1657.560084
_symmetry_space_group_name_H-M "C M M 2"
_symmetry_group_IT_number 35
_symmetry_cell_setting 'orthorhombic'
loop_
_space_group_symop_operation_xyz
x,y,z
-x,-y,z
-x,y,z
x,-y,z
1/2+x,1/2+y,z
1/2-x,1/2-y,z
1/2-x,1/2+y,z
1/2+x,1/2-y,z
loop_
_atom_site_type_symbol
_atom_site_label
_atom_site_fract_x
_atom_site_fract_y
_atom_site_fract_z
Si Si1 0.184222 0.821220 0.489840
Si Si2 0.183262 0.922588 0.997404
Si Si3 0.682481 0.078637 0.279462
Si Si4 0.185618 0.676330 0.778995
O O1 0.250000 0.750000 0.432959
O O2 0.208989 0.878997 0.379955
O O3 0.276494 0.841331 0.624954
O O4 0.000000 0.813535 0.524140
O O5 0.282003 0.898589 0.127224
O O6 0.000000 0.913403 0.032354
O O7 0.224428 0.000000 0.961081
O O8 0.228508 0.878610 0.869813
O O9 0.500000 0.092989 0.312100
O O10 0.726899 0.000000 0.298658
O O11 0.250000 0.750000 0.818449
O O12 0.000000 0.673156 0.804550
#
# Coordination Sequence:
#
# PCOD8173881 Si02
#       4
#     8   8   8   8
#     4  11  22  38  59  83 113 147 186 230 278 330
#     4  10  21  38  59  84 114 147 185 229 277 329
#     4  10  21  38  59  84 114 147 185 229 277 329
#     4  11  22  38  59  83 113 147 186 230 278 330
#
# _framework density 19.305485000000001
#
# number of rings (size 3 to 8) (size 9 to 14) (size 15 to 20)
#    0.000    1.500    0.000    7.500    0.000    5.000 
#    0.000    5.000    0.000    0.000    0.000    0.000 
#    0.000    0.000    0.000    0.000    0.000    0.000 
#
# Total GULP energy -198503.135347 kJ/mol
# GULP energy per Si atom -12406.445959 kJ/mol
# Density = 1.926154 g / cm^3
# Si number density = 19.305485 Si / 1000 Ang^3
#
#
#
# Elastic Constant Matrix: (Units=GPa)
#
#
# Indices 1 2 3 4 5 6 
#
# 1 66.8977 21.5117 9.3256 0.0000 0.0000 0.0000
# 2 21.5117 91.7382 65.9037 0.0000 0.0000 0.0000
# 3 9.3256 65.9037 87.5328 0.0000 0.0000 0.0000
# 4 0.0000 0.0000 0.0000 22.1973 0.0000 0.0000
# 5 0.0000 0.0000 0.0000 0.0000 37.2266 0.0000
# 6 0.0000 0.0000 0.0000 0.0000 0.0000 31.9681
#
#
#
# Elastic Compliance Matrix: (Units=1/GPa)
#
#
# Indices 1 2 3 4 5 6 
#
# 1 0.016415 -0.005647 0.002503 0.000000 0.000000 0.000000
# 2 -0.005647 0.025685 -0.018737 0.000000 0.000000 0.000000
# 3 0.002503 -0.018737 0.025265 0.000000 0.000000 0.000000
# 4 0.000000 0.000000 0.000000 0.045050 0.000000 0.000000
# 5 0.000000 0.000000 0.000000 0.000000 0.026863 0.000000
# 6 0.000000 0.000000 0.000000 0.000000 0.000000 0.031281
#
#
# Mechanical properties :
#
#
# Convention : Reuss Voigt Hill
#
# Bulk Modulus (GPa) = 42.36782 48.85009 45.60896
# Shear Modulus (GPa) = 22.50338 28.24025 25.37182
#
# Velocity S-wave (km/s) = 3.41786 3.82882 3.62916
# Velocity P-wave (km/s) = 6.12938 6.70113 6.42162
#
# Compressibility (1/GPa) = 0.02360282
#
# Stress axis : x y z
#
# Youngs Moduli (GPa) = 60.91897 38.93302 39.58114
#
# Poissons Ratio (x) = 0.21987 -0.09908
# Poissons Ratio (y) = 0.34404 0.74162
# Poissons Ratio (z) = -0.15249 0.72948
#
# Static dielectric constant tensor:
#      x y z
#    x 3.613500 0.000000 0.000000 
#    y 0.000000 3.688990 0.000000 
#    z 0.000000 0.000000 3.434300 
# 
# 
# High freq. dielectric constant tensor:
#      x y z
#    x 1.770640 0.000000 0.000000 
#    y 0.000000 1.751240 0.000000 
#    z 0.000000 0.000000 1.751960 
# 
# From -- ./inp_files/4570.got.cif
#   From: 2010.03.12/outbox.cif.g09.slc.cpg/sg35_3_cif.got.tgz:4570.got - 2010.04.14 02:02:04.
