data_PCOD8173303
_publ_section_title
;
Structure prediction by ZEFSAII (Michael W. Deem and Ramdas Pophale) SiO2 
 PCOD8173303
Probable space group: C M M 2
;
_chemical_formula_sum "Si O2"
_cell_formula_units_Z 40
_cell_length_a 19.147483
_cell_length_b 8.743439
_cell_length_c 12.879835
_cell_angle_alpha 90.000000
_cell_angle_beta 90.000000
_cell_angle_gamma 90.000000
_cell_volume 2156.275640
_symmetry_space_group_name_H-M "C M M 2"
_symmetry_group_IT_number 35
_symmetry_cell_setting 'orthorhombic'
loop_
_space_group_symop_operation_xyz
x,y,z
-x,-y,z
-x,y,z
x,-y,z
1/2+x,1/2+y,z
1/2-x,1/2-y,z
1/2-x,1/2+y,z
1/2+x,1/2-y,z
loop_
_atom_site_type_symbol
_atom_site_label
_atom_site_fract_x
_atom_site_fract_y
_atom_site_fract_z
Si Si1 0.673618 0.321603 0.166210
Si Si2 0.580831 0.822822 0.341383
Si Si3 0.081409 0.822474 0.556471
Si Si4 0.825166 0.176922 0.936844
Si Si5 0.826778 0.679795 0.732790
O O1 0.678565 0.500000 0.194563
O O2 0.750000 0.250000 0.175250
O O3 0.622640 0.235008 0.242762
O O4 0.640286 0.299802 0.050350
O O5 0.500000 0.792919 0.317707
O O6 0.605197 0.728734 0.442050
O O7 0.596677 0.000000 0.361666
O O8 0.124219 0.724993 0.638360
O O9 0.000000 0.786782 0.573110
O O10 0.098681 0.000000 0.570901
O O11 0.750000 0.250000 0.945362
O O12 0.863419 0.260418 0.840174
O O13 0.818905 0.000000 0.908128
O O14 0.819421 0.500000 0.737205
O O15 0.750000 0.750000 0.717972
#
# Coordination Sequence:
#
# PCOD8173303 Si02
#       5
#     8   8   8   8   8
#     4  10  20  34  55  81 108 139 176 217 260 309
#     4  10  21  37  56  78 106 139 175 216 263 314
#     4  10  21  38  58  78 104 138 175 216 264 316
#     4   9  17  31  51  76 106 139 174 213 260 310
#     4  11  21  34  55  81 109 139 175 217 260 310
#
# _framework density 18.550505000000001
#
# number of rings (size 3 to 8) (size 9 to 14) (size 15 to 20)
#    0.000    2.000    0.000    5.400    0.000    5.600 
#    0.000    5.000    0.000    1.200    0.000    0.000 
#    0.000    0.000    0.000    0.000    0.000    0.000 
#
# Total GULP energy -247945.868233 kJ/mol
# GULP energy per Si atom -12397.293412 kJ/mol
# Density = 1.850828 g / cm^3
# Si number density = 18.550505 Si / 1000 Ang^3
#
#
#
# Elastic Constant Matrix: (Units=GPa)
#
#
# Indices 1 2 3 4 5 6 
#
# 1 49.6833 39.9300 54.2853 0.0000 0.0000 0.0000
# 2 39.9300 124.7639 55.9780 0.0000 0.0000 0.0000
# 3 54.2853 55.9780 140.2121 0.0000 0.0000 0.0000
# 4 0.0000 0.0000 0.0000 37.7959 0.0000 0.0000
# 5 0.0000 0.0000 0.0000 0.0000 -45.2073 0.0000
# 6 0.0000 0.0000 0.0000 0.0000 0.0000 27.9005
#
#
#
# Elastic Compliance Matrix: (Units=1/GPa)
#
#
# Indices 1 2 3 4 5 6 
#
# 1 0.039353 -0.007015 -0.012435 0.000000 0.000000 0.000000
# 2 -0.007015 0.011015 -0.001681 0.000000 0.000000 0.000000
# 3 -0.012435 -0.001681 0.012618 0.000000 0.000000 0.000000
# 4 0.000000 0.000000 0.000000 0.026458 0.000000 0.000000
# 5 0.000000 0.000000 0.000000 0.000000 -0.022120 0.000000
# 6 0.000000 0.000000 0.000000 0.000000 0.000000 0.035842
#
#
# Mechanical properties :
#
#
# Convention : Reuss Voigt Hill
#
# Bulk Modulus (GPa) = 48.25936 68.33842 58.29889
# Shear Modulus (GPa) = 32.82233 15.06224 23.94228
#
# Velocity S-wave (km/s) = 4.21093 2.85258 3.59646
# Velocity P-wave (km/s) = 7.05083 6.91149 6.98151
#
# Compressibility (1/GPa) = 0.02072137
#
# Stress axis : x y z
#
# Youngs Moduli (GPa) = 25.41127 90.78738 79.25288
#
# Poissons Ratio (x) = 0.63690 0.98553
# Poissons Ratio (y) = 0.17827 0.13326
# Poissons Ratio (z) = 0.31599 0.15265
#
# Static dielectric constant tensor:
#      x y z
#    x 3.094890 0.000000 0.000000 
#    y 0.000000 3.622990 0.000000 
#    z 0.000000 0.000000 4.031440 
# 
# 
# High freq. dielectric constant tensor:
#      x y z
#    x 1.683700 0.000000 0.000000 
#    y 0.000000 1.742140 0.000000 
#    z 0.000000 0.000000 1.741480 
# 
# From -- ./inp_files/11011.got.cif
#   From: 2010.03.12/outbox.cif.g09.slc.cpg/sg35_6_cif.got.tgz:11011.got - 2010.04.14 02:02:04.
