data_PCOD8173967
_publ_section_title
;
Structure prediction by ZEFSAII (Michael W. Deem and Ramdas Pophale) SiO2 
 PCOD8173967
Probable space group: C M M 2
;
_chemical_formula_sum "Si O2"
_cell_formula_units_Z 40
_cell_length_a 7.666092
_cell_length_b 15.680678
_cell_length_c 16.274795
_cell_angle_alpha 90.000000
_cell_angle_beta 90.000000
_cell_angle_gamma 90.000000
_cell_volume 1956.385298
_symmetry_space_group_name_H-M "C M M 2"
_symmetry_group_IT_number 35
_symmetry_cell_setting 'orthorhombic'
loop_
_space_group_symop_operation_xyz
x,y,z
-x,-y,z
-x,y,z
x,-y,z
1/2+x,1/2+y,z
1/2-x,1/2-y,z
1/2-x,1/2+y,z
1/2+x,1/2-y,z
loop_
_atom_site_type_symbol
_atom_site_label
_atom_site_fract_x
_atom_site_fract_y
_atom_site_fract_z
Si Si1 0.794531 0.345397 0.497490
Si Si2 0.500000 0.601822 0.790046
Si Si3 0.208084 0.000000 0.019087
Si Si4 0.797302 0.655143 0.311647
Si Si5 0.194789 0.000000 0.199323
Si Si6 0.699785 0.156755 0.907922
Si Si7 0.500000 0.593340 0.610915
O O1 0.750000 0.250000 0.522871
O O2 0.728903 0.361086 0.404137
O O3 0.676033 0.400032 0.557666
O O4 0.000000 0.366058 0.509121
O O5 0.500000 0.500000 0.798734
O O6 0.324500 0.636945 0.831400
O O7 0.500000 0.643488 0.697602
O O8 0.291861 0.000000 0.111607
O O9 0.279047 0.085956 0.978117
O O10 0.000000 0.000000 0.012330
O O11 0.750000 0.750000 0.280814
O O12 0.722809 0.585082 0.251252
O O13 0.000000 0.643308 0.312879
O O14 0.000000 0.000000 0.169546
O O15 0.500000 0.156586 0.876841
O O16 0.750000 0.250000 0.944356
O O17 0.500000 0.500000 0.647068
#
# Coordination Sequence:
#
# PCOD8173967 Si02
#       7
#     8   4   4   8   4   8   4
#     4  10  21  40  63  90 125 173 217 260 315 375
#     4  11  24  46  64  93 137 162 211 270 316 384
#     4  11  23  45  67  94 134 161 211 270 314 383
#     4  10  22  39  62  89 128 169 216 265 310 375
#     4  11  25  39  65  97 125 170 207 262 322 368
#     4  12  23  42  71  97 125 173 211 255 322 387
#     4  11  26  40  64  94 130 169 204 276 320 361
#
# _framework density 20.445868999999998
#
# number of rings (size 3 to 8) (size 9 to 14) (size 15 to 20)
#    0.000    1.200    4.000    1.200    4.200    4.400 
#    0.000    2.000    0.000    0.000    0.000    0.000 
#    0.000    0.000    0.000    0.000    0.000    0.000 
#
# Total GULP energy -247882.671568 kJ/mol
# GULP energy per Si atom -12394.133578 kJ/mol
# Density = 2.039933 g / cm^3
# Si number density = 20.445869 Si / 1000 Ang^3
#
#
#
# Elastic Constant Matrix: (Units=GPa)
#
#
# Indices 1 2 3 4 5 6 
#
# 1 126.6317 38.6021 54.9794 0.0000 0.0000 0.0000
# 2 38.6021 138.2144 68.3270 0.0000 0.0000 0.0000
# 3 54.9794 68.3270 139.7089 0.0000 0.0000 0.0000
# 4 0.0000 0.0000 0.0000 6.3773 0.0000 0.0000
# 5 0.0000 0.0000 0.0000 0.0000 62.7683 0.0000
# 6 0.0000 0.0000 0.0000 0.0000 0.0000 33.0019
#
#
#
# Elastic Compliance Matrix: (Units=1/GPa)
#
#
# Indices 1 2 3 4 5 6 
#
# 1 0.009644 -0.001078 -0.003268 0.000000 0.000000 0.000000
# 2 -0.001078 0.009663 -0.004301 0.000000 0.000000 0.000000
# 3 -0.003268 -0.004301 0.010548 0.000000 0.000000 0.000000
# 4 0.000000 0.000000 0.000000 0.156807 0.000000 0.000000
# 5 0.000000 0.000000 0.000000 0.000000 0.015932 0.000000
# 6 0.000000 0.000000 0.000000 0.000000 0.000000 0.030301
#
#
# Mechanical properties :
#
#
# Convention : Reuss Voigt Hill
#
# Bulk Modulus (GPa) = 79.62132 80.93023 80.27578
# Shear Modulus (GPa) = 19.65592 36.60593 28.13093
#
# Velocity S-wave (km/s) = 3.10395 4.23588 3.71330
# Velocity P-wave (km/s) = 7.20230 7.97447 7.59820
#
# Compressibility (1/GPa) = 0.01255945
#
# Stress axis : x y z
#
# Youngs Moduli (GPa) = 103.68650 103.49121 94.80865
#
# Poissons Ratio (x) = 0.11156 0.30985
# Poissons Ratio (y) = 0.11177 0.40782
# Poissons Ratio (z) = 0.33886 0.44516
#
# Static dielectric constant tensor:
#      x y z
#    x 3.672010 0.000000 0.000000 
#    y 0.000000 3.626890 0.000000 
#    z 0.000000 0.000000 4.102130 
# 
# 
# High freq. dielectric constant tensor:
#      x y z
#    x 1.812220 0.000000 0.000000 
#    y 0.000000 1.805300 0.000000 
#    z 0.000000 0.000000 1.795290 
# 
# From -- ./inp_files/14840.got.cif
#   From: 2010.03.12/outbox.cif.g09.slc.cpg/sg35_8_cif.got.tgz:14840.got - 2010.04.14 02:02:04.
