data_PCOD8173275
_publ_section_title
;
Structure prediction by ZEFSAII (Michael W. Deem and Ramdas Pophale) SiO2 
 PCOD8173275
Probable space group: C M M 2
;
_chemical_formula_sum "Si O2"
_cell_formula_units_Z 64
_cell_length_a 9.030654
_cell_length_b 19.069982
_cell_length_c 20.229037
_cell_angle_alpha 90.000000
_cell_angle_beta 90.000000
_cell_angle_gamma 90.000000
_cell_volume 3483.731656
_symmetry_space_group_name_H-M "C M M 2"
_symmetry_group_IT_number 35
_symmetry_cell_setting 'orthorhombic'
loop_
_space_group_symop_operation_xyz
x,y,z
-x,-y,z
-x,y,z
x,-y,z
1/2+x,1/2+y,z
1/2-x,1/2-y,z
1/2-x,1/2+y,z
1/2+x,1/2-y,z
loop_
_atom_site_type_symbol
_atom_site_label
_atom_site_fract_x
_atom_site_fract_y
_atom_site_fract_z
Si Si1 0.173267 0.820739 0.617970
Si Si2 0.828307 0.917643 0.243047
Si Si3 0.676434 0.174181 0.133303
Si Si4 0.324356 0.922164 0.014646
Si Si5 0.836244 0.417021 0.372128
Si Si6 0.170693 0.418247 0.518329
Si Si7 0.167033 0.582540 0.867374
Si Si8 0.173326 0.820854 0.768530
O O1 0.250000 0.750000 0.593093
O O2 0.224158 0.883699 0.572030
O O3 0.219819 0.837973 0.693280
O O4 0.000000 0.810090 0.611348
O O5 0.727774 0.873147 0.194093
O O6 0.782776 0.894154 0.317150
O O7 0.000000 0.899699 0.232342
O O8 0.796193 0.000000 0.231701
O O9 0.500000 0.182201 0.135292
O O10 0.750000 0.250000 0.136628
O O11 0.732980 0.135117 0.066929
O O12 0.500000 0.927192 0.016845
O O13 0.275073 0.898653 0.941181
O O14 0.260012 0.000000 0.031543
O O15 0.845723 0.500000 0.376901
O O16 0.789173 0.389222 0.444784
O O17 0.000000 0.388057 0.353241
O O18 0.203273 0.500000 0.522764
O O19 0.000000 0.401530 0.534527
O O20 0.170924 0.500000 0.857012
O O21 0.275710 0.615656 0.814178
O O22 0.000000 0.610821 0.857016
O O23 0.250000 0.750000 0.793580
O O24 0.000000 0.810594 0.775640
#
# Coordination Sequence:
#
# PCOD8173275 Si02
#       8
#     8   8   8   8   8   8   8   8
#     4  10  21  36  53  73 101 138 177 217 259 307
#     4  10  20  34  54  80 107 135 171 214 257 305
#     4  11  22  36  54  76 106 140 173 213 259 305
#     4   8  16  33  56  79 102 133 173 211 251 305
#     4   8  15  30  52  77 104 135 171 209 252 304
#     4   9  18  33  54  80 108 136 169 211 256 305
#     4   9  18  34  56  81 108 136 168 209 256 306
#     4  10  21  36  53  74 102 137 177 217 258 307
#
# _framework density 18.371105
#
# number of rings (size 3 to 8) (size 9 to 14) (size 15 to 20)
#    0.000    2.625    0.000    3.375    0.000    4.750 
#    0.000    6.875    0.000    4.500    0.000    0.000 
#    0.000    0.000    0.000    0.000    0.000    0.000 
#
# Total GULP energy -396748.339717 kJ/mol
# GULP energy per Si atom -12398.385616 kJ/mol
# Density = 1.832929 g / cm^3
# Si number density = 18.371105 Si / 1000 Ang^3
#
#
#
# Elastic Constant Matrix: (Units=GPa)
#
#
# Indices 1 2 3 4 5 6 
#
# 1 71.8099 39.1138 46.0556 0.0000 0.0000 0.0000
# 2 39.1138 69.9376 56.1831 0.0000 0.0000 0.0000
# 3 46.0556 56.1831 115.9355 0.0000 0.0000 0.0000
# 4 0.0000 0.0000 0.0000 -0.2114 0.0000 0.0000
# 5 0.0000 0.0000 0.0000 0.0000 26.0859 0.0000
# 6 0.0000 0.0000 0.0000 0.0000 0.0000 29.2679
#
#
#
# Elastic Compliance Matrix: (Units=1/GPa)
#
#
# Indices 1 2 3 4 5 6 
#
# 1 0.021317 -0.008382 -0.004406 0.000000 0.000000 0.000000
# 2 -0.008382 0.026709 -0.009614 0.000000 0.000000 0.000000
# 3 -0.004406 -0.009614 0.015035 0.000000 0.000000 0.000000
# 4 0.000000 0.000000 0.000000 -4.729840 0.000000 0.000000
# 5 0.000000 0.000000 0.000000 0.000000 0.038335 0.000000
# 6 0.000000 0.000000 0.000000 0.000000 0.000000 0.034167
#
#
# Mechanical properties :
#
#
# Convention : Reuss Voigt Hill
#
# Bulk Modulus (GPa) = 54.77367 60.04312 57.40839
# Shear Modulus (GPa) = -1.10050 18.78384 8.84167
#
# Velocity S-wave (km/s) = -0.77482 3.20107 2.19619
# Velocity P-wave (km/s) = 5.39253 6.81299 6.14395
#
# Compressibility (1/GPa) = 0.01825695
#
# Stress axis : x y z
#
# Youngs Moduli (GPa) = 46.91008 37.43999 66.51303
#
# Poissons Ratio (x) = 0.31384 0.29307
# Poissons Ratio (y) = 0.39322 0.63943
# Poissons Ratio (z) = 0.20669 0.35993
#
# Static dielectric constant tensor:
#      x y z
#    x 3.280300 0.000000 0.000000 
#    y 0.000000 3.253170 0.000000 
#    z 0.000000 0.000000 3.649310 
# 
# 
# High freq. dielectric constant tensor:
#      x y z
#    x 1.703920 0.000000 0.000000 
#    y 0.000000 1.694520 0.000000 
#    z 0.000000 0.000000 1.723230 
# 
# From -- ./inp_files/18391.got.cif
#   From: 2010.03.12/outbox.cif.g09.slc.cpg/sg35_10_cif.got.tgz:18391.got - 2010.04.14 02:02:04.
