data_PCOD8173173
_publ_section_title
;
Structure prediction by ZEFSAII (Michael W. Deem and Ramdas Pophale) SiO2 
 PCOD8173173
Probable space group: C M M 2
;
_chemical_formula_sum "Si O2"
_cell_formula_units_Z 56
_cell_length_a 14.032404
_cell_length_b 17.772979
_cell_length_c 12.708643
_cell_angle_alpha 90.000000
_cell_angle_beta 90.000000
_cell_angle_gamma 90.000000
_cell_volume 3169.505338
_symmetry_space_group_name_H-M "C M M 2"
_symmetry_group_IT_number 35
_symmetry_cell_setting 'orthorhombic'
loop_
_space_group_symop_operation_xyz
x,y,z
-x,-y,z
-x,y,z
x,-y,z
1/2+x,1/2+y,z
1/2-x,1/2-y,z
1/2-x,1/2+y,z
1/2+x,1/2-y,z
loop_
_atom_site_type_symbol
_atom_site_label
_atom_site_fract_x
_atom_site_fract_y
_atom_site_fract_z
Si Si1 0.605262 0.588986 0.494770
Si Si2 0.392085 0.176781 0.205811
Si Si3 0.387766 0.657641 0.128868
Si Si4 0.887340 0.914738 0.729344
Si Si5 0.769566 0.912666 0.302586
Si Si6 0.720163 0.664599 0.910705
Si Si7 0.606430 0.913355 0.992899
O O1 0.500000 0.624051 0.473954
O O2 0.596268 0.500000 0.486202
O O3 0.642114 0.610507 0.611277
O O4 0.678203 0.618573 0.406986
O O5 0.500000 0.170777 0.247413
O O6 0.363456 0.262380 0.181870
O O7 0.323911 0.139431 0.292391
O O8 0.377009 0.132096 0.098763
O O9 0.500000 0.643425 0.119578
O O10 0.340169 0.594895 0.202820
O O11 0.343381 0.650746 0.013578
O O12 0.839814 0.857117 0.809045
O O13 0.000000 0.909867 0.741891
O O14 0.852923 0.000000 0.752412
O O15 0.739915 0.000000 0.313097
O O16 0.750000 0.750000 0.900882
O O17 0.815862 0.614199 0.909326
O O18 0.500000 0.898561 0.947794
O O19 0.622049 0.000000 0.020066
#
# Coordination Sequence:
#
# PCOD8173173 Si02
#       7
#     8   8   8   8   8   8   8
#     4   8  16  33  54  76 103 134 169 209 258 312
#     4  10  20  35  50  70 103 143 177 203 243 304
#     4  11  22  35  50  73 108 143 167 202 260 315
#     4   9  19  36  57  78 101 134 173 213 258 308
#     4  11  20  32  54  81 104 130 170 218 259 302
#     4  12  21  33  52  77 109 136 169 211 260 307
#     4  10  20  34  51  70  97 137 180 212 242 294
#
# _framework density 17.668372000000002
#
# number of rings (size 3 to 8) (size 9 to 14) (size 15 to 20)
#    0.000    1.857    2.857    3.000    0.000    2.857 
#    0.000    1.429    0.000    0.857    0.000    2.000 
#    0.000    0.000    0.000    0.000    0.000    0.000 
#
# Total GULP energy -347201.604715 kJ/mol
# GULP energy per Si atom -12400.057311 kJ/mol
# Density = 1.762816 g / cm^3
# Si number density = 17.668372 Si / 1000 Ang^3
#
#
#
# Elastic Constant Matrix: (Units=GPa)
#
#
# Indices 1 2 3 4 5 6 
#
# 1 93.0970 13.0016 46.3802 0.0000 0.0000 0.0000
# 2 13.0016 27.8966 12.9878 0.0000 0.0000 0.0000
# 3 46.3802 12.9878 111.2268 0.0000 0.0000 0.0000
# 4 0.0000 0.0000 0.0000 1.1090 0.0000 0.0000
# 5 0.0000 0.0000 0.0000 0.0000 31.2707 0.0000
# 6 0.0000 0.0000 0.0000 0.0000 0.0000 24.5740
#
#
#
# Elastic Compliance Matrix: (Units=1/GPa)
#
#
# Indices 1 2 3 4 5 6 
#
# 1 0.013971 -0.004018 -0.005357 0.000000 0.000000 0.000000
# 2 -0.004018 0.039063 -0.002886 0.000000 0.000000 0.000000
# 3 -0.005357 -0.002886 0.011561 0.000000 0.000000 0.000000
# 4 0.000000 0.000000 0.000000 0.901678 0.000000 0.000000
# 5 0.000000 0.000000 0.000000 0.000000 0.031979 0.000000
# 6 0.000000 0.000000 0.000000 0.000000 0.000000 0.040693
#
#
# Mechanical properties :
#
#
# Convention : Reuss Voigt Hill
#
# Bulk Modulus (GPa) = 24.95337 41.88438 33.41888
# Shear Modulus (GPa) = 4.64328 22.04748 13.34538
#
# Velocity S-wave (km/s) = 1.62288 3.53632 2.75130
# Velocity P-wave (km/s) = 4.20303 6.35857 5.38966
#
# Compressibility (1/GPa) = 0.04007475
#
# Stress axis : x y z
#
# Youngs Moduli (GPa) = 71.57563 25.59980 86.49538
#
# Poissons Ratio (x) = 0.10285 0.46333
# Poissons Ratio (y) = 0.28756 0.24963
# Poissons Ratio (z) = 0.38341 0.07388
#
# Static dielectric constant tensor:
#      x y z
#    x 3.538540 0.000000 0.000000 
#    y 0.000000 3.306060 0.000000 
#    z 0.000000 0.000000 3.246250 
# 
# 
# High freq. dielectric constant tensor:
#      x y z
#    x 1.693270 0.000000 0.000000 
#    y 0.000000 1.675800 0.000000 
#    z 0.000000 0.000000 1.662580 
# 
# From -- ./inp_files/12978.got.cif
#   From: 2010.03.12/outbox.cif.g09.slc.cpg/sg35_7_cif.got.tgz:12978.got - 2010.04.14 02:02:04.
