data_PCOD8173403
_publ_section_title
;
Structure prediction by ZEFSAII (Michael W. Deem and Ramdas Pophale) SiO2 
 PCOD8173403
Probable space group: C M M 2
;
_chemical_formula_sum "Si O2"
_cell_formula_units_Z 64
_cell_length_a 8.956935
_cell_length_b 28.181061
_cell_length_c 12.799747
_cell_angle_alpha 90.000000
_cell_angle_beta 90.000000
_cell_angle_gamma 90.000000
_cell_volume 3230.860063
_symmetry_space_group_name_H-M "C M M 2"
_symmetry_group_IT_number 35
_symmetry_cell_setting 'orthorhombic'
loop_
_space_group_symop_operation_xyz
x,y,z
-x,-y,z
-x,y,z
x,-y,z
1/2+x,1/2+y,z
1/2-x,1/2-y,z
1/2-x,1/2+y,z
1/2+x,1/2-y,z
loop_
_atom_site_type_symbol
_atom_site_label
_atom_site_fract_x
_atom_site_fract_y
_atom_site_fract_z
Si Si1 0.672964 0.645994 0.831750
Si Si2 0.665975 0.056214 0.144309
Si Si3 0.175667 0.361237 0.441740
Si Si4 0.176583 0.698497 0.642549
Si Si5 0.175820 0.054139 0.354651
Si Si6 0.171342 0.053130 0.937444
Si Si7 0.328653 0.799533 0.250512
Si Si8 0.825293 0.699176 0.015717
O O1 0.500000 0.660412 0.817368
O O2 0.769360 0.666492 0.738085
O O3 0.692376 0.588687 0.839013
O O4 0.735317 0.664872 0.940692
O O5 0.500000 0.078415 0.154361
O O6 0.761127 0.072587 0.243828
O O7 0.659233 0.000000 0.141894
O O8 0.736760 0.073537 0.035781
O O9 0.226589 0.328574 0.538009
O O10 0.257038 0.412422 0.445938
O O11 0.232562 0.336344 0.335574
O O12 0.000000 0.370289 0.444109
O O13 0.250000 0.750000 0.646446
O O14 0.000000 0.705010 0.649572
O O15 0.000000 0.058965 0.352193
O O16 0.224984 0.000000 0.377813
O O17 0.000000 0.052127 0.973600
O O18 0.223556 0.000000 0.904114
O O19 0.500000 0.789201 0.273655
O O20 0.250000 0.750000 0.266346
O O21 0.304589 0.820300 0.133967
O O22 0.750000 0.750000 0.004820
O O23 0.000000 0.702409 0.985136
#
# Coordination Sequence:
#
# PCOD8173403 Si02
#       8
#     8   8   8   8   8   8   8   8
#     4  11  23  38  59  85 115 152 197 241 293 350
#     4   9  17  30  51  79 113 154 194 235 284 337
#     4  10  22  39  60  87 116 150 194 241 294 348
#     4  11  24  43  66  89 116 149 193 246 295 350
#     4  10  21  36  55  83 119 158 200 242 284 337
#     4   9  19  36  56  81 115 153 195 242 289 343
#     4   9  19  35  55  82 114 147 182 229 287 350
#     4  10  20  35  55  81 115 149 185 232 288 352
#
# _framework density 19.808966000000002
#
# number of rings (size 3 to 8) (size 9 to 14) (size 15 to 20)
#    0.000    2.125    0.000    2.625    1.750    5.250 
#    0.000    0.625    0.000    2.250    0.000    0.000 
#    0.000    0.000    0.000    0.000    0.000    0.000 
#
# Total GULP energy -396787.542786 kJ/mol
# GULP energy per Si atom -12399.610712 kJ/mol
# Density = 1.976388 g / cm^3
# Si number density = 19.808966 Si / 1000 Ang^3
#
#
#
# Elastic Constant Matrix: (Units=GPa)
#
#
# Indices 1 2 3 4 5 6 
#
# 1 74.8231 39.7842 41.0762 0.0000 0.0000 0.0000
# 2 39.7842 99.9735 68.6872 0.0000 0.0000 0.0000
# 3 41.0762 68.6872 104.5587 0.0000 0.0000 0.0000
# 4 0.0000 0.0000 0.0000 33.2208 0.0000 0.0000
# 5 0.0000 0.0000 0.0000 0.0000 25.6141 0.0000
# 6 0.0000 0.0000 0.0000 0.0000 0.0000 27.2109
#
#
#
# Elastic Compliance Matrix: (Units=1/GPa)
#
#
# Indices 1 2 3 4 5 6 
#
# 1 0.017954 -0.004190 -0.004301 0.000000 0.000000 0.000000
# 2 -0.004190 0.019209 -0.010973 0.000000 0.000000 0.000000
# 3 -0.004301 -0.010973 0.018462 0.000000 0.000000 0.000000
# 4 0.000000 0.000000 0.000000 0.030102 0.000000 0.000000
# 5 0.000000 0.000000 0.000000 0.000000 0.039041 0.000000
# 6 0.000000 0.000000 0.000000 0.000000 0.000000 0.036750
#
#
# Mechanical properties :
#
#
# Convention : Reuss Voigt Hill
#
# Bulk Modulus (GPa) = 59.88854 64.27230 62.08042
# Shear Modulus (GPa) = 24.27068 25.86298 25.06683
#
# Velocity S-wave (km/s) = 3.50414 3.61726 3.56115
# Velocity P-wave (km/s) = 6.83159 7.06842 6.95101
#
# Compressibility (1/GPa) = 0.01669768
#
# Stress axis : x y z
#
# Youngs Moduli (GPa) = 55.69906 52.05922 54.16546
#
# Poissons Ratio (x) = 0.21811 0.23296
# Poissons Ratio (y) = 0.23336 0.59435
# Poissons Ratio (z) = 0.23955 0.57124
#
# Static dielectric constant tensor:
#      x y z
#    x 3.682790 0.000000 0.000000 
#    y 0.000000 3.619120 0.000000 
#    z 0.000000 0.000000 3.567720 
# 
# 
# High freq. dielectric constant tensor:
#      x y z
#    x 1.776590 0.000000 0.000000 
#    y 0.000000 1.782980 0.000000 
#    z 0.000000 0.000000 1.754420 
# 
# From -- ./inp_files/11992.got.cif
#   From: 2010.03.12/outbox.cif.g09.slc.cpg/sg35_6_cif.got.tgz:11992.got - 2010.04.14 02:02:04.
