data_PCOD8173916
_publ_section_title
;
Structure prediction by ZEFSAII (Michael W. Deem and Ramdas Pophale) SiO2 
 PCOD8173916
Probable space group: C M M 2
;
_chemical_formula_sum "Si O2"
_cell_formula_units_Z 40
_cell_length_a 15.862293
_cell_length_b 8.745141
_cell_length_c 14.365730
_cell_angle_alpha 90.000000
_cell_angle_beta 90.000000
_cell_angle_gamma 90.000000
_cell_volume 1992.785174
_symmetry_space_group_name_H-M "C M M 2"
_symmetry_group_IT_number 35
_symmetry_cell_setting 'orthorhombic'
loop_
_space_group_symop_operation_xyz
x,y,z
-x,-y,z
-x,y,z
x,-y,z
1/2+x,1/2+y,z
1/2-x,1/2-y,z
1/2-x,1/2+y,z
1/2+x,1/2-y,z
loop_
_atom_site_type_symbol
_atom_site_label
_atom_site_fract_x
_atom_site_fract_y
_atom_site_fract_z
Si Si1 0.500000 0.674499 0.834731
Si Si2 0.342547 0.818998 0.935808
Si Si3 0.162973 0.681187 0.522403
Si Si4 0.000000 0.174933 0.614675
Si Si5 0.339300 0.180031 0.143262
Si Si6 0.591332 0.181071 0.333086
O O1 0.500000 0.500000 0.869638
O O2 0.414419 0.754949 0.868898
O O3 0.500000 0.685959 0.724908
O O4 0.250000 0.750000 0.913393
O O5 0.335621 0.000000 0.922518
O O6 0.372948 0.774734 0.040818
O O7 0.164619 0.500000 0.533294
O O8 0.250000 0.750000 0.562328
O O9 0.155709 0.733513 0.413724
O O10 0.084083 0.742792 0.579699
O O11 0.000000 0.000000 0.580505
O O12 0.250000 0.250000 0.159701
O O13 0.393080 0.247924 0.229355
O O14 0.332694 0.000000 0.150467
O O15 0.500000 0.239973 0.365657
O O16 0.592723 0.000000 0.326153
#
# Coordination Sequence:
#
# PCOD8173916 Si02
#       6
#     4   8   8   4   8   8
#     4  11  25  43  64  87 116 152 195 251 306 357
#     4  10  21  38  62  91 122 159 199 242 293 349
#     4  11  22  39  64  91 121 159 197 241 295 350
#     4  11  25  45  64  87 116 150 197 251 304 359
#     4   9  18  32  54  81 116 155 194 235 279 338
#     4   9  17  31  54  84 119 157 196 236 282 340
#
# _framework density 20.072410000000001
#
# number of rings (size 3 to 8) (size 9 to 14) (size 15 to 20)
#    0.000    2.000    1.000    2.400    1.400    3.200 
#    0.000    1.000    0.000    0.000    0.000    0.000 
#    0.000    0.000    0.000    0.000    0.000    0.000 
#
# Total GULP energy -247848.826149 kJ/mol
# GULP energy per Si atom -12392.441307 kJ/mol
# Density = 2.002672 g / cm^3
# Si number density = 20.072410 Si / 1000 Ang^3
#
#
#
# Elastic Constant Matrix: (Units=GPa)
#
#
# Indices 1 2 3 4 5 6 
#
# 1 145.4848 58.7224 55.4487 0.0000 0.0000 0.0000
# 2 58.7224 69.4918 37.7032 0.0000 0.0000 0.0000
# 3 55.4487 37.7032 87.7466 0.0000 0.0000 0.0000
# 4 0.0000 0.0000 0.0000 19.9415 0.0000 0.0000
# 5 0.0000 0.0000 0.0000 0.0000 -118.1360 0.0000
# 6 0.0000 0.0000 0.0000 0.0000 0.0000 34.2959
#
#
#
# Elastic Compliance Matrix: (Units=1/GPa)
#
#
# Indices 1 2 3 4 5 6 
#
# 1 0.011416 -0.007476 -0.004002 0.000000 0.000000 0.000000
# 2 -0.007476 0.023660 -0.005442 0.000000 0.000000 0.000000
# 3 -0.004002 -0.005442 0.016264 0.000000 0.000000 0.000000
# 4 0.000000 0.000000 0.000000 0.050147 0.000000 0.000000
# 5 0.000000 0.000000 0.000000 0.000000 -0.008465 0.000000
# 6 0.000000 0.000000 0.000000 0.000000 0.000000 0.029158
#
#
# Mechanical properties :
#
#
# Convention : Reuss Voigt Hill
#
# Bulk Modulus (GPa) = 57.14206 67.38576 62.26391
# Shear Modulus (GPa) = 30.89207 -2.72315 14.08446
#
# Velocity S-wave (km/s) = 3.92731 -1.16602 2.65180
# Velocity P-wave (km/s) = 7.00676 5.64193 6.36106
#
# Compressibility (1/GPa) = 0.01750024
#
# Stress axis : x y z
#
# Youngs Moduli (GPa) = 87.59388 42.26507 61.48620
#
# Poissons Ratio (x) = 0.31597 0.24607
# Poissons Ratio (y) = 0.65484 0.33462
# Poissons Ratio (z) = 0.35055 0.23002
#
# Static dielectric constant tensor:
#      x y z
#    x 3.686550 0.000000 0.000000 
#    y 0.000000 3.570360 0.000000 
#    z 0.000000 0.000000 3.997310 
# 
# 
# High freq. dielectric constant tensor:
#      x y z
#    x 1.789740 0.000000 0.000000 
#    y 0.000000 1.770220 0.000000 
#    z 0.000000 0.000000 1.792060 
# 
# From -- ./inp_files/14752.got.cif
#   From: 2010.03.12/outbox.cif.g09.slc.cpg/sg35_8_cif.got.tgz:14752.got - 2010.04.14 02:02:04.
