data_PCOD8173060
_publ_section_title
;
Structure prediction by ZEFSAII (Michael W. Deem and Ramdas Pophale) SiO2 
 PCOD8173060
Probable space group: C M M 2
;
_chemical_formula_sum "Si O2"
_cell_formula_units_Z 56
_cell_length_a 9.380746
_cell_length_b 18.673121
_cell_length_c 17.921604
_cell_angle_alpha 90.000000
_cell_angle_beta 90.000000
_cell_angle_gamma 90.000000
_cell_volume 3139.288037
_symmetry_space_group_name_H-M "C M M 2"
_symmetry_group_IT_number 35
_symmetry_cell_setting 'orthorhombic'
loop_
_space_group_symop_operation_xyz
x,y,z
-x,-y,z
-x,y,z
x,-y,z
1/2+x,1/2+y,z
1/2-x,1/2-y,z
1/2-x,1/2+y,z
1/2+x,1/2-y,z
loop_
_atom_site_type_symbol
_atom_site_label
_atom_site_fract_x
_atom_site_fract_y
_atom_site_fract_z
Si Si1 0.838859 0.085225 0.277840
Si Si2 0.666515 0.821225 0.833901
Si Si3 0.664077 0.916850 0.137752
Si Si4 0.832305 0.675709 0.564192
Si Si5 0.331241 0.079948 0.701039
Si Si6 0.835248 0.582582 0.420314
Si Si7 0.334818 0.819927 0.002292
O O1 0.759273 0.115557 0.204597
O O2 0.758166 0.112099 0.351689
O O3 0.000000 0.114631 0.278829
O O4 0.834551 0.000000 0.275868
O O5 0.500000 0.804411 0.824283
O O6 0.750000 0.750000 0.810753
O O7 0.714978 0.885395 0.779800
O O8 0.704289 0.844867 0.918371
O O9 0.500000 0.901568 0.157898
O O10 0.708796 0.882006 0.059392
O O11 0.694275 0.000000 0.127406
O O12 0.750000 0.750000 0.561375
O O13 0.774640 0.629593 0.634021
O O14 0.795740 0.630375 0.490948
O O15 0.000000 0.691358 0.571056
O O16 0.500000 0.074119 0.694866
O O17 0.264825 0.000000 0.695746
O O18 0.799343 0.500000 0.439418
O O19 0.000000 0.590336 0.397745
O O20 0.500000 0.800687 0.007973
O O21 0.250000 0.750000 0.025965
#
# Coordination Sequence:
#
# PCOD8173060 Si02
#       7
#     8   8   8   8   8   8   8
#     4   9  17  29  47  72  98 122 152 193 241 288
#     4   9  17  30  49  71  96 127 160 195 236 281
#     4   9  17  30  48  69  94 124 159 198 237 279
#     4  10  20  33  50  72  98 128 160 194 234 281
#     4   9  17  30  50  75  99 124 159 200 236 273
#     4   9  17  31  51  71  92 122 160 198 235 278
#     4   9  18  31  47  69  96 127 161 195 235 282
#
# _framework density 17.838439999999999
#
# number of rings (size 3 to 8) (size 9 to 14) (size 15 to 20)
#    0.000    2.857    0.000    1.286    0.000    5.143 
#    0.000    3.571    0.000    2.571    0.000    4.000 
#    0.000    0.000    0.000    0.000    0.000    0.000 
#
# Total GULP energy -347181.535718 kJ/mol
# GULP energy per Si atom -12399.340561 kJ/mol
# Density = 1.779784 g / cm^3
# Si number density = 17.838440 Si / 1000 Ang^3
#
#
#
# Elastic Constant Matrix: (Units=GPa)
#
#
# Indices 1 2 3 4 5 6 
#
# 1 59.9844 44.9484 59.8249 0.0000 0.0000 0.0000
# 2 44.9484 104.8784 78.3936 0.0000 0.0000 0.0000
# 3 59.8249 78.3936 152.1308 0.0000 0.0000 0.0000
# 4 0.0000 0.0000 0.0000 17.6520 0.0000 0.0000
# 5 0.0000 0.0000 0.0000 0.0000 19.8405 0.0000
# 6 0.0000 0.0000 0.0000 0.0000 0.0000 25.1956
#
#
#
# Elastic Compliance Matrix: (Units=1/GPa)
#
#
# Indices 1 2 3 4 5 6 
#
# 1 0.029970 -0.006563 -0.008404 0.000000 0.000000 0.000000
# 2 -0.006563 0.016945 -0.006151 0.000000 0.000000 0.000000
# 3 -0.008404 -0.006151 0.013048 0.000000 0.000000 0.000000
# 4 0.000000 0.000000 0.000000 0.056651 0.000000 0.000000
# 5 0.000000 0.000000 0.000000 0.000000 0.050402 0.000000
# 6 0.000000 0.000000 0.000000 0.000000 0.000000 0.039690
#
#
# Mechanical properties :
#
#
# Convention : Reuss Voigt Hill
#
# Bulk Modulus (GPa) = 56.40912 75.92526 66.16719
# Shear Modulus (GPa) = 19.61931 21.45939 20.53935
#
# Velocity S-wave (km/s) = 3.31997 3.47217 3.39692
# Velocity P-wave (km/s) = 6.81081 7.66353 7.24972
#
# Compressibility (1/GPa) = 0.01772763
#
# Stress axis : x y z
#
# Youngs Moduli (GPa) = 33.36631 59.01295 76.64146
#
# Poissons Ratio (x) = 0.38730 0.64408
# Poissons Ratio (y) = 0.21898 0.47143
# Poissons Ratio (z) = 0.28040 0.36300
#
# Static dielectric constant tensor:
#      x y z
#    x 3.191000 0.000000 0.000000 
#    y 0.000000 3.189830 0.000000 
#    z 0.000000 0.000000 3.537070 
# 
# 
# High freq. dielectric constant tensor:
#      x y z
#    x 1.670820 0.000000 0.000000 
#    y 0.000000 1.670740 0.000000 
#    z 0.000000 0.000000 1.706300 
# 
# From -- ./inp_files/15643.got.cif
#   From: 2010.03.12/outbox.cif.g09.slc.cpg/sg35_8_cif.got.tgz:15643.got - 2010.04.14 02:02:04.
