data_PCOD8173504
_publ_section_title
;
Structure prediction by ZEFSAII (Michael W. Deem and Ramdas Pophale) SiO2 
 PCOD8173504
Probable space group: C M M 2
;
_chemical_formula_sum "Si O2"
_cell_formula_units_Z 40
_cell_length_a 8.612401
_cell_length_b 28.556932
_cell_length_c 7.800229
_cell_angle_alpha 90.000000
_cell_angle_beta 90.000000
_cell_angle_gamma 90.000000
_cell_volume 1918.417569
_symmetry_space_group_name_H-M "C M M 2"
_symmetry_group_IT_number 35
_symmetry_cell_setting 'orthorhombic'
loop_
_space_group_symop_operation_xyz
x,y,z
-x,-y,z
-x,y,z
x,-y,z
1/2+x,1/2+y,z
1/2-x,1/2-y,z
1/2-x,1/2+y,z
1/2+x,1/2-y,z
loop_
_atom_site_type_symbol
_atom_site_label
_atom_site_fract_x
_atom_site_fract_y
_atom_site_fract_z
Si Si1 0.320476 0.052603 0.271950
Si Si2 0.682413 0.358686 0.416843
Si Si3 0.319724 0.552930 0.904395
Si Si4 0.683922 0.198564 0.102584
Si Si5 0.819265 0.357648 0.766596
O O1 0.500000 0.062201 0.227103
O O2 0.260141 0.089782 0.410057
O O3 0.296761 0.000000 0.344403
O O4 0.220542 0.060569 0.102366
O O5 0.500000 0.363137 0.397958
O O6 0.746276 0.325214 0.270079
O O7 0.727759 0.337381 0.601931
O O8 0.500000 0.564400 0.877204
O O9 0.279409 0.500000 0.848182
O O10 0.218637 0.587461 0.788348
O O11 0.500000 0.199638 0.120710
O O12 0.750000 0.250000 0.083962
O O13 0.737115 0.170012 0.934815
O O14 0.000000 0.350621 0.733139
#
# Coordination Sequence:
#
# PCOD8173504 Si02
#       5
#     8   8   8   8   8
#     4  10  20  36  60  90 127 171 216 260 312 375
#     4  12  25  41  66  96 131 169 212 265 317 378
#     4  10  20  35  59  92 129 169 214 260 311 373
#     4  11  25  46  71  96 125 163 208 262 323 385
#     4  11  24  42  66  94 129 170 214 261 314 380
#
# _framework density 20.850518000000001
#
# number of rings (size 3 to 8) (size 9 to 14) (size 15 to 20)
#    0.000    1.200    2.000    4.200    0.000    6.400 
#    0.000    2.000    0.000    0.000    0.000    0.000 
#    0.000    0.000    0.000    0.000    0.000    0.000 
#
# Total GULP energy -248096.318149 kJ/mol
# GULP energy per Si atom -12404.815907 kJ/mol
# Density = 2.080306 g / cm^3
# Si number density = 20.850518 Si / 1000 Ang^3
#
#
#
# Elastic Constant Matrix: (Units=GPa)
#
#
# Indices 1 2 3 4 5 6 
#
# 1 73.6853 44.5673 29.4413 0.0000 0.0000 0.0000
# 2 44.5673 123.9974 56.4097 0.0000 0.0000 0.0000
# 3 29.4413 56.4097 121.8328 0.0000 0.0000 0.0000
# 4 0.0000 0.0000 0.0000 10.6493 0.0000 0.0000
# 5 0.0000 0.0000 0.0000 0.0000 34.2197 0.0000
# 6 0.0000 0.0000 0.0000 0.0000 0.0000 34.4905
#
#
#
# Elastic Compliance Matrix: (Units=1/GPa)
#
#
# Indices 1 2 3 4 5 6 
#
# 1 0.017608 -0.005565 -0.001678 0.000000 0.000000 0.000000
# 2 -0.005565 0.011976 -0.004200 0.000000 0.000000 0.000000
# 3 -0.001678 -0.004200 0.010558 0.000000 0.000000 0.000000
# 4 0.000000 0.000000 0.000000 0.093903 0.000000 0.000000
# 5 0.000000 0.000000 0.000000 0.000000 0.029223 0.000000
# 6 0.000000 0.000000 0.000000 0.000000 0.000000 0.028993
#
#
# Mechanical properties :
#
#
# Convention : Reuss Voigt Hill
#
# Bulk Modulus (GPa) = 57.95498 64.48358 61.21928
# Shear Modulus (GPa) = 22.63477 28.47838 25.55658
#
# Velocity S-wave (km/s) = 3.29838 3.69973 3.50480
# Velocity P-wave (km/s) = 6.50857 7.01744 6.76779
#
# Compressibility (1/GPa) = 0.01725477
#
# Stress axis : x y z
#
# Youngs Moduli (GPa) = 56.79315 83.50327 94.71350
#
# Poissons Ratio (x) = 0.46470 0.15896
# Poissons Ratio (y) = 0.31606 0.39779
# Poissons Ratio (z) = 0.09531 0.35071
#
# Static dielectric constant tensor:
#      x y z
#    x 3.804800 0.000000 0.000000 
#    y 0.000000 3.895810 0.000000 
#    z 0.000000 0.000000 3.749630 
# 
# 
# High freq. dielectric constant tensor:
#      x y z
#    x 1.827850 0.000000 0.000000 
#    y 0.000000 1.815300 0.000000 
#    z 0.000000 0.000000 1.816730 
# 
# From -- ./inp_files/5123.got.cif
#   From: 2010.03.12/outbox.cif.g09.slc.cpg/sg35_3_cif.got.tgz:5123.got - 2010.04.14 02:02:04.
