data_PCOD8173915
_publ_section_title
;
Structure prediction by ZEFSAII (Michael W. Deem and Ramdas Pophale) SiO2 
 PCOD8173915
Probable space group: C M M 2
;
_chemical_formula_sum "Si O2"
_cell_formula_units_Z 56
_cell_length_a 8.904532
_cell_length_b 20.276150
_cell_length_c 14.634531
_cell_angle_alpha 90.000000
_cell_angle_beta 90.000000
_cell_angle_gamma 90.000000
_cell_volume 2642.259106
_symmetry_space_group_name_H-M "C M M 2"
_symmetry_group_IT_number 35
_symmetry_cell_setting 'orthorhombic'
loop_
_space_group_symop_operation_xyz
x,y,z
-x,-y,z
-x,y,z
x,-y,z
1/2+x,1/2+y,z
1/2-x,1/2-y,z
1/2-x,1/2+y,z
1/2+x,1/2-y,z
loop_
_atom_site_type_symbol
_atom_site_label
_atom_site_fract_x
_atom_site_fract_y
_atom_site_fract_z
Si Si1 0.822434 0.000000 0.054660
Si Si2 0.823486 0.577336 0.632054
Si Si3 0.677009 0.679057 0.768842
Si Si4 0.827119 0.136067 0.309005
Si Si5 0.175903 0.136736 0.972795
Si Si6 0.330206 0.500000 0.257442
Si Si7 0.676932 0.185704 0.143758
Si Si8 0.175287 0.684382 0.484394
O O1 0.746891 0.000000 0.156874
O O2 0.768730 0.937192 0.995203
O O3 0.000000 0.000000 0.057948
O O4 0.770397 0.500000 0.626297
O O5 0.738680 0.617649 0.710637
O O6 0.785135 0.617341 0.539024
O O7 0.000000 0.579815 0.652389
O O8 0.500000 0.685395 0.752572
O O9 0.750000 0.750000 0.743708
O O10 0.718160 0.658854 0.871541
O O11 0.754249 0.131659 0.207485
O O12 0.736590 0.178888 0.381608
O O13 0.000000 0.159438 0.307845
O O14 0.804041 0.059078 0.329296
O O15 0.000000 0.146446 0.992772
O O16 0.271236 0.183281 0.039194
O O17 0.500000 0.500000 0.222357
O O18 0.500000 0.184691 0.152340
O O19 0.750000 0.250000 0.189822
O O20 0.250000 0.750000 0.529710
O O21 0.000000 0.697369 0.481566
#
# Coordination Sequence:
#
# PCOD8173915 Si02
#       8
#     4   8   8   8   8   4   8   8
#     4   9  16  34  60  85 120 163 205 252 308 368
#     4  10  24  46  70  97 133 169 204 258 325 386
#     4  11  24  41  67  98 130 169 216 266 319 383
#     4  11  22  39  62  90 124 163 208 256 311 372
#     4  10  21  38  62  90 124 164 207 257 313 372
#     4   9  18  34  60  87 118 163 205 250 308 368
#     4  12  24  38  57  84 120 162 209 258 308 368
#     4  11  24  43  67  95 127 166 210 259 318 378
#
# _framework density 21.193987
#
# number of rings (size 3 to 8) (size 9 to 14) (size 15 to 20)
#    0.000    1.429    1.429    3.857    2.000    4.857 
#    0.000    2.143    0.000    0.000    0.000    0.000 
#    0.000    0.000    0.000    0.000    0.000    0.000 
#
# Total GULP energy -346946.645029 kJ/mol
# GULP energy per Si atom -12390.951608 kJ/mol
# Density = 2.114575 g / cm^3
# Si number density = 21.193987 Si / 1000 Ang^3
#
#
#
# Elastic Constant Matrix: (Units=GPa)
#
#
# Indices 1 2 3 4 5 6 
#
# 1 101.5174 52.2007 53.5228 0.0000 0.0000 0.0000
# 2 52.2007 148.2823 44.3757 0.0000 0.0000 0.0000
# 3 53.5228 44.3757 107.0628 0.0000 0.0000 0.0000
# 4 0.0000 0.0000 0.0000 41.9901 0.0000 0.0000
# 5 0.0000 0.0000 0.0000 0.0000 29.6174 0.0000
# 6 0.0000 0.0000 0.0000 0.0000 0.0000 26.9362
#
#
#
# Elastic Compliance Matrix: (Units=1/GPa)
#
#
# Indices 1 2 3 4 5 6 
#
# 1 0.014744 -0.003407 -0.005959 0.000000 0.000000 0.000000
# 2 -0.003407 0.008486 -0.001814 0.000000 0.000000 0.000000
# 3 -0.005959 -0.001814 0.013071 0.000000 0.000000 0.000000
# 4 0.000000 0.000000 0.000000 0.023815 0.000000 0.000000
# 5 0.000000 0.000000 0.000000 0.000000 0.033764 0.000000
# 6 0.000000 0.000000 0.000000 0.000000 0.000000 0.037125
#
#
# Mechanical properties :
#
#
# Convention : Reuss Voigt Hill
#
# Bulk Modulus (GPa) = 71.72806 73.00676 72.36741
# Shear Modulus (GPa) = 31.64310 33.49295 32.56803
#
# Velocity S-wave (km/s) = 3.86816 3.97962 3.92428
# Velocity P-wave (km/s) = 7.33943 7.45910 7.39951
#
# Compressibility (1/GPa) = 0.01394154
#
# Stress axis : x y z
#
# Youngs Moduli (GPa) = 67.82379 117.83775 76.50499
#
# Poissons Ratio (x) = 0.40150 0.45586
# Poissons Ratio (y) = 0.23109 0.13878
# Poissons Ratio (z) = 0.40414 0.21376
#
# Static dielectric constant tensor:
#      x y z
#    x 3.578980 0.000000 0.000000 
#    y 0.000000 4.393800 0.000000 
#    z 0.000000 0.000000 3.725970 
# 
# 
# High freq. dielectric constant tensor:
#      x y z
#    x 1.813400 0.000000 0.000000 
#    y 0.000000 1.854510 0.000000 
#    z 0.000000 0.000000 1.828980 
# 
# From -- ./inp_files/15795.got.cif
#   From: 2010.03.12/outbox.cif.g09.slc.cpg/sg35_8_cif.got.tgz:15795.got - 2010.04.14 02:02:04.
