data_PCOD8173668
_publ_section_title
;
Structure prediction by ZEFSAII (Michael W. Deem and Ramdas Pophale) SiO2 
 PCOD8173668
Probable space group: C M M 2
;
_chemical_formula_sum "Si O2"
_cell_formula_units_Z 56
_cell_length_a 13.781616
_cell_length_b 19.612434
_cell_length_c 10.178999
_cell_angle_alpha 90.000000
_cell_angle_beta 90.000000
_cell_angle_gamma 90.000000
_cell_volume 2751.292167
_symmetry_space_group_name_H-M "C M M 2"
_symmetry_group_IT_number 35
_symmetry_cell_setting 'orthorhombic'
loop_
_space_group_symop_operation_xyz
x,y,z
-x,-y,z
-x,y,z
x,-y,z
1/2+x,1/2+y,z
1/2-x,1/2-y,z
1/2-x,1/2+y,z
1/2+x,1/2-y,z
loop_
_atom_site_type_symbol
_atom_site_label
_atom_site_fract_x
_atom_site_fract_y
_atom_site_fract_z
Si Si1 0.111086 0.423427 0.369510
Si Si2 0.385456 0.342820 0.305576
Si Si3 0.386386 0.782060 0.900964
Si Si4 0.292410 0.643344 0.819056
Si Si5 0.211943 0.078288 0.539130
Si Si6 0.609861 0.422042 0.052535
Si Si7 0.614619 0.797876 0.200639
O O1 0.120767 0.500000 0.309725
O O2 0.173871 0.417534 0.502612
O O3 0.152140 0.369389 0.262053
O O4 0.000000 0.407127 0.407787
O O5 0.500000 0.347019 0.312126
O O6 0.346439 0.377545 0.435131
O O7 0.348610 0.264590 0.292161
O O8 0.347555 0.380655 0.175345
O O9 0.500000 0.798521 0.882170
O O10 0.361692 0.708484 0.841032
O O11 0.321812 0.838198 0.825883
O O12 0.350645 0.785848 0.051964
O O13 0.311505 0.610389 0.678806
O O14 0.320454 0.587926 0.928123
O O15 0.175994 0.000000 0.536852
O O16 0.500000 0.397640 0.018233
O O17 0.610515 0.500000 0.094958
O O18 0.500000 0.799094 0.198315
#
# Coordination Sequence:
#
# PCOD8173668 Si02
#       7
#     8   8   8   8   8   8   8
#     4   9  20  39  62  88 122 164 205 250 308 370
#     4  10  21  38  62  91 121 155 197 253 313 366
#     4  10  22  40  61  90 125 159 203 265 317 360
#     4  11  23  38  61  89 121 166 208 252 305 375
#     4  11  25  41  57  87 127 163 205 255 305 365
#     4  10  20  37  62  89 119 160 208 255 311 374
#     4   9  18  36  63  92 120 150 197 257 308 360
#
# _framework density 20.354071999999999
#
# number of rings (size 3 to 8) (size 9 to 14) (size 15 to 20)
#    0.000    2.000    1.429    1.286    2.000    5.429 
#    0.000    2.143    0.000    2.143    0.000    0.000 
#    0.000    0.000    0.000    0.000    0.000    0.000 
#
# Total GULP energy -347165.152747 kJ/mol
# GULP energy per Si atom -12398.755455 kJ/mol
# Density = 2.030775 g / cm^3
# Si number density = 20.354072 Si / 1000 Ang^3
#
#
#
# Elastic Constant Matrix: (Units=GPa)
#
#
# Indices 1 2 3 4 5 6 
#
# 1 65.8704 24.3783 29.7678 0.0000 0.0000 0.0000
# 2 24.3783 124.4667 62.6089 0.0000 0.0000 0.0000
# 3 29.7678 62.6089 133.0930 0.0000 0.0000 0.0000
# 4 0.0000 0.0000 0.0000 32.2519 0.0000 0.0000
# 5 0.0000 0.0000 0.0000 0.0000 25.9366 0.0000
# 6 0.0000 0.0000 0.0000 0.0000 0.0000 23.7643
#
#
#
# Elastic Compliance Matrix: (Units=1/GPa)
#
#
# Indices 1 2 3 4 5 6 
#
# 1 0.017218 -0.001880 -0.002967 0.000000 0.000000 0.000000
# 2 -0.001880 0.010730 -0.004627 0.000000 0.000000 0.000000
# 3 -0.002967 -0.004627 0.010354 0.000000 0.000000 0.000000
# 4 0.000000 0.000000 0.000000 0.031006 0.000000 0.000000
# 5 0.000000 0.000000 0.000000 0.000000 0.038556 0.000000
# 6 0.000000 0.000000 0.000000 0.000000 0.000000 0.042080
#
#
# Mechanical properties :
#
#
# Convention : Reuss Voigt Hill
#
# Bulk Modulus (GPa) = 51.66865 61.88223 56.77544
# Shear Modulus (GPa) = 28.51578 30.16890 29.34234
#
# Velocity S-wave (km/s) = 3.74704 3.85412 3.80095
# Velocity P-wave (km/s) = 6.64533 7.09045 6.87150
#
# Compressibility (1/GPa) = 0.01935410
#
# Stress axis : x y z
#
# Youngs Moduli (GPa) = 58.07959 93.19668 96.58409
#
# Poissons Ratio (x) = 0.17522 0.28652
# Poissons Ratio (y) = 0.10919 0.44690
# Poissons Ratio (z) = 0.17230 0.43122
#
# Static dielectric constant tensor:
#      x y z
#    x 3.788500 0.000000 0.000000 
#    y 0.000000 3.920540 0.000000 
#    z 0.000000 0.000000 3.569450 
# 
# 
# High freq. dielectric constant tensor:
#      x y z
#    x 1.804090 0.000000 0.000000 
#    y 0.000000 1.803780 0.000000 
#    z 0.000000 0.000000 1.776860 
# 
# From -- ./inp_files/7665.got.cif
#   From: 2010.03.12/outbox.cif.g09.slc.cpg/sg35_4_cif.got.tgz:7665.got - 2010.04.14 02:02:04.
