data_PCOD8173994
_publ_section_title
;
Structure prediction by ZEFSAII (Michael W. Deem and Ramdas Pophale) SiO2 
 PCOD8173994
Probable space group: C M M 2
;
_chemical_formula_sum "Si O2"
_cell_formula_units_Z 56
_cell_length_a 20.876972
_cell_length_b 8.718662
_cell_length_c 14.622422
_cell_angle_alpha 90.000000
_cell_angle_beta 90.000000
_cell_angle_gamma 90.000000
_cell_volume 2661.562468
_symmetry_space_group_name_H-M "C M M 2"
_symmetry_group_IT_number 35
_symmetry_cell_setting 'orthorhombic'
loop_
_space_group_symop_operation_xyz
x,y,z
-x,-y,z
-x,y,z
x,-y,z
1/2+x,1/2+y,z
1/2-x,1/2-y,z
1/2-x,1/2+y,z
1/2+x,1/2-y,z
loop_
_atom_site_type_symbol
_atom_site_label
_atom_site_fract_x
_atom_site_fract_y
_atom_site_fract_z
Si Si1 0.314831 0.681041 0.064040
Si Si2 0.072988 0.320940 0.181044
Si Si3 0.635965 0.317003 0.694539
Si Si4 0.633442 0.818473 0.889143
Si Si5 0.427856 0.321554 0.375897
Si Si6 0.185463 0.820481 0.504570
Si Si7 0.500000 0.664892 0.680561
Si Si8 0.000000 0.831687 0.894382
O O1 0.309550 0.500000 0.061348
O O2 0.250000 0.750000 0.109588
O O3 0.377768 0.727323 0.119711
O O4 0.317475 0.747531 0.961345
O O5 0.086399 0.500000 0.167747
O O6 0.084124 0.277608 0.286004
O O7 0.000000 0.279225 0.151671
O O8 0.630481 0.500000 0.711000
O O9 0.656141 0.236933 0.788655
O O10 0.683498 0.274802 0.612190
O O11 0.566715 0.249903 0.659067
O O12 0.562909 0.764308 0.920313
O O13 0.636209 0.000000 0.892013
O O14 0.500000 0.294705 0.413969
O O15 0.417244 0.500000 0.351841
O O16 0.377393 0.261294 0.451296
O O17 0.250000 0.750000 0.461898
O O18 0.189537 0.000000 0.492897
O O19 0.500000 0.500000 0.628610
O O20 0.500000 0.637091 0.788137
O O21 0.000000 0.000000 0.943584
#
# Coordination Sequence:
#
# PCOD8173994 Si02
#       8
#     8   8   8   8   8   8   4   4
#     4  12  26  44  65  91 125 164 210 256 311 372
#     4  10  22  42  68  97 128 160 199 249 310 372
#     4   9  18  34  55  81 114 157 207 254 305 360
#     4  11  22  37  58  87 124 163 206 258 312 365
#     4   9  19  38  64  92 120 154 203 254 304 360
#     4  10  22  37  57  86 121 161 204 252 303 363
#     4   7  12  25  49  75 100 133 186 247 295 338
#     4   9  17  33  55  81 112 153 202 251 301 356
#
# _framework density 21.040272000000002
#
# number of rings (size 3 to 8) (size 9 to 14) (size 15 to 20)
#    0.000    2.143    0.000    4.071    2.000    3.143 
#    0.000    2.857    0.000    0.000    0.000    0.000 
#    0.000    0.000    0.000    0.000    0.000    0.000 
#
# Total GULP energy -347065.797751 kJ/mol
# GULP energy per Si atom -12395.207063 kJ/mol
# Density = 2.099238 g / cm^3
# Si number density = 21.040272 Si / 1000 Ang^3
#
#
#
# Elastic Constant Matrix: (Units=GPa)
#
#
# Indices 1 2 3 4 5 6 
#
# 1 134.4255 51.2590 60.1818 0.0000 0.0000 0.0000
# 2 51.2590 120.0522 41.7306 0.0000 0.0000 0.0000
# 3 60.1818 41.7306 84.4472 0.0000 0.0000 0.0000
# 4 0.0000 0.0000 0.0000 25.7041 0.0000 0.0000
# 5 0.0000 0.0000 0.0000 0.0000 21.8173 0.0000
# 6 0.0000 0.0000 0.0000 0.0000 0.0000 74.1611
#
#
#
# Elastic Compliance Matrix: (Units=1/GPa)
#
#
# Indices 1 2 3 4 5 6 
#
# 1 0.011510 -0.002491 -0.006972 0.000000 0.000000 0.000000
# 2 -0.002491 0.010596 -0.003461 0.000000 0.000000 0.000000
# 3 -0.006972 -0.003461 0.018521 0.000000 0.000000 0.000000
# 4 0.000000 0.000000 0.000000 0.038904 0.000000 0.000000
# 5 0.000000 0.000000 0.000000 0.000000 0.045835 0.000000
# 6 0.000000 0.000000 0.000000 0.000000 0.000000 0.013484
#
#
# Mechanical properties :
#
#
# Convention : Reuss Voigt Hill
#
# Bulk Modulus (GPa) = 67.66250 71.69644 69.67947
# Shear Modulus (GPa) = 29.47673 36.72006 33.09840
#
# Velocity S-wave (km/s) = 3.74701 4.18212 3.97053
# Velocity P-wave (km/s) = 7.13782 7.58090 7.36269
#
# Compressibility (1/GPa) = 0.01477923
#
# Stress axis : x y z
#
# Youngs Moduli (GPa) = 86.87922 94.37148 53.99412
#
# Poissons Ratio (x) = 0.23509 0.37644
# Poissons Ratio (y) = 0.21643 0.18688
# Poissons Ratio (z) = 0.60571 0.32662
#
# Static dielectric constant tensor:
#      x y z
#    x 4.176160 0.000000 0.000000 
#    y 0.000000 3.586860 0.000000 
#    z 0.000000 0.000000 3.705430 
# 
# 
# High freq. dielectric constant tensor:
#      x y z
#    x 1.835000 0.000000 0.000000 
#    y 0.000000 1.809120 0.000000 
#    z 0.000000 0.000000 1.813180 
# 
# From -- ./inp_files/17502.got.cif
#   From: 2010.03.12/outbox.cif.g09.slc.cpg/sg35_9_cif.got.tgz:17502.got - 2010.04.14 02:02:04.
