data_PCOD8173100
_publ_section_title
;
Structure prediction by ZEFSAII (Michael W. Deem and Ramdas Pophale) SiO2 
 PCOD8173100
Probable space group: C M M 2
;
_chemical_formula_sum "Si O2"
_cell_formula_units_Z 40
_cell_length_a 18.762488
_cell_length_b 9.021064
_cell_length_c 13.068067
_cell_angle_alpha 90.000000
_cell_angle_beta 90.000000
_cell_angle_gamma 90.000000
_cell_volume 2211.869723
_symmetry_space_group_name_H-M "C M M 2"
_symmetry_group_IT_number 35
_symmetry_cell_setting 'orthorhombic'
loop_
_space_group_symop_operation_xyz
x,y,z
-x,-y,z
-x,y,z
x,-y,z
1/2+x,1/2+y,z
1/2-x,1/2-y,z
1/2-x,1/2+y,z
1/2+x,1/2-y,z
loop_
_atom_site_type_symbol
_atom_site_label
_atom_site_fract_x
_atom_site_fract_y
_atom_site_fract_z
Si Si1 0.673475 0.326537 0.136720
Si Si2 0.325710 0.171617 0.947163
Si Si3 0.673953 0.827701 0.720270
Si Si4 0.582054 0.674174 0.551217
Si Si5 0.825107 0.827606 0.361590
O O1 0.679926 0.500000 0.114814
O O2 0.750000 0.250000 0.138745
O O3 0.640147 0.295355 0.249136
O O4 0.630359 0.250467 0.041114
O O5 0.250000 0.250000 0.941592
O O6 0.359432 0.193744 0.834541
O O7 0.316878 0.000000 0.974062
O O8 0.750000 0.750000 0.705622
O O9 0.616136 0.759762 0.645404
O O10 0.685682 0.000000 0.695825
O O11 0.500000 0.719589 0.543607
O O12 0.591931 0.500000 0.569084
O O13 0.618898 0.727053 0.445998
O O14 0.750000 0.750000 0.379769
O O15 0.808978 0.000000 0.373002
#
# Coordination Sequence:
#
# PCOD8173100 Si02
#       5
#     8   8   8   8   8
#     4   9  15  24  41  66  95 123 152 190 235 283
#     4   9  16  26  42  67  97 125 153 190 236 282
#     4  10  20  33  51  75 101 129 163 203 244 288
#     4  10  21  36  52  70  96 130 166 205 248 292
#     4   9  18  31  48  72  98 125 158 197 240 284
#
# _framework density 18.084247000000001
#
# number of rings (size 3 to 8) (size 9 to 14) (size 15 to 20)
#    0.000    2.600    0.000    3.600    0.000    6.000 
#    0.000    0.000    0.000    1.200    0.000    2.800 
#    0.000    0.000    0.000    0.000    0.000    0.000 
#
# Total GULP energy -247783.343976 kJ/mol
# GULP energy per Si atom -12389.167199 kJ/mol
# Density = 1.804309 g / cm^3
# Si number density = 18.084247 Si / 1000 Ang^3
#
#
#
# Elastic Constant Matrix: (Units=GPa)
#
#
# Indices 1 2 3 4 5 6 
#
# 1 75.2625 39.4820 67.2223 0.0000 0.0000 0.0000
# 2 39.4820 96.4053 77.2246 0.0000 0.0000 0.0000
# 3 67.2223 77.2246 194.0692 0.0000 0.0000 0.0000
# 4 0.0000 0.0000 0.0000 33.8216 0.0000 0.0000
# 5 0.0000 0.0000 0.0000 0.0000 0.3423 0.0000
# 6 0.0000 0.0000 0.0000 0.0000 0.0000 17.3960
#
#
#
# Elastic Compliance Matrix: (Units=1/GPa)
#
#
# Indices 1 2 3 4 5 6 
#
# 1 0.020198 -0.003916 -0.005438 0.000000 0.000000 0.000000
# 2 -0.003916 0.015985 -0.005005 0.000000 0.000000 0.000000
# 3 -0.005438 -0.005005 0.009028 0.000000 0.000000 0.000000
# 4 0.000000 0.000000 0.000000 0.029567 0.000000 0.000000
# 5 0.000000 0.000000 0.000000 0.000000 2.921186 0.000000
# 6 0.000000 0.000000 0.000000 0.000000 0.000000 0.057484
#
#
# Mechanical properties :
#
#
# Convention : Reuss Voigt Hill
#
# Bulk Modulus (GPa) = 60.62643 81.51053 71.06848
# Shear Modulus (GPa) = 1.61935 22.43252 12.02593
#
# Velocity S-wave (km/s) = 0.94731 3.52582 2.58155
# Velocity P-wave (km/s) = 5.89862 7.85784 6.94764
#
# Compressibility (1/GPa) = 0.01649445
#
# Stress axis : x y z
#
# Youngs Moduli (GPa) = 49.50931 62.55684 110.76755
#
# Poissons Ratio (x) = 0.24496 0.60237
# Poissons Ratio (y) = 0.19387 0.55435
# Poissons Ratio (z) = 0.26924 0.31307
#
# Static dielectric constant tensor:
#      x y z
#    x 2.797320 0.000000 0.000000 
#    y 0.000000 3.517430 0.000000 
#    z 0.000000 0.000000 4.893550 
# 
# 
# High freq. dielectric constant tensor:
#      x y z
#    x 1.630960 0.000000 0.000000 
#    y 0.000000 1.710470 0.000000 
#    z 0.000000 0.000000 1.736090 
# 
# From -- ./inp_files/11024.got.cif
#   From: 2010.03.12/outbox.cif.g09.slc.cpg/sg35_6_cif.got.tgz:11024.got - 2010.04.14 02:02:04.
