data_PCOD8173786
_publ_section_title
;
Structure prediction by ZEFSAII (Michael W. Deem and Ramdas Pophale) SiO2 
 PCOD8173786
Probable space group: C M M 2
;
_chemical_formula_sum "Si O2"
_cell_formula_units_Z 64
_cell_length_a 18.502542
_cell_length_b 13.822912
_cell_length_c 12.735320
_cell_angle_alpha 90.000000
_cell_angle_beta 90.000000
_cell_angle_gamma 90.000000
_cell_volume 3257.172833
_symmetry_space_group_name_H-M "C M M 2"
_symmetry_group_IT_number 35
_symmetry_cell_setting 'orthorhombic'
loop_
_space_group_symop_operation_xyz
x,y,z
-x,-y,z
-x,y,z
x,-y,z
1/2+x,1/2+y,z
1/2-x,1/2-y,z
1/2-x,1/2+y,z
1/2+x,1/2-y,z
loop_
_atom_site_type_symbol
_atom_site_label
_atom_site_fract_x
_atom_site_fract_y
_atom_site_fract_z
Si Si1 0.083783 0.886241 0.593410
Si Si2 0.308972 0.615382 0.988683
Si Si3 0.671198 0.719985 0.768618
Si Si4 0.847000 0.386817 0.063180
Si Si5 0.583978 0.108059 0.273879
Si Si6 0.417685 0.385458 0.167475
Si Si7 0.083434 0.390241 0.850204
Si Si8 0.583915 0.295726 0.380979
O O1 0.132149 0.852658 0.689950
O O2 0.117109 0.835282 0.489147
O O3 0.000000 0.857670 0.613285
O O4 0.092029 0.000000 0.578912
O O5 0.310250 0.500000 0.973672
O O6 0.325074 0.665527 0.879032
O O7 0.231555 0.652755 0.030525
O O8 0.369075 0.652852 0.070897
O O9 0.750000 0.750000 0.727128
O O10 0.626484 0.819328 0.773992
O O11 0.842753 0.500000 0.082733
O O12 0.875030 0.344277 0.173773
O O13 0.903262 0.361569 0.971241
O O14 0.500000 0.105472 0.243599
O O15 0.597775 0.179932 0.371947
O O16 0.610964 0.000000 0.304147
O O17 0.500000 0.348412 0.150870
O O18 0.414492 0.500000 0.169578
O O19 0.384185 0.348132 0.277541
O O20 0.110806 0.500000 0.829834
O O21 0.000000 0.379746 0.823375
O O22 0.500000 0.322326 0.384248
#
# Coordination Sequence:
#
# PCOD8173786 Si02
#       8
#     8   8   8   8   8   8   8   8
#     4  10  22  42  66  88 111 147 198 251 297 347
#     4  10  21  36  54  82 119 157 192 234 292 352
#     4  12  24  38  59  85 119 155 196 240 296 351
#     4   9  17  32  52  78 115 156 190 225 275 337
#     4   9  17  30  52  83 117 151 189 233 283 343
#     4   9  18  32  52  80 112 145 185 238 296 351
#     4  10  21  37  57  81 112 152 198 241 281 337
#     4   9  18  34  58  83 109 144 191 242 297 348
#
# _framework density 19.648942999999999
#
# number of rings (size 3 to 8) (size 9 to 14) (size 15 to 20)
#    0.000    2.250    1.250    1.500    1.750    4.500 
#    0.000    3.125    0.000    3.750    0.000    0.000 
#    0.000    0.000    0.000    0.000    0.000    0.000 
#
# Total GULP energy -396754.315418 kJ/mol
# GULP energy per Si atom -12398.572357 kJ/mol
# Density = 1.960422 g / cm^3
# Si number density = 19.648943 Si / 1000 Ang^3
#
#
#
# Elastic Constant Matrix: (Units=GPa)
#
#
# Indices 1 2 3 4 5 6 
#
# 1 81.6051 33.3843 47.0112 0.0000 0.0000 0.0000
# 2 33.3843 73.2035 47.2162 0.0000 0.0000 0.0000
# 3 47.0112 47.2162 116.1297 0.0000 0.0000 0.0000
# 4 0.0000 0.0000 0.0000 34.7125 0.0000 0.0000
# 5 0.0000 0.0000 0.0000 0.0000 22.1431 0.0000
# 6 0.0000 0.0000 0.0000 0.0000 0.0000 17.8416
#
#
#
# Elastic Compliance Matrix: (Units=1/GPa)
#
#
# Indices 1 2 3 4 5 6 
#
# 1 0.017006 -0.004494 -0.005057 0.000000 0.000000 0.000000
# 2 -0.004494 0.019704 -0.006192 0.000000 0.000000 0.000000
# 3 -0.005057 -0.006192 0.013176 0.000000 0.000000 0.000000
# 4 0.000000 0.000000 0.000000 0.028808 0.000000 0.000000
# 5 0.000000 0.000000 0.000000 0.000000 0.045161 0.000000
# 6 0.000000 0.000000 0.000000 0.000000 0.000000 0.056049
#
#
# Mechanical properties :
#
#
# Convention : Reuss Voigt Hill
#
# Bulk Modulus (GPa) = 54.34883 58.46240 56.40562
# Shear Modulus (GPa) = 22.98618 24.49456 23.74037
#
# Velocity S-wave (km/s) = 3.42401 3.53457 3.47973
# Velocity P-wave (km/s) = 6.58420 6.81730 6.70177
#
# Compressibility (1/GPa) = 0.01839966
#
# Stress axis : x y z
#
# Youngs Moduli (GPa) = 58.80348 50.75186 75.89610
#
# Poissons Ratio (x) = 0.22806 0.38382
# Poissons Ratio (y) = 0.26424 0.46996
# Poissons Ratio (z) = 0.29738 0.31426
#
# Static dielectric constant tensor:
#      x y z
#    x 3.633720 0.000000 0.000000 
#    y 0.000000 3.753760 0.000000 
#    z 0.000000 0.000000 3.504340 
# 
# 
# High freq. dielectric constant tensor:
#      x y z
#    x 1.747730 0.000000 0.000000 
#    y 0.000000 1.785100 0.000000 
#    z 0.000000 0.000000 1.746170 
# 
# From -- ./inp_files/13578.got.cif
#   From: 2010.03.12/outbox.cif.g09.slc.cpg/sg35_7_cif.got.tgz:13578.got - 2010.04.14 02:02:04.
