data_PCOD8173379
_publ_section_title
;
Structure prediction by ZEFSAII (Michael W. Deem and Ramdas Pophale) SiO2 
 PCOD8173379
Probable space group: C M M 2
;
_chemical_formula_sum "Si O2"
_cell_formula_units_Z 48
_cell_length_a 8.917108
_cell_length_b 17.857453
_cell_length_c 15.803780
_cell_angle_alpha 90.000000
_cell_angle_beta 90.000000
_cell_angle_gamma 90.000000
_cell_volume 2516.543940
_symmetry_space_group_name_H-M "C M M 2"
_symmetry_group_IT_number 35
_symmetry_cell_setting 'orthorhombic'
loop_
_space_group_symop_operation_xyz
x,y,z
-x,-y,z
-x,y,z
x,-y,z
1/2+x,1/2+y,z
1/2-x,1/2-y,z
1/2-x,1/2+y,z
1/2+x,1/2-y,z
loop_
_atom_site_type_symbol
_atom_site_label
_atom_site_fract_x
_atom_site_fract_y
_atom_site_fract_z
Si Si1 0.668164 0.589335 0.939740
Si Si2 0.821221 0.586531 0.469283
Si Si3 0.177546 0.829604 0.622777
Si Si4 0.170751 0.411017 0.104505
Si Si5 0.834123 0.588687 0.286024
Si Si6 0.330939 0.911165 0.772698
O O1 0.500000 0.619611 0.928277
O O2 0.670482 0.500000 0.941865
O O3 0.767817 0.619238 0.861905
O O4 0.732960 0.623007 0.027551
O O5 0.780902 0.500000 0.487741
O O6 0.736475 0.638959 0.534338
O O7 0.759313 0.612131 0.375657
O O8 0.000000 0.598049 0.475889
O O9 0.250000 0.750000 0.641439
O O10 0.224429 0.884780 0.697625
O O11 0.000000 0.822429 0.619245
O O12 0.172840 0.500000 0.097683
O O13 0.242798 0.386479 0.196533
O O14 0.000000 0.382280 0.096637
O O15 0.847184 0.500000 0.287735
O O16 0.000000 0.623396 0.284137
O O17 0.500000 0.880545 0.760352
O O18 0.330138 0.000000 0.771932
#
# Coordination Sequence:
#
# PCOD8173379 Si02
#       6
#     8   8   8   8   8   8
#     4   9  16  25  39  64  98 132 164 200 243 288
#     4   9  17  32  54  78 104 134 168 206 249 297
#     4  12  25  39  54  73  99 130 166 208 254 303
#     4   8  12  20  36  60  92 129 165 198 235 282
#     4   7  11  21  40  66  95 128 164 199 236 283
#     4  10  20  35  55  77 101 131 167 206 249 298
#
# _framework density 19.073775999999999
#
# number of rings (size 3 to 8) (size 9 to 14) (size 15 to 20)
#    0.000    2.833    0.000    5.000    0.000    5.333 
#    0.000    0.833    0.000    3.000    0.000    1.167 
#    0.000    2.667    0.000    0.000    0.000    0.000 
#
# Total GULP energy -297327.860542 kJ/mol
# GULP energy per Si atom -12388.660856 kJ/mol
# Density = 1.903036 g / cm^3
# Si number density = 19.073776 Si / 1000 Ang^3
#
#
#
# Elastic Constant Matrix: (Units=GPa)
#
#
# Indices 1 2 3 4 5 6 
#
# 1 97.1815 17.5348 51.6801 0.0000 0.0000 0.0000
# 2 17.5348 14.6966 15.8569 0.0000 0.0000 0.0000
# 3 51.6801 15.8569 173.0450 0.0000 0.0000 0.0000
# 4 0.0000 0.0000 0.0000 -1.1042 0.0000 0.0000
# 5 0.0000 0.0000 0.0000 0.0000 8.1088 0.0000
# 6 0.0000 0.0000 0.0000 0.0000 0.0000 17.8272
#
#
#
# Elastic Compliance Matrix: (Units=1/GPa)
#
#
# Indices 1 2 3 4 5 6 
#
# 1 0.014414 -0.013930 -0.003028 0.000000 0.000000 0.000000
# 2 -0.013930 0.088971 -0.003993 0.000000 0.000000 0.000000
# 3 -0.003028 -0.003993 0.007049 0.000000 0.000000 0.000000
# 4 0.000000 0.000000 0.000000 -0.905606 0.000000 0.000000
# 5 0.000000 0.000000 0.000000 0.000000 0.123323 0.000000
# 6 0.000000 0.000000 0.000000 0.000000 0.000000 0.056094
#
#
# Mechanical properties :
#
#
# Convention : Reuss Voigt Hill
#
# Bulk Modulus (GPa) = 14.59169 50.56297 32.57733
# Shear Modulus (GPa) = -9.07427 18.28976 4.60774
#
# Velocity S-wave (km/s) = -2.18353 3.09996 1.55595
# Velocity P-wave (km/s) = 1.14442 6.27533 4.51051
#
# Compressibility (1/GPa) = 0.06853216
#
# Stress axis : x y z
#
# Youngs Moduli (GPa) = 69.37748 11.23958 141.86235
#
# Poissons Ratio (x) = 0.15657 0.42959
# Poissons Ratio (y) = 0.96644 0.56640
# Poissons Ratio (z) = 0.21009 0.04487
#
# Static dielectric constant tensor:
#      x y z
#    x 3.422850 0.000000 0.000000 
#    y 0.000000 2.888900 0.000000 
#    z 0.000000 0.000000 4.127950 
# 
# 
# High freq. dielectric constant tensor:
#      x y z
#    x 1.722780 0.000000 0.000000 
#    y 0.000000 1.673140 0.000000 
#    z 0.000000 0.000000 1.774280 
# 
# From -- ./inp_files/15117.got.cif
#   From: 2010.03.12/outbox.cif.g09.slc.cpg/sg35_8_cif.got.tgz:15117.got - 2010.04.14 02:02:04.
