data_PCOD8173200
_publ_section_title
;
Structure prediction by ZEFSAII (Michael W. Deem and Ramdas Pophale) SiO2 
 PCOD8173200
Probable space group: C M M 2
;
_chemical_formula_sum "Si O2"
_cell_formula_units_Z 64
_cell_length_a 8.953243
_cell_length_b 32.797832
_cell_length_c 11.511847
_cell_angle_alpha 90.000000
_cell_angle_beta 90.000000
_cell_angle_gamma 90.000000
_cell_volume 3380.418873
_symmetry_space_group_name_H-M "C M M 2"
_symmetry_group_IT_number 35
_symmetry_cell_setting 'orthorhombic'
loop_
_space_group_symop_operation_xyz
x,y,z
-x,-y,z
-x,y,z
x,-y,z
1/2+x,1/2+y,z
1/2-x,1/2-y,z
1/2-x,1/2+y,z
1/2+x,1/2-y,z
loop_
_atom_site_type_symbol
_atom_site_label
_atom_site_fract_x
_atom_site_fract_y
_atom_site_fract_z
Si Si1 0.673624 0.397989 0.068710
Si Si2 0.823624 0.365855 0.277240
Si Si3 0.677609 0.128992 0.539644
Si Si4 0.677670 0.793557 0.695115
Si Si5 0.831537 0.818955 0.928622
Si Si6 0.322502 0.954705 0.649508
Si Si7 0.663128 0.953508 0.910427
Si Si8 0.668911 0.288890 0.174130
O O1 0.500000 0.393209 0.095468
O O2 0.756539 0.400689 0.193433
O O3 0.726632 0.361391 0.983733
O O4 0.713579 0.438665 0.000940
O O5 0.762763 0.367828 0.408354
O O6 0.769254 0.324808 0.219920
O O7 0.000000 0.369133 0.276513
O O8 0.500000 0.128188 0.546516
O O9 0.733111 0.168693 0.613071
O O10 0.741875 0.084931 0.582216
O O11 0.500000 0.788475 0.688674
O O12 0.750000 0.750000 0.656709
O O13 0.722813 0.804176 0.826868
O O14 0.830422 0.786617 0.034003
O O15 0.000000 0.823279 0.878524
O O16 0.500000 0.955762 0.640754
O O17 0.272491 0.947389 0.781601
O O18 0.263630 0.000000 0.606587
O O19 0.500000 0.931566 0.924007
O O20 0.638251 0.000000 0.938621
O O21 0.500000 0.292538 0.221341
O O22 0.750000 0.250000 0.227299
#
# Coordination Sequence:
#
# PCOD8173200 Si02
#       8
#     8   8   8   8   8   8   8   8
#     4  10  20  34  52  75 104 137 172 212 261 314
#     4  10  20  35  53  72  99 135 176 218 256 303
#     4   9  19  34  51  74 103 138 177 217 263 309
#     4  11  22  35  52  75 106 140 175 215 260 313
#     4   9  19  34  51  74 102 131 167 210 259 316
#     4   8  14  28  53  83 110 133 164 211 263 314
#     4   9  17  30  52  82 110 135 166 205 253 313
#     4  10  20  34  52  75 102 131 169 216 264 313
#
# _framework density 18.932563999999999
#
# number of rings (size 3 to 8) (size 9 to 14) (size 15 to 20)
#    0.000    2.500    0.000    4.125    0.000    5.750 
#    0.000    4.375    0.000    3.750    0.000    0.000 
#    0.000    0.000    0.000    0.000    0.000    0.000 
#
# Total GULP energy -396491.726327 kJ/mol
# GULP energy per Si atom -12390.366448 kJ/mol
# Density = 1.888947 g / cm^3
# Si number density = 18.932564 Si / 1000 Ang^3
#
#
#
# Elastic Constant Matrix: (Units=GPa)
#
#
# Indices 1 2 3 4 5 6 
#
# 1 47.3734 27.1580 29.2089 0.0000 0.0000 0.0000
# 2 27.1580 96.9037 65.6870 0.0000 0.0000 0.0000
# 3 29.2089 65.6870 105.7453 0.0000 0.0000 0.0000
# 4 0.0000 0.0000 0.0000 15.5274 0.0000 0.0000
# 5 0.0000 0.0000 0.0000 0.0000 12.5109 0.0000
# 6 0.0000 0.0000 0.0000 0.0000 0.0000 23.3126
#
#
#
# Elastic Compliance Matrix: (Units=1/GPa)
#
#
# Indices 1 2 3 4 5 6 
#
# 1 0.026415 -0.004244 -0.004660 0.000000 0.000000 0.000000
# 2 -0.004244 0.018507 -0.010324 0.000000 0.000000 0.000000
# 3 -0.004660 -0.010324 0.017157 0.000000 0.000000 0.000000
# 4 0.000000 0.000000 0.000000 0.064402 0.000000 0.000000
# 5 0.000000 0.000000 0.000000 0.000000 0.079931 0.000000
# 6 0.000000 0.000000 0.000000 0.000000 0.000000 0.042895
#
#
# Mechanical properties :
#
#
# Convention : Reuss Voigt Hill
#
# Bulk Modulus (GPa) = 42.33175 54.90334 48.61754
# Shear Modulus (GPa) = 16.91258 18.80142 17.85700
#
# Velocity S-wave (km/s) = 2.99207 3.15472 3.07447
# Velocity P-wave (km/s) = 5.86041 6.50631 6.19179
#
# Compressibility (1/GPa) = 0.02362293
#
# Stress axis : x y z
#
# Youngs Moduli (GPa) = 37.85708 54.03297 58.28556
#
# Poissons Ratio (x) = 0.22933 0.27160
# Poissons Ratio (y) = 0.16068 0.60174
# Poissons Ratio (z) = 0.17641 0.55784
#
# Static dielectric constant tensor:
#      x y z
#    x 3.386760 0.000000 0.000000 
#    y 0.000000 3.626300 0.000000 
#    z 0.000000 0.000000 3.560830 
# 
# 
# High freq. dielectric constant tensor:
#      x y z
#    x 1.713860 0.000000 0.000000 
#    y 0.000000 1.737340 0.000000 
#    z 0.000000 0.000000 1.724520 
# 
# From -- ./inp_files/11837.got.cif
#   From: 2010.03.12/outbox.cif.g09.slc.cpg/sg35_6_cif.got.tgz:11837.got - 2010.04.14 02:02:04.
