data_PCOD8173554
_publ_section_title
;
Structure prediction by ZEFSAII (Michael W. Deem and Ramdas Pophale) SiO2 
 PCOD8173554
Probable space group: C M M 2
;
_chemical_formula_sum "Si O2"
_cell_formula_units_Z 64
_cell_length_a 9.018550
_cell_length_b 29.802125
_cell_length_c 12.231797
_cell_angle_alpha 90.000000
_cell_angle_beta 90.000000
_cell_angle_gamma 90.000000
_cell_volume 3287.563986
_symmetry_space_group_name_H-M "C M M 2"
_symmetry_group_IT_number 35
_symmetry_cell_setting 'orthorhombic'
loop_
_space_group_symop_operation_xyz
x,y,z
-x,-y,z
-x,y,z
x,-y,z
1/2+x,1/2+y,z
1/2-x,1/2-y,z
1/2-x,1/2+y,z
1/2+x,1/2-y,z
loop_
_atom_site_type_symbol
_atom_site_label
_atom_site_fract_x
_atom_site_fract_y
_atom_site_fract_z
Si Si1 0.163947 0.553123 0.160290
Si Si2 0.669959 0.296317 0.141656
Si Si3 0.823631 0.450326 0.920957
Si Si4 0.826955 0.375230 0.513186
Si Si5 0.671306 0.447267 0.373724
Si Si6 0.174997 0.798571 0.379150
Si Si7 0.672742 0.871829 0.768101
Si Si8 0.325589 0.298171 0.905128
O O1 0.149902 0.500000 0.160988
O O2 0.276513 0.569256 0.253897
O O3 0.000000 0.573931 0.181992
O O4 0.226800 0.567464 0.041167
O O5 0.500000 0.283432 0.139498
O O6 0.750000 0.250000 0.144621
O O7 0.706690 0.320576 0.257594
O O8 0.710039 0.320505 0.026011
O O9 0.757546 0.500000 0.896530
O O10 0.765754 0.416238 0.828980
O O11 0.000000 0.453358 0.920724
O O12 0.764897 0.421434 0.464542
O O13 0.743539 0.332028 0.466772
O O14 0.795299 0.377573 0.641209
O O15 0.000000 0.371175 0.486391
O O16 0.500000 0.434437 0.385631
O O17 0.699539 0.500000 0.390637
O O18 0.250000 0.750000 0.392300
O O19 0.000000 0.793532 0.400729
O O20 0.500000 0.864606 0.793249
O O21 0.760908 0.829099 0.810854
O O22 0.500000 0.292592 0.886098
O O23 0.250000 0.250000 0.895154
#
# Coordination Sequence:
#
# PCOD8173554 Si02
#       8
#     8   8   8   8   8   8   8   8
#     4   8  14  28  53  83 111 138 172 214 263 324
#     4   8  16  31  53  82 110 137 170 212 265 324
#     4   8  15  31  56  83 109 138 174 219 269 319
#     4  11  24  39  55  78 108 145 191 233 269 317
#     4  10  21  37  57  81 111 145 179 221 274 326
#     4  10  20  37  60  84 113 145 179 223 274 326
#     4  10  22  38  55  78 107 141 185 229 267 313
#     4  10  20  36  58  82 110 141 174 216 267 322
#
# _framework density 19.467300999999999
#
# number of rings (size 3 to 8) (size 9 to 14) (size 15 to 20)
#    0.000    2.625    0.000    2.250    0.000    4.750 
#    0.000    4.375    0.000    1.125    0.000    0.000 
#    0.000    0.000    0.000    0.000    0.000    0.000 
#
# Total GULP energy -396551.036516 kJ/mol
# GULP energy per Si atom -12392.219891 kJ/mol
# Density = 1.942299 g / cm^3
# Si number density = 19.467301 Si / 1000 Ang^3
#
#
#
# Elastic Constant Matrix: (Units=GPa)
#
#
# Indices 1 2 3 4 5 6 
#
# 1 85.6577 45.2108 67.7530 0.0000 0.0000 0.0000
# 2 45.2108 92.1870 66.5085 0.0000 0.0000 0.0000
# 3 67.7530 66.5085 149.3765 0.0000 0.0000 0.0000
# 4 0.0000 0.0000 0.0000 30.8722 0.0000 0.0000
# 5 0.0000 0.0000 0.0000 0.0000 24.7450 0.0000
# 6 0.0000 0.0000 0.0000 0.0000 0.0000 27.1744
#
#
#
# Elastic Compliance Matrix: (Units=1/GPa)
#
#
# Indices 1 2 3 4 5 6 
#
# 1 0.019489 -0.004686 -0.006754 0.000000 0.000000 0.000000
# 2 -0.004686 0.017107 -0.005492 0.000000 0.000000 0.000000
# 3 -0.006754 -0.005492 0.012203 0.000000 0.000000 0.000000
# 4 0.000000 0.000000 0.000000 0.032392 0.000000 0.000000
# 5 0.000000 0.000000 0.000000 0.000000 0.040412 0.000000
# 6 0.000000 0.000000 0.000000 0.000000 0.000000 0.036799
#
#
# Mechanical properties :
#
#
# Convention : Reuss Voigt Hill
#
# Bulk Modulus (GPa) = 66.94402 76.24064 71.59233
# Shear Modulus (GPa) = 25.34933 26.40827 25.87880
#
# Velocity S-wave (km/s) = 3.61245 3.68713 3.64998
# Velocity P-wave (km/s) = 7.20155 7.57463 7.39044
#
# Compressibility (1/GPa) = 0.01493786
#
# Stress axis : x y z
#
# Youngs Moduli (GPa) = 51.30985 58.45414 81.94822
#
# Poissons Ratio (x) = 0.27390 0.55345
# Poissons Ratio (y) = 0.24042 0.45003
# Poissons Ratio (z) = 0.34653 0.32101
#
# Static dielectric constant tensor:
#      x y z
#    x 3.450660 0.000000 0.000000 
#    y 0.000000 3.432250 0.000000 
#    z 0.000000 0.000000 3.956880 
# 
# 
# High freq. dielectric constant tensor:
#      x y z
#    x 1.749980 0.000000 0.000000 
#    y 0.000000 1.742850 0.000000 
#    z 0.000000 0.000000 1.767670 
# 
# From -- ./inp_files/11854.got.cif
#   From: 2010.03.12/outbox.cif.g09.slc.cpg/sg35_6_cif.got.tgz:11854.got - 2010.04.14 02:02:04.
