data_PCOD8173015
_publ_section_title
;
Structure prediction by ZEFSAII (Michael W. Deem and Ramdas Pophale) SiO2 
 PCOD8173015
Probable space group: C M M 2
;
_chemical_formula_sum "Si O2"
_cell_formula_units_Z 64
_cell_length_a 28.300072
_cell_length_b 8.696251
_cell_length_c 15.408113
_cell_angle_alpha 90.000000
_cell_angle_beta 90.000000
_cell_angle_gamma 90.000000
_cell_volume 3792.006399
_symmetry_space_group_name_H-M "C M M 2"
_symmetry_group_IT_number 35
_symmetry_cell_setting 'orthorhombic'
loop_
_space_group_symop_operation_xyz
x,y,z
-x,-y,z
-x,y,z
x,-y,z
1/2+x,1/2+y,z
1/2-x,1/2-y,z
1/2-x,1/2+y,z
1/2+x,1/2-y,z
loop_
_atom_site_type_symbol
_atom_site_label
_atom_site_fract_x
_atom_site_fract_y
_atom_site_fract_z
Si Si1 0.700636 0.818440 0.662420
Si Si2 0.444973 0.178191 0.747380
Si Si3 0.200799 0.818659 0.849774
Si Si4 0.888991 0.320980 0.918490
Si Si5 0.555957 0.830376 0.244492
Si Si6 0.944736 0.823655 0.071415
Si Si7 0.389870 0.679020 0.591716
Si Si8 0.054588 0.319339 0.436933
O O1 0.750000 0.750000 0.628215
O O2 0.687597 0.752792 0.756815
O O3 0.659210 0.771842 0.596909
O O4 0.705092 0.000000 0.669126
O O5 0.500000 0.213074 0.756482
O O6 0.421210 0.228345 0.837373
O O7 0.424611 0.279194 0.670047
O O8 0.435034 0.000000 0.726137
O O9 0.250000 0.750000 0.884696
O O10 0.159720 0.774326 0.917017
O O11 0.205623 0.000000 0.840400
O O12 0.876807 0.500000 0.915848
O O13 0.916535 0.283900 0.006141
O O14 0.500000 0.840766 0.248544
O O15 0.572457 0.713459 0.169473
O O16 0.572780 0.776378 0.339943
O O17 0.576430 0.000000 0.223397
O O18 0.000000 0.786137 0.061232
O O19 0.933536 0.000000 0.050892
O O20 0.378289 0.500000 0.595376
O O21 0.414084 0.719900 0.501351
O O22 0.061237 0.500000 0.455295
O O23 0.000000 0.273088 0.450152
#
# Coordination Sequence:
#
# PCOD8173015 Si02
#       8
#     8   8   8   8   8   8   8   8
#     4  11  21  36  55  74  97 128 166 210 255 299
#     4  10  21  35  49  66  95 136 176 210 245 290
#     4  11  21  35  54  76 100 128 164 209 256 301
#     4  11  21  34  52  73  98 135 175 210 249 297
#     4   8  15  30  51  72  95 128 170 212 253 298
#     4  10  20  32  48  73 105 137 169 210 256 301
#     4  12  23  33  48  73 102 135 170 207 251 301
#     4   9  18  33  52  73 100 135 173 212 253 299
#
# _framework density 16.877609
#
# number of rings (size 3 to 8) (size 9 to 14) (size 15 to 20)
#    0.000    1.750    1.250    6.375    0.000    4.250 
#    0.000    1.250    0.000    0.000    0.000    0.875 
#    0.000    6.000    0.000    0.000    0.000    0.000 
#
# Total GULP energy -396872.629104 kJ/mol
# GULP energy per Si atom -12402.269660 kJ/mol
# Density = 1.683919 g / cm^3
# Si number density = 16.877609 Si / 1000 Ang^3
#
#
#
# Elastic Constant Matrix: (Units=GPa)
#
#
# Indices 1 2 3 4 5 6 
#
# 1 88.6109 40.7192 40.3721 0.0000 0.0000 0.0000
# 2 40.7192 103.0409 34.7630 0.0000 0.0000 0.0000
# 3 40.3721 34.7630 97.8885 0.0000 0.0000 0.0000
# 4 0.0000 0.0000 0.0000 24.2095 0.0000 0.0000
# 5 0.0000 0.0000 0.0000 0.0000 8.6981 0.0000
# 6 0.0000 0.0000 0.0000 0.0000 0.0000 26.9332
#
#
#
# Elastic Compliance Matrix: (Units=1/GPa)
#
#
# Indices 1 2 3 4 5 6 
#
# 1 0.015555 -0.004525 -0.004809 0.000000 0.000000 0.000000
# 2 -0.004525 0.012342 -0.002517 0.000000 0.000000 0.000000
# 3 -0.004809 -0.002517 0.013093 0.000000 0.000000 0.000000
# 4 0.000000 0.000000 0.000000 0.041306 0.000000 0.000000
# 5 0.000000 0.000000 0.000000 0.000000 0.114968 0.000000
# 6 0.000000 0.000000 0.000000 0.000000 0.000000 0.037129
#
#
# Mechanical properties :
#
#
# Convention : Reuss Voigt Hill
#
# Bulk Modulus (GPa) = 57.83809 57.91654 57.87731
# Shear Modulus (GPa) = 18.94965 23.54722 21.24844
#
# Velocity S-wave (km/s) = 3.35441 3.73926 3.55205
# Velocity P-wave (km/s) = 7.02469 7.28236 7.15469
#
# Compressibility (1/GPa) = 0.01728964
#
# Stress axis : x y z
#
# Youngs Moduli (GPa) = 64.28619 81.02351 76.37828
#
# Poissons Ratio (x) = 0.36662 0.36727
# Poissons Ratio (y) = 0.29088 0.19223
# Poissons Ratio (z) = 0.30913 0.20392
#
# Static dielectric constant tensor:
#      x y z
#    x 3.106190 0.000000 0.000000 
#    y 0.000000 3.205740 0.000000 
#    z 0.000000 0.000000 3.181750 
# 
# 
# High freq. dielectric constant tensor:
#      x y z
#    x 1.634020 0.000000 0.000000 
#    y 0.000000 1.660050 0.000000 
#    z 0.000000 0.000000 1.637050 
# 
# From -- ./inp_files/17737.got.cif
#   From: 2010.03.12/outbox.cif.g09.slc.cpg/sg35_9_cif.got.tgz:17737.got - 2010.04.14 02:02:04.
