data_PCOD8173797
_publ_section_title
;
Structure prediction by ZEFSAII (Michael W. Deem and Ramdas Pophale) SiO2 
 PCOD8173797
Probable space group: C M M 2
;
_chemical_formula_sum "Si O2"
_cell_formula_units_Z 64
_cell_length_a 14.462866
_cell_length_b 24.360572
_cell_length_c 9.521089
_cell_angle_alpha 90.000000
_cell_angle_beta 90.000000
_cell_angle_gamma 90.000000
_cell_volume 3354.505195
_symmetry_space_group_name_H-M "C M M 2"
_symmetry_group_IT_number 35
_symmetry_cell_setting 'orthorhombic'
loop_
_space_group_symop_operation_xyz
x,y,z
-x,-y,z
-x,y,z
x,-y,z
1/2+x,1/2+y,z
1/2-x,1/2-y,z
1/2-x,1/2+y,z
1/2+x,1/2-y,z
loop_
_atom_site_type_symbol
_atom_site_label
_atom_site_fract_x
_atom_site_fract_y
_atom_site_fract_z
Si Si1 0.847798 0.733277 0.194530
Si Si2 0.892023 0.563489 0.028808
Si Si3 0.102313 0.166487 0.351969
Si Si4 0.648499 0.130494 0.764872
Si Si5 0.296511 0.881752 0.276192
Si Si6 0.305828 0.303991 0.639281
Si Si7 0.398314 0.937645 0.514570
Si Si8 0.101189 0.256427 0.882324
O O1 0.750000 0.750000 0.258223
O O2 0.916244 0.776312 0.268346
O O3 0.862418 0.670586 0.242124
O O4 0.842885 0.736860 0.026001
O O5 0.888675 0.500000 0.988063
O O6 0.828246 0.571925 0.166304
O O7 0.000000 0.581996 0.048360
O O8 0.839448 0.598742 0.911034
O O9 0.185372 0.131317 0.277061
O O10 0.126363 0.178047 0.514685
O O11 0.000000 0.137132 0.347413
O O12 0.743621 0.144229 0.684173
O O13 0.589518 0.090642 0.665812
O O14 0.596395 0.187376 0.794559
O O15 0.322799 0.903601 0.428763
O O16 0.250000 0.250000 0.587789
O O17 0.357560 0.290545 0.784382
O O18 0.500000 0.936952 0.441986
O O19 0.363465 0.000000 0.532903
O O20 0.000000 0.237943 0.927965
#
# Coordination Sequence:
#
# PCOD8173797 Si02
#       8
#     8   8   8   8   8   8   8   8
#     4  10  21  36  55  82 117 152 187 233 282 343
#     4  11  23  39  61  90 121 152 191 237 290 354
#     4  11  23  39  59  86 116 154 201 243 285 338
#     4  11  21  37  58  84 119 155 186 231 290 346
#     4  11  22  39  60  85 120 156 191 237 293 344
#     4  10  21  37  55  83 119 158 192 235 280 344
#     4  11  23  38  58  86 116 149 194 240 288 350
#     4  11  21  33  54  86 119 155 193 230 280 345
#
# _framework density 19.07882
#
# number of rings (size 3 to 8) (size 9 to 14) (size 15 to 20)
#    0.000    1.250    2.500    5.250    3.500    3.500 
#    0.000    0.000    0.000    1.500    0.000    0.000 
#    0.000    0.000    0.000    0.000    0.000    0.000 
#
# Total GULP energy -396558.130283 kJ/mol
# GULP energy per Si atom -12392.441571 kJ/mol
# Density = 1.903540 g / cm^3
# Si number density = 19.078820 Si / 1000 Ang^3
#
#
#
# Elastic Constant Matrix: (Units=GPa)
#
#
# Indices 1 2 3 4 5 6 
#
# 1 104.4568 33.2498 30.2266 0.0000 0.0000 0.0000
# 2 33.2498 73.2825 30.2631 0.0000 0.0000 0.0000
# 3 30.2266 30.2631 102.5386 0.0000 0.0000 0.0000
# 4 0.0000 0.0000 0.0000 29.4058 0.0000 0.0000
# 5 0.0000 0.0000 0.0000 0.0000 -42.6656 0.0000
# 6 0.0000 0.0000 0.0000 0.0000 0.0000 19.7445
#
#
#
# Elastic Compliance Matrix: (Units=1/GPa)
#
#
# Indices 1 2 3 4 5 6 
#
# 1 0.011581 -0.004378 -0.002122 0.000000 0.000000 0.000000
# 2 -0.004378 0.017195 -0.003784 0.000000 0.000000 0.000000
# 3 -0.002122 -0.003784 0.011495 0.000000 0.000000 0.000000
# 4 0.000000 0.000000 0.000000 0.034007 0.000000 0.000000
# 5 0.000000 0.000000 0.000000 0.000000 -0.023438 0.000000
# 6 0.000000 0.000000 0.000000 0.000000 0.000000 0.050647
#
#
# Mechanical properties :
#
#
# Convention : Reuss Voigt Hill
#
# Bulk Modulus (GPa) = 50.75559 51.97300 51.36430
# Shear Modulus (GPa) = 38.87340 13.73284 26.30312
#
# Velocity S-wave (km/s) = 4.51878 2.68581 3.71705
# Velocity P-wave (km/s) = 7.34076 6.07605 6.73814
#
# Compressibility (1/GPa) = 0.01970226
#
# Stress axis : x y z
#
# Youngs Moduli (GPa) = 86.34867 58.15599 86.99638
#
# Poissons Ratio (x) = 0.25463 0.18458
# Poissons Ratio (y) = 0.37807 0.32922
# Poissons Ratio (z) = 0.18320 0.22008
#
# Static dielectric constant tensor:
#      x y z
#    x 3.450330 0.000000 0.000000 
#    y 0.000000 3.404190 0.000000 
#    z 0.000000 0.000000 3.499290 
# 
# 
# High freq. dielectric constant tensor:
#      x y z
#    x 1.729070 0.000000 0.000000 
#    y 0.000000 1.720860 0.000000 
#    z 0.000000 0.000000 1.757500 
# 
# From -- ./inp_files/7835.got.cif
#   From: 2010.03.12/outbox.cif.g09.slc.cpg/sg35_4_cif.got.tgz:7835.got - 2010.04.14 02:02:04.
