data_PCOD8173051
_publ_section_title
;
Structure prediction by ZEFSAII (Michael W. Deem and Ramdas Pophale) SiO2 
 PCOD8173051
Probable space group: C M M 2
;
_chemical_formula_sum "Si O2"
_cell_formula_units_Z 56
_cell_length_a 9.184438
_cell_length_b 19.543619
_cell_length_c 17.886164
_cell_angle_alpha 90.000000
_cell_angle_beta 90.000000
_cell_angle_gamma 90.000000
_cell_volume 3210.515588
_symmetry_space_group_name_H-M "C M M 2"
_symmetry_group_IT_number 35
_symmetry_cell_setting 'orthorhombic'
loop_
_space_group_symop_operation_xyz
x,y,z
-x,-y,z
-x,y,z
x,-y,z
1/2+x,1/2+y,z
1/2-x,1/2-y,z
1/2-x,1/2+y,z
1/2+x,1/2-y,z
loop_
_atom_site_type_symbol
_atom_site_label
_atom_site_fract_x
_atom_site_fract_y
_atom_site_fract_z
Si Si1 0.828107 0.820107 0.025460
Si Si2 0.336605 0.581366 0.281890
Si Si3 0.164255 0.581480 0.422872
Si Si4 0.163784 0.418738 0.587083
Si Si5 0.671352 0.422592 0.729914
Si Si6 0.830910 0.817828 0.853379
Si Si7 0.169205 0.580702 0.134813
O O1 0.750000 0.750000 0.050350
O O2 0.758202 0.882957 0.069391
O O3 0.000000 0.814628 0.041897
O O4 0.795318 0.835983 0.938901
O O5 0.500000 0.610404 0.271833
O O6 0.339734 0.500000 0.285292
O O7 0.269580 0.611559 0.358777
O O8 0.236005 0.605645 0.213457
O O9 0.165945 0.500000 0.419727
O O10 0.218108 0.606659 0.505074
O O11 0.000000 0.607429 0.408090
O O12 0.170535 0.500000 0.587766
O O13 0.263026 0.389750 0.653993
O O14 0.000000 0.392942 0.600707
O O15 0.500000 0.420343 0.720691
O O16 0.727078 0.500000 0.742326
O O17 0.724123 0.379978 0.801742
O O18 0.750000 0.750000 0.826902
O O19 0.000000 0.803971 0.841832
O O20 0.189814 0.500000 0.123712
O O21 0.000000 0.601556 0.132413
#
# Coordination Sequence:
#
# PCOD8173051 Si02
#       7
#     8   8   8   8   8   8   8
#     4  10  20  35  54  73  95 124 160 200 241 288
#     4   9  16  25  39  62  91 122 157 194 232 276
#     4   8  13  22  36  55  84 121 155 187 227 274
#     4   8  14  24  38  59  88 121 155 189 227 272
#     4   9  17  29  45  67  95 123 152 189 233 277
#     4   9  19  34  51  70  92 121 155 192 233 278
#     4  10  20  33  49  71 100 130 160 197 241 286
#
# _framework density 17.442679999999999
#
# number of rings (size 3 to 8) (size 9 to 14) (size 15 to 20)
#    0.000    3.000    0.000    2.143    0.000    4.857 
#    0.000    4.286    0.000    1.714    0.000    1.000 
#    0.000    4.571    0.000    0.000    0.000    0.000 
#
# Total GULP energy -347084.279803 kJ/mol
# GULP energy per Si atom -12395.867136 kJ/mol
# Density = 1.740298 g / cm^3
# Si number density = 17.442680 Si / 1000 Ang^3
#
#
#
# Elastic Constant Matrix: (Units=GPa)
#
#
# Indices 1 2 3 4 5 6 
#
# 1 92.3683 35.0434 64.3217 0.0000 0.0000 0.0000
# 2 35.0434 45.0232 50.3324 0.0000 0.0000 0.0000
# 3 64.3217 50.3324 135.0036 0.0000 0.0000 0.0000
# 4 0.0000 0.0000 0.0000 3.1834 0.0000 0.0000
# 5 0.0000 0.0000 0.0000 0.0000 35.3720 0.0000
# 6 0.0000 0.0000 0.0000 0.0000 0.0000 20.5473
#
#
#
# Elastic Compliance Matrix: (Units=1/GPa)
#
#
# Indices 1 2 3 4 5 6 
#
# 1 0.017525 -0.007383 -0.005597 0.000000 0.000000 0.000000
# 2 -0.007383 0.041194 -0.011840 0.000000 0.000000 0.000000
# 3 -0.005597 -0.011840 0.014488 0.000000 0.000000 0.000000
# 4 0.000000 0.000000 0.000000 0.314129 0.000000 0.000000
# 5 0.000000 0.000000 0.000000 0.000000 0.028271 0.000000
# 6 0.000000 0.000000 0.000000 0.000000 0.000000 0.048668
#
#
# Mechanical properties :
#
#
# Convention : Reuss Voigt Hill
#
# Bulk Modulus (GPa) = 42.43428 63.53225 52.98327
# Shear Modulus (GPa) = 9.58274 20.00038 14.79156
#
# Velocity S-wave (km/s) = 2.34644 3.38987 2.91522
# Velocity P-wave (km/s) = 5.63220 7.19890 6.46320
#
# Compressibility (1/GPa) = 0.02356585
#
# Stress axis : x y z
#
# Youngs Moduli (GPa) = 57.06172 24.27530 69.02174
#
# Poissons Ratio (x) = 0.17923 0.38631
# Poissons Ratio (y) = 0.42131 0.81724
# Poissons Ratio (z) = 0.31937 0.28743
#
# Static dielectric constant tensor:
#      x y z
#    x 3.360250 0.000000 0.000000 
#    y 0.000000 2.836860 0.000000 
#    z 0.000000 0.000000 3.596370 
# 
# 
# High freq. dielectric constant tensor:
#      x y z
#    x 1.678730 0.000000 0.000000 
#    y 0.000000 1.616750 0.000000 
#    z 0.000000 0.000000 1.688460 
# 
# From -- ./inp_files/18185.got.cif
#   From: 2010.03.12/outbox.cif.g09.slc.cpg/sg35_10_cif.got.tgz:18185.got - 2010.04.14 02:02:04.
