data_PCOD8173034
_publ_section_title
;
Structure prediction by ZEFSAII (Michael W. Deem and Ramdas Pophale) SiO2 
 PCOD8173034
Probable space group: C M M 2
;
_chemical_formula_sum "Si O2"
_cell_formula_units_Z 48
_cell_length_a 18.457716
_cell_length_b 7.502897
_cell_length_c 17.294515
_cell_angle_alpha 90.000000
_cell_angle_beta 90.000000
_cell_angle_gamma 90.000000
_cell_volume 2395.054119
_symmetry_space_group_name_H-M "C M M 2"
_symmetry_group_IT_number 35
_symmetry_cell_setting 'orthorhombic'
loop_
_space_group_symop_operation_xyz
x,y,z
-x,-y,z
-x,y,z
x,-y,z
1/2+x,1/2+y,z
1/2-x,1/2-y,z
1/2-x,1/2+y,z
1/2+x,1/2-y,z
loop_
_atom_site_type_symbol
_atom_site_label
_atom_site_fract_x
_atom_site_fract_y
_atom_site_fract_z
Si Si1 0.085396 0.000000 0.905910
Si Si2 0.081699 0.287034 0.322536
Si Si3 0.665834 0.792218 0.175163
Si Si4 0.168014 0.709706 0.639063
Si Si5 0.915032 0.705233 0.024040
Si Si6 0.913825 0.000000 0.732350
Si Si7 0.169602 0.292254 0.465577
O O1 0.110677 0.822061 0.950963
O O2 0.117551 0.000000 0.819721
O O3 0.000000 0.000000 0.899555
O O4 0.084960 0.500000 0.323201
O O5 0.128132 0.208134 0.251071
O O6 0.114481 0.209863 0.402753
O O7 0.000000 0.217184 0.314645
O O8 0.750000 0.750000 0.175003
O O9 0.651248 0.000000 0.176837
O O10 0.628085 0.717501 0.097956
O O11 0.150729 0.500000 0.647269
O O12 0.250000 0.750000 0.664958
O O13 0.156521 0.784211 0.551590
O O14 0.113729 0.819496 0.692524
O O15 0.895616 0.500000 0.005854
O O16 0.000000 0.728602 0.041399
O O17 0.000000 0.000000 0.729380
O O18 0.157284 0.500000 0.470883
O O19 0.250000 0.250000 0.436082
#
# Coordination Sequence:
#
# PCOD8173034 Si02
#       7
#     4   8   8   8   8   4   8
#     4   9  20  38  60  85 115 148 181 231 293 348
#     4   9  17  31  50  75 108 144 187 231 274 328
#     4  10  20  32  52  77 106 145 181 229 279 329
#     4  10  20  38  64  88 120 163 205 244 300 368
#     4   9  18  35  59  82 106 144 191 229 276 342
#     4  11  24  40  62  95 126 154 197 253 308 362
#     4   9  18  31  54  81 106 147 191 233 282 339
#
# _framework density 20.0413
#
# number of rings (size 3 to 8) (size 9 to 14) (size 15 to 20)
#    0.000    2.500    0.833    1.000    2.333    3.667 
#    0.000    4.167    0.000    1.000    0.000    0.000 
#    0.000    0.000    0.000    0.000    0.000    0.000 
#
# Total GULP energy -297546.456541 kJ/mol
# GULP energy per Si atom -12397.769023 kJ/mol
# Density = 1.999569 g / cm^3
# Si number density = 20.041300 Si / 1000 Ang^3
#
#
#
# Elastic Constant Matrix: (Units=GPa)
#
#
# Indices 1 2 3 4 5 6 
#
# 1 122.3487 25.6122 82.6604 0.0000 0.0000 0.0000
# 2 25.6122 75.1219 47.1546 0.0000 0.0000 0.0000
# 3 82.6604 47.1546 171.4978 0.0000 0.0000 0.0000
# 4 0.0000 0.0000 0.0000 2.6206 0.0000 0.0000
# 5 0.0000 0.0000 0.0000 0.0000 29.8002 0.0000
# 6 0.0000 0.0000 0.0000 0.0000 0.0000 23.8873
#
#
#
# Elastic Compliance Matrix: (Units=1/GPa)
#
#
# Indices 1 2 3 4 5 6 
#
# 1 0.012140 -0.000563 -0.005696 0.000000 0.000000 0.000000
# 2 -0.000563 0.016115 -0.004159 0.000000 0.000000 0.000000
# 3 -0.005696 -0.004159 0.009720 0.000000 0.000000 0.000000
# 4 0.000000 0.000000 0.000000 0.381592 0.000000 0.000000
# 5 0.000000 0.000000 0.000000 0.000000 0.033557 0.000000
# 6 0.000000 0.000000 0.000000 0.000000 0.000000 0.041863
#
#
# Mechanical properties :
#
#
# Convention : Reuss Voigt Hill
#
# Bulk Modulus (GPa) = 58.35465 75.53587 66.94526
# Shear Modulus (GPa) = 9.58705 25.49770 17.54238
#
# Velocity S-wave (km/s) = 2.18953 3.57074 2.96178
# Velocity P-wave (km/s) = 5.96426 7.40082 6.72104
#
# Compressibility (1/GPa) = 0.01713659
#
# Stress axis : x y z
#
# Youngs Moduli (GPa) = 82.37330 62.05563 102.87814
#
# Poissons Ratio (x) = 0.03496 0.58604
# Poissons Ratio (y) = 0.04640 0.42790
# Poissons Ratio (z) = 0.46923 0.25811
#
# Static dielectric constant tensor:
#      x y z
#    x 3.485520 0.000000 0.000000 
#    y 0.000000 3.608320 0.000000 
#    z 0.000000 0.000000 4.022060 
# 
# 
# High freq. dielectric constant tensor:
#      x y z
#    x 1.768700 0.000000 0.000000 
#    y 0.000000 1.775710 0.000000 
#    z 0.000000 0.000000 1.785640 
# 
# From -- ./inp_files/15225.got.cif
#   From: 2010.03.12/outbox.cif.g09.slc.cpg/sg35_8_cif.got.tgz:15225.got - 2010.04.14 02:02:04.
