data_PCOD8173284
_publ_section_title
;
Structure prediction by ZEFSAII (Michael W. Deem and Ramdas Pophale) SiO2 
 PCOD8173284
Probable space group: C M M 2
;
_chemical_formula_sum "Si O2"
_cell_formula_units_Z 64
_cell_length_a 8.881539
_cell_length_b 28.723903
_cell_length_c 12.860735
_cell_angle_alpha 90.000000
_cell_angle_beta 90.000000
_cell_angle_gamma 90.000000
_cell_volume 3280.933804
_symmetry_space_group_name_H-M "C M M 2"
_symmetry_group_IT_number 35
_symmetry_cell_setting 'orthorhombic'
loop_
_space_group_symop_operation_xyz
x,y,z
-x,-y,z
-x,y,z
x,-y,z
1/2+x,1/2+y,z
1/2-x,1/2-y,z
1/2-x,1/2+y,z
1/2+x,1/2-y,z
loop_
_atom_site_type_symbol
_atom_site_label
_atom_site_fract_x
_atom_site_fract_y
_atom_site_fract_z
Si Si1 0.164513 0.445163 0.514630
Si Si2 0.823517 0.145105 0.815572
Si Si3 0.174201 0.701087 0.399602
Si Si4 0.174935 0.948389 0.719888
Si Si5 0.677015 0.199675 0.632986
Si Si6 0.678565 0.145089 0.204278
Si Si7 0.179180 0.699118 0.003170
Si Si8 0.179788 0.551147 0.286863
O O1 0.145821 0.500000 0.522884
O O2 0.261251 0.427731 0.611909
O O3 0.239012 0.434056 0.402082
O O4 0.000000 0.420928 0.523103
O O5 0.792286 0.089209 0.811150
O O6 0.766060 0.165287 0.707201
O O7 0.728138 0.167270 0.907617
O O8 0.000000 0.156048 0.830717
O O9 0.250000 0.750000 0.382868
O O10 0.203290 0.681065 0.515274
O O11 0.239369 0.666537 0.312192
O O12 0.000000 0.709513 0.380350
O O13 0.000000 0.953079 0.700749
O O14 0.240758 0.000000 0.749338
O O15 0.500000 0.202209 0.660996
O O16 0.750000 0.250000 0.646832
O O17 0.500000 0.147201 0.198932
O O18 0.731557 0.090684 0.204177
O O19 0.743264 0.173520 0.106296
O O20 0.250000 0.750000 0.993896
O O21 0.000000 0.704108 0.003663
O O22 0.242028 0.500000 0.253165
O O23 0.000000 0.548958 0.294754
#
# Coordination Sequence:
#
# PCOD8173284 Si02
#       8
#     8   8   8   8   8   8   8   8
#     4   8  14  25  46  76 107 141 179 218 257 304
#     4  11  23  38  57  79 107 142 184 227 272 326
#     4   9  18  32  51  76 107 139 170 211 263 320
#     4   9  19  35  53  75 107 146 183 220 267 321
#     4  10  20  34  54  80 111 143 175 218 271 330
#     4   9  18  32  52  78 107 140 179 218 264 320
#     4  11  23  40  61  82 106 138 181 232 280 328
#     4   8  14  26  47  77 112 145 176 213 261 316
#
# _framework density 19.506643
#
# number of rings (size 3 to 8) (size 9 to 14) (size 15 to 20)
#    0.000    2.625    0.000    2.625    1.750    1.500 
#    0.000    1.250    0.000    2.250    0.000    0.000 
#    0.000    0.000    0.000    0.000    0.000    0.000 
#
# Total GULP energy -396536.438110 kJ/mol
# GULP energy per Si atom -12391.763691 kJ/mol
# Density = 1.946224 g / cm^3
# Si number density = 19.506643 Si / 1000 Ang^3
#
#
#
# Elastic Constant Matrix: (Units=GPa)
#
#
# Indices 1 2 3 4 5 6 
#
# 1 44.3476 30.4779 26.4384 0.0000 0.0000 0.0000
# 2 30.4779 111.4578 71.1381 0.0000 0.0000 0.0000
# 3 26.4384 71.1381 106.9657 0.0000 0.0000 0.0000
# 4 0.0000 0.0000 0.0000 30.2929 0.0000 0.0000
# 5 0.0000 0.0000 0.0000 0.0000 16.4136 0.0000
# 6 0.0000 0.0000 0.0000 0.0000 0.0000 14.7284
#
#
#
# Elastic Compliance Matrix: (Units=1/GPa)
#
#
# Indices 1 2 3 4 5 6 
#
# 1 0.028392 -0.005707 -0.003222 0.000000 0.000000 0.000000
# 2 -0.005707 0.016736 -0.009720 0.000000 0.000000 0.000000
# 3 -0.003222 -0.009720 0.016609 0.000000 0.000000 0.000000
# 4 0.000000 0.000000 0.000000 0.033011 0.000000 0.000000
# 5 0.000000 0.000000 0.000000 0.000000 0.060925 0.000000
# 6 0.000000 0.000000 0.000000 0.000000 0.000000 0.067896
#
#
# Mechanical properties :
#
#
# Convention : Reuss Voigt Hill
#
# Bulk Modulus (GPa) = 40.91710 57.65330 49.28520
# Shear Modulus (GPa) = 18.58626 21.26809 19.92718
#
# Velocity S-wave (km/s) = 3.09012 3.30555 3.19965
# Velocity P-wave (km/s) = 5.80976 6.64746 6.24268
#
# Compressibility (1/GPa) = 0.02443966
#
# Stress axis : x y z
#
# Youngs Moduli (GPa) = 35.22075 59.74970 60.20662
#
# Poissons Ratio (x) = 0.34102 0.19398
# Poissons Ratio (y) = 0.20102 0.58521
# Poissons Ratio (z) = 0.11348 0.58077
#
# Static dielectric constant tensor:
#      x y z
#    x 3.390950 0.000000 0.000000 
#    y 0.000000 4.161280 0.000000 
#    z 0.000000 0.000000 3.646070 
# 
# 
# High freq. dielectric constant tensor:
#      x y z
#    x 1.728990 0.000000 0.000000 
#    y 0.000000 1.772680 0.000000 
#    z 0.000000 0.000000 1.746190 
# 
# From -- ./inp_files/11912.got.cif
#   From: 2010.03.12/outbox.cif.g09.slc.cpg/sg35_6_cif.got.tgz:11912.got - 2010.04.14 02:02:04.
