data_PCOD8173773
_publ_section_title
;
Structure prediction by ZEFSAII (Michael W. Deem and Ramdas Pophale) SiO2 
 PCOD8173773
Probable space group: C M M 2
;
_chemical_formula_sum "Si O2"
_cell_formula_units_Z 64
_cell_length_a 8.946824
_cell_length_b 18.615552
_cell_length_c 20.369847
_cell_angle_alpha 90.000000
_cell_angle_beta 90.000000
_cell_angle_gamma 90.000000
_cell_volume 3392.599391
_symmetry_space_group_name_H-M "C M M 2"
_symmetry_group_IT_number 35
_symmetry_cell_setting 'orthorhombic'
loop_
_space_group_symop_operation_xyz
x,y,z
-x,-y,z
-x,y,z
x,-y,z
1/2+x,1/2+y,z
1/2-x,1/2-y,z
1/2-x,1/2+y,z
1/2+x,1/2-y,z
loop_
_atom_site_type_symbol
_atom_site_label
_atom_site_fract_x
_atom_site_fract_y
_atom_site_fract_z
Si Si1 0.322986 0.173003 0.001350
Si Si2 0.173542 0.083366 0.889438
Si Si3 0.676459 0.675956 0.620753
Si Si4 0.323044 0.079332 0.121044
Si Si5 0.326167 0.322887 0.767909
Si Si6 0.323198 0.672585 0.380030
Si Si7 0.322431 0.419930 0.502645
Si Si8 0.327160 0.083891 0.268825
O O1 0.500000 0.181952 0.001876
O O2 0.250000 0.250000 0.992775
O O3 0.262101 0.136904 0.068624
O O4 0.277248 0.122624 0.941498
O O5 0.213464 0.112698 0.817068
O O6 0.000000 0.097297 0.906347
O O7 0.213778 0.000000 0.890142
O O8 0.500000 0.685659 0.616017
O O9 0.750000 0.750000 0.597847
O O10 0.728207 0.655493 0.694652
O O11 0.732173 0.614064 0.571421
O O12 0.500000 0.074191 0.116148
O O13 0.277966 0.102879 0.194426
O O14 0.256377 0.000000 0.105225
O O15 0.500000 0.306321 0.766997
O O16 0.250000 0.250000 0.792943
O O17 0.500000 0.681650 0.381640
O O18 0.250000 0.750000 0.381753
O O19 0.262839 0.627634 0.442271
O O20 0.278006 0.630980 0.314462
O O21 0.500000 0.423520 0.500186
O O22 0.254465 0.500000 0.497160
O O23 0.500000 0.104102 0.280784
O O24 0.300491 0.000000 0.283077
#
# Coordination Sequence:
#
# PCOD8173773 Si02
#       8
#     8   8   8   8   8   8   8   8
#     4  11  22  36  55  78 105 137 174 213 255 305
#     4  10  21  36  53  76 106 136 170 215 262 307
#     4   9  17  31  52  75 100 132 169 207 249 300
#     4   8  16  33  56  79 103 133 169 209 253 303
#     4   9  18  32  51  75 102 134 169 207 252 301
#     4  11  22  35  52  75 105 138 174 216 259 305
#     4   9  18  32  51  75 101 130 167 212 258 304
#     4   9  18  35  58  81 106 136 169 207 254 307
#
# _framework density 18.864591999999998
#
# number of rings (size 3 to 8) (size 9 to 14) (size 15 to 20)
#    0.000    2.500    0.000    3.000    0.000    4.000 
#    0.000    5.625    0.000    3.375    0.000    3.500 
#    0.000    0.000    0.000    0.000    0.000    0.000 
#
# Total GULP energy -396795.723485 kJ/mol
# GULP energy per Si atom -12399.866359 kJ/mol
# Density = 1.882165 g / cm^3
# Si number density = 18.864592 Si / 1000 Ang^3
#
#
#
# Elastic Constant Matrix: (Units=GPa)
#
#
# Indices 1 2 3 4 5 6 
#
# 1 42.0078 39.4884 35.1798 0.0000 0.0000 0.0000
# 2 39.4884 145.9260 86.1001 0.0000 0.0000 0.0000
# 3 35.1798 86.1001 134.8178 0.0000 0.0000 0.0000
# 4 0.0000 0.0000 0.0000 37.7010 0.0000 0.0000
# 5 0.0000 0.0000 0.0000 0.0000 23.1192 0.0000
# 6 0.0000 0.0000 0.0000 0.0000 0.0000 17.5489
#
#
#
# Elastic Compliance Matrix: (Units=1/GPa)
#
#
# Indices 1 2 3 4 5 6 
#
# 1 0.033736 -0.006314 -0.004771 0.000000 0.000000 0.000000
# 2 -0.006314 0.012178 -0.006130 0.000000 0.000000 0.000000
# 3 -0.004771 -0.006130 0.012577 0.000000 0.000000 0.000000
# 4 0.000000 0.000000 0.000000 0.026524 0.000000 0.000000
# 5 0.000000 0.000000 0.000000 0.000000 0.043254 0.000000
# 6 0.000000 0.000000 0.000000 0.000000 0.000000 0.056984
#
#
# Mechanical properties :
#
#
# Convention : Reuss Voigt Hill
#
# Bulk Modulus (GPa) = 41.55988 71.58758 56.57373
# Shear Modulus (GPa) = 21.95837 26.47269 24.21553
#
# Velocity S-wave (km/s) = 3.41544 3.75013 3.58669
# Velocity P-wave (km/s) = 6.13450 7.53537 6.87073
#
# Compressibility (1/GPa) = 0.02406166
#
# Stress axis : x y z
#
# Youngs Moduli (GPa) = 29.64204 82.11355 79.51008
#
# Poissons Ratio (x) = 0.51850 0.37931
# Poissons Ratio (y) = 0.18717 0.48738
# Poissons Ratio (z) = 0.14141 0.50334
#
# Static dielectric constant tensor:
#      x y z
#    x 3.172910 0.000000 0.000000 
#    y 0.000000 3.674250 0.000000 
#    z 0.000000 0.000000 3.772040 
# 
# 
# High freq. dielectric constant tensor:
#      x y z
#    x 1.704930 0.000000 0.000000 
#    y 0.000000 1.736160 0.000000 
#    z 0.000000 0.000000 1.748090 
# 
# From -- ./inp_files/18338.got.cif
#   From: 2010.03.12/outbox.cif.g09.slc.cpg/sg35_10_cif.got.tgz:18338.got - 2010.04.14 02:02:04.
