data_PCOD8173340
_publ_section_title
;
Structure prediction by ZEFSAII (Michael W. Deem and Ramdas Pophale) SiO2 
 PCOD8173340
Probable space group: C M M 2
;
_chemical_formula_sum "Si O2"
_cell_formula_units_Z 44
_cell_length_a 13.732711
_cell_length_b 18.126705
_cell_length_c 9.359929
_cell_angle_alpha 90.000000
_cell_angle_beta 90.000000
_cell_angle_gamma 90.000000
_cell_volume 2329.955905
_symmetry_space_group_name_H-M "C M M 2"
_symmetry_group_IT_number 35
_symmetry_cell_setting 'orthorhombic'
loop_
_space_group_symop_operation_xyz
x,y,z
-x,-y,z
-x,y,z
x,-y,z
1/2+x,1/2+y,z
1/2-x,1/2-y,z
1/2-x,1/2+y,z
1/2+x,1/2-y,z
loop_
_atom_site_type_symbol
_atom_site_label
_atom_site_fract_x
_atom_site_fract_y
_atom_site_fract_z
Si Si1 0.387983 0.323398 0.070020
Si Si2 0.270073 0.581486 0.878474
Si Si3 0.889111 0.242084 0.521217
Si Si4 0.750000 0.250000 0.290790
Si Si5 0.610292 0.199832 0.830324
Si Si6 0.889888 0.080984 0.593866
O O1 0.500000 0.331232 0.124769
O O2 0.313133 0.306811 0.198255
O O3 0.350613 0.398235 0.997703
O O4 0.379360 0.261251 0.950337
O O5 0.232683 0.500000 0.914567
O O6 0.176198 0.633022 0.881537
O O7 0.317209 0.584796 0.724238
O O8 0.827575 0.287209 0.401911
O O9 0.855039 0.265323 0.679972
O O10 0.871485 0.153349 0.495983
O O11 0.000000 0.264223 0.496565
O O12 0.500000 0.170996 0.818529
O O13 0.000000 0.087365 0.653896
O O14 0.876676 0.000000 0.515798
#
# Coordination Sequence:
#
# PCOD8173340 Si02
#       6
#     8   8   8   4   8   8
#     4  11  22  38  58  83 112 148 191 238 286 333
#     4  11  20  33  56  87 116 146 187 234 290 341
#     4  10  20  34  56  85 113 149 192 236 280 334
#     4  12  22  34  56  78 118 148 194 234 276 344
#     4  10  20  37  60  83 112 146 193 242 279 328
#     4   9  17  30  52  84 117 145 179 231 289 339
#
# _framework density 18.884477
#
# number of rings (size 3 to 8) (size 9 to 14) (size 15 to 20)
#    0.000    1.636    3.636    2.182    0.000    1.455 
#    0.000    0.909    0.000    3.273    0.000    0.000 
#    0.000    0.000    0.000    0.000    0.000    0.000 
#
# Total GULP energy -272582.374007 kJ/mol
# GULP energy per Si atom -12390.107909 kJ/mol
# Density = 1.884150 g / cm^3
# Si number density = 18.884477 Si / 1000 Ang^3
#
#
#
# Elastic Constant Matrix: (Units=GPa)
#
#
# Indices 1 2 3 4 5 6 
#
# 1 105.1482 41.6348 40.2300 0.0000 0.0000 0.0000
# 2 41.6348 80.5019 20.1415 0.0000 0.0000 0.0000
# 3 40.2300 20.1415 78.8377 0.0000 0.0000 0.0000
# 4 0.0000 0.0000 0.0000 14.7136 0.0000 0.0000
# 5 0.0000 0.0000 0.0000 0.0000 39.6661 0.0000
# 6 0.0000 0.0000 0.0000 0.0000 0.0000 6.8568
#
#
#
# Elastic Compliance Matrix: (Units=1/GPa)
#
#
# Indices 1 2 3 4 5 6 
#
# 1 0.013972 -0.005814 -0.005644 0.000000 0.000000 0.000000
# 2 -0.005814 0.015690 -0.001042 0.000000 0.000000 0.000000
# 3 -0.005644 -0.001042 0.015831 0.000000 0.000000 0.000000
# 4 0.000000 0.000000 0.000000 0.067964 0.000000 0.000000
# 5 0.000000 0.000000 0.000000 0.000000 0.025210 0.000000
# 6 0.000000 0.000000 0.000000 0.000000 0.000000 0.145841
#
#
# Mechanical properties :
#
#
# Convention : Reuss Voigt Hill
#
# Bulk Modulus (GPa) = 48.79868 52.05562 50.42715
# Shear Modulus (GPa) = 15.80584 23.07940 19.44262
#
# Velocity S-wave (km/s) = 2.89619 3.49970 3.21215
# Velocity P-wave (km/s) = 6.08939 6.62991 6.36539
#
# Compressibility (1/GPa) = 0.02049236
#
# Stress axis : x y z
#
# Youngs Moduli (GPa) = 71.57129 63.73644 63.16851
#
# Poissons Ratio (x) = 0.37056 0.35655
# Poissons Ratio (y) = 0.41611 0.06580
# Poissons Ratio (z) = 0.40398 0.06639
#
# Static dielectric constant tensor:
#      x y z
#    x 3.759190 0.000000 0.000000 
#    y 0.000000 3.589780 0.000000 
#    z 0.000000 0.000000 3.389930 
# 
# 
# High freq. dielectric constant tensor:
#      x y z
#    x 1.751730 0.000000 0.000000 
#    y 0.000000 1.707530 0.000000 
#    z 0.000000 0.000000 1.718430 
# 
# From -- ./inp_files/7209.got.cif
#   From: 2010.03.12/outbox.cif.g09.slc.cpg/sg35_4_cif.got.tgz:7209.got - 2010.04.14 02:02:04.
