data_PCOD8173697
_publ_section_title
;
Structure prediction by ZEFSAII (Michael W. Deem and Ramdas Pophale) SiO2 
 PCOD8173697
Probable space group: C M M 2
;
_chemical_formula_sum "Si O2"
_cell_formula_units_Z 48
_cell_length_a 14.191652
_cell_length_b 9.816086
_cell_length_c 15.584726
_cell_angle_alpha 90.000000
_cell_angle_beta 90.000000
_cell_angle_gamma 90.000000
_cell_volume 2171.053266
_symmetry_space_group_name_H-M "C M M 2"
_symmetry_group_IT_number 35
_symmetry_cell_setting 'orthorhombic'
loop_
_space_group_symop_operation_xyz
x,y,z
-x,-y,z
-x,y,z
x,-y,z
1/2+x,1/2+y,z
1/2-x,1/2-y,z
1/2-x,1/2+y,z
1/2+x,1/2-y,z
loop_
_atom_site_type_symbol
_atom_site_label
_atom_site_fract_x
_atom_site_fract_y
_atom_site_fract_z
Si Si1 0.888173 0.500000 0.860111
Si Si2 0.387899 0.155018 0.276059
Si Si3 0.611254 0.275362 0.940481
Si Si4 0.110332 0.000000 0.807594
Si Si5 0.890594 0.155884 0.431652
Si Si6 0.387639 0.652049 0.126670
Si Si7 0.775404 0.500000 0.686950
Si Si8 0.750000 0.750000 0.572849
O O1 0.851968 0.373149 0.915666
O O2 0.846454 0.500000 0.765761
O O3 0.000000 0.500000 0.849399
O O4 0.500000 0.152043 0.272953
O O5 0.353933 0.239603 0.358998
O O6 0.347946 0.234549 0.192659
O O7 0.348221 0.000000 0.278975
O O8 0.500000 0.283300 0.948682
O O9 0.643548 0.371701 0.863361
O O10 0.654521 0.317378 0.032236
O O11 0.166717 0.000000 0.718508
O O12 0.000000 0.000000 0.785175
O O13 0.833095 0.184313 0.517431
O O14 0.000000 0.181748 0.451909
O O15 0.874571 0.000000 0.400792
O O16 0.500000 0.660430 0.125207
O O17 0.356334 0.500000 0.155320
O O18 0.796221 0.633356 0.631060
#
# Coordination Sequence:
#
# PCOD8173697 Si02
#       8
#     4   8   8   4   8   8   4   4
#     4  10  22  38  56  83 121 161 199 248 310 364
#     4   9  18  30  53  91 127 160 200 249 300 353
#     4   9  17  31  54  84 119 162 205 244 293 353
#     4  10  20  38  62  87 117 157 205 248 296 368
#     4  10  22  43  67  91 125 167 206 248 309 380
#     4   9  15  26  48  83 123 159 203 248 287 349
#     4  12  26  42  64  90 120 154 200 258 326 376
#     4  12  26  44  66  96 120 154 206 262 318 384
#
# _framework density 22.109082999999998
#
# number of rings (size 3 to 8) (size 9 to 14) (size 15 to 20)
#    0.000    2.167    1.667    1.500    2.333    3.333 
#    0.000    0.000    0.000    2.000    0.000    0.000 
#    0.000    0.000    0.000    0.000    0.000    0.000 
#
# Total GULP energy -297610.348672 kJ/mol
# GULP energy per Si atom -12400.431195 kJ/mol
# Density = 2.205876 g / cm^3
# Si number density = 22.109083 Si / 1000 Ang^3
#
#
#
# Elastic Constant Matrix: (Units=GPa)
#
#
# Indices 1 2 3 4 5 6 
#
# 1 41.6373 15.1955 15.9445 0.0000 0.0000 0.0000
# 2 15.1955 197.7132 65.9732 0.0000 0.0000 0.0000
# 3 15.9445 65.9732 122.0209 0.0000 0.0000 0.0000
# 4 0.0000 0.0000 0.0000 1.9230 0.0000 0.0000
# 5 0.0000 0.0000 0.0000 0.0000 3.4404 0.0000
# 6 0.0000 0.0000 0.0000 0.0000 0.0000 11.1898
#
#
#
# Elastic Compliance Matrix: (Units=1/GPa)
#
#
# Indices 1 2 3 4 5 6 
#
# 1 0.025454 -0.001033 -0.002768 0.000000 0.000000 0.000000
# 2 -0.001033 0.006213 -0.003224 0.000000 0.000000 0.000000
# 3 -0.002768 -0.003224 0.010300 0.000000 0.000000 0.000000
# 4 0.000000 0.000000 0.000000 0.520010 0.000000 0.000000
# 5 0.000000 0.000000 0.000000 0.000000 0.290666 0.000000
# 6 0.000000 0.000000 0.000000 0.000000 0.000000 0.089367
#
#
# Mechanical properties :
#
#
# Convention : Reuss Voigt Hill
#
# Bulk Modulus (GPa) = 35.81965 61.73306 48.77636
# Shear Modulus (GPa) = 5.17939 20.92785 13.05362
#
# Velocity S-wave (km/s) = 1.53223 3.07998 2.43249
# Velocity P-wave (km/s) = 4.40077 6.37425 5.47713
#
# Compressibility (1/GPa) = 0.02791764
#
# Stress axis : x y z
#
# Youngs Moduli (GPa) = 39.28703 160.95045 97.08502
#
# Poissons Ratio (x) = 0.16622 0.26870
# Poissons Ratio (y) = 0.04057 0.31303
# Poissons Ratio (z) = 0.10873 0.51895
#
# Static dielectric constant tensor:
#      x y z
#    x 3.586700 0.000000 0.000000 
#    y 0.000000 4.457820 0.000000 
#    z 0.000000 0.000000 4.016140 
# 
# 
# High freq. dielectric constant tensor:
#      x y z
#    x 1.852830 0.000000 0.000000 
#    y 0.000000 1.885240 0.000000 
#    z 0.000000 0.000000 1.869900 
# 
# From -- ./inp_files/15330.got.cif
#   From: 2010.03.12/outbox.cif.g09.slc.cpg/sg35_8_cif.got.tgz:15330.got - 2010.04.14 02:02:04.
