data_PCOD8173376
_publ_section_title
;
Structure prediction by ZEFSAII (Michael W. Deem and Ramdas Pophale) SiO2 
 PCOD8173376
Probable space group: C M M 2
;
_chemical_formula_sum "Si O2"
_cell_formula_units_Z 56
_cell_length_a 9.329052
_cell_length_b 19.344106
_cell_length_c 17.432225
_cell_angle_alpha 90.000000
_cell_angle_beta 90.000000
_cell_angle_gamma 90.000000
_cell_volume 3145.857165
_symmetry_space_group_name_H-M "C M M 2"
_symmetry_group_IT_number 35
_symmetry_cell_setting 'orthorhombic'
loop_
_space_group_symop_operation_xyz
x,y,z
-x,-y,z
-x,y,z
x,-y,z
1/2+x,1/2+y,z
1/2-x,1/2-y,z
1/2-x,1/2+y,z
1/2+x,1/2-y,z
loop_
_atom_site_type_symbol
_atom_site_label
_atom_site_fract_x
_atom_site_fract_y
_atom_site_fract_z
Si Si1 0.165546 0.317279 0.955540
Si Si2 0.166518 0.419536 0.089121
Si Si3 0.167450 0.317588 0.781849
Si Si4 0.834503 0.816923 0.374238
Si Si5 0.669007 0.320008 0.197682
Si Si6 0.832871 0.579036 0.651252
Si Si7 0.832701 0.078853 0.503566
O O1 0.250000 0.250000 0.985529
O O2 0.211233 0.336981 0.868915
O O3 0.000000 0.297010 0.959855
O O4 0.200564 0.383360 0.007884
O O5 0.206744 0.500000 0.081780
O O6 0.266445 0.385263 0.153248
O O7 0.000000 0.409819 0.111776
O O8 0.250000 0.250000 0.753582
O O9 0.214407 0.380165 0.727206
O O10 0.000000 0.302143 0.775320
O O11 0.750000 0.750000 0.401925
O O12 0.799866 0.835910 0.286579
O O13 0.785970 0.880295 0.427483
O O14 0.000000 0.799507 0.384954
O O15 0.500000 0.311912 0.180448
O O16 0.750000 0.250000 0.171730
O O17 0.789465 0.500000 0.666281
O O18 0.749806 0.608802 0.577446
O O19 0.000000 0.587554 0.634375
O O20 0.000000 0.086557 0.520352
O O21 0.787739 0.000000 0.488524
#
# Coordination Sequence:
#
# PCOD8173376 Si02
#       7
#     8   8   8   8   8   8   8
#     4   9  18  33  52  72  96 129 165 200 242 291
#     4  10  21  35  51  75 105 133 165 206 249 294
#     4   9  18  32  50  72  97 126 161 201 242 286
#     4   9  19  34  52  74  98 126 161 201 242 287
#     4  10  20  35  55  76 100 132 168 205 248 298
#     4   9  18  32  49  70  96 126 161 199 239 285
#     4   9  18  33  51  70  95 128 163 197 237 286
#
# _framework density 17.801189000000001
#
# number of rings (size 3 to 8) (size 9 to 14) (size 15 to 20)
#    0.000    2.714    0.000    0.857    0.000    5.429 
#    0.000    7.143    0.000    1.714    0.000    6.000 
#    0.000    0.000    0.000    0.000    0.000    0.000 
#
# Total GULP energy -347244.886369 kJ/mol
# GULP energy per Si atom -12401.603085 kJ/mol
# Density = 1.776067 g / cm^3
# Si number density = 17.801189 Si / 1000 Ang^3
#
#
#
# Elastic Constant Matrix: (Units=GPa)
#
#
# Indices 1 2 3 4 5 6 
#
# 1 56.0811 54.8249 50.7835 0.0000 0.0000 0.0000
# 2 54.8249 127.8091 79.4466 0.0000 0.0000 0.0000
# 3 50.7835 79.4466 111.1756 0.0000 0.0000 0.0000
# 4 0.0000 0.0000 0.0000 36.8783 0.0000 0.0000
# 5 0.0000 0.0000 0.0000 0.0000 29.2347 0.0000
# 6 0.0000 0.0000 0.0000 0.0000 0.0000 29.6054
#
#
#
# Elastic Compliance Matrix: (Units=1/GPa)
#
#
# Indices 1 2 3 4 5 6 
#
# 1 0.035653 -0.009303 -0.009638 0.000000 0.000000 0.000000
# 2 -0.009303 0.016505 -0.007545 0.000000 0.000000 0.000000
# 3 -0.009638 -0.007545 0.018789 0.000000 0.000000 0.000000
# 4 0.000000 0.000000 0.000000 0.027116 0.000000 0.000000
# 5 0.000000 0.000000 0.000000 0.000000 0.034206 0.000000
# 6 0.000000 0.000000 0.000000 0.000000 0.000000 0.033778
#
#
# Mechanical properties :
#
#
# Convention : Reuss Voigt Hill
#
# Bulk Modulus (GPa) = 55.63183 73.90841 64.77012
# Shear Modulus (GPa) = 22.22121 26.47773 24.34947
#
# Velocity S-wave (km/s) = 3.53696 3.86088 3.70247
# Velocity P-wave (km/s) = 6.92818 7.84118 7.39878
#
# Compressibility (1/GPa) = 0.01797532
#
# Stress axis : x y z
#
# Youngs Moduli (GPa) = 28.04781 60.58926 53.22252
#
# Poissons Ratio (x) = 0.56364 0.51297
# Poissons Ratio (y) = 0.26092 0.40156
# Poissons Ratio (z) = 0.27033 0.45714
#
# Static dielectric constant tensor:
#      x y z
#    x 3.273550 0.000000 0.000000 
#    y 0.000000 3.309580 0.000000 
#    z 0.000000 0.000000 3.478240 
# 
# 
# High freq. dielectric constant tensor:
#      x y z
#    x 1.685630 0.000000 0.000000 
#    y 0.000000 1.682450 0.000000 
#    z 0.000000 0.000000 1.695600 
# 
# From -- ./inp_files/15613.got.cif
#   From: 2010.03.12/outbox.cif.g09.slc.cpg/sg35_8_cif.got.tgz:15613.got - 2010.04.14 02:02:04.
