data_PCOD8173510
_publ_section_title
;
Structure prediction by ZEFSAII (Michael W. Deem and Ramdas Pophale) SiO2 
 PCOD8173510
Probable space group: C M M 2
;
_chemical_formula_sum "Si O2"
_cell_formula_units_Z 40
_cell_length_a 26.001377
_cell_length_b 17.081744
_cell_length_c 5.168240
_cell_angle_alpha 90.000000
_cell_angle_beta 90.000000
_cell_angle_gamma 90.000000
_cell_volume 2295.467933
_symmetry_space_group_name_H-M "C M M 2"
_symmetry_group_IT_number 35
_symmetry_cell_setting 'orthorhombic'
loop_
_space_group_symop_operation_xyz
x,y,z
-x,-y,z
-x,y,z
x,-y,z
1/2+x,1/2+y,z
1/2-x,1/2-y,z
1/2-x,1/2+y,z
1/2+x,1/2-y,z
loop_
_atom_site_type_symbol
_atom_site_label
_atom_site_fract_x
_atom_site_fract_y
_atom_site_fract_z
Si Si1 0.138358 0.911472 0.198990
Si Si2 0.887502 0.234424 0.921497
Si Si3 0.785121 0.323769 0.886938
Si Si4 0.748732 0.910948 0.379133
Si Si5 0.559981 0.305043 0.411939
O O1 0.189955 0.901125 0.365004
O O2 0.090265 0.887968 0.383463
O O3 0.132249 0.000000 0.095793
O O4 0.139486 0.851706 0.954068
O O5 0.844820 0.300579 0.886877
O O6 0.925447 0.236547 0.678531
O O7 0.922018 0.251825 0.176785
O O8 0.750000 0.250000 0.957608
O O9 0.771969 0.355364 0.603630
O O10 0.776582 0.389076 0.104900
O O11 0.733570 0.000000 0.442587
O O12 0.500000 0.322708 0.400457
#
# Coordination Sequence:
#
# PCOD8173510 Si02
#       5
#     8   8   8   8   8
#     4   9  21  36  51  77 112 150 187 220 265 316
#     4  10  21  35  54  79 101 147 185 230 268 322
#     4  12  20  36  57  80 111 146 189 221 281 328
#     4  11  23  36  55  82 116 149 184 224 270 336
#     4  10  20  36  52  76 108 143 189 232 272 311
#
# _framework density 17.425640000000001
#
# number of rings (size 3 to 8) (size 9 to 14) (size 15 to 20)
#    1.200    0.400    2.000    4.200    0.000    1.200 
#    0.000    0.000    0.000    0.000    0.000    0.000 
#    0.000   56.000    0.000    0.000    0.000    0.000 
#
# Total GULP energy -247919.185917 kJ/mol
# GULP energy per Si atom -12395.959296 kJ/mol
# Density = 1.738598 g / cm^3
# Si number density = 17.425640 Si / 1000 Ang^3
#
#
#
# Elastic Constant Matrix: (Units=GPa)
#
#
# Indices 1 2 3 4 5 6 
#
# 1 125.1135 46.1651 41.3960 0.0000 0.0000 0.0000
# 2 46.1651 56.0868 21.2579 0.0000 0.0000 0.0000
# 3 41.3960 21.2579 113.9050 0.0000 0.0000 0.0000
# 4 0.0000 0.0000 0.0000 21.5109 0.0000 0.0000
# 5 0.0000 0.0000 0.0000 0.0000 26.2075 0.0000
# 6 0.0000 0.0000 0.0000 0.0000 0.0000 17.6187
#
#
#
# Elastic Compliance Matrix: (Units=1/GPa)
#
#
# Indices 1 2 3 4 5 6 
#
# 1 0.012237 -0.009025 -0.002763 0.000000 0.000000 0.000000
# 2 -0.009025 0.025843 -0.001543 0.000000 0.000000 0.000000
# 3 -0.002763 -0.001543 0.010071 0.000000 0.000000 0.000000
# 4 0.000000 0.000000 0.000000 0.046488 0.000000 0.000000
# 5 0.000000 0.000000 0.000000 0.000000 0.038157 0.000000
# 6 0.000000 0.000000 0.000000 0.000000 0.000000 0.056758
#
#
# Mechanical properties :
#
#
# Convention : Reuss Voigt Hill
#
# Bulk Modulus (GPa) = 46.53518 56.97147 51.75333
# Shear Modulus (GPa) = 22.38342 25.48650 23.93496
#
# Velocity S-wave (km/s) = 3.58790 3.82853 3.71016
# Velocity P-wave (km/s) = 6.62774 7.23246 6.93669
#
# Compressibility (1/GPa) = 0.02148912
#
# Stress axis : x y z
#
# Youngs Moduli (GPa) = 81.71912 38.69532 99.29169
#
# Poissons Ratio (x) = 0.34923 0.27433
# Poissons Ratio (y) = 0.73752 0.15321
# Poissons Ratio (z) = 0.22578 0.05971
#
# Static dielectric constant tensor:
#      x y z
#    x 3.114560 0.000000 0.000000 
#    y 0.000000 3.057170 0.000000 
#    z 0.000000 0.000000 3.202840 
# 
# 
# High freq. dielectric constant tensor:
#      x y z
#    x 1.664460 0.000000 0.000000 
#    y 0.000000 1.642260 0.000000 
#    z 0.000000 0.000000 1.684530 
# 
# From -- ./inp_files/3648.got.cif
#   From: 2010.03.12/outbox.cif.g09.slc.cpg/sg35_2_cif.got.tgz:3648.got - 2010.04.14 02:02:04.
