data_PCOD8173540
_publ_section_title
;
Structure prediction by ZEFSAII (Michael W. Deem and Ramdas Pophale) SiO2 
 PCOD8173540
Probable space group: C M M 2
;
_chemical_formula_sum "Si O2"
_cell_formula_units_Z 64
_cell_length_a 9.020795
_cell_length_b 28.352225
_cell_length_c 12.516660
_cell_angle_alpha 90.000000
_cell_angle_beta 90.000000
_cell_angle_gamma 90.000000
_cell_volume 3201.256074
_symmetry_space_group_name_H-M "C M M 2"
_symmetry_group_IT_number 35
_symmetry_cell_setting 'orthorhombic'
loop_
_space_group_symop_operation_xyz
x,y,z
-x,-y,z
-x,y,z
x,-y,z
1/2+x,1/2+y,z
1/2-x,1/2-y,z
1/2-x,1/2+y,z
1/2+x,1/2-y,z
loop_
_atom_site_type_symbol
_atom_site_label
_atom_site_fract_x
_atom_site_fract_y
_atom_site_fract_z
Si Si1 0.673203 0.641374 0.829680
Si Si2 0.662249 0.055394 0.130957
Si Si3 0.173056 0.362660 0.438075
Si Si4 0.325657 0.699197 0.617643
Si Si5 0.172404 0.054794 0.340514
Si Si6 0.325210 0.053704 0.891420
Si Si7 0.330134 0.796667 0.244911
Si Si8 0.825142 0.701448 0.003431
O O1 0.500000 0.639999 0.854043
O O2 0.709595 0.673644 0.728608
O O3 0.734795 0.588144 0.811741
O O4 0.761799 0.660267 0.931205
O O5 0.500000 0.079202 0.153536
O O6 0.777634 0.070883 0.221744
O O7 0.638934 0.000000 0.133714
O O8 0.718631 0.068723 0.012758
O O9 0.258835 0.333222 0.526126
O O10 0.238794 0.415508 0.429997
O O11 0.204751 0.339494 0.323223
O O12 0.000000 0.364552 0.467200
O O13 0.500000 0.705620 0.598369
O O14 0.250000 0.750000 0.617136
O O15 0.000000 0.065820 0.351779
O O16 0.208224 0.000000 0.361272
O O17 0.500000 0.059721 0.873598
O O18 0.276756 0.000000 0.866974
O O19 0.500000 0.782540 0.245621
O O20 0.250000 0.750000 0.287045
O O21 0.280739 0.811050 0.125359
O O22 0.750000 0.750000 0.967104
O O23 0.000000 0.705897 0.986611
#
# Coordination Sequence:
#
# PCOD8173540 Si02
#       8
#     8   8   8   8   8   8   8   8
#     4  11  24  39  59  88 119 155 200 246 298 356
#     4   8  15  30  52  78 112 155 198 240 287 341
#     4  11  23  39  62  89 117 153 201 247 299 358
#     4  11  25  45  66  89 118 152 197 251 303 355
#     4  10  21  36  55  84 122 161 201 246 296 349
#     4   9  19  36  58  85 119 159 202 248 297 350
#     4   9  20  36  55  83 116 149 185 232 290 352
#     4  10  20  36  57  83 118 154 190 236 294 356
#
# _framework density 19.992152000000001
#
# number of rings (size 3 to 8) (size 9 to 14) (size 15 to 20)
#    0.000    2.125    0.000    3.375    1.750    7.000 
#    0.000    1.875    0.000    0.750    0.000    0.000 
#    0.000    0.000    0.000    0.000    0.000    0.000 
#
# Total GULP energy -396810.835717 kJ/mol
# GULP energy per Si atom -12400.338616 kJ/mol
# Density = 1.994665 g / cm^3
# Si number density = 19.992152 Si / 1000 Ang^3
#
#
#
# Elastic Constant Matrix: (Units=GPa)
#
#
# Indices 1 2 3 4 5 6 
#
# 1 94.1244 52.4480 42.9617 0.0000 0.0000 0.0000
# 2 52.4480 91.0037 35.3717 0.0000 0.0000 0.0000
# 3 42.9617 35.3717 57.4698 0.0000 0.0000 0.0000
# 4 0.0000 0.0000 0.0000 106.3597 0.0000 0.0000
# 5 0.0000 0.0000 0.0000 0.0000 23.6660 0.0000
# 6 0.0000 0.0000 0.0000 0.0000 0.0000 36.2907
#
#
#
# Elastic Compliance Matrix: (Units=1/GPa)
#
#
# Indices 1 2 3 4 5 6 
#
# 1 0.019142 -0.007190 -0.009884 0.000000 0.000000 0.000000
# 2 -0.007190 0.017145 -0.005177 0.000000 0.000000 0.000000
# 3 -0.009884 -0.005177 0.027976 0.000000 0.000000 0.000000
# 4 0.000000 0.000000 0.000000 0.009402 0.000000 0.000000
# 5 0.000000 0.000000 0.000000 0.000000 0.042255 0.000000
# 6 0.000000 0.000000 0.000000 0.000000 0.000000 0.027555
#
#
# Mechanical properties :
#
#
# Convention : Reuss Voigt Hill
#
# Bulk Modulus (GPa) = 50.60893 56.01786 53.31339
# Shear Modulus (GPa) = 25.69822 40.71771 33.20796
#
# Velocity S-wave (km/s) = 3.58916 4.51786 4.08002
# Velocity P-wave (km/s) = 6.52269 7.43609 6.99432
#
# Compressibility (1/GPa) = 0.01975936
#
# Stress axis : x y z
#
# Youngs Moduli (GPa) = 52.23986 58.32634 35.74488
#
# Poissons Ratio (x) = 0.41939 0.35332
# Poissons Ratio (y) = 0.37563 0.18506
# Poissons Ratio (z) = 0.51636 0.30197
#
# Static dielectric constant tensor:
#      x y z
#    x 3.668220 0.000000 0.000000 
#    y 0.000000 3.676960 0.000000 
#    z 0.000000 0.000000 3.765660 
# 
# 
# High freq. dielectric constant tensor:
#      x y z
#    x 1.782480 0.000000 0.000000 
#    y 0.000000 1.790470 0.000000 
#    z 0.000000 0.000000 1.762810 
# 
# From -- ./inp_files/11860.got.cif
#   From: 2010.03.12/outbox.cif.g09.slc.cpg/sg35_6_cif.got.tgz:11860.got - 2010.04.14 02:02:04.
