data_PCOD8173508
_publ_section_title
;
Structure prediction by ZEFSAII (Michael W. Deem and Ramdas Pophale) SiO2 
 PCOD8173508
Probable space group: C M M 2
;
_chemical_formula_sum "Si O2"
_cell_formula_units_Z 64
_cell_length_a 28.429874
_cell_length_b 18.045898
_cell_length_c 6.022999
_cell_angle_alpha 90.000000
_cell_angle_beta 90.000000
_cell_angle_gamma 90.000000
_cell_volume 3090.055105
_symmetry_space_group_name_H-M "C M M 2"
_symmetry_group_IT_number 35
_symmetry_cell_setting 'orthorhombic'
loop_
_space_group_symop_operation_xyz
x,y,z
-x,-y,z
-x,y,z
x,-y,z
1/2+x,1/2+y,z
1/2-x,1/2-y,z
1/2-x,1/2+y,z
1/2+x,1/2-y,z
loop_
_atom_site_type_symbol
_atom_site_label
_atom_site_fract_x
_atom_site_fract_y
_atom_site_fract_z
Si Si1 0.634163 0.418482 0.958260
Si Si2 0.639117 0.192969 0.240979
Si Si3 0.773121 0.917116 0.184650
Si Si4 0.604619 0.303497 0.607078
Si Si5 0.304093 0.085395 0.511290
Si Si6 0.785523 0.689706 0.892335
Si Si7 0.551892 0.224371 0.981635
Si Si8 0.448879 0.624204 0.237184
O O1 0.643979 0.500000 0.849901
O O2 0.636800 0.352679 0.775223
O O3 0.671071 0.402449 0.160281
O O4 0.584059 0.424615 0.079810
O O5 0.635979 0.255864 0.433621
O O6 0.659252 0.114110 0.324476
O O7 0.675493 0.225818 0.056444
O O8 0.589248 0.174817 0.120814
O O9 0.750523 0.905532 0.430074
O O10 0.760742 0.000000 0.108247
O O11 0.748343 0.865103 0.014742
O O12 0.572127 0.244899 0.739287
O O13 0.572221 0.363612 0.482435
O O14 0.313138 0.141696 0.711237
O O15 0.315766 0.000000 0.570800
O O16 0.750000 0.750000 0.786240
O O17 0.500000 0.185958 0.956598
O O18 0.545471 0.296947 0.125144
O O19 0.500000 0.585522 0.259522
#
# Coordination Sequence:
#
# PCOD8173508 Si02
#       8
#     8   8   8   8   8   8   8   8
#     4  10  22  38  56  80 113 157 206 257 303 350
#     4  10  22  39  58  93 123 155 200 250 305 359
#     4   9  21  40  57  79 113 154 200 245 297 354
#     4  10  20  35  61  82 121 154 206 247 305 368
#     4  10  22  42  65  87 119 162 203 242 299 369
#     4  11  24  37  60  88 122 158 199 253 302 352
#     4   9  18  35  59  87 119 152 192 246 303 361
#     4   9  19  34  53  77 111 154 199 250 306 357
#
# _framework density 20.711604999999999
#
# number of rings (size 3 to 8) (size 9 to 14) (size 15 to 20)
#    0.000    2.250    0.000    1.500    7.000    5.250 
#    0.000    2.500    0.000    0.375    0.000    0.000 
#    0.000    0.000    0.000    0.000    0.000    0.000 
#
# Total GULP energy -396452.266015 kJ/mol
# GULP energy per Si atom -12389.133313 kJ/mol
# Density = 2.066446 g / cm^3
# Si number density = 20.711605 Si / 1000 Ang^3
#
#
#
# Elastic Constant Matrix: (Units=GPa)
#
#
# Indices 1 2 3 4 5 6 
#
# 1 131.1223 42.4860 45.2687 0.0000 0.0000 0.0000
# 2 42.4860 78.9513 43.8431 0.0000 0.0000 0.0000
# 3 45.2687 43.8431 93.1587 0.0000 0.0000 0.0000
# 4 0.0000 0.0000 0.0000 39.6479 0.0000 0.0000
# 5 0.0000 0.0000 0.0000 0.0000 9.0904 0.0000
# 6 0.0000 0.0000 0.0000 0.0000 0.0000 30.6168
#
#
#
# Elastic Compliance Matrix: (Units=1/GPa)
#
#
# Indices 1 2 3 4 5 6 
#
# 1 0.009859 -0.003581 -0.003106 0.000000 0.000000 0.000000
# 2 -0.003581 0.018448 -0.006942 0.000000 0.000000 0.000000
# 3 -0.003106 -0.006942 0.015511 0.000000 0.000000 0.000000
# 4 0.000000 0.000000 0.000000 0.025222 0.000000 0.000000
# 5 0.000000 0.000000 0.000000 0.000000 0.110006 0.000000
# 6 0.000000 0.000000 0.000000 0.000000 0.000000 0.032662
#
#
# Mechanical properties :
#
#
# Convention : Reuss Voigt Hill
#
# Bulk Modulus (GPa) = 60.38422 62.93643 61.66033
# Shear Modulus (GPa) = 20.45121 27.31335 23.88228
#
# Velocity S-wave (km/s) = 3.14575 3.63539 3.39940
# Velocity P-wave (km/s) = 6.51248 6.93357 6.72632
#
# Compressibility (1/GPa) = 0.01656062
#
# Stress axis : x y z
#
# Youngs Moduli (GPa) = 101.43170 54.20625 64.47203
#
# Poissons Ratio (x) = 0.19410 0.20022
# Poissons Ratio (y) = 0.36321 0.44757
# Poissons Ratio (z) = 0.31500 0.37631
#
# Static dielectric constant tensor:
#      x y z
#    x 4.499380 0.000000 0.000000 
#    y 0.000000 3.463770 0.000000 
#    z 0.000000 0.000000 3.919350 
# 
# 
# High freq. dielectric constant tensor:
#      x y z
#    x 1.812960 0.000000 0.000000 
#    y 0.000000 1.782960 0.000000 
#    z 0.000000 0.000000 1.808430 
# 
# From -- ./inp_files/4089.got.cif
#   From: 2010.03.12/outbox.cif.g09.slc.cpg/sg35_3_cif.got.tgz:4089.got - 2010.04.14 02:02:04.
