data_PCOD8173124
_publ_section_title
;
Structure prediction by ZEFSAII (Michael W. Deem and Ramdas Pophale) SiO2 
 PCOD8173124
Probable space group: C M M 2
;
_chemical_formula_sum "Si O2"
_cell_formula_units_Z 64
_cell_length_a 27.949737
_cell_length_b 9.037233
_cell_length_c 13.080962
_cell_angle_alpha 90.000000
_cell_angle_beta 90.000000
_cell_angle_gamma 90.000000
_cell_volume 3304.097765
_symmetry_space_group_name_H-M "C M M 2"
_symmetry_group_IT_number 35
_symmetry_cell_setting 'orthorhombic'
loop_
_space_group_symop_operation_xyz
x,y,z
-x,-y,z
-x,y,z
x,-y,z
1/2+x,1/2+y,z
1/2-x,1/2-y,z
1/2-x,1/2+y,z
1/2+x,1/2-y,z
loop_
_atom_site_type_symbol
_atom_site_label
_atom_site_fract_x
_atom_site_fract_y
_atom_site_fract_z
Si Si1 0.945358 0.324189 0.210590
Si Si2 0.556887 0.334577 0.604318
Si Si3 0.698802 0.174829 0.728039
Si Si4 0.799670 0.327358 0.500362
Si Si5 0.799743 0.171237 0.921792
Si Si6 0.602229 0.825397 0.417095
Si Si7 0.053301 0.176135 0.826538
Si Si8 0.893698 0.170320 0.026440
O O1 0.943954 0.500000 0.209586
O O2 0.922070 0.260645 0.315025
O O3 0.913221 0.266190 0.118908
O O4 0.000000 0.266700 0.201933
O O5 0.500000 0.338081 0.605482
O O6 0.576974 0.500000 0.584665
O O7 0.574365 0.228338 0.515892
O O8 0.574234 0.272094 0.715614
O O9 0.750000 0.250000 0.738986
O O10 0.680239 0.213682 0.614138
O O11 0.672399 0.253945 0.823668
O O12 0.700758 0.000000 0.746049
O O13 0.788629 0.500000 0.494875
O O14 0.750000 0.250000 0.471496
O O15 0.841600 0.278513 0.422389
O O16 0.750000 0.250000 0.952076
O O17 0.789794 0.000000 0.896635
O O18 0.836161 0.186363 0.017508
O O19 0.598100 0.000000 0.417875
O O20 0.000000 0.239966 0.842328
O O21 0.052139 0.000000 0.823590
O O22 0.084298 0.233751 0.921226
O O23 0.908693 0.000000 0.043906
#
# Coordination Sequence:
#
# PCOD8173124 Si02
#       8
#     8   8   8   8   8   8   8   8
#     4  10  22  40  60  81 107 142 182 225 276 331
#     4   9  18  32  52  80 110 140 177 219 267 327
#     4   9  16  28  47  72 104 142 180 218 261 310
#     4   9  19  34  52  77 109 145 184 223 266 318
#     4  10  20  33  51  78 110 145 184 222 268 322
#     4  10  21  37  56  79 109 145 183 221 272 330
#     4   8  15  30  51  76 107 138 168 212 272 327
#     4  10  21  36  57  82 106 140 186 229 272 323
#
# _framework density 19.369886000000001
#
# number of rings (size 3 to 8) (size 9 to 14) (size 15 to 20)
#    0.000    2.625    0.000    3.000    1.750    4.000 
#    0.000    1.250    0.000    3.750    0.000    0.000 
#    0.000    0.000    0.000    0.000    0.000    0.000 
#
# Total GULP energy -396544.248917 kJ/mol
# GULP energy per Si atom -12392.007779 kJ/mol
# Density = 1.932580 g / cm^3
# Si number density = 19.369886 Si / 1000 Ang^3
#
#
#
# Elastic Constant Matrix: (Units=GPa)
#
#
# Indices 1 2 3 4 5 6 
#
# 1 85.8387 28.0362 64.7465 0.0000 0.0000 0.0000
# 2 28.0362 44.7205 28.6510 0.0000 0.0000 0.0000
# 3 64.7465 28.6510 131.7579 0.0000 0.0000 0.0000
# 4 0.0000 0.0000 0.0000 21.1666 0.0000 0.0000
# 5 0.0000 0.0000 0.0000 0.0000 35.2180 0.0000
# 6 0.0000 0.0000 0.0000 0.0000 0.0000 23.4659
#
#
#
# Elastic Compliance Matrix: (Units=1/GPa)
#
#
# Indices 1 2 3 4 5 6 
#
# 1 0.020424 -0.007406 -0.008426 0.000000 0.000000 0.000000
# 2 -0.007406 0.028666 -0.002594 0.000000 0.000000 0.000000
# 3 -0.008426 -0.002594 0.012294 0.000000 0.000000 0.000000
# 4 0.000000 0.000000 0.000000 0.047244 0.000000 0.000000
# 5 0.000000 0.000000 0.000000 0.000000 0.028395 0.000000
# 6 0.000000 0.000000 0.000000 0.000000 0.000000 0.042615
#
#
# Mechanical properties :
#
#
# Convention : Reuss Voigt Hill
#
# Bulk Modulus (GPa) = 40.76275 56.13161 48.44718
# Shear Modulus (GPa) = 22.25495 25.36232 23.80863
#
# Velocity S-wave (km/s) = 3.39329 3.62245 3.50974
# Velocity P-wave (km/s) = 6.03677 6.82187 6.44129
#
# Compressibility (1/GPa) = 0.02453220
#
# Stress axis : x y z
#
# Youngs Moduli (GPa) = 48.96104 34.88437 81.33760
#
# Poissons Ratio (x) = 0.25836 0.68537
# Poissons Ratio (y) = 0.36261 0.21100
# Poissons Ratio (z) = 0.41255 0.09049
#
# Static dielectric constant tensor:
#      x y z
#    x 3.577700 0.000000 0.000000 
#    y 0.000000 3.469600 0.000000 
#    z 0.000000 0.000000 3.844980 
# 
# 
# High freq. dielectric constant tensor:
#      x y z
#    x 1.756790 0.000000 0.000000 
#    y 0.000000 1.733680 0.000000 
#    z 0.000000 0.000000 1.745970 
# 
# From -- ./inp_files/14547.got.cif
#   From: 2010.03.12/outbox.cif.g09.slc.cpg/sg35_8_cif.got.tgz:14547.got - 2010.04.14 02:02:04.
