data_PCOD8173217
_publ_section_title
;
Structure prediction by ZEFSAII (Michael W. Deem and Ramdas Pophale) SiO2 
 PCOD8173217
Probable space group: C M M 2
;
_chemical_formula_sum "Si O2"
_cell_formula_units_Z 64
_cell_length_a 10.457293
_cell_length_b 20.531021
_cell_length_c 15.848030
_cell_angle_alpha 90.000000
_cell_angle_beta 90.000000
_cell_angle_gamma 90.000000
_cell_volume 3402.554643
_symmetry_space_group_name_H-M "C M M 2"
_symmetry_group_IT_number 35
_symmetry_cell_setting 'orthorhombic'
loop_
_space_group_symop_operation_xyz
x,y,z
-x,-y,z
-x,y,z
x,-y,z
1/2+x,1/2+y,z
1/2-x,1/2-y,z
1/2-x,1/2+y,z
1/2+x,1/2-y,z
loop_
_atom_site_type_symbol
_atom_site_label
_atom_site_fract_x
_atom_site_fract_y
_atom_site_fract_z
Si Si1 0.353937 0.699479 0.729860
Si Si2 0.860183 0.796330 0.361421
Si Si3 0.253389 0.926590 0.316214
Si Si4 0.359496 0.076098 0.134744
Si Si5 0.142775 0.076923 0.012938
Si Si6 0.150602 0.071458 0.824301
Si Si7 0.640308 0.661665 0.545360
Si Si8 0.138556 0.426145 0.496489
O O1 0.500000 0.714214 0.761686
O O2 0.250000 0.750000 0.767793
O O3 0.308452 0.627224 0.758371
O O4 0.349268 0.705422 0.628724
O O5 0.750000 0.750000 0.321998
O O6 0.853465 0.870693 0.327423
O O7 0.844972 0.793570 0.462804
O O8 0.000000 0.769265 0.335517
O O9 0.333344 0.911297 0.232887
O O10 0.347102 0.920579 0.395722
O O11 0.192380 0.000000 0.312336
O O12 0.500000 0.105957 0.113142
O O13 0.246557 0.107946 0.077792
O O14 0.363032 0.000000 0.115026
O O15 0.000000 0.106443 0.029842
O O16 0.133692 0.000000 0.026054
O O17 0.192215 0.092888 0.918606
O O18 0.000000 0.063269 0.824428
O O19 0.210324 0.000000 0.800630
O O20 0.500000 0.627204 0.543553
O O21 0.750000 0.607896 0.548515
O O22 0.142438 0.500000 0.526289
O O23 0.000000 0.395255 0.519017
#
# Coordination Sequence:
#
# PCOD8173217 Si02
#       8
#     8   8   8   8   8   8   8   8
#     4  10  20  34  53  76 101 129 162 202 247 294
#     4  10  21  35  51  72  98 131 169 208 250 293
#     4   9  18  32  50  73 101 132 167 205 245 291
#     4   9  16  26  44  72 102 129 160 200 245 291
#     4   8  14  26  45  69  96 125 159 200 243 287
#     4   8  15  30  52  75  98 128 166 202 238 288
#     4   9  19  33  48  69  95 127 168 207 244 288
#     4   9  17  29  46  69  98 132 167 204 249 295
#
# _framework density 18.809396
#
# number of rings (size 3 to 8) (size 9 to 14) (size 15 to 20)
#    0.000    3.000    0.000    1.500    0.000    6.000 
#    0.000    5.625    0.000    1.875    0.000    1.750 
#    0.000    0.000    0.000    0.000    0.000    0.000 
#
# Total GULP energy -396460.624537 kJ/mol
# GULP energy per Si atom -12389.394517 kJ/mol
# Density = 1.876659 g / cm^3
# Si number density = 18.809396 Si / 1000 Ang^3
#
#
#
# Elastic Constant Matrix: (Units=GPa)
#
#
# Indices 1 2 3 4 5 6 
#
# 1 139.2404 51.3959 25.6797 0.0000 0.0000 0.0000
# 2 51.3959 75.5926 19.0318 0.0000 0.0000 0.0000
# 3 25.6797 19.0318 50.9696 0.0000 0.0000 0.0000
# 4 0.0000 0.0000 0.0000 8.4290 0.0000 0.0000
# 5 0.0000 0.0000 0.0000 0.0000 15.9948 0.0000
# 6 0.0000 0.0000 0.0000 0.0000 0.0000 25.1248
#
#
#
# Elastic Compliance Matrix: (Units=1/GPa)
#
#
# Indices 1 2 3 4 5 6 
#
# 1 0.009922 -0.006057 -0.002737 0.000000 0.000000 0.000000
# 2 -0.006057 0.018299 -0.003781 0.000000 0.000000 0.000000
# 3 -0.002737 -0.003781 0.022411 0.000000 0.000000 0.000000
# 4 0.000000 0.000000 0.000000 0.118638 0.000000 0.000000
# 5 0.000000 0.000000 0.000000 0.000000 0.062520 0.000000
# 6 0.000000 0.000000 0.000000 0.000000 0.000000 0.039801
#
#
# Mechanical properties :
#
#
# Convention : Reuss Voigt Hill
#
# Bulk Modulus (GPa) = 39.24529 50.89082 45.06806
# Shear Modulus (GPa) = 16.38074 21.22272 18.80173
#
# Velocity S-wave (km/s) = 2.95427 3.36267 3.16506
# Velocity P-wave (km/s) = 5.70500 6.49550 6.11304
#
# Compressibility (1/GPa) = 0.02548077
#
# Stress axis : x y z
#
# Youngs Moduli (GPa) = 100.78120 54.64763 44.62185
#
# Poissons Ratio (x) = 0.33101 0.12215
# Poissons Ratio (y) = 0.61045 0.16872
# Poissons Ratio (z) = 0.27588 0.20662
#
# Static dielectric constant tensor:
#      x y z
#    x 3.642710 0.000000 0.000000 
#    y 0.000000 3.320220 0.000000 
#    z 0.000000 0.000000 3.370100 
# 
# 
# High freq. dielectric constant tensor:
#      x y z
#    x 1.727050 0.000000 0.000000 
#    y 0.000000 1.691800 0.000000 
#    z 0.000000 0.000000 1.710390 
# 
# From -- ./inp_files/16509.got.cif
#   From: 2010.03.12/outbox.cif.g09.slc.cpg/sg35_9_cif.got.tgz:16509.got - 2010.04.14 02:02:04.
