data_PCOD8173146
_publ_section_title
;
Structure prediction by ZEFSAII (Michael W. Deem and Ramdas Pophale) SiO2 
 PCOD8173146
Probable space group: C M M 2
;
_chemical_formula_sum "Si O2"
_cell_formula_units_Z 56
_cell_length_a 8.699261
_cell_length_b 23.351676
_cell_length_c 15.360105
_cell_angle_alpha 90.000000
_cell_angle_beta 90.000000
_cell_angle_gamma 90.000000
_cell_volume 3120.287431
_symmetry_space_group_name_H-M "C M M 2"
_symmetry_group_IT_number 35
_symmetry_cell_setting 'orthorhombic'
loop_
_space_group_symop_operation_xyz
x,y,z
-x,-y,z
-x,y,z
x,-y,z
1/2+x,1/2+y,z
1/2-x,1/2-y,z
1/2-x,1/2+y,z
1/2+x,1/2-y,z
loop_
_atom_site_type_symbol
_atom_site_label
_atom_site_fract_x
_atom_site_fract_y
_atom_site_fract_z
Si Si1 0.318043 0.686417 0.281530
Si Si2 0.679087 0.187994 0.109405
Si Si3 0.316856 0.500000 0.687879
Si Si4 0.682057 0.883033 0.440455
Si Si5 0.822048 0.118572 0.765865
Si Si6 0.177758 0.687634 0.917199
Si Si7 0.820758 0.812176 0.594048
Si Si8 0.816935 0.000000 0.489365
O O1 0.500000 0.688567 0.289241
O O2 0.250000 0.750000 0.286530
O O3 0.266740 0.656701 0.189506
O O4 0.249620 0.650474 0.359373
O O5 0.500000 0.191406 0.132838
O O6 0.750000 0.250000 0.101379
O O7 0.707110 0.160770 0.013861
O O8 0.500000 0.500000 0.684483
O O9 0.255192 0.556695 0.736924
O O10 0.255767 0.500000 0.588838
O O11 0.500000 0.884871 0.433996
O O12 0.732077 0.853682 0.529666
O O13 0.751424 0.946127 0.437745
O O14 0.738463 0.139726 0.851999
O O15 0.794251 0.165079 0.690921
O O16 0.000000 0.112210 0.787881
O O17 0.250000 0.750000 0.902094
O O18 0.000000 0.697385 0.899996
O O19 0.750000 0.750000 0.585717
O O20 0.000000 0.811131 0.568955
O O21 0.000000 0.000000 0.486149
#
# Coordination Sequence:
#
# PCOD8173146 Si02
#       8
#     8   8   4   8   8   8   8   4
#     4  11  21  35  56  83 113 146 181 224 275 329
#     4   9  17  31  51  77 109 143 178 220 269 326
#     4   9  18  37  59  78 101 138 183 227 270 316
#     4  12  24  38  56  81 110 143 183 226 272 324
#     4  10  20  35  56  78 105 141 181 225 271 319
#     4  10  20  33  52  80 113 145 179 221 271 326
#     4  11  22  36  53  77 109 145 179 223 275 326
#     4  11  21  41  63  80 105 140 187 231 274 322
#
# _framework density 17.947066
#
# number of rings (size 3 to 8) (size 9 to 14) (size 15 to 20)
#    0.000    1.571    1.429    5.786    0.000    4.000 
#    0.000    0.357    0.000    0.857    0.000    2.000 
#    0.000    0.000    0.000    0.000    0.000    0.000 
#
# Total GULP energy -347156.395618 kJ/mol
# GULP energy per Si atom -12398.442701 kJ/mol
# Density = 1.790622 g / cm^3
# Si number density = 17.947066 Si / 1000 Ang^3
#
#
#
# Elastic Constant Matrix: (Units=GPa)
#
#
# Indices 1 2 3 4 5 6 
#
# 1 127.1268 41.3818 60.1256 0.0000 0.0000 0.0000
# 2 41.3818 85.2468 31.9140 0.0000 0.0000 0.0000
# 3 60.1256 31.9140 114.7389 0.0000 0.0000 0.0000
# 4 0.0000 0.0000 0.0000 0.5599 0.0000 0.0000
# 5 0.0000 0.0000 0.0000 0.0000 31.0128 0.0000
# 6 0.0000 0.0000 0.0000 0.0000 0.0000 25.6178
#
#
#
# Elastic Compliance Matrix: (Units=1/GPa)
#
#
# Indices 1 2 3 4 5 6 
#
# 1 0.011408 -0.003683 -0.004953 0.000000 0.000000 0.000000
# 2 -0.003683 0.014283 -0.002043 0.000000 0.000000 0.000000
# 3 -0.004953 -0.002043 0.011879 0.000000 0.000000 0.000000
# 4 0.000000 0.000000 0.000000 1.786090 0.000000 0.000000
# 5 0.000000 0.000000 0.000000 0.000000 0.032245 0.000000
# 6 0.000000 0.000000 0.000000 0.000000 0.000000 0.039035
#
#
# Mechanical properties :
#
#
# Convention : Reuss Voigt Hill
#
# Bulk Modulus (GPa) = 61.68426 65.99502 63.83964
# Shear Modulus (GPa) = 2.60186 24.35082 13.47634
#
# Velocity S-wave (km/s) = 1.20536 3.68749 2.74322
# Velocity P-wave (km/s) = 6.03174 7.41498 6.75884
#
# Compressibility (1/GPa) = 0.01621159
#
# Stress axis : x y z
#
# Youngs Moduli (GPa) = 87.65809 70.01123 84.17974
#
# Poissons Ratio (x) = 0.25788 0.41698
# Poissons Ratio (y) = 0.32288 0.17195
# Poissons Ratio (z) = 0.43421 0.14301
#
# Static dielectric constant tensor:
#      x y z
#    x 3.483860 0.000000 0.000000 
#    y 0.000000 3.313150 0.000000 
#    z 0.000000 0.000000 3.939570 
# 
# 
# High freq. dielectric constant tensor:
#      x y z
#    x 1.705140 0.000000 0.000000 
#    y 0.000000 1.670970 0.000000 
#    z 0.000000 0.000000 1.707770 
# 
# From -- ./inp_files/15700.got.cif
#   From: 2010.03.12/outbox.cif.g09.slc.cpg/sg35_8_cif.got.tgz:15700.got - 2010.04.14 02:02:04.
