data_PCOD8173425
_publ_section_title
;
Structure prediction by ZEFSAII (Michael W. Deem and Ramdas Pophale) SiO2 
 PCOD8173425
Probable space group: C M M 2
;
_chemical_formula_sum "Si O2"
_cell_formula_units_Z 64
_cell_length_a 9.028399
_cell_length_b 18.373273
_cell_length_c 20.784446
_cell_angle_alpha 90.000000
_cell_angle_beta 90.000000
_cell_angle_gamma 90.000000
_cell_volume 3447.749666
_symmetry_space_group_name_H-M "C M M 2"
_symmetry_group_IT_number 35
_symmetry_cell_setting 'orthorhombic'
loop_
_space_group_symop_operation_xyz
x,y,z
-x,-y,z
-x,y,z
x,-y,z
1/2+x,1/2+y,z
1/2-x,1/2-y,z
1/2-x,1/2+y,z
1/2+x,1/2-y,z
loop_
_atom_site_type_symbol
_atom_site_label
_atom_site_fract_x
_atom_site_fract_y
_atom_site_fract_z
Si Si1 0.335408 0.413377 0.898800
Si Si2 0.827715 0.415708 0.526554
Si Si3 0.666982 0.586539 0.399503
Si Si4 0.325161 0.082578 0.773548
Si Si5 0.676376 0.327868 0.160270
Si Si6 0.329887 0.086339 0.272237
Si Si7 0.675275 0.172574 0.651633
Si Si8 0.823715 0.081210 0.039045
O O1 0.500000 0.381519 0.888672
O O2 0.339779 0.500000 0.898644
O O3 0.234937 0.383898 0.840518
O O4 0.270458 0.389561 0.968749
O O5 0.792184 0.500000 0.539335
O O6 0.737349 0.384428 0.465810
O O7 0.775290 0.372351 0.589171
O O8 0.000000 0.404116 0.511737
O O9 0.500000 0.616713 0.392779
O O10 0.668092 0.500000 0.400280
O O11 0.765750 0.614711 0.340174
O O12 0.500000 0.084509 0.776614
O O13 0.265363 0.130241 0.714399
O O14 0.268290 0.000000 0.763663
O O15 0.500000 0.320745 0.163057
O O16 0.750000 0.250000 0.167775
O O17 0.729978 0.379531 0.217070
O O18 0.732245 0.363403 0.093445
O O19 0.500000 0.111894 0.266270
O O20 0.316285 0.000000 0.266654
O O21 0.500000 0.181648 0.654295
O O22 0.750000 0.250000 0.648852
O O23 0.000000 0.076718 0.038452
O O24 0.760058 0.000000 0.053031
#
# Coordination Sequence:
#
# PCOD8173425 Si02
#       8
#     8   8   8   8   8   8   8   8
#     4   8  14  27  49  76 101 125 160 206 252 298
#     4   9  17  32  54  76  98 128 166 206 249 297
#     4   9  17  30  51  80 108 131 161 205 254 301
#     4   9  17  31  51  74  99 128 164 205 249 296
#     4  11  22  36  53  74 104 140 176 214 257 305
#     4  10  20  35  56  81 107 135 170 212 256 304
#     4  10  21  35  50  70  99 134 168 204 247 296
#     4   8  15  30  53  77  99 128 167 208 252 304
#
# _framework density 18.562832
#
# number of rings (size 3 to 8) (size 9 to 14) (size 15 to 20)
#    0.000    2.750    0.000    2.625    0.000    5.250 
#    0.000    2.500    0.000   11.250    0.000    0.000 
#    0.000    0.000    0.000    0.000    0.000    0.000 
#
# Total GULP energy -396733.011294 kJ/mol
# GULP energy per Si atom -12397.906603 kJ/mol
# Density = 1.852058 g / cm^3
# Si number density = 18.562832 Si / 1000 Ang^3
#
#
#
# Elastic Constant Matrix: (Units=GPa)
#
#
# Indices 1 2 3 4 5 6 
#
# 1 62.4448 29.9104 52.4186 0.0000 0.0000 0.0000
# 2 29.9104 56.1154 50.7398 0.0000 0.0000 0.0000
# 3 52.4186 50.7398 178.4041 0.0000 0.0000 0.0000
# 4 0.0000 0.0000 0.0000 1.8956 0.0000 0.0000
# 5 0.0000 0.0000 0.0000 0.0000 33.7617 0.0000
# 6 0.0000 0.0000 0.0000 0.0000 0.0000 22.0654
#
#
#
# Elastic Compliance Matrix: (Units=1/GPa)
#
#
# Indices 1 2 3 4 5 6 
#
# 1 0.024013 -0.008642 -0.004598 0.000000 0.000000 0.000000
# 2 -0.008642 0.027100 -0.005168 0.000000 0.000000 0.000000
# 3 -0.004598 -0.005168 0.008426 0.000000 0.000000 0.000000
# 4 0.000000 0.000000 0.000000 0.527545 0.000000 0.000000
# 5 0.000000 0.000000 0.000000 0.000000 0.029619 0.000000
# 6 0.000000 0.000000 0.000000 0.000000 0.000000 0.045320
#
#
# Mechanical properties :
#
#
# Convention : Reuss Voigt Hill
#
# Bulk Modulus (GPa) = 44.00822 62.56688 53.28755
# Shear Modulus (GPa) = 7.07801 22.47091 14.77446
#
# Velocity S-wave (km/s) = 1.95481 3.48305 2.82426
# Velocity P-wave (km/s) = 5.37161 7.06782 6.27727
#
# Compressibility (1/GPa) = 0.02272303
#
# Stress axis : x y z
#
# Youngs Moduli (GPa) = 41.64402 36.90041 118.68008
#
# Poissons Ratio (x) = 0.31890 0.54564
# Poissons Ratio (y) = 0.35989 0.61337
# Poissons Ratio (z) = 0.19146 0.19071
#
# Static dielectric constant tensor:
#      x y z
#    x 3.334810 0.000000 0.000000 
#    y 0.000000 3.126750 0.000000 
#    z 0.000000 0.000000 3.832270 
# 
# 
# High freq. dielectric constant tensor:
#      x y z
#    x 1.706980 0.000000 0.000000 
#    y 0.000000 1.685260 0.000000 
#    z 0.000000 0.000000 1.741420 
# 
# From -- ./inp_files/18364.got.cif
#   From: 2010.03.12/outbox.cif.g09.slc.cpg/sg35_10_cif.got.tgz:18364.got - 2010.04.14 02:02:04.
