data_PCOD8173625
_publ_section_title
;
Structure prediction by ZEFSAII (Michael W. Deem and Ramdas Pophale) SiO2 
 PCOD8173625
Probable space group: C M M 2
;
_chemical_formula_sum "Si O2"
_cell_formula_units_Z 48
_cell_length_a 8.881064
_cell_length_b 14.977317
_cell_length_c 19.065599
_cell_angle_alpha 90.000000
_cell_angle_beta 90.000000
_cell_angle_gamma 90.000000
_cell_volume 2536.001325
_symmetry_space_group_name_H-M "C M M 2"
_symmetry_group_IT_number 35
_symmetry_cell_setting 'orthorhombic'
loop_
_space_group_symop_operation_xyz
x,y,z
-x,-y,z
-x,y,z
x,-y,z
1/2+x,1/2+y,z
1/2-x,1/2-y,z
1/2-x,1/2+y,z
1/2+x,1/2-y,z
loop_
_atom_site_type_symbol
_atom_site_label
_atom_site_fract_x
_atom_site_fract_y
_atom_site_fract_z
Si Si1 0.177129 0.339226 0.595990
Si Si2 0.320748 0.000000 0.975791
Si Si3 0.179482 0.500000 0.502499
Si Si4 0.328745 0.605099 0.735035
Si Si5 0.678348 0.848783 0.239834
Si Si6 0.178614 0.500000 0.345531
Si Si7 0.178103 0.500000 0.135456
Si Si8 0.321469 0.341782 0.890369
O O1 0.250000 0.250000 0.566166
O O2 0.241166 0.415574 0.545344
O O3 0.221225 0.353950 0.676657
O O4 0.000000 0.332676 0.591715
O O5 0.253563 0.914288 0.939166
O O6 0.500000 0.000000 0.969862
O O7 0.264618 0.000000 0.056034
O O8 0.246702 0.500000 0.424036
O O9 0.000000 0.500000 0.500771
O O10 0.500000 0.632951 0.718098
O O11 0.309811 0.500000 0.736951
O O12 0.276372 0.642592 0.809712
O O13 0.500000 0.834975 0.239213
O O14 0.750000 0.750000 0.240326
O O15 0.730339 0.908400 0.307010
O O16 0.733598 0.908208 0.173091
O O17 0.000000 0.500000 0.347356
O O18 0.000000 0.500000 0.140998
O O19 0.500000 0.343784 0.900553
O O20 0.250000 0.250000 0.916127
#
# Coordination Sequence:
#
# PCOD8173625 Si02
#       8
#     8   4   4   8   8   4   4   8
#     4  11  22  36  54  79 107 141 183 227 272 325
#     4  11  22  38  59  82 112 149 184 226 276 331
#     4   9  19  35  53  76 108 143 182 218 262 325
#     4  10  20  37  59  80 105 138 179 231 279 322
#     4   9  17  33  58  83 108 140 178 218 260 311
#     4   8  16  33  55  77 107 147 178 211 262 319
#     4   8  18  36  55  79 111 145 180 213 260 323
#     4  11  23  40  58  82 111 144 186 232 280 332
#
# _framework density 18.927434999999999
#
# number of rings (size 3 to 8) (size 9 to 14) (size 15 to 20)
#    0.000    2.167    1.667    2.750    0.000    4.000 
#    0.000    5.000    0.000    3.000    0.000    0.000 
#    0.000    0.000    0.000    0.000    0.000    0.000 
#
# Total GULP energy -297548.435591 kJ/mol
# GULP energy per Si atom -12397.851483 kJ/mol
# Density = 1.888436 g / cm^3
# Si number density = 18.927435 Si / 1000 Ang^3
#
#
#
# Elastic Constant Matrix: (Units=GPa)
#
#
# Indices 1 2 3 4 5 6 
#
# 1 54.8261 44.6133 48.8625 0.0000 0.0000 0.0000
# 2 44.6133 184.1704 95.3020 0.0000 0.0000 0.0000
# 3 48.8625 95.3020 154.3843 0.0000 0.0000 0.0000
# 4 0.0000 0.0000 0.0000 43.0001 0.0000 0.0000
# 5 0.0000 0.0000 0.0000 0.0000 -30.4467 0.0000
# 6 0.0000 0.0000 0.0000 0.0000 0.0000 33.8446
#
#
#
# Elastic Compliance Matrix: (Units=1/GPa)
#
#
# Indices 1 2 3 4 5 6 
#
# 1 0.026529 -0.003058 -0.006508 0.000000 0.000000 0.000000
# 2 -0.003058 0.008331 -0.004175 0.000000 0.000000 0.000000
# 3 -0.006508 -0.004175 0.011114 0.000000 0.000000 0.000000
# 4 0.000000 0.000000 0.000000 0.023256 0.000000 0.000000
# 5 0.000000 0.000000 0.000000 0.000000 -0.032844 0.000000
# 6 0.000000 0.000000 0.000000 0.000000 0.000000 0.029547
#
#
# Mechanical properties :
#
#
# Convention : Reuss Voigt Hill
#
# Bulk Modulus (GPa) = 54.08068 85.65957 69.87013
# Shear Modulus (GPa) = 50.21166 22.91981 36.56573
#
# Velocity S-wave (km/s) = 5.15617 3.48362 4.40010
# Velocity P-wave (km/s) = 8.00517 7.84448 7.92523
#
# Compressibility (1/GPa) = 0.01849089
#
# Stress axis : x y z
#
# Youngs Moduli (GPa) = 37.69521 120.03512 89.97454
#
# Poissons Ratio (x) = 0.36712 0.58558
# Poissons Ratio (y) = 0.11529 0.37562
# Poissons Ratio (z) = 0.24533 0.50111
#
# Static dielectric constant tensor:
#      x y z
#    x 3.223790 0.000000 0.000000 
#    y 0.000000 3.662520 0.000000 
#    z 0.000000 0.000000 3.760180 
# 
# 
# High freq. dielectric constant tensor:
#      x y z
#    x 1.712490 0.000000 0.000000 
#    y 0.000000 1.752940 0.000000 
#    z 0.000000 0.000000 1.735770 
# 
# From -- ./inp_files/17951.got.cif
#   From: 2010.03.12/outbox.cif.g09.slc.cpg/sg35_9_cif.got.tgz:17951.got - 2010.04.14 02:02:04.
