data_PCOD8173125
_publ_section_title
;
Structure prediction by ZEFSAII (Michael W. Deem and Ramdas Pophale) SiO2 
 PCOD8173125
Probable space group: C M M 2
;
_chemical_formula_sum "Si O2"
_cell_formula_units_Z 64
_cell_length_a 8.840203
_cell_length_b 28.506638
_cell_length_c 12.873969
_cell_angle_alpha 90.000000
_cell_angle_beta 90.000000
_cell_angle_gamma 90.000000
_cell_volume 3244.297693
_symmetry_space_group_name_H-M "C M M 2"
_symmetry_group_IT_number 35
_symmetry_cell_setting 'orthorhombic'
loop_
_space_group_symop_operation_xyz
x,y,z
-x,-y,z
-x,y,z
x,-y,z
1/2+x,1/2+y,z
1/2-x,1/2-y,z
1/2-x,1/2+y,z
1/2+x,1/2-y,z
loop_
_atom_site_type_symbol
_atom_site_label
_atom_site_fract_x
_atom_site_fract_y
_atom_site_fract_z
Si Si1 0.163782 0.444876 0.490650
Si Si2 0.821776 0.140644 0.794279
Si Si3 0.175255 0.700523 0.385674
Si Si4 0.319546 0.052814 0.714341
Si Si5 0.679424 0.300828 0.594744
Si Si6 0.674172 0.145884 0.175730
Si Si7 0.322149 0.699152 0.990980
Si Si8 0.180232 0.551747 0.267688
O O1 0.135646 0.500000 0.495892
O O2 0.246796 0.431917 0.599624
O O3 0.250519 0.434101 0.381653
O O4 0.000000 0.419116 0.488553
O O5 0.747318 0.089031 0.798080
O O6 0.769552 0.166909 0.690115
O O7 0.761074 0.170051 0.892477
O O8 0.000000 0.134584 0.800634
O O9 0.250000 0.750000 0.357665
O O10 0.254091 0.677659 0.487533
O O11 0.200357 0.666294 0.289813
O O12 0.000000 0.709102 0.409973
O O13 0.500000 0.055609 0.712899
O O14 0.267495 0.000000 0.744189
O O15 0.500000 0.296624 0.587208
O O16 0.750000 0.250000 0.613285
O O17 0.500000 0.151800 0.140807
O O18 0.723091 0.090901 0.182214
O O19 0.781336 0.171516 0.095115
O O20 0.500000 0.705923 0.985610
O O21 0.250000 0.750000 0.991682
O O22 0.238181 0.500000 0.231873
O O23 0.000000 0.550642 0.282415
#
# Coordination Sequence:
#
# PCOD8173125 Si02
#       8
#     8   8   8   8   8   8   8   8
#     4   7  11  22  43  73 108 143 178 218 262 306
#     4  10  23  39  56  81 111 147 187 228 283 341
#     4  10  20  33  51  78 111 144 178 221 278 342
#     4   9  18  32  54  85 116 148 190 234 271 317
#     4  10  20  35  54  78 109 142 180 226 279 340
#     4  10  21  35  56  86 114 144 187 230 278 333
#     4  11  24  43  64  83 107 141 186 237 288 337
#     4   8  14  27  49  78 113 149 184 224 268 317
#
# _framework density 19.726918000000001
#
# number of rings (size 3 to 8) (size 9 to 14) (size 15 to 20)
#    0.000    2.625    0.000    4.125    1.750    4.250 
#    0.000    0.625    0.000    2.625    0.000    0.000 
#    0.000    0.000    0.000    0.000    0.000    0.000 
#
# Total GULP energy -396562.075796 kJ/mol
# GULP energy per Si atom -12392.564869 kJ/mol
# Density = 1.968202 g / cm^3
# Si number density = 19.726918 Si / 1000 Ang^3
#
#
#
# Elastic Constant Matrix: (Units=GPa)
#
#
# Indices 1 2 3 4 5 6 
#
# 1 50.4700 33.4631 32.9560 0.0000 0.0000 0.0000
# 2 33.4631 126.8466 70.0880 0.0000 0.0000 0.0000
# 3 32.9560 70.0880 99.0557 0.0000 0.0000 0.0000
# 4 0.0000 0.0000 0.0000 33.7739 0.0000 0.0000
# 5 0.0000 0.0000 0.0000 0.0000 19.8275 0.0000
# 6 0.0000 0.0000 0.0000 0.0000 0.0000 18.5348
#
#
#
# Elastic Compliance Matrix: (Units=1/GPa)
#
#
# Indices 1 2 3 4 5 6 
#
# 1 0.026196 -0.003440 -0.006282 0.000000 0.000000 0.000000
# 2 -0.003440 0.013396 -0.008334 0.000000 0.000000 0.000000
# 3 -0.006282 -0.008334 0.018082 0.000000 0.000000 0.000000
# 4 0.000000 0.000000 0.000000 0.029609 0.000000 0.000000
# 5 0.000000 0.000000 0.000000 0.000000 0.050435 0.000000
# 6 0.000000 0.000000 0.000000 0.000000 0.000000 0.053952
#
#
# Mechanical properties :
#
#
# Convention : Reuss Voigt Hill
#
# Bulk Modulus (GPa) = 46.37519 61.04292 53.70905
# Shear Modulus (GPa) = 21.27942 23.75160 22.51551
#
# Velocity S-wave (km/s) = 3.28792 3.47366 3.38207
# Velocity P-wave (km/s) = 6.16226 6.86291 6.52201
#
# Compressibility (1/GPa) = 0.02156325
#
# Stress axis : x y z
#
# Youngs Moduli (GPa) = 38.17337 74.64995 55.30370
#
# Poissons Ratio (x) = 0.25679 0.34739
# Poissons Ratio (y) = 0.13131 0.46090
# Poissons Ratio (z) = 0.23979 0.62213
#
# Static dielectric constant tensor:
#      x y z
#    x 3.270040 0.000000 0.000000 
#    y 0.000000 3.746490 0.000000 
#    z 0.000000 0.000000 3.721720 
# 
# 
# High freq. dielectric constant tensor:
#      x y z
#    x 1.733460 0.000000 0.000000 
#    y 0.000000 1.778090 0.000000 
#    z 0.000000 0.000000 1.761150 
# 
# From -- ./inp_files/11914.got.cif
#   From: 2010.03.12/outbox.cif.g09.slc.cpg/sg35_6_cif.got.tgz:11914.got - 2010.04.14 02:02:04.
