data_PCOD8173183
_publ_section_title
;
Structure prediction by ZEFSAII (Michael W. Deem and Ramdas Pophale) SiO2 
 PCOD8173183
Probable space group: C M M 2
;
_chemical_formula_sum "Si O2"
_cell_formula_units_Z 40
_cell_length_a 19.654890
_cell_length_b 9.385527
_cell_length_c 12.523771
_cell_angle_alpha 90.000000
_cell_angle_beta 90.000000
_cell_angle_gamma 90.000000
_cell_volume 2310.278832
_symmetry_space_group_name_H-M "C M M 2"
_symmetry_group_IT_number 35
_symmetry_cell_setting 'orthorhombic'
loop_
_space_group_symop_operation_xyz
x,y,z
-x,-y,z
-x,y,z
x,-y,z
1/2+x,1/2+y,z
1/2-x,1/2-y,z
1/2-x,1/2+y,z
1/2+x,1/2-y,z
loop_
_atom_site_type_symbol
_atom_site_label
_atom_site_fract_x
_atom_site_fract_y
_atom_site_fract_z
Si Si1 0.419193 0.157511 0.462230
Si Si2 0.684147 0.335284 0.089831
Si Si3 0.577259 0.666897 0.263710
Si Si4 0.079651 0.665582 0.700529
Si Si5 0.318005 0.667498 0.843542
O O1 0.500000 0.155984 0.462772
O O2 0.391665 0.262864 0.370901
O O3 0.395386 0.204375 0.580477
O O4 0.391126 0.000000 0.436392
O O5 0.700620 0.500000 0.107841
O O6 0.750000 0.250000 0.127921
O O7 0.620541 0.285142 0.161221
O O8 0.666013 0.303072 0.967445
O O9 0.500000 0.717800 0.242796
O O10 0.580785 0.500000 0.282601
O O11 0.095551 0.500000 0.725590
O O12 0.118600 0.769786 0.779914
O O13 0.000000 0.696317 0.714798
O O14 0.309272 0.500000 0.819570
O O15 0.250000 0.750000 0.808001
#
# Coordination Sequence:
#
# PCOD8173183 Si02
#       5
#     8   8   8   8   8
#     4   8  15  29  48  70  97 127 156 190 236 284
#     4   9  19  34  50  69  95 127 159 195 240 285
#     4   9  17  30  49  72  97 124 156 195 236 279
#     4   9  18  33  52  74 101 130 161 201 245 287
#     4  10  20  34  52  72  97 130 166 203 244 292
#
# _framework density 17.313925999999999
#
# number of rings (size 3 to 8) (size 9 to 14) (size 15 to 20)
#    0.000    3.000    0.000    1.800    0.000    3.600 
#    0.000    5.000    0.000    4.800    0.000    0.000 
#    0.000    0.000    0.000    0.000    0.000    0.000 
#
# Total GULP energy -247955.098621 kJ/mol
# GULP energy per Si atom -12397.754931 kJ/mol
# Density = 1.727452 g / cm^3
# Si number density = 17.313926 Si / 1000 Ang^3
#
#
#
# Elastic Constant Matrix: (Units=GPa)
#
#
# Indices 1 2 3 4 5 6 
#
# 1 79.8486 52.5734 62.6185 0.0000 0.0000 0.0000
# 2 52.5734 75.2487 59.4297 0.0000 0.0000 0.0000
# 3 62.6185 59.4297 108.5663 0.0000 0.0000 0.0000
# 4 0.0000 0.0000 0.0000 32.5532 0.0000 0.0000
# 5 0.0000 0.0000 0.0000 0.0000 9.2070 0.0000
# 6 0.0000 0.0000 0.0000 0.0000 0.0000 28.6439
#
#
#
# Elastic Compliance Matrix: (Units=1/GPa)
#
#
# Indices 1 2 3 4 5 6 
#
# 1 0.027859 -0.011932 -0.009537 0.000000 0.000000 0.000000
# 2 -0.011932 0.028521 -0.008730 0.000000 0.000000 0.000000
# 3 -0.009537 -0.008730 0.019490 0.000000 0.000000 0.000000
# 4 0.000000 0.000000 0.000000 0.030719 0.000000 0.000000
# 5 0.000000 0.000000 0.000000 0.000000 0.108613 0.000000
# 6 0.000000 0.000000 0.000000 0.000000 0.000000 0.034911
#
#
# Mechanical properties :
#
#
# Convention : Reuss Voigt Hill
#
# Bulk Modulus (GPa) = 64.63264 68.10077 66.36670
# Shear Modulus (GPa) = 15.83940 20.01695 17.92818
#
# Velocity S-wave (km/s) = 3.02791 3.40386 3.22137
# Velocity P-wave (km/s) = 7.04522 7.40721 7.22848
#
# Compressibility (1/GPa) = 0.01547206
#
# Stress axis : x y z
#
# Youngs Moduli (GPa) = 35.89553 35.06231 51.30731
#
# Poissons Ratio (x) = 0.41836 0.48930
# Poissons Ratio (y) = 0.42831 0.44793
# Poissons Ratio (z) = 0.34232 0.30610
#
# Static dielectric constant tensor:
#      x y z
#    x 3.066870 0.000000 0.000000 
#    y 0.000000 3.286490 0.000000 
#    z 0.000000 0.000000 3.404800 
# 
# 
# High freq. dielectric constant tensor:
#      x y z
#    x 1.645840 0.000000 0.000000 
#    y 0.000000 1.669110 0.000000 
#    z 0.000000 0.000000 1.674040 
# 
# From -- ./inp_files/5884.got.cif
#   From: 2010.03.12/outbox.cif.g09.slc.cpg/sg35_3_cif.got.tgz:5884.got - 2010.04.14 02:02:04.
