data_PCOD8173908
_publ_section_title
;
Structure prediction by ZEFSAII (Michael W. Deem and Ramdas Pophale) SiO2 
 PCOD8173908
Probable space group: C M M 2
;
_chemical_formula_sum "Si O2"
_cell_formula_units_Z 40
_cell_length_a 18.011352
_cell_length_b 8.744157
_cell_length_c 12.723954
_cell_angle_alpha 90.000000
_cell_angle_beta 90.000000
_cell_angle_gamma 90.000000
_cell_volume 2003.947552
_symmetry_space_group_name_H-M "C M M 2"
_symmetry_group_IT_number 35
_symmetry_cell_setting 'orthorhombic'
loop_
_space_group_symop_operation_xyz
x,y,z
-x,-y,z
-x,y,z
x,-y,z
1/2+x,1/2+y,z
1/2-x,1/2-y,z
1/2-x,1/2+y,z
1/2+x,1/2-y,z
loop_
_atom_site_type_symbol
_atom_site_label
_atom_site_fract_x
_atom_site_fract_y
_atom_site_fract_z
Si Si1 0.085693 0.321768 0.391790
Si Si2 0.330362 0.680268 0.580923
Si Si3 0.330544 0.319352 0.965707
Si Si4 0.085220 0.176708 0.173751
Si Si5 0.912245 0.673897 0.772872
O O1 0.100082 0.500000 0.410804
O O2 0.138154 0.225994 0.467725
O O3 0.107737 0.279302 0.273081
O O4 0.000000 0.278282 0.413201
O O5 0.324168 0.500000 0.588550
O O6 0.250000 0.750000 0.599830
O O7 0.385406 0.740662 0.669324
O O8 0.326264 0.500000 0.955649
O O9 0.250000 0.250000 0.951044
O O10 0.383682 0.257496 0.875902
O O11 0.363695 0.269001 0.077709
O O12 0.000000 0.204745 0.141322
O O13 0.098813 0.000000 0.202485
O O14 0.883019 0.500000 0.771140
O O15 0.000000 0.680189 0.773799
#
# Coordination Sequence:
#
# PCOD8173908 Si02
#       5
#     8   8   8   8   8
#     4  10  21  38  61  89 121 156 196 242 291 346
#     4  12  25  41  62  87 119 156 195 241 293 349
#     4  11  23  39  60  87 121 158 197 242 292 347
#     4   9  19  37  60  85 115 155 202 247 291 343
#     4  11  24  42  64  89 118 152 193 241 292 349
#
# _framework density 19.960602999999999
#
# number of rings (size 3 to 8) (size 9 to 14) (size 15 to 20)
#    0.000    1.400    0.000    5.400    0.000    8.400 
#    0.000    4.000    0.000    0.000    0.000    0.000 
#    0.000    0.000    0.000    0.000    0.000    0.000 
#
# Total GULP energy -248133.226637 kJ/mol
# GULP energy per Si atom -12406.661332 kJ/mol
# Density = 1.991517 g / cm^3
# Si number density = 19.960603 Si / 1000 Ang^3
#
#
#
# Elastic Constant Matrix: (Units=GPa)
#
#
# Indices 1 2 3 4 5 6 
#
# 1 76.0298 37.8445 42.8533 0.0000 0.0000 0.0000
# 2 37.8445 105.1360 53.9612 0.0000 0.0000 0.0000
# 3 42.8533 53.9612 114.2535 0.0000 0.0000 0.0000
# 4 0.0000 0.0000 0.0000 38.3794 0.0000 0.0000
# 5 0.0000 0.0000 0.0000 0.0000 1.8996 0.0000
# 6 0.0000 0.0000 0.0000 0.0000 0.0000 7.8089
#
#
#
# Elastic Compliance Matrix: (Units=1/GPa)
#
#
# Indices 1 2 3 4 5 6 
#
# 1 0.017836 -0.003942 -0.004828 0.000000 0.000000 0.000000
# 2 -0.003942 0.013426 -0.004862 0.000000 0.000000 0.000000
# 3 -0.004828 -0.004862 0.012860 0.000000 0.000000 0.000000
# 4 0.000000 0.000000 0.000000 0.026056 0.000000 0.000000
# 5 0.000000 0.000000 0.000000 0.000000 0.526415 0.000000
# 6 0.000000 0.000000 0.000000 0.000000 0.000000 0.128059
#
#
# Mechanical properties :
#
#
# Convention : Reuss Voigt Hill
#
# Bulk Modulus (GPa) = 59.32322 62.74859 61.03591
# Shear Modulus (GPa) = 6.60035 20.33495 13.46765
#
# Velocity S-wave (km/s) = 1.82040 3.19526 2.60034
# Velocity P-wave (km/s) = 5.84835 6.71694 6.29764
#
# Compressibility (1/GPa) = 0.01685681
#
# Stress axis : x y z
#
# Youngs Moduli (GPa) = 56.06548 74.48105 77.76172
#
# Poissons Ratio (x) = 0.29363 0.37543
# Poissons Ratio (y) = 0.22103 0.37811
# Poissons Ratio (z) = 0.27068 0.36216
#
# Static dielectric constant tensor:
#      x y z
#    x 3.665960 0.000000 0.000000 
#    y 0.000000 3.791830 0.000000 
#    z 0.000000 0.000000 3.762170 
# 
# 
# High freq. dielectric constant tensor:
#      x y z
#    x 1.784100 0.000000 0.000000 
#    y 0.000000 1.790660 0.000000 
#    z 0.000000 0.000000 1.793720 
# 
# From -- ./inp_files/10998.got.cif
#   From: 2010.03.12/outbox.cif.g09.slc.cpg/sg35_6_cif.got.tgz:10998.got - 2010.04.14 02:02:04.
