data_PCOD8173490
_publ_section_title
;
Structure prediction by ZEFSAII (Michael W. Deem and Ramdas Pophale) SiO2 
 PCOD8173490
Probable space group: C M M 2
;
_chemical_formula_sum "Si O2"
_cell_formula_units_Z 56
_cell_length_a 21.706954
_cell_length_b 8.665633
_cell_length_c 14.506242
_cell_angle_alpha 90.000000
_cell_angle_beta 90.000000
_cell_angle_gamma 90.000000
_cell_volume 2728.689353
_symmetry_space_group_name_H-M "C M M 2"
_symmetry_group_IT_number 35
_symmetry_cell_setting 'orthorhombic'
loop_
_space_group_symop_operation_xyz
x,y,z
-x,-y,z
-x,y,z
x,-y,z
1/2+x,1/2+y,z
1/2-x,1/2-y,z
1/2-x,1/2+y,z
1/2+x,1/2-y,z
loop_
_atom_site_type_symbol
_atom_site_label
_atom_site_fract_x
_atom_site_fract_y
_atom_site_fract_z
Si Si1 0.684711 0.178756 0.027960
Si Si2 0.124217 0.678666 0.840375
Si Si3 0.000000 0.176906 0.839712
Si Si4 0.070602 0.822501 0.338584
Si Si5 0.885642 0.681599 0.519406
Si Si6 0.000000 0.177653 0.621292
Si Si7 0.187071 0.181164 0.672693
Si Si8 0.930975 0.317713 0.143048
O O1 0.750000 0.250000 0.059302
O O2 0.624937 0.250885 0.080881
O O3 0.688448 0.000000 0.052566
O O4 0.675365 0.206154 0.918952
O O5 0.121281 0.500000 0.811180
O O6 0.058899 0.734355 0.881176
O O7 0.136802 0.782228 0.750699
O O8 0.000000 0.191528 0.730130
O O9 0.000000 0.000000 0.872548
O O10 0.114262 0.761155 0.419702
O O11 0.084644 0.725033 0.247833
O O12 0.000000 0.800018 0.370875
O O13 0.085601 0.000000 0.317961
O O14 0.887096 0.500000 0.505303
O O15 0.825246 0.734740 0.575175
O O16 0.941183 0.736784 0.582505
O O17 0.000000 0.000000 0.588132
O O18 0.250000 0.250000 0.712463
O O19 0.189704 0.000000 0.656145
O O20 0.932702 0.500000 0.132113
O O21 0.000000 0.252185 0.116797
#
# Coordination Sequence:
#
# PCOD8173490 Si02
#       8
#     8   8   4   8   8   4   8   8
#     4  10  23  41  64  91 120 160 203 254 308 366
#     4  11  23  39  62  89 120 160 204 248 303 364
#     4  11  23  37  57  88 124 161 198 250 309 355
#     4  10  20  35  58  88 123 155 191 243 305 361
#     4  12  23  36  59  88 118 157 200 241 293 353
#     4  11  21  35  55  84 120 155 192 240 293 343
#     4  12  25  42  60  82 117 159 205 253 300 353
#     4   9  19  38  63  89 120 155 200 251 307 370
#
# _framework density 20.522673000000001
#
# number of rings (size 3 to 8) (size 9 to 14) (size 15 to 20)
#    0.000    1.286    2.143    4.286    1.000    4.000 
#    0.000    0.714    0.000    1.714    0.000    0.000 
#    0.000    0.000    0.000    0.000    0.000    0.000 
#
# Total GULP energy -347235.715395 kJ/mol
# GULP energy per Si atom -12401.275550 kJ/mol
# Density = 2.047596 g / cm^3
# Si number density = 20.522673 Si / 1000 Ang^3
#
#
#
# Elastic Constant Matrix: (Units=GPa)
#
#
# Indices 1 2 3 4 5 6 
#
# 1 117.4956 26.5986 38.5454 0.0000 0.0000 0.0000
# 2 26.5986 67.6380 16.1231 0.0000 0.0000 0.0000
# 3 38.5454 16.1231 74.6270 0.0000 0.0000 0.0000
# 4 0.0000 0.0000 0.0000 23.9707 0.0000 0.0000
# 5 0.0000 0.0000 0.0000 0.0000 23.9387 0.0000
# 6 0.0000 0.0000 0.0000 0.0000 0.0000 33.6754
#
#
#
# Elastic Compliance Matrix: (Units=1/GPa)
#
#
# Indices 1 2 3 4 5 6 
#
# 1 0.010824 -0.003083 -0.004925 0.000000 0.000000 0.000000
# 2 -0.003083 0.016465 -0.001965 0.000000 0.000000 0.000000
# 3 -0.004925 -0.001965 0.016368 0.000000 0.000000 0.000000
# 4 0.000000 0.000000 0.000000 0.041718 0.000000 0.000000
# 5 0.000000 0.000000 0.000000 0.000000 0.041773 0.000000
# 6 0.000000 0.000000 0.000000 0.000000 0.000000 0.029695
#
#
# Mechanical properties :
#
#
# Convention : Reuss Voigt Hill
#
# Bulk Modulus (GPa) = 42.17158 46.92163 44.54661
# Shear Modulus (GPa) = 27.07182 28.21653 27.64417
#
# Velocity S-wave (km/s) = 3.63591 3.71198 3.67414
# Velocity P-wave (km/s) = 6.18222 6.42532 6.30494
#
# Compressibility (1/GPa) = 0.02371265
#
# Stress axis : x y z
#
# Youngs Moduli (GPa) = 92.38312 60.73387 61.09379
#
# Poissons Ratio (x) = 0.18723 0.30088
# Poissons Ratio (y) = 0.28479 0.12005
# Poissons Ratio (z) = 0.45498 0.11934
#
# Static dielectric constant tensor:
#      x y z
#    x 3.945000 0.000000 0.000000 
#    y 0.000000 3.643110 0.000000 
#    z 0.000000 0.000000 3.600620 
# 
# 
# High freq. dielectric constant tensor:
#      x y z
#    x 1.798860 0.000000 0.000000 
#    y 0.000000 1.802620 0.000000 
#    z 0.000000 0.000000 1.798800 
# 
# From -- ./inp_files/17465.got.cif
#   From: 2010.03.12/outbox.cif.g09.slc.cpg/sg35_9_cif.got.tgz:17465.got - 2010.04.14 02:02:04.
