data_PCOD8173616
_publ_section_title
;
Structure prediction by ZEFSAII (Michael W. Deem and Ramdas Pophale) SiO2 
 PCOD8173616
Probable space group: C M M 2
;
_chemical_formula_sum "Si O2"
_cell_formula_units_Z 48
_cell_length_a 9.072125
_cell_length_b 16.242122
_cell_length_c 17.023163
_cell_angle_alpha 90.000000
_cell_angle_beta 90.000000
_cell_angle_gamma 90.000000
_cell_volume 2508.372619
_symmetry_space_group_name_H-M "C M M 2"
_symmetry_group_IT_number 35
_symmetry_cell_setting 'orthorhombic'
loop_
_space_group_symop_operation_xyz
x,y,z
-x,-y,z
-x,y,z
x,-y,z
1/2+x,1/2+y,z
1/2-x,1/2-y,z
1/2-x,1/2+y,z
1/2+x,1/2-y,z
loop_
_atom_site_type_symbol
_atom_site_label
_atom_site_fract_x
_atom_site_fract_y
_atom_site_fract_z
Si Si1 0.175932 0.500000 0.256220
Si Si2 0.664840 0.409460 0.381457
Si Si3 0.173195 0.094019 0.832771
Si Si4 0.173223 0.165666 0.995517
Si Si5 0.825738 0.331993 0.524044
Si Si6 0.673357 0.500000 0.090619
Si Si7 0.161184 0.595322 0.683600
O O1 0.243705 0.581534 0.299569
O O2 0.226680 0.500000 0.167318
O O3 0.000000 0.500000 0.262909
O O4 0.500000 0.373401 0.365706
O O5 0.651341 0.500000 0.420265
O O6 0.754237 0.353342 0.440876
O O7 0.225882 0.148916 0.906259
O O8 0.237255 0.133389 0.752168
O O9 0.000000 0.096315 0.824763
O O10 0.225709 0.000000 0.846918
O O11 0.250000 0.250000 0.026528
O O12 0.000000 0.180458 0.000856
O O13 0.215822 0.083630 0.044427
O O14 0.750000 0.250000 0.554452
O O15 0.782212 0.394076 0.594260
O O16 0.000000 0.324373 0.511157
O O17 0.500000 0.500000 0.111552
O O18 0.151839 0.500000 0.700878
O O19 0.000000 0.637012 0.690614
#
# Coordination Sequence:
#
# PCOD8173616 Si02
#       7
#     4   8   8   8   8   4   8
#     4  10  20  36  62  91 114 141 180 227 282 339
#     4   9  19  36  59  84 108 138 182 224 273 339
#     4   9  17  33  55  78 106 147 194 238 286 343
#     4  10  21  37  59  86 118 155 196 241 295 350
#     4  11  22  35  52  76 112 152 191 238 291 340
#     4  10  20  40  64  85 118 157 192 237 290 357
#     4   9  19  34  52  76 106 145 191 239 288 334
#
# _framework density 19.135914
#
# number of rings (size 3 to 8) (size 9 to 14) (size 15 to 20)
#    0.500    1.833    0.833    2.000    0.000    4.000 
#    0.000    5.833    0.000    2.000    0.000    0.000 
#    0.000    0.000    0.000    0.000    0.000    0.000 
#
# Total GULP energy -297352.883203 kJ/mol
# GULP energy per Si atom -12389.703467 kJ/mol
# Density = 1.909236 g / cm^3
# Si number density = 19.135914 Si / 1000 Ang^3
#
#
#
# Elastic Constant Matrix: (Units=GPa)
#
#
# Indices 1 2 3 4 5 6 
#
# 1 103.8830 38.3610 65.4883 0.0000 0.0000 0.0000
# 2 38.3610 77.6118 38.7264 0.0000 0.0000 0.0000
# 3 65.4883 38.7264 135.2167 0.0000 0.0000 0.0000
# 4 0.0000 0.0000 0.0000 13.6180 0.0000 0.0000
# 5 0.0000 0.0000 0.0000 0.0000 35.7057 0.0000
# 6 0.0000 0.0000 0.0000 0.0000 0.0000 27.7630
#
#
#
# Elastic Compliance Matrix: (Units=1/GPa)
#
#
# Indices 1 2 3 4 5 6 
#
# 1 0.015063 -0.004439 -0.006024 0.000000 0.000000 0.000000
# 2 -0.004439 0.016341 -0.002530 0.000000 0.000000 0.000000
# 3 -0.006024 -0.002530 0.011038 0.000000 0.000000 0.000000
# 4 0.000000 0.000000 0.000000 0.073432 0.000000 0.000000
# 5 0.000000 0.000000 0.000000 0.000000 0.028007 0.000000
# 6 0.000000 0.000000 0.000000 0.000000 0.000000 0.036019
#
#
# Mechanical properties :
#
#
# Convention : Reuss Voigt Hill
#
# Bulk Modulus (GPa) = 60.77088 66.87368 63.82228
# Shear Modulus (GPa) = 23.65499 27.02640 25.34069
#
# Velocity S-wave (km/s) = 3.51972 3.76219 3.64297
# Velocity P-wave (km/s) = 6.95301 7.34130 7.14979
#
# Compressibility (1/GPa) = 0.01645525
#
# Stress axis : x y z
#
# Youngs Moduli (GPa) = 66.38764 61.19448 90.59885
#
# Poissons Ratio (x) = 0.27167 0.54576
# Poissons Ratio (y) = 0.29472 0.22923
# Poissons Ratio (z) = 0.39991 0.15483
#
# Static dielectric constant tensor:
#      x y z
#    x 3.546840 0.000000 0.000000 
#    y 0.000000 3.174770 0.000000 
#    z 0.000000 0.000000 3.449570 
# 
# 
# High freq. dielectric constant tensor:
#      x y z
#    x 1.742850 0.000000 0.000000 
#    y 0.000000 1.722660 0.000000 
#    z 0.000000 0.000000 1.743050 
# 
# From -- ./inp_files/17889.got.cif
#   From: 2010.03.12/outbox.cif.g09.slc.cpg/sg35_9_cif.got.tgz:17889.got - 2010.04.14 02:02:04.
