data_PCOD8173911
_publ_section_title
;
Structure prediction by ZEFSAII (Michael W. Deem and Ramdas Pophale) SiO2 
 PCOD8173911
Probable space group: C M M 2
;
_chemical_formula_sum "Si O2"
_cell_formula_units_Z 56
_cell_length_a 8.892188
_cell_length_b 21.658426
_cell_length_c 14.644236
_cell_angle_alpha 90.000000
_cell_angle_beta 90.000000
_cell_angle_gamma 90.000000
_cell_volume 2820.345065
_symmetry_space_group_name_H-M "C M M 2"
_symmetry_group_IT_number 35
_symmetry_cell_setting 'orthorhombic'
loop_
_space_group_symop_operation_xyz
x,y,z
-x,-y,z
-x,y,z
x,-y,z
1/2+x,1/2+y,z
1/2-x,1/2-y,z
1/2-x,1/2+y,z
1/2+x,1/2-y,z
loop_
_atom_site_type_symbol
_atom_site_label
_atom_site_fract_x
_atom_site_fract_y
_atom_site_fract_z
Si Si1 0.678190 0.500000 0.144331
Si Si2 0.322316 0.114480 0.044617
Si Si3 0.171312 0.117658 0.372778
Si Si4 0.178722 0.931147 0.665961
Si Si5 0.325052 0.314557 0.550257
Si Si6 0.674432 0.000000 0.338147
Si Si7 0.825682 0.810737 0.191116
Si Si8 0.173150 0.071367 0.872730
O O1 0.500000 0.500000 0.135272
O O2 0.742899 0.558971 0.095371
O O3 0.722149 0.500000 0.249320
O O4 0.500000 0.109748 0.052642
O O5 0.262024 0.174704 0.097081
O O6 0.273182 0.114500 0.938688
O O7 0.206927 0.173212 0.443001
O O8 0.197032 0.137444 0.268298
O O9 0.000000 0.095720 0.388285
O O10 0.282199 0.060846 0.395743
O O11 0.241084 0.874513 0.604568
O O12 0.230205 0.918079 0.769780
O O13 0.000000 0.933067 0.661001
O O14 0.238271 0.000000 0.635642
O O15 0.500000 0.307389 0.572127
O O16 0.250000 0.250000 0.580203
O O17 0.500000 0.000000 0.312455
O O18 0.750000 0.750000 0.232561
O O19 0.000000 0.800422 0.169320
O O20 0.000000 0.091036 0.883280
O O21 0.194164 0.000000 0.901085
#
# Coordination Sequence:
#
# PCOD8173911 Si02
#       8
#     4   8   8   8   8   4   8   8
#     4  12  22  36  56  81 114 151 188 229 282 338
#     4  12  23  35  55  85 117 150 190 237 285 343
#     4  10  22  38  59  84 116 157 195 236 291 352
#     4   8  16  33  59  89 115 148 199 248 295 354
#     4  10  21  38  62  89 117 155 200 247 296 356
#     4  12  24  36  56  87 120 153 192 243 294 342
#     4  11  23  39  57  78 111 155 200 243 287 342
#     4   9  17  32  56  83 113 149 190 240 294 349
#
# _framework density 19.855727999999999
#
# number of rings (size 3 to 8) (size 9 to 14) (size 15 to 20)
#    0.000    1.714    2.143    4.286    1.000    1.143 
#    0.000    1.429    0.000    2.571    0.000    0.000 
#    0.000    0.000    0.000    0.000    0.000    0.000 
#
# Total GULP energy -347139.720571 kJ/mol
# GULP energy per Si atom -12397.847163 kJ/mol
# Density = 1.981054 g / cm^3
# Si number density = 19.855728 Si / 1000 Ang^3
#
#
#
# Elastic Constant Matrix: (Units=GPa)
#
#
# Indices 1 2 3 4 5 6 
#
# 1 112.0674 48.4011 35.4592 0.0000 0.0000 0.0000
# 2 48.4011 119.1679 41.7080 0.0000 0.0000 0.0000
# 3 35.4592 41.7080 93.2683 0.0000 0.0000 0.0000
# 4 0.0000 0.0000 0.0000 26.8967 0.0000 0.0000
# 5 0.0000 0.0000 0.0000 0.0000 16.9636 0.0000
# 6 0.0000 0.0000 0.0000 0.0000 0.0000 33.2877
#
#
#
# Elastic Compliance Matrix: (Units=1/GPa)
#
#
# Indices 1 2 3 4 5 6 
#
# 1 0.011357 -0.003677 -0.002673 0.000000 0.000000 0.000000
# 2 -0.003677 0.011139 -0.003583 0.000000 0.000000 0.000000
# 3 -0.002673 -0.003583 0.013341 0.000000 0.000000 0.000000
# 4 0.000000 0.000000 0.000000 0.037179 0.000000 0.000000
# 5 0.000000 0.000000 0.000000 0.000000 0.058950 0.000000
# 6 0.000000 0.000000 0.000000 0.000000 0.000000 0.030041
#
#
# Mechanical properties :
#
#
# Convention : Reuss Voigt Hill
#
# Bulk Modulus (GPa) = 62.62067 63.96003 63.29035
# Shear Modulus (GPa) = 26.70969 28.69195 27.70082
#
# Velocity S-wave (km/s) = 3.67166 3.80547 3.73916
# Velocity P-wave (km/s) = 7.04138 7.18269 7.11239
#
# Compressibility (1/GPa) = 0.01596917
#
# Stress axis : x y z
#
# Youngs Moduli (GPa) = 88.04950 89.77354 74.95948
#
# Poissons Ratio (x) = 0.33011 0.20040
# Poissons Ratio (y) = 0.32377 0.26860
# Poissons Ratio (z) = 0.23540 0.32168
#
# Static dielectric constant tensor:
#      x y z
#    x 3.357920 0.000000 0.000000 
#    y 0.000000 3.739020 0.000000 
#    z 0.000000 0.000000 3.741000 
# 
# 
# High freq. dielectric constant tensor:
#      x y z
#    x 1.753500 0.000000 0.000000 
#    y 0.000000 1.768400 0.000000 
#    z 0.000000 0.000000 1.774190 
# 
# From -- ./inp_files/15715.got.cif
#   From: 2010.03.12/outbox.cif.g09.slc.cpg/sg35_8_cif.got.tgz:15715.got - 2010.04.14 02:02:04.
