data_PCOD8173686
_publ_section_title
;
Structure prediction by ZEFSAII (Michael W. Deem and Ramdas Pophale) SiO2 
 PCOD8173686
Probable space group: C M M 2
;
_chemical_formula_sum "Si O2"
_cell_formula_units_Z 40
_cell_length_a 7.649430
_cell_length_b 15.675165
_cell_length_c 16.218652
_cell_angle_alpha 90.000000
_cell_angle_beta 90.000000
_cell_angle_gamma 90.000000
_cell_volume 1944.714942
_symmetry_space_group_name_H-M "C M M 2"
_symmetry_group_IT_number 35
_symmetry_cell_setting 'orthorhombic'
loop_
_space_group_symop_operation_xyz
x,y,z
-x,-y,z
-x,y,z
x,-y,z
1/2+x,1/2+y,z
1/2-x,1/2-y,z
1/2-x,1/2+y,z
1/2+x,1/2-y,z
loop_
_atom_site_type_symbol
_atom_site_label
_atom_site_fract_x
_atom_site_fract_y
_atom_site_fract_z
Si Si1 0.803429 0.346507 0.498140
Si Si2 0.500000 0.601902 0.788712
Si Si3 0.702755 0.000000 0.025681
Si Si4 0.794763 0.845586 0.315746
Si Si5 0.197681 0.000000 0.210432
Si Si6 0.705012 0.155722 0.909040
Si Si7 0.500000 0.406578 0.608895
O O1 0.750000 0.250000 0.510486
O O2 0.794025 0.370603 0.402131
O O3 0.672673 0.399195 0.554143
O O4 0.000000 0.362654 0.529701
O O5 0.500000 0.500000 0.797122
O O6 0.323424 0.638911 0.829260
O O7 0.500000 0.643543 0.696074
O O8 0.798877 0.000000 0.112526
O O9 0.500000 0.000000 0.045294
O O10 0.757605 0.085350 0.977134
O O11 0.750000 0.750000 0.286013
O O12 0.000000 0.851580 0.329278
O O13 0.719720 0.913055 0.248494
O O14 0.000000 0.000000 0.240704
O O15 0.500000 0.147567 0.885651
O O16 0.750000 0.250000 0.944294
O O17 0.500000 0.500000 0.645351
#
# Coordination Sequence:
#
# PCOD8173686 Si02
#       7
#     8   4   4   8   4   8   4
#     4  11  21  40  65  89 125 176 212 260 318 371
#     4  11  24  44  68  91 131 174 199 270 330 368
#     4  10  24  42  64  92 131 158 208 272 309 379
#     4  10  20  38  60  88 126 167 215 262 309 375
#     4  10  24  38  62  92 121 170 206 257 322 370
#     4  11  23  42  68  99 125 169 217 254 317 394
#     4  11  26  42  62  96 132 159 214 274 312 371
#
# _framework density 20.568569
#
# number of rings (size 3 to 8) (size 9 to 14) (size 15 to 20)
#    0.000    1.400    4.000    1.800    2.800    4.400 
#    0.000    6.000    0.000    0.000    0.000    0.000 
#    0.000    0.000    0.000    0.000    0.000    0.000 
#
# Total GULP energy -247924.573214 kJ/mol
# GULP energy per Si atom -12396.228661 kJ/mol
# Density = 2.052175 g / cm^3
# Si number density = 20.568569 Si / 1000 Ang^3
#
#
#
# Elastic Constant Matrix: (Units=GPa)
#
#
# Indices 1 2 3 4 5 6 
#
# 1 136.5632 32.6253 45.7165 0.0000 0.0000 0.0000
# 2 32.6253 140.2320 75.3289 0.0000 0.0000 0.0000
# 3 45.7165 75.3289 124.0678 0.0000 0.0000 0.0000
# 4 0.0000 0.0000 0.0000 17.9502 0.0000 0.0000
# 5 0.0000 0.0000 0.0000 0.0000 31.5377 0.0000
# 6 0.0000 0.0000 0.0000 0.0000 0.0000 22.1428
#
#
#
# Elastic Compliance Matrix: (Units=1/GPa)
#
#
# Indices 1 2 3 4 5 6 
#
# 1 0.008371 -0.000431 -0.002823 0.000000 0.000000 0.000000
# 2 -0.000431 0.010605 -0.006280 0.000000 0.000000 0.000000
# 3 -0.002823 -0.006280 0.012913 0.000000 0.000000 0.000000
# 4 0.000000 0.000000 0.000000 0.055710 0.000000 0.000000
# 5 0.000000 0.000000 0.000000 0.000000 0.031708 0.000000
# 6 0.000000 0.000000 0.000000 0.000000 0.000000 0.045161
#
#
# Mechanical properties :
#
#
# Convention : Reuss Voigt Hill
#
# Bulk Modulus (GPa) = 77.99688 78.68938 78.34313
# Shear Modulus (GPa) = 26.62286 30.80561 28.71423
#
# Velocity S-wave (km/s) = 3.60161 3.87422 3.74040
# Velocity P-wave (km/s) = 7.43627 7.63891 7.53827
#
# Compressibility (1/GPa) = 0.01282103
#
# Stress axis : x y z
#
# Youngs Moduli (GPa) = 119.46674 94.29736 77.44103
#
# Poissons Ratio (x) = 0.04066 0.21858
# Poissons Ratio (y) = 0.05152 0.48632
# Poissons Ratio (z) = 0.33720 0.59218
#
# Static dielectric constant tensor:
#      x y z
#    x 3.712640 0.000000 0.000000 
#    y 0.000000 4.008740 0.000000 
#    z 0.000000 0.000000 3.594510 
# 
# 
# High freq. dielectric constant tensor:
#      x y z
#    x 1.813680 0.000000 0.000000 
#    y 0.000000 1.812640 0.000000 
#    z 0.000000 0.000000 1.791590 
# 
# From -- ./inp_files/14838.got.cif
#   From: 2010.03.12/outbox.cif.g09.slc.cpg/sg35_8_cif.got.tgz:14838.got - 2010.04.14 02:02:04.
