data_PCOD8173661
_publ_section_title
;
Structure prediction by ZEFSAII (Michael W. Deem and Ramdas Pophale) SiO2 
 PCOD8173661
Probable space group: C M M 2
;
_chemical_formula_sum "Si O2"
_cell_formula_units_Z 48
_cell_length_a 14.626614
_cell_length_b 8.524316
_cell_length_c 19.441464
_cell_angle_alpha 90.000000
_cell_angle_beta 90.000000
_cell_angle_gamma 90.000000
_cell_volume 2423.998277
_symmetry_space_group_name_H-M "C M M 2"
_symmetry_group_IT_number 35
_symmetry_cell_setting 'orthorhombic'
loop_
_space_group_symop_operation_xyz
x,y,z
-x,-y,z
-x,y,z
x,-y,z
1/2+x,1/2+y,z
1/2-x,1/2-y,z
1/2-x,1/2+y,z
1/2+x,1/2-y,z
loop_
_atom_site_type_symbol
_atom_site_label
_atom_site_fract_x
_atom_site_fract_y
_atom_site_fract_z
Si Si1 0.649424 0.815738 0.206320
Si Si2 0.500000 0.187795 0.458406
Si Si3 0.000000 0.683841 0.967510
Si Si4 0.852242 0.314565 0.719637
Si Si5 0.500000 0.814126 0.612008
Si Si6 0.849740 0.316194 0.356407
Si Si7 0.147463 0.814959 0.067394
Si Si8 0.500000 0.316464 0.817750
O O1 0.750000 0.750000 0.212920
O O2 0.604906 0.779040 0.281058
O O3 0.602117 0.727514 0.141903
O O4 0.649438 0.000000 0.189702
O O5 0.500000 0.258596 0.535393
O O6 0.587617 0.252792 0.417089
O O7 0.500000 0.000000 0.459705
O O8 0.000000 0.781320 0.897876
O O9 0.000000 0.500000 0.951453
O O10 0.090666 0.729644 0.008642
O O11 0.847295 0.500000 0.723584
O O12 0.750000 0.250000 0.717195
O O13 0.907193 0.255196 0.786118
O O14 0.908692 0.258080 0.652111
O O15 0.500000 0.000000 0.607634
O O16 0.841460 0.500000 0.364024
O O17 0.750000 0.250000 0.366375
O O18 0.250000 0.750000 0.064185
O O19 0.144846 0.000000 0.055488
O O20 0.500000 0.500000 0.803840
#
# Coordination Sequence:
#
# PCOD8173661 Si02
#       8
#     8   4   4   8   4   8   8   4
#     4   9  16  29  49  74 102 139 185 237 286 334
#     4   9  17  32  51  75 107 147 184 223 276 334
#     4  12  25  42  61  85 117 152 185 226 276 332
#     4  10  20  37  61  89 115 148 187 226 272 327
#     4   8  17  33  54  80 114 146 182 228 274 326
#     4   9  18  31  50  73 102 140 186 232 281 333
#     4  11  22  38  58  83 112 148 191 237 285 337
#     4  11  23  41  62  88 118 147 181 227 272 324
#
# _framework density 19.801995999999999
#
# number of rings (size 3 to 8) (size 9 to 14) (size 15 to 20)
#    0.000    2.167    0.000    5.500    0.000    2.667 
#    0.000    5.417    0.000    5.000    0.000    0.000 
#    0.000    0.000    0.000    0.000    0.000    0.000 
#
# Total GULP energy -297449.922824 kJ/mol
# GULP energy per Si atom -12393.746784 kJ/mol
# Density = 1.975693 g / cm^3
# Si number density = 19.801996 Si / 1000 Ang^3
#
#
#
# Elastic Constant Matrix: (Units=GPa)
#
#
# Indices 1 2 3 4 5 6 
#
# 1 133.9601 26.3107 68.9463 0.0000 0.0000 0.0000
# 2 26.3107 69.0318 16.6280 0.0000 0.0000 0.0000
# 3 68.9463 16.6280 158.9812 0.0000 0.0000 0.0000
# 4 0.0000 0.0000 0.0000 22.4068 0.0000 0.0000
# 5 0.0000 0.0000 0.0000 0.0000 36.2664 0.0000
# 6 0.0000 0.0000 0.0000 0.0000 0.0000 25.5514
#
#
#
# Elastic Compliance Matrix: (Units=1/GPa)
#
#
# Indices 1 2 3 4 5 6 
#
# 1 0.010138 -0.002877 -0.004096 0.000000 0.000000 0.000000
# 2 -0.002877 0.015677 -0.000392 0.000000 0.000000 0.000000
# 3 -0.004096 -0.000392 0.008107 0.000000 0.000000 0.000000
# 4 0.000000 0.000000 0.000000 0.044629 0.000000 0.000000
# 5 0.000000 0.000000 0.000000 0.000000 0.027574 0.000000
# 6 0.000000 0.000000 0.000000 0.000000 0.000000 0.039137
#
#
# Mechanical properties :
#
#
# Convention : Reuss Voigt Hill
#
# Bulk Modulus (GPa) = 52.10354 65.08256 58.59305
# Shear Modulus (GPa) = 30.04997 33.51746 31.78371
#
# Velocity S-wave (km/s) = 3.89976 4.11862 4.01069
# Velocity P-wave (km/s) = 6.82986 7.45355 7.14851
#
# Compressibility (1/GPa) = 0.01919256
#
# Stress axis : x y z
#
# Youngs Moduli (GPa) = 98.63876 63.78710 123.34694
#
# Poissons Ratio (x) = 0.18354 0.50519
# Poissons Ratio (y) = 0.28383 0.04833
# Poissons Ratio (z) = 0.40399 0.02499
#
# Static dielectric constant tensor:
#      x y z
#    x 3.097470 0.000000 0.000000 
#    y 0.000000 3.524840 0.000000 
#    z 0.000000 0.000000 4.144460 
# 
# 
# High freq. dielectric constant tensor:
#      x y z
#    x 1.767480 0.000000 0.000000 
#    y 0.000000 1.764480 0.000000 
#    z 0.000000 0.000000 1.781470 
# 
# From -- ./inp_files/18841.got.cif
#   From: 2010.03.12/outbox.cif.g09.slc.cpg/sg35_10_cif.got.tgz:18841.got - 2010.04.14 02:02:04.
