data_PCOD8173130
_publ_section_title
;
Structure prediction by ZEFSAII (Michael W. Deem and Ramdas Pophale) SiO2 
 PCOD8173130
Probable space group: C M M 2
;
_chemical_formula_sum "Si O2"
_cell_formula_units_Z 48
_cell_length_a 8.925556
_cell_length_b 15.819502
_cell_length_c 17.089958
_cell_angle_alpha 90.000000
_cell_angle_beta 90.000000
_cell_angle_gamma 90.000000
_cell_volume 2413.065343
_symmetry_space_group_name_H-M "C M M 2"
_symmetry_group_IT_number 35
_symmetry_cell_setting 'orthorhombic'
loop_
_space_group_symop_operation_xyz
x,y,z
-x,-y,z
-x,y,z
x,-y,z
1/2+x,1/2+y,z
1/2-x,1/2-y,z
1/2-x,1/2+y,z
1/2+x,1/2-y,z
loop_
_atom_site_type_symbol
_atom_site_label
_atom_site_fract_x
_atom_site_fract_y
_atom_site_fract_z
Si Si1 0.322230 0.406100 0.896500
Si Si2 0.321224 0.662526 0.059154
Si Si3 0.337192 0.596445 0.729792
Si Si4 0.824515 0.500000 0.321489
Si Si5 0.822173 0.500000 0.139611
Si Si6 0.174807 0.664273 0.590857
Si Si7 0.677507 0.161577 0.414197
O O1 0.500000 0.412335 0.895619
O O2 0.253696 0.500000 0.910996
O O3 0.270498 0.365957 0.812039
O O4 0.271972 0.346848 0.968318
O O5 0.500000 0.663616 0.070964
O O6 0.250000 0.750000 0.090814
O O7 0.252706 0.584122 0.106088
O O8 0.500000 0.637287 0.708375
O O9 0.363464 0.500000 0.751929
O O10 0.226041 0.597894 0.656036
O O11 0.784506 0.500000 0.231237
O O12 0.758456 0.414795 0.361319
O O13 0.000000 0.500000 0.338271
O O14 0.000000 0.500000 0.123798
O O15 0.250000 0.750000 0.619187
O O16 0.226284 0.639447 0.503407
O O17 0.000000 0.674699 0.593139
O O18 0.500000 0.171652 0.406398
O O19 0.750000 0.250000 0.386910
#
# Coordination Sequence:
#
# PCOD8173130 Si02
#       7
#     8   8   8   4   4   8   8
#     4   8  15  32  56  78 107 150 191 233 284 334
#     4  11  22  39  63  89 119 156 196 238 289 347
#     4   9  18  32  52  78 110 146 185 229 278 326
#     4   9  20  39  63  86 111 148 184 225 287 347
#     4  11  23  41  63  90 121 150 188 239 293 353
#     4  10  20  33  52  75 107 145 186 230 277 328
#     4   9  19  37  59  82 112 149 187 231 280 334
#
# _framework density 19.891711999999998
#
# number of rings (size 3 to 8) (size 9 to 14) (size 15 to 20)
#    0.000    2.500    0.833    2.250    1.167    2.333 
#    0.000    7.083    0.000    0.000    0.000    0.000 
#    0.000    0.000    0.000    0.000    0.000    0.000 
#
# Total GULP energy -297398.037066 kJ/mol
# GULP energy per Si atom -12391.584878 kJ/mol
# Density = 1.984644 g / cm^3
# Si number density = 19.891712 Si / 1000 Ang^3
#
#
#
# Elastic Constant Matrix: (Units=GPa)
#
#
# Indices 1 2 3 4 5 6 
#
# 1 60.8056 40.5490 44.4509 0.0000 0.0000 0.0000
# 2 40.5490 132.5719 71.5878 0.0000 0.0000 0.0000
# 3 44.4509 71.5878 135.5544 0.0000 0.0000 0.0000
# 4 0.0000 0.0000 0.0000 12.6828 0.0000 0.0000
# 5 0.0000 0.0000 0.0000 0.0000 26.1548 0.0000
# 6 0.0000 0.0000 0.0000 0.0000 0.0000 29.4983
#
#
#
# Elastic Compliance Matrix: (Units=1/GPa)
#
#
# Indices 1 2 3 4 5 6 
#
# 1 0.023173 -0.004175 -0.005394 0.000000 0.000000 0.000000
# 2 -0.004175 0.011305 -0.004601 0.000000 0.000000 0.000000
# 3 -0.005394 -0.004601 0.011576 0.000000 0.000000 0.000000
# 4 0.000000 0.000000 0.000000 0.078847 0.000000 0.000000
# 5 0.000000 0.000000 0.000000 0.000000 0.038234 0.000000
# 6 0.000000 0.000000 0.000000 0.000000 0.000000 0.033900
#
#
# Mechanical properties :
#
#
# Convention : Reuss Voigt Hill
#
# Bulk Modulus (GPa) = 56.45459 71.34523 63.89991
# Shear Modulus (GPa) = 21.61886 25.15680 23.38783
#
# Velocity S-wave (km/s) = 3.30028 3.56010 3.43265
# Velocity P-wave (km/s) = 6.55477 7.26937 6.92130
#
# Compressibility (1/GPa) = 0.01771335
#
# Stress axis : x y z
#
# Youngs Moduli (GPa) = 43.15309 88.45964 86.38755
#
# Poissons Ratio (x) = 0.36933 0.46598
# Poissons Ratio (y) = 0.18017 0.39747
# Poissons Ratio (z) = 0.23277 0.40700
#
# Static dielectric constant tensor:
#      x y z
#    x 3.382740 0.000000 0.000000 
#    y 0.000000 3.521960 0.000000 
#    z 0.000000 0.000000 3.850240 
# 
# 
# High freq. dielectric constant tensor:
#      x y z
#    x 1.749520 0.000000 0.000000 
#    y 0.000000 1.769190 0.000000 
#    z 0.000000 0.000000 1.785360 
# 
# From -- ./inp_files/15260.got.cif
#   From: 2010.03.12/outbox.cif.g09.slc.cpg/sg35_8_cif.got.tgz:15260.got - 2010.04.14 02:02:04.
