data_PCOD8173072
_publ_section_title
;
Structure prediction by ZEFSAII (Michael W. Deem and Ramdas Pophale) SiO2 
 PCOD8173072
Probable space group: C M M 2
;
_chemical_formula_sum "Si O2"
_cell_formula_units_Z 56
_cell_length_a 9.143149
_cell_length_b 18.625750
_cell_length_c 17.975440
_cell_angle_alpha 90.000000
_cell_angle_beta 90.000000
_cell_angle_gamma 90.000000
_cell_volume 3061.181616
_symmetry_space_group_name_H-M "C M M 2"
_symmetry_group_IT_number 35
_symmetry_cell_setting 'orthorhombic'
loop_
_space_group_symop_operation_xyz
x,y,z
-x,-y,z
-x,y,z
x,-y,z
1/2+x,1/2+y,z
1/2-x,1/2-y,z
1/2-x,1/2+y,z
1/2+x,1/2-y,z
loop_
_atom_site_type_symbol
_atom_site_label
_atom_site_fract_x
_atom_site_fract_y
_atom_site_fract_z
Si Si1 0.825100 0.918588 0.653470
Si Si2 0.170150 0.321918 0.086698
Si Si3 0.829168 0.322725 0.258581
Si Si4 0.333280 0.585358 0.973074
Si Si5 0.672155 0.325550 0.516324
Si Si6 0.330049 0.583369 0.813193
Si Si7 0.830802 0.083070 0.372246
O O1 0.766078 0.866423 0.589125
O O2 0.769764 0.886029 0.733978
O O3 0.000000 0.920895 0.652646
O O4 0.767031 0.000000 0.640220
O O5 0.250000 0.250000 0.060311
O O6 0.203979 0.338802 0.172527
O O7 0.230268 0.387345 0.038514
O O8 0.000000 0.312030 0.071986
O O9 0.750000 0.250000 0.285039
O O10 0.766722 0.389700 0.303972
O O11 0.000000 0.313433 0.274526
O O12 0.500000 0.612093 0.985536
O O13 0.329610 0.500000 0.974071
O O14 0.268055 0.613008 0.892352
O O15 0.500000 0.312600 0.522363
O O16 0.750000 0.250000 0.507627
O O17 0.712845 0.374178 0.446041
O O18 0.500000 0.598883 0.818577
O O19 0.297100 0.500000 0.807730
O O20 0.000000 0.094803 0.351733
O O21 0.795504 0.000000 0.386393
#
# Coordination Sequence:
#
# PCOD8173072 Si02
#       7
#     8   8   8   8   8   8   8
#     4   8  13  25  48  73  95 124 165 208 244 282
#     4  10  21  36  53  73  99 132 169 207 248 297
#     4  10  21  37  56  76  99 130 167 205 248 299
#     4   9  17  30  50  76 104 133 167 207 250 297
#     4  10  20  33  50  73 101 132 165 201 243 292
#     4   7  11  22  43  71  98 125 161 203 244 287
#     4  10  21  36  54  77 103 130 164 206 249 294
#
# _framework density 18.293589999999998
#
# number of rings (size 3 to 8) (size 9 to 14) (size 15 to 20)
#    0.000    2.857    0.000    3.429    0.000    6.286 
#    0.000    3.571    0.000    3.857    0.000    2.000 
#    0.000    0.000    0.000    0.000    0.000    0.000 
#
# Total GULP energy -346979.540986 kJ/mol
# GULP energy per Si atom -12392.126464 kJ/mol
# Density = 1.825195 g / cm^3
# Si number density = 18.293590 Si / 1000 Ang^3
#
#
#
# Elastic Constant Matrix: (Units=GPa)
#
#
# Indices 1 2 3 4 5 6 
#
# 1 55.0868 38.1255 51.7224 0.0000 0.0000 0.0000
# 2 38.1255 95.7055 64.8302 0.0000 0.0000 0.0000
# 3 51.7224 64.8302 132.1189 0.0000 0.0000 0.0000
# 4 0.0000 0.0000 0.0000 19.3672 0.0000 0.0000
# 5 0.0000 0.0000 0.0000 0.0000 11.7630 0.0000
# 6 0.0000 0.0000 0.0000 0.0000 0.0000 27.1698
#
#
#
# Elastic Compliance Matrix: (Units=1/GPa)
#
#
# Indices 1 2 3 4 5 6 
#
# 1 0.030964 -0.006177 -0.009091 0.000000 0.000000 0.000000
# 2 -0.006177 0.016883 -0.005866 0.000000 0.000000 0.000000
# 3 -0.009091 -0.005866 0.014007 0.000000 0.000000 0.000000
# 4 0.000000 0.000000 0.000000 0.051634 0.000000 0.000000
# 5 0.000000 0.000000 0.000000 0.000000 0.085012 0.000000
# 6 0.000000 0.000000 0.000000 0.000000 0.000000 0.036806
#
#
# Mechanical properties :
#
#
# Convention : Reuss Voigt Hill
#
# Bulk Modulus (GPa) = 51.05854 65.80748 58.43301
# Shear Modulus (GPa) = 17.59934 20.20887 18.90410
#
# Velocity S-wave (km/s) = 3.10506 3.32730 3.21810
# Velocity P-wave (km/s) = 6.38955 7.12828 6.76900
#
# Compressibility (1/GPa) = 0.01958536
#
# Stress axis : x y z
#
# Youngs Moduli (GPa) = 32.29582 59.23062 71.39522
#
# Poissons Ratio (x) = 0.36585 0.64905
# Poissons Ratio (y) = 0.19948 0.41884
# Poissons Ratio (z) = 0.29360 0.34747
#
# Static dielectric constant tensor:
#      x y z
#    x 3.077360 0.000000 0.000000 
#    y 0.000000 3.175430 0.000000 
#    z 0.000000 0.000000 3.811570 
# 
# 
# High freq. dielectric constant tensor:
#      x y z
#    x 1.674640 0.000000 0.000000 
#    y 0.000000 1.689170 0.000000 
#    z 0.000000 0.000000 1.732580 
# 
# From -- ./inp_files/15638.got.cif
#   From: 2010.03.12/outbox.cif.g09.slc.cpg/sg35_8_cif.got.tgz:15638.got - 2010.04.14 02:02:04.
