data_PCOD8173385
_publ_section_title
;
Structure prediction by ZEFSAII (Michael W. Deem and Ramdas Pophale) SiO2 
 PCOD8173385
Probable space group: C M M 2
;
_chemical_formula_sum "Si O2"
_cell_formula_units_Z 48
_cell_length_a 18.624302
_cell_length_b 9.279410
_cell_length_c 15.201761
_cell_angle_alpha 90.000000
_cell_angle_beta 90.000000
_cell_angle_gamma 90.000000
_cell_volume 2627.206861
_symmetry_space_group_name_H-M "C M M 2"
_symmetry_group_IT_number 35
_symmetry_cell_setting 'orthorhombic'
loop_
_space_group_symop_operation_xyz
x,y,z
-x,-y,z
-x,y,z
x,-y,z
1/2+x,1/2+y,z
1/2-x,1/2-y,z
1/2-x,1/2+y,z
1/2+x,1/2-y,z
loop_
_atom_site_type_symbol
_atom_site_label
_atom_site_fract_x
_atom_site_fract_y
_atom_site_fract_z
Si Si1 0.320282 0.166793 0.500000
Si Si2 0.416501 0.333447 0.834666
Si Si3 0.323395 0.169819 0.700488
Si Si4 0.324828 0.668726 0.005456
Si Si5 0.582374 0.330437 0.171226
Si Si6 0.082549 0.333215 0.341564
O O1 0.250000 0.250000 0.471154
O O2 0.343506 0.203776 0.599442
O O3 0.381748 0.215864 0.432803
O O4 0.302426 0.000000 0.491121
O O5 0.500000 0.301170 0.851357
O O6 0.404237 0.500000 0.808919
O O7 0.388948 0.232104 0.756481
O O8 0.373613 0.292425 0.922234
O O9 0.250000 0.250000 0.727887
O O10 0.313902 0.000000 0.718212
O O11 0.308616 0.500000 0.010373
O O12 0.250000 0.750000 0.998140
O O13 0.368396 0.721746 0.090831
O O14 0.500000 0.283283 0.152777
O O15 0.587433 0.500000 0.184590
O O16 0.613255 0.255591 0.258991
O O17 0.096666 0.500000 0.321556
O O18 0.000000 0.296471 0.354642
#
# Coordination Sequence:
#
# PCOD8173385 Si02
#       6
#     8   8   8   8   8   8
#     4   9  19  34  52  74 102 136 170 207 252 301
#     4  10  21  37  56  78 105 137 172 212 259 309
#     4  10  20  35  55  78 105 138 175 215 259 307
#     4  10  21  36  54  76 103 135 169 207 253 305
#     4   9  18  34  54  74  98 131 170 209 250 298
#     4   9  18  33  52  74 101 133 168 207 252 299
#
# _framework density 18.270354999999999
#
# number of rings (size 3 to 8) (size 9 to 14) (size 15 to 20)
#    0.000    2.500    0.000    1.500    0.000    7.667 
#    0.000    5.000    0.000    5.000    0.000    0.000 
#    0.000    0.000    0.000    0.000    0.000    0.000 
#
# Total GULP energy -297644.900773 kJ/mol
# GULP energy per Si atom -12401.870866 kJ/mol
# Density = 1.822877 g / cm^3
# Si number density = 18.270355 Si / 1000 Ang^3
#
#
#
# Elastic Constant Matrix: (Units=GPa)
#
#
# Indices 1 2 3 4 5 6 
#
# 1 119.4148 52.1917 81.1139 0.0000 0.0000 0.0000
# 2 52.1917 56.1226 56.1152 0.0000 0.0000 0.0000
# 3 81.1139 56.1152 136.8314 0.0000 0.0000 0.0000
# 4 0.0000 0.0000 0.0000 32.7471 0.0000 0.0000
# 5 0.0000 0.0000 0.0000 0.0000 37.3487 0.0000
# 6 0.0000 0.0000 0.0000 0.0000 0.0000 31.7691
#
#
#
# Elastic Compliance Matrix: (Units=1/GPa)
#
#
# Indices 1 2 3 4 5 6 
#
# 1 0.016526 -0.009447 -0.005922 0.000000 0.000000 0.000000
# 2 -0.009447 0.035603 -0.009001 0.000000 0.000000 0.000000
# 3 -0.005922 -0.009001 0.014510 0.000000 0.000000 0.000000
# 4 0.000000 0.000000 0.000000 0.030537 0.000000 0.000000
# 5 0.000000 0.000000 0.000000 0.000000 0.026775 0.000000
# 6 0.000000 0.000000 0.000000 0.000000 0.000000 0.031477
#
#
# Mechanical properties :
#
#
# Convention : Reuss Voigt Hill
#
# Bulk Modulus (GPa) = 55.86871 76.80114 66.33493
# Shear Modulus (GPa) = 23.79430 28.56952 26.18191
#
# Velocity S-wave (km/s) = 3.61272 3.95867 3.78964
# Velocity P-wave (km/s) = 6.93164 7.93863 7.45216
#
# Compressibility (1/GPa) = 0.01789911
#
# Stress axis : x y z
#
# Youngs Moduli (GPa) = 60.51138 28.08760 68.91621
#
# Poissons Ratio (x) = 0.26534 0.40815
# Poissons Ratio (y) = 0.57163 0.62031
# Poissons Ratio (z) = 0.35837 0.25281
#
# Static dielectric constant tensor:
#      x y z
#    x 3.391340 0.000000 0.000000 
#    y 0.000000 3.331130 0.000000 
#    z 0.000000 0.000000 3.616340 
# 
# 
# High freq. dielectric constant tensor:
#      x y z
#    x 1.705020 0.000000 0.000000 
#    y 0.000000 1.703260 0.000000 
#    z 0.000000 0.000000 1.719800 
# 
# From -- ./inp_files/12295.got.cif
#   From: 2010.03.12/outbox.cif.g09.slc.cpg/sg35_7_cif.got.tgz:12295.got - 2010.04.14 02:02:04.
