data_PCOD8173580
_publ_section_title
;
Structure prediction by ZEFSAII (Michael W. Deem and Ramdas Pophale) SiO2 
 PCOD8173580
Probable space group: C M M 2
;
_chemical_formula_sum "Si O2"
_cell_formula_units_Z 64
_cell_length_a 9.180039
_cell_length_b 29.683279
_cell_length_c 12.179869
_cell_angle_alpha 90.000000
_cell_angle_beta 90.000000
_cell_angle_gamma 90.000000
_cell_volume 3318.937068
_symmetry_space_group_name_H-M "C M M 2"
_symmetry_group_IT_number 35
_symmetry_cell_setting 'orthorhombic'
loop_
_space_group_symop_operation_xyz
x,y,z
-x,-y,z
-x,y,z
x,-y,z
1/2+x,1/2+y,z
1/2-x,1/2-y,z
1/2-x,1/2+y,z
1/2+x,1/2-y,z
loop_
_atom_site_type_symbol
_atom_site_label
_atom_site_fract_x
_atom_site_fract_y
_atom_site_fract_z
Si Si1 0.828515 0.298108 0.176110
Si Si2 0.834693 0.295331 0.414475
Si Si3 0.659970 0.053367 0.420247
Si Si4 0.328824 0.797850 0.652510
Si Si5 0.170576 0.050575 0.629453
Si Si6 0.330547 0.626189 0.044388
Si Si7 0.667806 0.371012 0.787399
Si Si8 0.170454 0.552371 0.176361
O O1 0.750000 0.250000 0.166339
O O2 0.804888 0.320837 0.298481
O O3 0.757699 0.331181 0.088550
O O4 0.000000 0.292231 0.150652
O O5 0.750000 0.250000 0.408183
O O6 0.797355 0.319950 0.530406
O O7 0.000000 0.279958 0.418858
O O8 0.500000 0.074752 0.440195
O O9 0.764508 0.070793 0.516443
O O10 0.716916 0.067312 0.299717
O O11 0.647621 0.000000 0.422703
O O12 0.500000 0.791176 0.673753
O O13 0.250000 0.750000 0.663138
O O14 0.266224 0.830593 0.744192
O O15 0.216581 0.082307 0.730140
O O16 0.000000 0.049492 0.612136
O O17 0.229586 0.000000 0.653793
O O18 0.500000 0.631302 0.074593
O O19 0.268894 0.579953 0.092686
O O20 0.305155 0.623442 0.915267
O O21 0.500000 0.360061 0.760218
O O22 0.202960 0.500000 0.155709
O O23 0.000000 0.562986 0.158030
#
# Coordination Sequence:
#
# PCOD8173580 Si02
#       8
#     8   8   8   8   8   8   8   8
#     4  10  20  37  60  84 113 145 178 221 273 326
#     4   8  16  31  53  82 110 136 168 211 265 324
#     4   8  15  30  53  81 111 140 171 212 266 326
#     4  10  20  36  59  84 110 140 175 217 267 322
#     4   9  18  34  56  80 107 140 177 220 270 320
#     4  11  24  39  55  78 108 145 191 233 269 317
#     4  10  23  40  54  74 107 145 186 228 268 314
#     4   9  19  37  59  82 111 145 178 219 274 328
#
# _framework density 19.283282
#
# number of rings (size 3 to 8) (size 9 to 14) (size 15 to 20)
#    0.000    2.625    0.000    1.875    0.000    5.250 
#    0.000    6.250    0.000    1.500    0.000    0.000 
#    0.000    0.000    0.000    0.000    0.000    0.000 
#
# Total GULP energy -396558.822395 kJ/mol
# GULP energy per Si atom -12392.463200 kJ/mol
# Density = 1.923939 g / cm^3
# Si number density = 19.283282 Si / 1000 Ang^3
#
#
#
# Elastic Constant Matrix: (Units=GPa)
#
#
# Indices 1 2 3 4 5 6 
#
# 1 88.6773 54.0932 66.8795 0.0000 0.0000 0.0000
# 2 54.0932 92.7461 63.5226 0.0000 0.0000 0.0000
# 3 66.8795 63.5226 138.3531 0.0000 0.0000 0.0000
# 4 0.0000 0.0000 0.0000 36.8515 0.0000 0.0000
# 5 0.0000 0.0000 0.0000 0.0000 32.2478 0.0000
# 6 0.0000 0.0000 0.0000 0.0000 0.0000 28.7081
#
#
#
# Elastic Compliance Matrix: (Units=1/GPa)
#
#
# Indices 1 2 3 4 5 6 
#
# 1 0.020944 -0.007704 -0.006587 0.000000 0.000000 0.000000
# 2 -0.007704 0.018562 -0.004798 0.000000 0.000000 0.000000
# 3 -0.006587 -0.004798 0.012615 0.000000 0.000000 0.000000
# 4 0.000000 0.000000 0.000000 0.027136 0.000000 0.000000
# 5 0.000000 0.000000 0.000000 0.000000 0.031010 0.000000
# 6 0.000000 0.000000 0.000000 0.000000 0.000000 0.034833
#
#
# Mechanical properties :
#
#
# Convention : Reuss Voigt Hill
#
# Bulk Modulus (GPa) = 71.72403 76.52966 74.12685
# Shear Modulus (GPa) = 26.60613 28.58023 27.59318
#
# Velocity S-wave (km/s) = 3.71853 3.85401 3.78688
# Velocity P-wave (km/s) = 7.46407 7.71866 7.59243
#
# Compressibility (1/GPa) = 0.01394233
#
# Stress axis : x y z
#
# Youngs Moduli (GPa) = 47.74581 53.87446 79.26928
#
# Poissons Ratio (x) = 0.41504 0.52217
# Poissons Ratio (y) = 0.36782 0.38036
# Poissons Ratio (z) = 0.31452 0.25851
#
# Static dielectric constant tensor:
#      x y z
#    x 3.583460 0.000000 0.000000 
#    y 0.000000 3.292940 0.000000 
#    z 0.000000 0.000000 3.834010 
# 
# 
# High freq. dielectric constant tensor:
#      x y z
#    x 1.750900 0.000000 0.000000 
#    y 0.000000 1.737820 0.000000 
#    z 0.000000 0.000000 1.757190 
# 
# From -- ./inp_files/11870.got.cif
#   From: 2010.03.12/outbox.cif.g09.slc.cpg/sg35_6_cif.got.tgz:11870.got - 2010.04.14 02:02:04.
