data_PCOD8173707
_publ_section_title
;
Structure prediction by ZEFSAII (Michael W. Deem and Ramdas Pophale) SiO2 
 PCOD8173707
Probable space group: C M M 2
;
_chemical_formula_sum "Si O2"
_cell_formula_units_Z 40
_cell_length_a 8.615436
_cell_length_b 16.463011
_cell_length_c 14.358274
_cell_angle_alpha 90.000000
_cell_angle_beta 90.000000
_cell_angle_gamma 90.000000
_cell_volume 2036.520404
_symmetry_space_group_name_H-M "C M M 2"
_symmetry_group_IT_number 35
_symmetry_cell_setting 'orthorhombic'
loop_
_space_group_symop_operation_xyz
x,y,z
-x,-y,z
-x,y,z
x,-y,z
1/2+x,1/2+y,z
1/2-x,1/2-y,z
1/2-x,1/2+y,z
1/2+x,1/2-y,z
loop_
_atom_site_type_symbol
_atom_site_label
_atom_site_fract_x
_atom_site_fract_y
_atom_site_fract_z
Si Si1 0.171978 0.089308 0.729690
Si Si2 0.815995 0.411489 0.367142
Si Si3 0.816725 0.665371 0.553590
Si Si4 0.318645 0.000000 0.885382
Si Si5 0.184010 0.662885 0.179712
Si Si6 0.317497 0.500000 0.086088
O O1 0.254352 0.146128 0.655725
O O2 0.000000 0.123711 0.752856
O O3 0.158322 0.000000 0.683549
O O4 0.272840 0.080779 0.824992
O O5 0.751065 0.500000 0.338556
O O6 0.754772 0.392698 0.471083
O O7 0.763439 0.347654 0.287901
O O8 0.000000 0.412663 0.370051
O O9 0.750000 0.750000 0.521346
O O10 0.000000 0.665848 0.559662
O O11 0.500000 0.000000 0.909456
O O12 0.215377 0.000000 0.976666
O O13 0.250000 0.750000 0.143772
O O14 0.246022 0.583866 0.125193
O O15 0.000000 0.664400 0.166898
O O16 0.500000 0.500000 0.105308
#
# Coordination Sequence:
#
# PCOD8173707 Si02
#       6
#     8   8   8   4   8   4
#     4   9  19  36  57  83 112 145 188 239 289 347
#     4   9  18  34  57  85 118 160 207 253 302 360
#     4  11  21  33  53  81 119 162 203 247 300 357
#     4  10  20  38  65  90 113 150 193 240 304 368
#     4  11  22  40  64  92 128 167 209 260 313 369
#     4  12  24  42  65  94 125 162 209 256 314 378
#
# _framework density 19.641344
#
# number of rings (size 3 to 8) (size 9 to 14) (size 15 to 20)
#    0.600    1.200    1.000    4.500    0.000    0.800 
#    0.000    4.000    0.000    0.000    0.000    0.000 
#    0.000    0.000    0.000    0.000    0.000    0.000 
#
# Total GULP energy -247782.414338 kJ/mol
# GULP energy per Si atom -12389.120717 kJ/mol
# Density = 1.959664 g / cm^3
# Si number density = 19.641344 Si / 1000 Ang^3
#
#
#
# Elastic Constant Matrix: (Units=GPa)
#
#
# Indices 1 2 3 4 5 6 
#
# 1 99.3334 32.0283 26.5652 0.0000 0.0000 0.0000
# 2 32.0283 120.0091 40.7286 0.0000 0.0000 0.0000
# 3 26.5652 40.7286 107.9065 0.0000 0.0000 0.0000
# 4 0.0000 0.0000 0.0000 20.5846 0.0000 0.0000
# 5 0.0000 0.0000 0.0000 0.0000 24.2180 0.0000
# 6 0.0000 0.0000 0.0000 0.0000 0.0000 32.1634
#
#
#
# Elastic Compliance Matrix: (Units=1/GPa)
#
#
# Indices 1 2 3 4 5 6 
#
# 1 0.011342 -0.002385 -0.001892 0.000000 0.000000 0.000000
# 2 -0.002385 0.010058 -0.003209 0.000000 0.000000 0.000000
# 3 -0.001892 -0.003209 0.010944 0.000000 0.000000 0.000000
# 4 0.000000 0.000000 0.000000 0.048580 0.000000 0.000000
# 5 0.000000 0.000000 0.000000 0.000000 0.041292 0.000000
# 6 0.000000 0.000000 0.000000 0.000000 0.000000 0.031091
#
#
# Mechanical properties :
#
#
# Convention : Reuss Voigt Hill
#
# Bulk Modulus (GPa) = 57.56311 58.43260 57.99785
# Shear Modulus (GPa) = 28.72390 30.58833 29.65611
#
# Velocity S-wave (km/s) = 3.82831 3.95060 3.88994
# Velocity P-wave (km/s) = 6.99371 7.11506 7.05465
#
# Compressibility (1/GPa) = 0.01737224
#
# Stress axis : x y z
#
# Youngs Moduli (GPa) = 88.16724 99.41972 91.37047
#
# Poissons Ratio (x) = 0.23710 0.17288
# Poissons Ratio (y) = 0.21027 0.29324
# Poissons Ratio (z) = 0.16682 0.31907
#
# Static dielectric constant tensor:
#      x y z
#    x 3.488430 0.000000 0.000000 
#    y 0.000000 3.539730 0.000000 
#    z 0.000000 0.000000 3.573310 
# 
# 
# High freq. dielectric constant tensor:
#      x y z
#    x 1.760780 0.000000 0.000000 
#    y 0.000000 1.755580 0.000000 
#    z 0.000000 0.000000 1.764030 
# 
# From -- ./inp_files/14811.got.cif
#   From: 2010.03.12/outbox.cif.g09.slc.cpg/sg35_8_cif.got.tgz:14811.got - 2010.04.14 02:02:04.
