data_PCOD8173650
_publ_section_title
;
Structure prediction by ZEFSAII (Michael W. Deem and Ramdas Pophale) SiO2 
 PCOD8173650
Probable space group: C M M 2
;
_chemical_formula_sum "Si O2"
_cell_formula_units_Z 64
_cell_length_a 8.987171
_cell_length_b 30.696710
_cell_length_c 11.800244
_cell_angle_alpha 90.000000
_cell_angle_beta 90.000000
_cell_angle_gamma 90.000000
_cell_volume 3255.410980
_symmetry_space_group_name_H-M "C M M 2"
_symmetry_group_IT_number 35
_symmetry_cell_setting 'orthorhombic'
loop_
_space_group_symop_operation_xyz
x,y,z
-x,-y,z
-x,y,z
x,-y,z
1/2+x,1/2+y,z
1/2-x,1/2-y,z
1/2-x,1/2+y,z
1/2+x,1/2-y,z
loop_
_atom_site_type_symbol
_atom_site_label
_atom_site_fract_x
_atom_site_fract_y
_atom_site_fract_z
Si Si1 0.673586 0.206278 0.598960
Si Si2 0.826359 0.875096 0.224305
Si Si3 0.825655 0.206786 0.071104
Si Si4 0.672689 0.822792 0.848198
Si Si5 0.676328 0.122218 0.463138
Si Si6 0.831005 0.950919 0.056217
Si Si7 0.671028 0.549721 0.608373
Si Si8 0.674262 0.076569 0.834169
O O1 0.500000 0.211149 0.577822
O O2 0.750000 0.250000 0.552419
O O3 0.711800 0.200476 0.730737
O O4 0.734665 0.164701 0.530207
O O5 0.780809 0.834021 0.147938
O O6 0.725535 0.873602 0.334316
O O7 0.783707 0.918749 0.156723
O O8 0.000000 0.874206 0.257429
O O9 0.750000 0.250000 0.122768
O O10 0.000000 0.214169 0.068276
O O11 0.770987 0.199760 0.943427
O O12 0.500000 0.817788 0.880369
O O13 0.717753 0.872981 0.837293
O O14 0.500000 0.118277 0.471980
O O15 0.745164 0.079186 0.517450
O O16 0.000000 0.940287 0.017359
O O17 0.817783 0.000000 0.103238
O O18 0.722042 0.945810 0.950554
O O19 0.500000 0.564297 0.614159
O O20 0.686203 0.500000 0.567178
O O21 0.740472 0.553644 0.732441
O O22 0.500000 0.069772 0.814811
#
# Coordination Sequence:
#
# PCOD8173650 Si02
#       8
#     8   8   8   8   8   8   8   8
#     4  10  22  40  60  88 121 155 194 241 297 356
#     4  10  23  42  61  86 118 158 206 250 299 356
#     4  11  23  39  61  89 122 158 201 247 297 357
#     4  10  20  37  60  88 123 157 194 242 300 359
#     4  11  24  43  64  88 120 157 202 256 307 353
#     4  10  21  39  62  88 121 158 198 244 294 356
#     4  11  24  41  63  91 123 161 203 245 296 361
#     4  11  21  36  61  92 127 159 193 244 301 356
#
# _framework density 19.659575
#
# number of rings (size 3 to 8) (size 9 to 14) (size 15 to 20)
#    0.000    1.500    2.500    2.250    0.000    8.250 
#    0.000    3.750    0.000    0.000    0.000    0.000 
#    0.000    0.000    0.000    0.000    0.000    0.000 
#
# Total GULP energy -396985.481878 kJ/mol
# GULP energy per Si atom -12405.796309 kJ/mol
# Density = 1.961483 g / cm^3
# Si number density = 19.659575 Si / 1000 Ang^3
#
#
#
# Elastic Constant Matrix: (Units=GPa)
#
#
# Indices 1 2 3 4 5 6 
#
# 1 78.9218 56.8592 48.3307 0.0000 0.0000 0.0000
# 2 56.8592 147.6685 53.1852 0.0000 0.0000 0.0000
# 3 48.3307 53.1852 100.8047 0.0000 0.0000 0.0000
# 4 0.0000 0.0000 0.0000 11.9893 0.0000 0.0000
# 5 0.0000 0.0000 0.0000 0.0000 34.2047 0.0000
# 6 0.0000 0.0000 0.0000 0.0000 0.0000 33.2792
#
#
#
# Elastic Compliance Matrix: (Units=1/GPa)
#
#
# Indices 1 2 3 4 5 6 
#
# 1 0.021040 -0.005517 -0.007177 0.000000 0.000000 0.000000
# 2 -0.005517 0.009807 -0.002529 0.000000 0.000000 0.000000
# 3 -0.007177 -0.002529 0.014696 0.000000 0.000000 0.000000
# 4 0.000000 0.000000 0.000000 0.083408 0.000000 0.000000
# 5 0.000000 0.000000 0.000000 0.000000 0.029236 0.000000
# 6 0.000000 0.000000 0.000000 0.000000 0.000000 0.030049
#
#
# Mechanical properties :
#
#
# Convention : Reuss Voigt Hill
#
# Bulk Modulus (GPa) = 66.23845 71.57169 68.90507
# Shear Modulus (GPa) = 22.34993 27.16262 24.75628
#
# Velocity S-wave (km/s) = 3.37537 3.72109 3.55244
# Velocity P-wave (km/s) = 6.99691 7.41259 7.20775
#
# Compressibility (1/GPa) = 0.01509697
#
# Stress axis : x y z
#
# Youngs Moduli (GPa) = 47.52762 101.96762 68.04656
#
# Poissons Ratio (x) = 0.56251 0.48839
# Poissons Ratio (y) = 0.26219 0.17211
# Poissons Ratio (z) = 0.34112 0.25791
#
# Static dielectric constant tensor:
#      x y z
#    x 3.549620 0.000000 0.000000 
#    y 0.000000 3.802030 0.000000 
#    z 0.000000 0.000000 3.473580 
# 
# 
# High freq. dielectric constant tensor:
#      x y z
#    x 1.766940 0.000000 0.000000 
#    y 0.000000 1.785160 0.000000 
#    z 0.000000 0.000000 1.759150 
# 
# From -- ./inp_files/11901.got.cif
#   From: 2010.03.12/outbox.cif.g09.slc.cpg/sg35_6_cif.got.tgz:11901.got - 2010.04.14 02:02:04.
