data_PCOD8173286
_publ_section_title
;
Structure prediction by ZEFSAII (Michael W. Deem and Ramdas Pophale) SiO2 
 PCOD8173286
Probable space group: C M M 2
;
_chemical_formula_sum "Si O2"
_cell_formula_units_Z 40
_cell_length_a 15.774709
_cell_length_b 8.867228
_cell_length_c 14.293686
_cell_angle_alpha 90.000000
_cell_angle_beta 90.000000
_cell_angle_gamma 90.000000
_cell_volume 1999.371372
_symmetry_space_group_name_H-M "C M M 2"
_symmetry_group_IT_number 35
_symmetry_cell_setting 'orthorhombic'
loop_
_space_group_symop_operation_xyz
x,y,z
-x,-y,z
-x,y,z
x,-y,z
1/2+x,1/2+y,z
1/2-x,1/2-y,z
1/2-x,1/2+y,z
1/2+x,1/2-y,z
loop_
_atom_site_type_symbol
_atom_site_label
_atom_site_fract_x
_atom_site_fract_y
_atom_site_fract_z
Si Si1 0.336107 0.821100 0.474410
Si Si2 0.500000 0.179750 0.150536
Si Si3 0.500000 0.820807 0.361962
Si Si4 0.161464 0.322257 0.822981
Si Si5 0.595402 0.670948 0.651157
Si Si6 0.838685 0.322614 0.036300
O O1 0.250000 0.750000 0.432183
O O2 0.415261 0.761502 0.413010
O O3 0.346180 0.765351 0.580773
O O4 0.329367 0.000000 0.472471
O O5 0.500000 0.241071 0.256186
O O6 0.584663 0.240968 0.099533
O O7 0.500000 0.000000 0.146222
O O8 0.500000 0.000000 0.363086
O O9 0.163877 0.500000 0.808500
O O10 0.250000 0.250000 0.793634
O O11 0.093774 0.248276 0.753308
O O12 0.138597 0.279684 0.929524
O O13 0.500000 0.673866 0.612644
O O14 0.629663 0.500000 0.657642
O O15 0.828128 0.500000 0.048326
O O16 0.750000 0.250000 0.068432
#
# Coordination Sequence:
#
# PCOD8173286 Si02
#       6
#     8   4   4   8   8   8
#     4  11  22  39  61  86 114 151 191 233 284 339
#     4   9  18  36  60  85 112 148 189 233 282 339
#     4   9  20  38  60  85 114 146 189 235 284 343
#     4  10  20  34  54  80 113 151 191 231 274 331
#     4  11  23  37  55  82 115 151 189 235 283 332
#     4   9  19  35  58  84 115 150 189 232 278 331
#
# _framework density 20.006288000000001
#
# number of rings (size 3 to 8) (size 9 to 14) (size 15 to 20)
#    0.000    2.000    1.000    2.400    1.400    2.800 
#    0.000    0.500    0.000    3.600    0.000    0.000 
#    0.000    0.000    0.000    0.000    0.000    0.000 
#
# Total GULP energy -248029.514400 kJ/mol
# GULP energy per Si atom -12401.475720 kJ/mol
# Density = 1.996075 g / cm^3
# Si number density = 20.006288 Si / 1000 Ang^3
#
#
#
# Elastic Constant Matrix: (Units=GPa)
#
#
# Indices 1 2 3 4 5 6 
#
# 1 156.0216 42.0500 75.5410 0.0000 0.0000 0.0000
# 2 42.0500 71.4485 35.8359 0.0000 0.0000 0.0000
# 3 75.5410 35.8359 126.4737 0.0000 0.0000 0.0000
# 4 0.0000 0.0000 0.0000 16.8373 0.0000 0.0000
# 5 0.0000 0.0000 0.0000 0.0000 28.9201 0.0000
# 6 0.0000 0.0000 0.0000 0.0000 0.0000 30.9635
#
#
#
# Elastic Compliance Matrix: (Units=1/GPa)
#
#
# Indices 1 2 3 4 5 6 
#
# 1 0.009620 -0.003240 -0.004828 0.000000 0.000000 0.000000
# 2 -0.003240 0.017406 -0.002997 0.000000 0.000000 0.000000
# 3 -0.004828 -0.002997 0.011639 0.000000 0.000000 0.000000
# 4 0.000000 0.000000 0.000000 0.059392 0.000000 0.000000
# 5 0.000000 0.000000 0.000000 0.000000 0.034578 0.000000
# 6 0.000000 0.000000 0.000000 0.000000 0.000000 0.032296
#
#
# Mechanical properties :
#
#
# Convention : Reuss Voigt Hill
#
# Bulk Modulus (GPa) = 60.47326 73.42195 66.94761
# Shear Modulus (GPa) = 25.96412 28.71198 27.33805
#
# Velocity S-wave (km/s) = 3.60640 3.79244 3.70059
# Velocity P-wave (km/s) = 6.90176 7.48037 7.19688
#
# Compressibility (1/GPa) = 0.01653623
#
# Stress axis : x y z
#
# Youngs Moduli (GPa) = 103.94795 57.45111 85.91464
#
# Poissons Ratio (x) = 0.18616 0.41478
# Poissons Ratio (y) = 0.33683 0.25745
# Poissons Ratio (z) = 0.50185 0.17215
#
# Static dielectric constant tensor:
#      x y z
#    x 3.732290 0.000000 0.000000 
#    y 0.000000 3.422600 0.000000 
#    z 0.000000 0.000000 3.649870 
# 
# 
# High freq. dielectric constant tensor:
#      x y z
#    x 1.789270 0.000000 0.000000 
#    y 0.000000 1.763200 0.000000 
#    z 0.000000 0.000000 1.775740 
# 
# From -- ./inp_files/14723.got.cif
#   From: 2010.03.12/outbox.cif.g09.slc.cpg/sg35_8_cif.got.tgz:14723.got - 2010.04.14 02:02:04.
