data_PCOD8173530
_publ_section_title
;
Structure prediction by ZEFSAII (Michael W. Deem and Ramdas Pophale) SiO2 
 PCOD8173530
Probable space group: C M M 2
;
_chemical_formula_sum "Si O2"
_cell_formula_units_Z 56
_cell_length_a 19.320511
_cell_length_b 8.888030
_cell_length_c 17.369266
_cell_angle_alpha 90.000000
_cell_angle_beta 90.000000
_cell_angle_gamma 90.000000
_cell_volume 2982.672614
_symmetry_space_group_name_H-M "C M M 2"
_symmetry_group_IT_number 35
_symmetry_cell_setting 'orthorhombic'
loop_
_space_group_symop_operation_xyz
x,y,z
-x,-y,z
-x,y,z
x,-y,z
1/2+x,1/2+y,z
1/2-x,1/2-y,z
1/2-x,1/2+y,z
1/2+x,1/2-y,z
loop_
_atom_site_type_symbol
_atom_site_label
_atom_site_fract_x
_atom_site_fract_y
_atom_site_fract_z
Si Si1 0.919124 0.329405 0.500000
Si Si2 0.579739 0.824751 0.094198
Si Si3 0.322086 0.177466 0.954157
Si Si4 0.678781 0.322772 0.211896
Si Si5 0.819554 0.824760 0.386953
Si Si6 0.419054 0.172211 0.674979
Si Si7 0.822227 0.177699 0.793318
O O1 0.898171 0.500000 0.479931
O O2 0.882799 0.217757 0.441249
O O3 0.897357 0.291730 0.587353
O O4 0.000000 0.305146 0.489531
O O5 0.500000 0.775822 0.085715
O O6 0.613408 0.733093 0.163691
O O7 0.586741 0.000000 0.113478
O O8 0.618329 0.784730 0.015056
O O9 0.250000 0.250000 0.982604
O O10 0.346005 0.250852 0.874096
O O11 0.311439 0.000000 0.943019
O O12 0.686009 0.500000 0.203186
O O13 0.750000 0.250000 0.180674
O O14 0.665287 0.271538 0.299755
O O15 0.750000 0.750000 0.419282
O O16 0.807760 0.000000 0.389718
O O17 0.500000 0.199593 0.686714
O O18 0.379322 0.286923 0.729617
O O19 0.400024 0.000000 0.695478
O O20 0.750000 0.250000 0.766516
O O21 0.813578 0.000000 0.802645
#
# Coordination Sequence:
#
# PCOD8173530 Si02
#       7
#     8   8   8   8   8   8   8
#     4   9  19  36  57  80 107 142 181 219 265 321
#     4  10  22  38  56  81 111 143 179 218 263 316
#     4  10  20  36  57  79 106 141 180 221 267 318
#     4  10  21  37  57  80 107 142 181 221 268 319
#     4  10  21  36  55  80 109 141 179 223 269 317
#     4   9  19  37  58  79 107 143 180 219 267 321
#     4  11  22  36  56  82 110 141 180 222 266 316
#
# _framework density 18.775109
#
# number of rings (size 3 to 8) (size 9 to 14) (size 15 to 20)
#    0.000    2.143    0.000    4.714    0.000    7.143 
#    0.000    5.714    0.000    0.000    0.000    0.000 
#    0.000    0.000    0.000    0.000    0.000    0.000 
#
# Total GULP energy -347293.988471 kJ/mol
# GULP energy per Si atom -12403.356731 kJ/mol
# Density = 1.873238 g / cm^3
# Si number density = 18.775109 Si / 1000 Ang^3
#
#
#
# Elastic Constant Matrix: (Units=GPa)
#
#
# Indices 1 2 3 4 5 6 
#
# 1 108.0170 48.5515 70.3315 0.0000 0.0000 0.0000
# 2 48.5515 92.4446 52.9830 0.0000 0.0000 0.0000
# 3 70.3315 52.9830 102.9027 0.0000 0.0000 0.0000
# 4 0.0000 0.0000 0.0000 33.6546 0.0000 0.0000
# 5 0.0000 0.0000 0.0000 0.0000 27.1358 0.0000
# 6 0.0000 0.0000 0.0000 0.0000 0.0000 35.1446
#
#
#
# Elastic Compliance Matrix: (Units=1/GPa)
#
#
# Indices 1 2 3 4 5 6 
#
# 1 0.017358 -0.003287 -0.010171 0.000000 0.000000 0.000000
# 2 -0.003287 0.015968 -0.005975 0.000000 0.000000 0.000000
# 3 -0.010171 -0.005975 0.019746 0.000000 0.000000 0.000000
# 4 0.000000 0.000000 0.000000 0.029714 0.000000 0.000000
# 5 0.000000 0.000000 0.000000 0.000000 0.036852 0.000000
# 6 0.000000 0.000000 0.000000 0.000000 0.000000 0.028454
#
#
# Mechanical properties :
#
#
# Convention : Reuss Voigt Hill
#
# Bulk Modulus (GPa) = 70.39528 71.89958 71.14743
# Shear Modulus (GPa) = 26.08326 27.95354 27.01840
#
# Velocity S-wave (km/s) = 3.73130 3.86276 3.79760
# Velocity P-wave (km/s) = 7.49259 7.63367 7.56346
#
# Compressibility (1/GPa) = 0.01420550
#
# Stress axis : x y z
#
# Youngs Moduli (GPa) = 57.61069 62.62477 50.64205
#
# Poissons Ratio (x) = 0.20583 0.51510
# Poissons Ratio (y) = 0.18935 0.30260
# Poissons Ratio (z) = 0.58598 0.37420
#
# Static dielectric constant tensor:
#      x y z
#    x 3.377880 0.000000 0.000000 
#    y 0.000000 3.439450 0.000000 
#    z 0.000000 0.000000 3.486610 
# 
# 
# High freq. dielectric constant tensor:
#      x y z
#    x 1.726700 0.000000 0.000000 
#    y 0.000000 1.733400 0.000000 
#    z 0.000000 0.000000 1.734840 
# 
# From -- ./inp_files/15594.got.cif
#   From: 2010.03.12/outbox.cif.g09.slc.cpg/sg35_8_cif.got.tgz:15594.got - 2010.04.14 02:02:04.
