data_PCOD8173989
_publ_section_title
;
Structure prediction by ZEFSAII (Michael W. Deem and Ramdas Pophale) SiO2 
 PCOD8173989
Probable space group: C M M 2
;
_chemical_formula_sum "Si O2"
_cell_formula_units_Z 36
_cell_length_a 15.064584
_cell_length_b 9.489320
_cell_length_c 13.173952
_cell_angle_alpha 90.000000
_cell_angle_beta 90.000000
_cell_angle_gamma 90.000000
_cell_volume 1883.251458
_symmetry_space_group_name_H-M "C M M 2"
_symmetry_group_IT_number 35
_symmetry_cell_setting 'orthorhombic'
loop_
_space_group_symop_operation_xyz
x,y,z
-x,-y,z
-x,y,z
x,-y,z
1/2+x,1/2+y,z
1/2-x,1/2-y,z
1/2-x,1/2+y,z
1/2+x,1/2-y,z
loop_
_atom_site_type_symbol
_atom_site_label
_atom_site_fract_x
_atom_site_fract_y
_atom_site_fract_z
Si Si1 0.839964 0.169010 0.285080
Si Si2 0.250000 0.750000 0.627374
Si Si3 0.823279 0.154495 0.823787
Si Si4 0.500000 0.666105 0.142719
Si Si5 0.601328 0.158892 0.475478
Si Si6 0.000000 0.832033 0.915778
O O1 0.750000 0.250000 0.256322
O O2 0.911656 0.214873 0.201132
O O3 0.875784 0.222939 0.392950
O O4 0.825493 0.000000 0.291160
O O5 0.194583 0.854269 0.702126
O O6 0.324585 0.830907 0.563019
O O7 0.750000 0.250000 0.879439
O O8 0.916960 0.224565 0.851459
O O9 0.817483 0.000000 0.871851
O O10 0.500000 0.500000 0.136475
O O11 0.500000 0.731339 0.029703
O O12 0.500000 0.185059 0.515160
O O13 0.608350 0.000000 0.430408
O O14 0.000000 0.000000 0.918927
#
# Coordination Sequence:
#
# PCOD8173989 Si02
#       6
#     8   4   8   4   8   4
#     4  11  22  38  59  86 118 154 194 240 284 342
#     4  10  22  34  60  84 118 154 190 236 280 344
#     4   9  20  36  58  83 114 147 190 238 282 339
#     4   9  20  38  60  85 116 152 191 235 290 345
#     4  11  23  38  58  84 119 159 192 234 287 343
#     4   9  18  38  62  85 112 150 191 237 290 341
#
# _framework density 19.115877000000001
#
# number of rings (size 3 to 8) (size 9 to 14) (size 15 to 20)
#    0.667    1.333    2.222    1.333    1.556    1.778 
#    0.000    0.556    0.000    4.000    0.000    0.000 
#    0.000    0.000    0.000    0.000    0.000    0.000 
#
# Total GULP energy -222997.376752 kJ/mol
# GULP energy per Si atom -12388.743153 kJ/mol
# Density = 1.907237 g / cm^3
# Si number density = 19.115877 Si / 1000 Ang^3
#
#
#
# Elastic Constant Matrix: (Units=GPa)
#
#
# Indices 1 2 3 4 5 6 
#
# 1 207.4108 55.8500 80.1565 0.0000 0.0000 0.0000
# 2 55.8500 83.1431 21.7599 0.0000 0.0000 0.0000
# 3 80.1565 21.7599 109.1780 0.0000 0.0000 0.0000
# 4 0.0000 0.0000 0.0000 15.4884 0.0000 0.0000
# 5 0.0000 0.0000 0.0000 0.0000 18.4026 0.0000
# 6 0.0000 0.0000 0.0000 0.0000 0.0000 29.9988
#
#
#
# Elastic Compliance Matrix: (Units=1/GPa)
#
#
# Indices 1 2 3 4 5 6 
#
# 1 0.007789 -0.003941 -0.004933 0.000000 0.000000 0.000000
# 2 -0.003941 0.014683 -0.000033 0.000000 0.000000 0.000000
# 3 -0.004933 -0.000033 0.012788 0.000000 0.000000 0.000000
# 4 0.000000 0.000000 0.000000 0.064564 0.000000 0.000000
# 5 0.000000 0.000000 0.000000 0.000000 0.054340 0.000000
# 6 0.000000 0.000000 0.000000 0.000000 0.000000 0.033335
#
#
# Mechanical properties :
#
#
# Convention : Reuss Voigt Hill
#
# Bulk Modulus (GPa) = 57.32036 79.47385 68.39710
# Shear Modulus (GPa) = 23.68218 28.90899 26.29559
#
# Velocity S-wave (km/s) = 3.52358 3.89305 3.71292
# Velocity P-wave (km/s) = 6.82679 7.86593 7.36471
#
# Compressibility (1/GPa) = 0.01744581
#
# Stress axis : x y z
#
# Youngs Moduli (GPa) = 128.38578 68.10381 78.20002
#
# Poissons Ratio (x) = 0.26840 0.38577
# Poissons Ratio (y) = 0.50598 0.00258
# Poissons Ratio (z) = 0.63334 0.00225
#
# Static dielectric constant tensor:
#      x y z
#    x 4.098800 0.000000 0.000000 
#    y 0.000000 3.250120 0.000000 
#    z 0.000000 0.000000 3.416300 
# 
# 
# High freq. dielectric constant tensor:
#      x y z
#    x 1.766870 0.000000 0.000000 
#    y 0.000000 1.723720 0.000000 
#    z 0.000000 0.000000 1.723940 
# 
# From -- ./inp_files/16572.got.cif
#   From: 2010.03.12/outbox.cif.g09.slc.cpg/sg35_9_cif.got.tgz:16572.got - 2010.04.14 02:02:04.
