data_PCOD8173679
_publ_section_title
;
Structure prediction by ZEFSAII (Michael W. Deem and Ramdas Pophale) SiO2 
 PCOD8173679
Probable space group: C M M 2
;
_chemical_formula_sum "Si O2"
_cell_formula_units_Z 48
_cell_length_a 7.708790
_cell_length_b 18.560983
_cell_length_c 16.891094
_cell_angle_alpha 90.000000
_cell_angle_beta 90.000000
_cell_angle_gamma 90.000000
_cell_volume 2416.823676
_symmetry_space_group_name_H-M "C M M 2"
_symmetry_group_IT_number 35
_symmetry_cell_setting 'orthorhombic'
loop_
_space_group_symop_operation_xyz
x,y,z
-x,-y,z
-x,y,z
x,-y,z
1/2+x,1/2+y,z
1/2-x,1/2-y,z
1/2-x,1/2+y,z
1/2+x,1/2-y,z
loop_
_atom_site_type_symbol
_atom_site_label
_atom_site_fract_x
_atom_site_fract_y
_atom_site_fract_z
Si Si1 0.305923 0.417368 0.125000
Si Si2 0.802094 0.578733 0.826187
Si Si3 0.000000 0.414826 0.236088
Si Si4 0.703953 0.833009 0.973233
Si Si5 0.000000 0.414143 0.414611
Si Si6 0.704297 0.669143 0.502302
Si Si7 0.200848 0.170545 0.684248
O O1 0.500000 0.411574 0.160548
O O2 0.260297 0.500000 0.102723
O O3 0.171888 0.387413 0.190489
O O4 0.297827 0.369526 0.046936
O O5 0.710287 0.500000 0.826044
O O6 0.719506 0.630213 0.893329
O O7 0.794670 0.612766 0.739050
O O8 0.000000 0.568070 0.849253
O O9 0.000000 0.500000 0.240831
O O10 0.000000 0.384311 0.324872
O O11 0.500000 0.844160 0.982656
O O12 0.750000 0.750000 0.969602
O O13 0.822799 0.386179 0.454203
O O14 0.000000 0.500000 0.419918
O O15 0.500000 0.653161 0.488038
O O16 0.750000 0.750000 0.475069
O O17 0.758201 0.659163 0.593796
O O18 0.250000 0.250000 0.713555
O O19 0.000000 0.157724 0.694901
#
# Coordination Sequence:
#
# PCOD8173679 Si02
#       7
#     8   8   4   8   4   8   8
#     4  10  20  37  64  90 115 155 201 243 297 361
#     4  10  22  37  55  82 117 157 199 244 296 349
#     4   9  20  40  62  89 125 158 195 245 301 368
#     4  11  22  37  57  82 118 155 197 251 297 353
#     4  11  24  40  66  99 130 166 205 259 326 374
#     4  10  21  40  66  92 126 168 216 257 311 385
#     4  10  21  36  58  85 114 155 201 250 296 353
#
# _framework density 19.860779000000001
#
# number of rings (size 3 to 8) (size 9 to 14) (size 15 to 20)
#    0.000    1.833    1.667    2.000    2.333    5.333 
#    0.000    4.167    0.000    0.000    0.000    0.000 
#    0.000    0.000    0.000    0.000    0.000    0.000 
#
# Total GULP energy -297604.967999 kJ/mol
# GULP energy per Si atom -12400.207000 kJ/mol
# Density = 1.981557 g / cm^3
# Si number density = 19.860779 Si / 1000 Ang^3
#
#
#
# Elastic Constant Matrix: (Units=GPa)
#
#
# Indices 1 2 3 4 5 6 
#
# 1 100.6199 36.5251 46.1626 0.0000 0.0000 0.0000
# 2 36.5251 130.5480 70.0097 0.0000 0.0000 0.0000
# 3 46.1626 70.0097 129.5155 0.0000 0.0000 0.0000
# 4 0.0000 0.0000 0.0000 23.0817 0.0000 0.0000
# 5 0.0000 0.0000 0.0000 0.0000 16.6165 0.0000
# 6 0.0000 0.0000 0.0000 0.0000 0.0000 28.9146
#
#
#
# Elastic Compliance Matrix: (Units=1/GPa)
#
#
# Indices 1 2 3 4 5 6 
#
# 1 0.012089 -0.001509 -0.003493 0.000000 0.000000 0.000000
# 2 -0.001509 0.010975 -0.005395 0.000000 0.000000 0.000000
# 3 -0.003493 -0.005395 0.011882 0.000000 0.000000 0.000000
# 4 0.000000 0.000000 0.000000 0.043324 0.000000 0.000000
# 5 0.000000 0.000000 0.000000 0.000000 0.060181 0.000000
# 6 0.000000 0.000000 0.000000 0.000000 0.000000 0.034585
#
#
# Mechanical properties :
#
#
# Convention : Reuss Voigt Hill
#
# Bulk Modulus (GPa) = 70.65873 74.00867 72.33370
# Shear Modulus (GPa) = 25.18288 27.58831 26.38559
#
# Velocity S-wave (km/s) = 3.56472 3.73109 3.64885
# Velocity P-wave (km/s) = 7.25239 7.47703 7.36557
#
# Compressibility (1/GPa) = 0.01415253
#
# Stress axis : x y z
#
# Youngs Moduli (GPa) = 82.72191 91.11327 84.15877
#
# Poissons Ratio (x) = 0.13749 0.29397
# Poissons Ratio (y) = 0.12483 0.45403
# Poissons Ratio (z) = 0.28895 0.49155
#
# Static dielectric constant tensor:
#      x y z
#    x 3.685540 0.000000 0.000000 
#    y 0.000000 3.607110 0.000000 
#    z 0.000000 0.000000 3.683720 
# 
# 
# High freq. dielectric constant tensor:
#      x y z
#    x 1.782930 0.000000 0.000000 
#    y 0.000000 1.767680 0.000000 
#    z 0.000000 0.000000 1.769520 
# 
# From -- ./inp_files/17875.got.cif
#   From: 2010.03.12/outbox.cif.g09.slc.cpg/sg35_9_cif.got.tgz:17875.got - 2010.04.14 02:02:04.
