data_PCOD8173715
_publ_section_title
;
Structure prediction by ZEFSAII (Michael W. Deem and Ramdas Pophale) SiO2 
 PCOD8173715
Probable space group: C M M 2
;
_chemical_formula_sum "Si O2"
_cell_formula_units_Z 40
_cell_length_a 18.331106
_cell_length_b 7.405894
_cell_length_c 14.578655
_cell_angle_alpha 90.000000
_cell_angle_beta 90.000000
_cell_angle_gamma 90.000000
_cell_volume 1979.172369
_symmetry_space_group_name_H-M "C M M 2"
_symmetry_group_IT_number 35
_symmetry_cell_setting 'orthorhombic'
loop_
_space_group_symop_operation_xyz
x,y,z
-x,-y,z
-x,y,z
x,-y,z
1/2+x,1/2+y,z
1/2-x,1/2-y,z
1/2-x,1/2+y,z
1/2+x,1/2-y,z
loop_
_atom_site_type_symbol
_atom_site_label
_atom_site_fract_x
_atom_site_fract_y
_atom_site_fract_z
Si Si1 0.081699 0.214553 0.365760
Si Si2 0.832711 0.211224 0.990216
Si Si3 0.084150 0.500000 0.878705
Si Si4 0.164552 0.210646 0.546535
Si Si5 0.831676 0.210371 0.195054
Si Si6 0.414428 0.000000 0.663967
O O1 0.132069 0.278629 0.449679
O O2 0.114243 0.295619 0.270919
O O3 0.000000 0.290542 0.379071
O O4 0.081314 0.000000 0.360999
O O5 0.750000 0.250000 0.961548
O O6 0.883498 0.317727 0.920822
O O7 0.851010 0.000000 0.982241
O O8 0.846078 0.289191 0.093374
O O9 0.099830 0.500000 0.771494
O O10 0.000000 0.500000 0.902230
O O11 0.250000 0.250000 0.547987
O O12 0.123553 0.320080 0.625589
O O13 0.148895 0.000000 0.563481
O O14 0.750000 0.250000 0.228037
O O15 0.845243 0.000000 0.189080
O O16 0.500000 0.000000 0.639435
#
# Coordination Sequence:
#
# PCOD8173715 Si02
#       6
#     8   8   4   8   8   4
#     4   9  18  33  55  85 122 164 201 242 300 361
#     4  10  20  39  65  93 122 166 210 253 306 365
#     4  11  26  44  63  93 128 157 199 265 321 366
#     4  11  22  41  66  93 124 161 209 255 306 364
#     4   9  18  32  56  84 118 156 201 248 295 353
#     4  11  26  46  65  91 126 159 201 261 321 372
#
# _framework density 20.210469
#
# number of rings (size 3 to 8) (size 9 to 14) (size 15 to 20)
#    0.000    2.000    2.000    1.200    1.400    4.000 
#    1.800    4.000    0.000    0.000    0.000    0.000 
#    0.000    0.000    0.000    0.000    0.000    0.000 
#
# Total GULP energy -247998.224339 kJ/mol
# GULP energy per Si atom -12399.911217 kJ/mol
# Density = 2.016447 g / cm^3
# Si number density = 20.210469 Si / 1000 Ang^3
#
#
#
# Elastic Constant Matrix: (Units=GPa)
#
#
# Indices 1 2 3 4 5 6 
#
# 1 166.8306 43.0540 105.4229 0.0000 0.0000 0.0000
# 2 43.0540 97.4987 48.5315 0.0000 0.0000 0.0000
# 3 105.4229 48.5315 135.9929 0.0000 0.0000 0.0000
# 4 0.0000 0.0000 0.0000 26.6886 0.0000 0.0000
# 5 0.0000 0.0000 0.0000 0.0000 41.5803 0.0000
# 6 0.0000 0.0000 0.0000 0.0000 0.0000 17.0009
#
#
#
# Elastic Compliance Matrix: (Units=1/GPa)
#
#
# Indices 1 2 3 4 5 6 
#
# 1 0.011801 -0.000799 -0.008863 0.000000 0.000000 0.000000
# 2 -0.000799 0.012526 -0.003850 0.000000 0.000000 0.000000
# 3 -0.008863 -0.003850 0.015598 0.000000 0.000000 0.000000
# 4 0.000000 0.000000 0.000000 0.037469 0.000000 0.000000
# 5 0.000000 0.000000 0.000000 0.000000 0.024050 0.000000
# 6 0.000000 0.000000 0.000000 0.000000 0.000000 0.058820
#
#
# Mechanical properties :
#
#
# Convention : Reuss Voigt Hill
#
# Bulk Modulus (GPa) = 77.52205 88.25989 82.89097
# Shear Modulus (GPa) = 26.09733 30.60822 28.35277
#
# Velocity S-wave (km/s) = 3.59733 3.89585 3.74956
# Velocity P-wave (km/s) = 7.46291 8.00013 7.73618
#
# Compressibility (1/GPa) = 0.01289956
#
# Stress axis : x y z
#
# Youngs Moduli (GPa) = 84.73784 79.83268 64.11043
#
# Poissons Ratio (x) = 0.06383 0.56821
# Poissons Ratio (y) = 0.06775 0.24685
# Poissons Ratio (z) = 0.75103 0.30739
#
# Static dielectric constant tensor:
#      x y z
#    x 3.775990 0.000000 0.000000 
#    y 0.000000 3.586410 0.000000 
#    z 0.000000 0.000000 3.824110 
# 
# 
# High freq. dielectric constant tensor:
#      x y z
#    x 1.791420 0.000000 0.000000 
#    y 0.000000 1.789550 0.000000 
#    z 0.000000 0.000000 1.790060 
# 
# From -- ./inp_files/16608.got.cif
#   From: 2010.03.12/outbox.cif.g09.slc.cpg/sg35_9_cif.got.tgz:16608.got - 2010.04.14 02:02:04.
