data_PCOD8173672
_publ_section_title
;
Structure prediction by ZEFSAII (Michael W. Deem and Ramdas Pophale) SiO2 
 PCOD8173672
Probable space group: C M M 2
;
_chemical_formula_sum "Si O2"
_cell_formula_units_Z 40
_cell_length_a 7.696340
_cell_length_b 17.773285
_cell_length_c 14.460003
_cell_angle_alpha 90.000000
_cell_angle_beta 90.000000
_cell_angle_gamma 90.000000
_cell_volume 1977.972883
_symmetry_space_group_name_H-M "C M M 2"
_symmetry_group_IT_number 35
_symmetry_cell_setting 'orthorhombic'
loop_
_space_group_symop_operation_xyz
x,y,z
-x,-y,z
-x,y,z
x,-y,z
1/2+x,1/2+y,z
1/2-x,1/2-y,z
1/2-x,1/2+y,z
1/2+x,1/2-y,z
loop_
_atom_site_type_symbol
_atom_site_label
_atom_site_fract_x
_atom_site_fract_y
_atom_site_fract_z
Si Si1 0.795558 0.586496 0.282440
Si Si2 0.500000 0.910702 0.576406
Si Si3 0.702544 0.835509 0.094797
Si Si4 0.000000 0.410822 0.784058
Si Si5 0.806498 0.086087 0.913197
Si Si6 0.804338 0.836033 0.464232
O O1 0.740077 0.500000 0.290888
O O2 0.736113 0.616340 0.182698
O O3 0.697196 0.634171 0.359664
O O4 0.000000 0.597385 0.297282
O O5 0.500000 0.877828 0.680613
O O6 0.674592 0.883647 0.527141
O O7 0.500000 0.000000 0.573773
O O8 0.500000 0.846474 0.076175
O O9 0.750000 0.750000 0.114719
O O10 0.803354 0.864630 0.005427
O O11 0.171496 0.381902 0.837683
O O12 0.000000 0.500000 0.777859
O O13 0.000000 0.091718 0.870603
O O14 0.758702 0.000000 0.938659
O O15 0.750000 0.750000 0.464933
O O16 0.000000 0.844536 0.503370
#
# Coordination Sequence:
#
# PCOD8173672 Si02
#       6
#     8   4   8   4   8   8
#     4  10  21  38  61  92 127 166 211 259 310 373
#     4  11  24  44  69  99 132 163 213 277 325 384
#     4  11  22  36  57  85 126 167 209 251 310 371
#     4   9  20  40  65  91 123 159 201 259 320 366
#     4  10  20  37  63  91 120 159 207 255 307 371
#     4  12  24  42  68  94 131 173 216 260 326 387
#
# _framework density 20.222725000000001
#
# number of rings (size 3 to 8) (size 9 to 14) (size 15 to 20)
#    0.000    1.400    3.000    2.400    0.000    6.400 
#    0.000    3.000    0.000    0.000    0.000    0.000 
#    0.000    0.000    0.000    0.000    0.000    0.000 
#
# Total GULP energy -248088.120187 kJ/mol
# GULP energy per Si atom -12404.406009 kJ/mol
# Density = 2.017670 g / cm^3
# Si number density = 20.222725 Si / 1000 Ang^3
#
#
#
# Elastic Constant Matrix: (Units=GPa)
#
#
# Indices 1 2 3 4 5 6 
#
# 1 142.0236 33.1668 61.6066 0.0000 0.0000 0.0000
# 2 33.1668 91.2417 32.8925 0.0000 0.0000 0.0000
# 3 61.6066 32.8925 132.1149 0.0000 0.0000 0.0000
# 4 0.0000 0.0000 0.0000 -2.6885 0.0000 0.0000
# 5 0.0000 0.0000 0.0000 0.0000 -3.1812 0.0000
# 6 0.0000 0.0000 0.0000 0.0000 0.0000 26.5740
#
#
#
# Elastic Compliance Matrix: (Units=1/GPa)
#
#
# Indices 1 2 3 4 5 6 
#
# 1 0.009135 -0.001961 -0.003772 0.000000 0.000000 0.000000
# 2 -0.001961 0.012462 -0.002188 0.000000 0.000000 0.000000
# 3 -0.003772 -0.002188 0.009873 0.000000 0.000000 0.000000
# 4 0.000000 0.000000 0.000000 -0.371955 0.000000 0.000000
# 5 0.000000 0.000000 0.000000 0.000000 -0.314343 0.000000
# 6 0.000000 0.000000 0.000000 0.000000 0.000000 0.037631
#
#
# Mechanical properties :
#
#
# Convention : Reuss Voigt Hill
#
# Bulk Modulus (GPa) = 63.98792 68.96801 66.47797
# Shear Modulus (GPa) = -8.38718 19.98847 5.80065
#
# Velocity S-wave (km/s) = -2.03873 3.14732 1.69547
# Velocity P-wave (km/s) = 5.11551 6.88373 6.06441
#
# Compressibility (1/GPa) = 0.01562795
#
# Stress axis : x y z
#
# Youngs Moduli (GPa) = 109.46855 80.24686 101.28995
#
# Poissons Ratio (x) = 0.15736 0.38202
# Poissons Ratio (y) = 0.21467 0.22163
# Poissons Ratio (z) = 0.41286 0.17559
#
# Static dielectric constant tensor:
#      x y z
#    x 3.868280 0.000000 0.000000 
#    y 0.000000 3.684160 0.000000 
#    z 0.000000 0.000000 3.731820 
# 
# 
# High freq. dielectric constant tensor:
#      x y z
#    x 1.801330 0.000000 0.000000 
#    y 0.000000 1.785460 0.000000 
#    z 0.000000 0.000000 1.784570 
# 
# From -- ./inp_files/14762.got.cif
#   From: 2010.03.12/outbox.cif.g09.slc.cpg/sg35_8_cif.got.tgz:14762.got - 2010.04.14 02:02:04.
