data_PCOD8173802
_publ_section_title
;
Structure prediction by ZEFSAII (Michael W. Deem and Ramdas Pophale) SiO2 
 PCOD8173802
Probable space group: C M M 2
;
_chemical_formula_sum "Si O2"
_cell_formula_units_Z 48
_cell_length_a 8.708466
_cell_length_b 18.516662
_cell_length_c 15.316116
_cell_angle_alpha 90.000000
_cell_angle_beta 90.000000
_cell_angle_gamma 90.000000
_cell_volume 2469.750071
_symmetry_space_group_name_H-M "C M M 2"
_symmetry_group_IT_number 35
_symmetry_cell_setting 'orthorhombic'
loop_
_space_group_symop_operation_xyz
x,y,z
-x,-y,z
-x,y,z
x,-y,z
1/2+x,1/2+y,z
1/2-x,1/2-y,z
1/2-x,1/2+y,z
1/2+x,1/2-y,z
loop_
_atom_site_type_symbol
_atom_site_label
_atom_site_fract_x
_atom_site_fract_y
_atom_site_fract_z
Si Si1 0.318911 0.673155 0.091130
Si Si2 0.681571 0.829022 0.411043
Si Si3 0.674051 0.585316 0.757990
Si Si4 0.680482 0.825998 0.906548
Si Si5 0.319881 0.916726 0.578386
Si Si6 0.179051 0.416039 0.241728
O O1 0.500000 0.681164 0.084540
O O2 0.250000 0.750000 0.120882
O O3 0.275222 0.611794 0.159738
O O4 0.253929 0.648762 0.997652
O O5 0.500000 0.823811 0.412626
O O6 0.750000 0.750000 0.406083
O O7 0.741008 0.869604 0.497501
O O8 0.737007 0.874353 0.327522
O O9 0.500000 0.612227 0.771676
O O10 0.686956 0.500000 0.763198
O O11 0.782766 0.615754 0.833061
O O12 0.732458 0.612122 0.663858
O O13 0.500000 0.818362 0.919497
O O14 0.750000 0.750000 0.876127
O O15 0.500000 0.906484 0.594010
O O16 0.280273 0.000000 0.558573
O O17 0.213758 0.500000 0.255740
O O18 0.000000 0.401836 0.224057
#
# Coordination Sequence:
#
# PCOD8173802 Si02
#       6
#     8   8   8   8   8   8
#     4  11  22  38  59  83 113 147 185 229 278 331
#     4  10  21  36  56  82 111 145 184 229 278 330
#     4  10  21  37  57  83 115 149 186 230 279 330
#     4  11  22  38  60  84 112 147 187 230 278 331
#     4   9  18  35  57  79 106 144 189 232 276 328
#     4  10  21  38  59  83 112 147 187 230 278 331
#
# _framework density 19.435165999999999
#
# number of rings (size 3 to 8) (size 9 to 14) (size 15 to 20)
#    0.000    1.833    0.000    5.500    0.000    7.333 
#    0.000    1.667    0.000    3.000    0.000    0.000 
#    0.000    0.000    0.000    0.000    0.000    0.000 
#
# Total GULP energy -297716.270749 kJ/mol
# GULP energy per Si atom -12404.844615 kJ/mol
# Density = 1.939093 g / cm^3
# Si number density = 19.435166 Si / 1000 Ang^3
#
#
#
# Elastic Constant Matrix: (Units=GPa)
#
#
# Indices 1 2 3 4 5 6 
#
# 1 106.2988 42.3918 54.0728 0.0000 0.0000 0.0000
# 2 42.3918 97.2562 74.8652 0.0000 0.0000 0.0000
# 3 54.0728 74.8652 148.6610 0.0000 0.0000 0.0000
# 4 0.0000 0.0000 0.0000 41.9237 0.0000 0.0000
# 5 0.0000 0.0000 0.0000 0.0000 24.6206 0.0000
# 6 0.0000 0.0000 0.0000 0.0000 0.0000 32.0410
#
#
#
# Elastic Compliance Matrix: (Units=1/GPa)
#
#
# Indices 1 2 3 4 5 6 
#
# 1 0.012081 -0.003076 -0.002846 0.000000 0.000000 0.000000
# 2 -0.003076 0.017574 -0.007732 0.000000 0.000000 0.000000
# 3 -0.002846 -0.007732 0.011655 0.000000 0.000000 0.000000
# 4 0.000000 0.000000 0.000000 0.023853 0.000000 0.000000
# 5 0.000000 0.000000 0.000000 0.000000 0.040616 0.000000
# 6 0.000000 0.000000 0.000000 0.000000 0.000000 0.031210
#
#
# Mechanical properties :
#
#
# Convention : Reuss Voigt Hill
#
# Bulk Modulus (GPa) = 71.40046 77.20839 74.30443
# Shear Modulus (GPa) = 29.59197 31.77613 30.68405
#
# Velocity S-wave (km/s) = 3.90628 4.04788 3.97771
# Velocity P-wave (km/s) = 7.56062 7.85235 7.70786
#
# Compressibility (1/GPa) = 0.01400551
#
# Stress axis : x y z
#
# Youngs Moduli (GPa) = 82.77126 56.90103 85.79714
#
# Poissons Ratio (x) = 0.17501 0.24414
# Poissons Ratio (y) = 0.25457 0.66336
# Poissons Ratio (z) = 0.23553 0.43994
#
# Static dielectric constant tensor:
#      x y z
#    x 3.572440 0.000000 0.000000 
#    y 0.000000 3.423020 0.000000 
#    z 0.000000 0.000000 3.693660 
# 
# 
# High freq. dielectric constant tensor:
#      x y z
#    x 1.757590 0.000000 0.000000 
#    y 0.000000 1.753380 0.000000 
#    z 0.000000 0.000000 1.770830 
# 
# From -- ./inp_files/15109.got.cif
#   From: 2010.03.12/outbox.cif.g09.slc.cpg/sg35_8_cif.got.tgz:15109.got - 2010.04.14 02:02:04.
