data_PCOD8173836
_publ_section_title
;
Structure prediction by ZEFSAII (Michael W. Deem and Ramdas Pophale) SiO2 
 PCOD8173836
Probable space group: C M M 2
;
_chemical_formula_sum "Si O2"
_cell_formula_units_Z 48
_cell_length_a 10.125987
_cell_length_b 17.085077
_cell_length_c 13.824061
_cell_angle_alpha 90.000000
_cell_angle_beta 90.000000
_cell_angle_gamma 90.000000
_cell_volume 2391.607724
_symmetry_space_group_name_H-M "C M M 2"
_symmetry_group_IT_number 35
_symmetry_cell_setting 'orthorhombic'
loop_
_space_group_symop_operation_xyz
x,y,z
-x,-y,z
-x,y,z
x,-y,z
1/2+x,1/2+y,z
1/2-x,1/2-y,z
1/2-x,1/2+y,z
1/2+x,1/2-y,z
loop_
_atom_site_type_symbol
_atom_site_label
_atom_site_fract_x
_atom_site_fract_y
_atom_site_fract_z
Si Si1 0.727805 0.093411 0.028810
Si Si2 0.232435 0.158772 0.456939
Si Si3 0.000000 0.592040 0.385481
Si Si4 0.147933 0.592960 0.819347
Si Si5 0.000000 0.092986 0.330989
Si Si6 0.000000 0.406778 0.168310
Si Si7 0.349079 0.409208 0.656989
Si Si8 0.500000 0.593039 0.110679
O O1 0.628240 0.124054 0.111198
O O2 0.872244 0.125957 0.055139
O O3 0.725413 0.000000 0.026430
O O4 0.686335 0.127224 0.924359
O O5 0.250000 0.250000 0.441295
O O6 0.373115 0.118035 0.445394
O O7 0.131982 0.126086 0.378083
O O8 0.175017 0.141923 0.562444
O O9 0.000000 0.500000 0.377541
O O10 0.000000 0.628269 0.276897
O O11 0.154020 0.500000 0.823889
O O12 0.252455 0.623529 0.740386
O O13 0.000000 0.621015 0.791515
O O14 0.000000 0.121731 0.220818
O O15 0.000000 0.000000 0.341994
O O16 0.000000 0.500000 0.172215
O O17 0.500000 0.398559 0.692058
O O18 0.319598 0.500000 0.633245
O O19 0.500000 0.500000 0.108989
#
# Coordination Sequence:
#
# PCOD8173836 Si02
#       8
#     8   8   4   8   4   4   8   4
#     4   9  15  26  44  74 117 151 177 227 291 343
#     4  12  25  41  60  86 119 156 200 247 304 355
#     4  11  23  37  60  91 118 152 199 247 288 347
#     4   9  17  29  48  78 116 152 184 232 295 349
#     4  11  21  41  64  85 120 164 203 243 294 351
#     4   9  16  29  48  75 112 148 181 225 290 343
#     4  10  21  37  58  82 113 154 197 240 292 354
#     4   9  18  27  48  81 112 150 193 233 280 341
#
# _framework density 20.070181000000002
#
# number of rings (size 3 to 8) (size 9 to 14) (size 15 to 20)
#    0.000    2.000    1.667    3.000    2.333    2.667 
#    0.000    0.000    0.000    0.000    0.000    7.000 
#    0.000    0.000    0.000    0.000    0.000    0.000 
#
# Total GULP energy -297630.466454 kJ/mol
# GULP energy per Si atom -12401.269436 kJ/mol
# Density = 2.002450 g / cm^3
# Si number density = 20.070181 Si / 1000 Ang^3
#
#
#
# Elastic Constant Matrix: (Units=GPa)
#
#
# Indices 1 2 3 4 5 6 
#
# 1 177.3430 17.6757 57.7652 0.0000 0.0000 0.0000
# 2 17.6757 46.7285 14.2583 0.0000 0.0000 0.0000
# 3 57.7652 14.2583 114.1017 0.0000 0.0000 0.0000
# 4 0.0000 0.0000 0.0000 -1.0132 0.0000 0.0000
# 5 0.0000 0.0000 0.0000 0.0000 47.2023 0.0000
# 6 0.0000 0.0000 0.0000 0.0000 0.0000 24.6492
#
#
#
# Elastic Compliance Matrix: (Units=1/GPa)
#
#
# Indices 1 2 3 4 5 6 
#
# 1 0.006865 -0.001597 -0.003276 0.000000 0.000000 0.000000
# 2 -0.001597 0.022620 -0.002018 0.000000 0.000000 0.000000
# 3 -0.003276 -0.002018 0.010675 0.000000 0.000000 0.000000
# 4 0.000000 0.000000 0.000000 -0.986975 0.000000 0.000000
# 5 0.000000 0.000000 0.000000 0.000000 0.021185 0.000000
# 6 0.000000 0.000000 0.000000 0.000000 0.000000 0.040569
#
#
# Mechanical properties :
#
#
# Convention : Reuss Voigt Hill
#
# Bulk Modulus (GPa) = 37.91094 57.50796 47.70945
# Shear Modulus (GPa) = -5.79720 30.73258 12.46769
#
# Velocity S-wave (km/s) = -1.70139 3.91737 2.49510
# Velocity P-wave (km/s) = 3.88208 7.01261 5.66777
#
# Compressibility (1/GPa) = 0.02637761
#
# Stress axis : x y z
#
# Youngs Moduli (GPa) = 145.66566 44.20840 93.67898
#
# Poissons Ratio (x) = 0.07061 0.30688
# Poissons Ratio (y) = 0.23266 0.18905
# Poissons Ratio (z) = 0.47719 0.08921
#
# Static dielectric constant tensor:
#      x y z
#    x 3.955750 0.000000 0.000000 
#    y 0.000000 3.050780 0.000000 
#    z 0.000000 0.000000 3.828690 
# 
# 
# High freq. dielectric constant tensor:
#      x y z
#    x 1.805380 0.000000 0.000000 
#    y 0.000000 1.723340 0.000000 
#    z 0.000000 0.000000 1.793980 
# 
# From -- ./inp_files/15296.got.cif
#   From: 2010.03.12/outbox.cif.g09.slc.cpg/sg35_8_cif.got.tgz:15296.got - 2010.04.14 02:02:04.
