data_PCOD8173944
_publ_section_title
;
Structure prediction by ZEFSAII (Michael W. Deem and Ramdas Pophale) SiO2 
 PCOD8173944
Probable space group: C M M 2
;
_chemical_formula_sum "Si O2"
_cell_formula_units_Z 64
_cell_length_a 29.414274
_cell_length_b 8.736270
_cell_length_c 12.196626
_cell_angle_alpha 90.000000
_cell_angle_beta 90.000000
_cell_angle_gamma 90.000000
_cell_volume 3134.179662
_symmetry_space_group_name_H-M "C M M 2"
_symmetry_group_IT_number 35
_symmetry_cell_setting 'orthorhombic'
loop_
_space_group_symop_operation_xyz
x,y,z
-x,-y,z
-x,y,z
x,-y,z
1/2+x,1/2+y,z
1/2-x,1/2-y,z
1/2-x,1/2+y,z
1/2+x,1/2-y,z
loop_
_atom_site_type_symbol
_atom_site_label
_atom_site_fract_x
_atom_site_fract_y
_atom_site_fract_z
Si Si1 0.553496 0.324048 0.042330
Si Si2 0.799839 0.820830 0.047128
Si Si3 0.199931 0.319583 0.589033
Si Si4 0.799013 0.177181 0.804699
Si Si5 0.551499 0.678497 0.600022
Si Si6 0.553964 0.170827 0.820879
Si Si7 0.624075 0.820234 0.196389
Si Si8 0.128445 0.179422 0.433117
O O1 0.500000 0.297533 0.056924
O O2 0.567305 0.500000 0.060264
O O3 0.578256 0.220022 0.131518
O O4 0.570340 0.275636 0.921476
O O5 0.750000 0.750000 0.056828
O O6 0.831739 0.733099 0.130916
O O7 0.797359 0.000000 0.076462
O O8 0.821455 0.798463 0.924613
O O9 0.203382 0.500000 0.590569
O O10 0.250000 0.250000 0.577730
O O11 0.175822 0.260760 0.702726
O O12 0.170781 0.267215 0.485532
O O13 0.750000 0.250000 0.813910
O O14 0.794935 0.000000 0.774561
O O15 0.500000 0.732113 0.573954
O O16 0.552895 0.500000 0.626487
O O17 0.572238 0.761837 0.706697
O O18 0.582070 0.722367 0.496257
O O19 0.500000 0.170505 0.816762
O O20 0.573302 0.000000 0.837255
O O21 0.622229 0.731470 0.309787
O O22 0.626583 0.000000 0.217610
O O23 0.138461 0.000000 0.438413
#
# Coordination Sequence:
#
# PCOD8173944 Si02
#       8
#     8   8   8   8   8   8   8   8
#     4  10  21  39  63  88 117 155 196 239 290 347
#     4  10  21  39  63  90 121 156 195 239 290 347
#     4  11  22  38  61  88 119 153 191 236 290 346
#     4   9  17  32  57  88 119 150 186 230 283 344
#     4   9  19  37  61  87 116 152 191 233 284 343
#     4   9  17  31  55  88 122 152 186 233 288 344
#     4  12  26  42  60  85 117 153 198 247 294 346
#     4  11  24  42  61  83 114 152 199 246 287 341
#
# _framework density 20.420017000000001
#
# number of rings (size 3 to 8) (size 9 to 14) (size 15 to 20)
#    0.000    1.875    0.000    4.875    0.000    6.750 
#    0.000    5.000    0.000    0.000    0.000    0.000 
#    0.000    0.000    0.000    0.000    0.000    0.000 
#
# Total GULP energy -396800.681929 kJ/mol
# GULP energy per Si atom -12400.021310 kJ/mol
# Density = 2.037354 g / cm^3
# Si number density = 20.420017 Si / 1000 Ang^3
#
#
#
# Elastic Constant Matrix: (Units=GPa)
#
#
# Indices 1 2 3 4 5 6 
#
# 1 75.6866 36.0493 44.4618 0.0000 0.0000 0.0000
# 2 36.0493 105.1910 33.7777 0.0000 0.0000 0.0000
# 3 44.4618 33.7777 135.1635 0.0000 0.0000 0.0000
# 4 0.0000 0.0000 0.0000 36.0847 0.0000 0.0000
# 5 0.0000 0.0000 0.0000 0.0000 26.9548 0.0000
# 6 0.0000 0.0000 0.0000 0.0000 0.0000 28.1863
#
#
#
# Elastic Compliance Matrix: (Units=1/GPa)
#
#
# Indices 1 2 3 4 5 6 
#
# 1 0.018304 -0.004718 -0.004842 0.000000 0.000000 0.000000
# 2 -0.004718 0.011552 -0.001335 0.000000 0.000000 0.000000
# 3 -0.004842 -0.001335 0.009325 0.000000 0.000000 0.000000
# 4 0.000000 0.000000 0.000000 0.027713 0.000000 0.000000
# 5 0.000000 0.000000 0.000000 0.000000 0.037099 0.000000
# 6 0.000000 0.000000 0.000000 0.000000 0.000000 0.035478
#
#
# Mechanical properties :
#
#
# Convention : Reuss Voigt Hill
#
# Bulk Modulus (GPa) = 57.50114 60.51320 59.00717
# Shear Modulus (GPa) = 29.92978 31.69531 30.81254
#
# Velocity S-wave (km/s) = 3.83261 3.94403 3.88872
# Velocity P-wave (km/s) = 6.91415 7.10205 7.00873
#
# Compressibility (1/GPa) = 0.01739096
#
# Stress axis : x y z
#
# Youngs Moduli (GPa) = 54.63288 86.56468 107.24073
#
# Poissons Ratio (x) = 0.40842 0.51926
# Poissons Ratio (y) = 0.25776 0.14316
# Poissons Ratio (z) = 0.26453 0.11556
#
# Static dielectric constant tensor:
#      x y z
#    x 3.559420 0.000000 0.000000 
#    y 0.000000 3.828820 0.000000 
#    z 0.000000 0.000000 4.017720 
# 
# 
# High freq. dielectric constant tensor:
#      x y z
#    x 1.788900 0.000000 0.000000 
#    y 0.000000 1.810000 0.000000 
#    z 0.000000 0.000000 1.803630 
# 
# From -- ./inp_files/14604.got.cif
#   From: 2010.03.12/outbox.cif.g09.slc.cpg/sg35_8_cif.got.tgz:14604.got - 2010.04.14 02:02:04.
