data_PCOD8173698
_publ_section_title
;
Structure prediction by ZEFSAII (Michael W. Deem and Ramdas Pophale) SiO2 
 PCOD8173698
Probable space group: C M M 2
;
_chemical_formula_sum "Si O2"
_cell_formula_units_Z 48
_cell_length_a 15.754763
_cell_length_b 8.901474
_cell_length_c 16.701222
_cell_angle_alpha 90.000000
_cell_angle_beta 90.000000
_cell_angle_gamma 90.000000
_cell_volume 2342.189615
_symmetry_space_group_name_H-M "C M M 2"
_symmetry_group_IT_number 35
_symmetry_cell_setting 'orthorhombic'
loop_
_space_group_symop_operation_xyz
x,y,z
-x,-y,z
-x,y,z
x,-y,z
1/2+x,1/2+y,z
1/2-x,1/2-y,z
1/2-x,1/2+y,z
1/2+x,1/2-y,z
loop_
_atom_site_type_symbol
_atom_site_label
_atom_site_fract_x
_atom_site_fract_y
_atom_site_fract_z
Si Si1 0.659830 0.675223 0.673830
Si Si2 0.000000 0.321853 0.093128
Si Si3 0.000000 0.821188 0.264793
Si Si4 0.096645 0.668912 0.519787
Si Si5 0.336273 0.822911 0.992168
Si Si6 0.337966 0.823360 0.348592
Si Si7 0.903550 0.668377 0.825187
O O1 0.671986 0.500000 0.675818
O O2 0.750000 0.750000 0.681752
O O3 0.615183 0.717280 0.591013
O O4 0.603367 0.724490 0.748842
O O5 0.000000 0.226424 0.173199
O O6 0.000000 0.500000 0.110764
O O7 0.916215 0.271642 0.044896
O O8 0.084207 0.755626 0.305003
O O9 0.000000 0.000000 0.273804
O O10 0.113736 0.500000 0.551176
O O11 0.155217 0.704685 0.443796
O O12 0.000000 0.687768 0.491322
O O13 0.250000 0.750000 0.026109
O O14 0.348936 0.770744 0.899965
O O15 0.326975 0.000000 0.996208
O O16 0.250000 0.750000 0.318614
O O17 0.339094 0.000000 0.328059
O O18 0.874496 0.500000 0.800914
O O19 0.000000 0.665778 0.855111
#
# Coordination Sequence:
#
# PCOD8173698 Si02
#       7
#     8   4   4   8   8   8   8
#     4  12  25  38  54  83 121 164 212 262 312 365
#     4  10  22  44  68  91 126 167 206 255 318 385
#     4  12  26  44  68  99 132 169 212 261 320 385
#     4  10  21  40  64  90 122 163 208 257 315 373
#     4  10  21  39  65  94 124 164 209 256 313 375
#     4  11  23  43  69  99 131 170 215 264 321 383
#     4  10  20  38  62  87 120 163 208 254 312 375
#
# _framework density 20.493644
#
# number of rings (size 3 to 8) (size 9 to 14) (size 15 to 20)
#    0.000    1.333    1.667    4.250    0.000    8.667 
#    0.000    1.667    0.000    0.000    0.000    0.000 
#    0.000    0.000    0.000    0.000    0.000    0.000 
#
# Total GULP energy -297682.431645 kJ/mol
# GULP energy per Si atom -12403.434652 kJ/mol
# Density = 2.044700 g / cm^3
# Si number density = 20.493644 Si / 1000 Ang^3
#
#
#
# Elastic Constant Matrix: (Units=GPa)
#
#
# Indices 1 2 3 4 5 6 
#
# 1 151.4424 57.9227 55.1055 0.0000 0.0000 0.0000
# 2 57.9227 129.7300 63.8399 0.0000 0.0000 0.0000
# 3 55.1055 63.8399 108.7997 0.0000 0.0000 0.0000
# 4 0.0000 0.0000 0.0000 24.3618 0.0000 0.0000
# 5 0.0000 0.0000 0.0000 0.0000 -18.5682 0.0000
# 6 0.0000 0.0000 0.0000 0.0000 0.0000 37.0543
#
#
#
# Elastic Compliance Matrix: (Units=1/GPa)
#
#
# Indices 1 2 3 4 5 6 
#
# 1 0.008588 -0.002382 -0.002952 0.000000 0.000000 0.000000
# 2 -0.002382 0.011498 -0.005540 0.000000 0.000000 0.000000
# 3 -0.002952 -0.005540 0.013937 0.000000 0.000000 0.000000
# 4 0.000000 0.000000 0.000000 0.041048 0.000000 0.000000
# 5 0.000000 0.000000 0.000000 0.000000 -0.053855 0.000000
# 6 0.000000 0.000000 0.000000 0.000000 0.000000 0.026987
#
#
# Mechanical properties :
#
#
# Convention : Reuss Voigt Hill
#
# Bulk Modulus (GPa) = 81.46662 82.63426 82.05044
# Shear Modulus (GPa) = 67.52689 22.77651 45.15170
#
# Velocity S-wave (km/s) = 5.74645 3.33737 4.69892
# Velocity P-wave (km/s) = 9.15791 7.43372 8.34049
#
# Compressibility (1/GPa) = 0.01227497
#
# Stress axis : x y z
#
# Youngs Moduli (GPa) = 116.43596 86.97041 71.74914
#
# Poissons Ratio (x) = 0.20714 0.21183
# Poissons Ratio (y) = 0.27732 0.39752
# Poissons Ratio (z) = 0.34376 0.48185
#
# Static dielectric constant tensor:
#      x y z
#    x 4.305780 0.000000 0.000000 
#    y 0.000000 3.790680 0.000000 
#    z 0.000000 0.000000 3.802270 
# 
# 
# High freq. dielectric constant tensor:
#      x y z
#    x 1.816470 0.000000 0.000000 
#    y 0.000000 1.795020 0.000000 
#    z 0.000000 0.000000 1.801030 
# 
# From -- ./inp_files/17933.got.cif
#   From: 2010.03.12/outbox.cif.g09.slc.cpg/sg35_9_cif.got.tgz:17933.got - 2010.04.14 02:02:04.
