data_PCOD8173310
_publ_section_title
;
Structure prediction by ZEFSAII (Michael W. Deem and Ramdas Pophale) SiO2 
 PCOD8173310
Probable space group: C M M 2
;
_chemical_formula_sum "Si O2"
_cell_formula_units_Z 48
_cell_length_a 15.575511
_cell_length_b 8.699641
_cell_length_c 17.109184
_cell_angle_alpha 90.000000
_cell_angle_beta 90.000000
_cell_angle_gamma 90.000000
_cell_volume 2318.317599
_symmetry_space_group_name_H-M "C M M 2"
_symmetry_group_IT_number 35
_symmetry_cell_setting 'orthorhombic'
loop_
_space_group_symop_operation_xyz
x,y,z
-x,-y,z
-x,y,z
x,-y,z
1/2+x,1/2+y,z
1/2-x,1/2-y,z
1/2-x,1/2+y,z
1/2+x,1/2-y,z
loop_
_atom_site_type_symbol
_atom_site_label
_atom_site_fract_x
_atom_site_fract_y
_atom_site_fract_z
Si Si1 0.162628 0.319107 0.613270
Si Si2 0.596994 0.327016 0.463504
Si Si3 0.656331 0.178880 0.312135
Si Si4 0.342670 0.820790 0.141221
Si Si5 0.846298 0.817588 0.984088
Si Si6 0.000000 0.682365 0.886771
Si Si7 0.500000 0.181819 0.706878
O O1 0.166910 0.500000 0.619583
O O2 0.250000 0.250000 0.648321
O O3 0.154130 0.271865 0.522595
O O4 0.084536 0.250745 0.664534
O O5 0.500000 0.323099 0.494088
O O6 0.633266 0.500000 0.461821
O O7 0.597270 0.257674 0.376634
O O8 0.750000 0.250000 0.317006
O O9 0.612518 0.203811 0.225965
O O10 0.664050 0.000000 0.330525
O O11 0.250000 0.750000 0.151492
O O12 0.386274 0.732063 0.068635
O O13 0.337294 0.000000 0.119240
O O14 0.750000 0.750000 0.971966
O O15 0.841625 0.000000 0.977458
O O16 0.912431 0.752573 0.920902
O O17 0.000000 0.730937 0.796586
O O18 0.000000 0.500000 0.899553
O O19 0.500000 0.000000 0.697292
#
# Coordination Sequence:
#
# PCOD8173310 Si02
#       7
#     8   8   8   8   8   4   4
#     4  11  22  41  66  93 122 158 200 244 299 362
#     4  11  23  38  56  82 117 158 203 252 302 351
#     4  10  20  34  55  82 114 154 201 249 300 353
#     4   9  17  32  55  83 114 156 202 252 303 354
#     4  11  22  39  63  93 126 166 209 253 308 367
#     4  11  23  43  67  94 127 160 201 253 308 371
#     4   9  22  43  67  92 123 158 195 245 304 363
#
# _framework density 20.704668999999999
#
# number of rings (size 3 to 8) (size 9 to 14) (size 15 to 20)
#    0.000    1.667    0.833    5.250    0.000    3.667 
#    1.500    5.000    0.000    0.000    0.000    0.000 
#    0.000    0.000    0.000    0.000    0.000    0.000 
#
# Total GULP energy -297518.880822 kJ/mol
# GULP energy per Si atom -12396.620034 kJ/mol
# Density = 2.065754 g / cm^3
# Si number density = 20.704669 Si / 1000 Ang^3
#
#
#
# Elastic Constant Matrix: (Units=GPa)
#
#
# Indices 1 2 3 4 5 6 
#
# 1 116.0060 46.1068 64.0954 0.0000 0.0000 0.0000
# 2 46.1068 131.5118 53.0944 0.0000 0.0000 0.0000
# 3 64.0954 53.0944 146.8906 0.0000 0.0000 0.0000
# 4 0.0000 0.0000 0.0000 24.8836 0.0000 0.0000
# 5 0.0000 0.0000 0.0000 0.0000 31.8340 0.0000
# 6 0.0000 0.0000 0.0000 0.0000 0.0000 30.2938
#
#
#
# Elastic Compliance Matrix: (Units=1/GPa)
#
#
# Indices 1 2 3 4 5 6 
#
# 1 0.011997 -0.002450 -0.004349 0.000000 0.000000 0.000000
# 2 -0.002450 0.009403 -0.002330 0.000000 0.000000 0.000000
# 3 -0.004349 -0.002330 0.009548 0.000000 0.000000 0.000000
# 4 0.000000 0.000000 0.000000 0.040187 0.000000 0.000000
# 5 0.000000 0.000000 0.000000 0.000000 0.031413 0.000000
# 6 0.000000 0.000000 0.000000 0.000000 0.000000 0.033010
#
#
# Mechanical properties :
#
#
# Convention : Reuss Voigt Hill
#
# Bulk Modulus (GPa) = 78.80357 80.11127 79.45742
# Shear Modulus (GPa) = 31.63616 32.80973 32.22295
#
# Velocity S-wave (km/s) = 3.91317 3.98509 3.94929
# Velocity P-wave (km/s) = 7.65249 7.74280 7.69778
#
# Compressibility (1/GPa) = 0.01268978
#
# Stress axis : x y z
#
# Youngs Moduli (GPa) = 83.35323 106.34351 104.73715
#
# Poissons Ratio (x) = 0.26056 0.45553
# Poissons Ratio (y) = 0.20423 0.24402
# Poissons Ratio (z) = 0.36253 0.24776
#
# Static dielectric constant tensor:
#      x y z
#    x 3.633470 0.000000 0.000000 
#    y 0.000000 3.795350 0.000000 
#    z 0.000000 0.000000 4.110210 
# 
# 
# High freq. dielectric constant tensor:
#      x y z
#    x 1.798040 0.000000 0.000000 
#    y 0.000000 1.815420 0.000000 
#    z 0.000000 0.000000 1.816080 
# 
# From -- ./inp_files/18755.got.cif
#   From: 2010.03.12/outbox.cif.g09.slc.cpg/sg35_10_cif.got.tgz:18755.got - 2010.04.14 02:02:04.
