data_PCOD8173877
_publ_section_title
;
Structure prediction by ZEFSAII (Michael W. Deem and Ramdas Pophale) SiO2 
 PCOD8173877
Probable space group: C M M 2
;
_chemical_formula_sum "Si O2"
_cell_formula_units_Z 56
_cell_length_a 18.543452
_cell_length_b 8.731426
_cell_length_c 18.196888
_cell_angle_alpha 90.000000
_cell_angle_beta 90.000000
_cell_angle_gamma 90.000000
_cell_volume 2946.272310
_symmetry_space_group_name_H-M "C M M 2"
_symmetry_group_IT_number 35
_symmetry_cell_setting 'orthorhombic'
loop_
_space_group_symop_operation_xyz
x,y,z
-x,-y,z
-x,y,z
x,-y,z
1/2+x,1/2+y,z
1/2-x,1/2-y,z
1/2-x,1/2+y,z
1/2+x,1/2-y,z
loop_
_atom_site_type_symbol
_atom_site_label
_atom_site_fract_x
_atom_site_fract_y
_atom_site_fract_z
Si Si1 0.671671 0.679259 0.530960
Si Si2 0.171031 0.818355 0.806461
Si Si3 0.083439 0.679877 0.939048
Si Si4 0.170619 0.680569 0.224779
Si Si5 0.919239 0.182262 0.666733
Si Si6 0.584706 0.675465 0.093356
Si Si7 0.828426 0.820719 0.369933
O O1 0.682293 0.500000 0.542072
O O2 0.750000 0.750000 0.541236
O O3 0.617879 0.746028 0.592457
O O4 0.636474 0.712594 0.450133
O O5 0.250000 0.750000 0.800588
O O6 0.132213 0.760792 0.879131
O O7 0.125667 0.759110 0.736627
O O8 0.176041 0.000000 0.808526
O O9 0.098225 0.500000 0.939056
O O10 0.000000 0.718004 0.922662
O O11 0.107484 0.747986 0.016927
O O12 0.176463 0.500000 0.226642
O O13 0.250000 0.750000 0.216443
O O14 0.122227 0.731169 0.157414
O O15 0.132302 0.739839 0.300683
O O16 0.000000 0.249929 0.671477
O O17 0.921995 0.000000 0.665517
O O18 0.500000 0.688262 0.105944
O O19 0.610819 0.500000 0.093753
O O20 0.750000 0.750000 0.374306
O O21 0.824336 0.000000 0.353398
#
# Coordination Sequence:
#
# PCOD8173877 Si02
#       7
#     8   8   8   8   8   8   8
#     4   9  17  30  51  76 102 134 174 220 266 314
#     4  11  22  36  56  81 109 141 179 222 267 315
#     4  10  21  38  59  82 109 140 175 216 264 318
#     4  11  21  34  54  79 109 143 181 224 269 317
#     4   9  18  33  53  77 105 138 176 217 263 317
#     4  10  21  38  59  82 109 141 178 218 263 318
#     4   9  16  28  47  73 103 136 176 219 267 318
#
# _framework density 19.007069000000001
#
# number of rings (size 3 to 8) (size 9 to 14) (size 15 to 20)
#    0.000    2.143    0.000    4.714    0.000    3.429 
#    0.000    4.286    0.000    4.714    0.000    0.000 
#    0.000    0.000    0.000    0.000    0.000    0.000 
#
# Total GULP energy -347132.345042 kJ/mol
# GULP energy per Si atom -12397.583751 kJ/mol
# Density = 1.896381 g / cm^3
# Si number density = 19.007069 Si / 1000 Ang^3
#
#
#
# Elastic Constant Matrix: (Units=GPa)
#
#
# Indices 1 2 3 4 5 6 
#
# 1 93.1650 41.6664 85.1555 0.0000 0.0000 0.0000
# 2 41.6664 101.0230 63.5622 0.0000 0.0000 0.0000
# 3 85.1555 63.5622 196.4024 0.0000 0.0000 0.0000
# 4 0.0000 0.0000 0.0000 25.6642 0.0000 0.0000
# 5 0.0000 0.0000 0.0000 0.0000 3.2530 0.0000
# 6 0.0000 0.0000 0.0000 0.0000 0.0000 18.2561
#
#
#
# Elastic Compliance Matrix: (Units=1/GPa)
#
#
# Indices 1 2 3 4 5 6 
#
# 1 0.018598 -0.003261 -0.007008 0.000000 0.000000 0.000000
# 2 -0.003261 0.013002 -0.002794 0.000000 0.000000 0.000000
# 3 -0.007008 -0.002794 0.009034 0.000000 0.000000 0.000000
# 4 0.000000 0.000000 0.000000 0.038965 0.000000 0.000000
# 5 0.000000 0.000000 0.000000 0.000000 0.307409 0.000000
# 6 0.000000 0.000000 0.000000 0.000000 0.000000 0.054776
#
#
# Mechanical properties :
#
#
# Convention : Reuss Voigt Hill
#
# Bulk Modulus (GPa) = 68.92961 85.70650 77.31806
# Shear Modulus (GPa) = 10.57651 22.78174 16.67913
#
# Velocity S-wave (km/s) = 2.36148 3.46583 2.96551
# Velocity P-wave (km/s) = 6.61660 7.82341 7.24518
#
# Compressibility (1/GPa) = 0.01450755
#
# Stress axis : x y z
#
# Youngs Moduli (GPa) = 53.76986 76.91369 110.68895
#
# Poissons Ratio (x) = 0.25082 0.77573
# Poissons Ratio (y) = 0.17535 0.30924
# Poissons Ratio (z) = 0.37683 0.21488
#
# Static dielectric constant tensor:
#      x y z
#    x 3.337870 0.000000 0.000000 
#    y 0.000000 3.516600 0.000000 
#    z 0.000000 0.000000 4.197470 
# 
# 
# High freq. dielectric constant tensor:
#      x y z
#    x 1.715090 0.000000 0.000000 
#    y 0.000000 1.737840 0.000000 
#    z 0.000000 0.000000 1.764610 
# 
# From -- ./inp_files/17419.got.cif
#   From: 2010.03.12/outbox.cif.g09.slc.cpg/sg35_9_cif.got.tgz:17419.got - 2010.04.14 02:02:04.
