data_PCOD8173630
_publ_section_title
;
Structure prediction by ZEFSAII (Michael W. Deem and Ramdas Pophale) SiO2 
 PCOD8173630
Probable space group: C M M 2
;
_chemical_formula_sum "Si O2"
_cell_formula_units_Z 48
_cell_length_a 8.651197
_cell_length_b 30.295781
_cell_length_c 9.470006
_cell_angle_alpha 90.000000
_cell_angle_beta 90.000000
_cell_angle_gamma 90.000000
_cell_volume 2482.039042
_symmetry_space_group_name_H-M "C M M 2"
_symmetry_group_IT_number 35
_symmetry_cell_setting 'orthorhombic'
loop_
_space_group_symop_operation_xyz
x,y,z
-x,-y,z
-x,y,z
x,-y,z
1/2+x,1/2+y,z
1/2-x,1/2-y,z
1/2-x,1/2+y,z
1/2+x,1/2-y,z
loop_
_atom_site_type_symbol
_atom_site_label
_atom_site_fract_x
_atom_site_fract_y
_atom_site_fract_z
Si Si1 0.821055 0.949433 0.026120
Si Si2 0.681635 0.872898 0.529208
Si Si3 0.317569 0.296515 0.712750
Si Si4 0.820476 0.949067 0.703638
Si Si5 0.818524 0.624692 0.210320
Si Si6 0.816057 0.296809 0.016576
O O1 0.723746 0.920406 0.133153
O O2 0.000000 0.938733 0.048118
O O3 0.784808 0.000000 0.062491
O O4 0.773291 0.939155 0.865121
O O5 0.500000 0.862708 0.537195
O O6 0.776189 0.833838 0.601229
O O7 0.715061 0.919478 0.603350
O O8 0.745151 0.875566 0.369474
O O9 0.500000 0.292219 0.729877
O O10 0.250000 0.250000 0.658877
O O11 0.245198 0.309792 0.862558
O O12 0.000000 0.937580 0.680026
O O13 0.788395 0.000000 0.666376
O O14 0.000000 0.628547 0.214922
O O15 0.751963 0.666705 0.125449
O O16 0.750000 0.250000 0.067167
O O17 0.000000 0.294705 0.011671
#
# Coordination Sequence:
#
# PCOD8173630 Si02
#       6
#     8   8   8   8   8   8
#     4   9  19  36  58  82 107 138 180 228 274 322
#     4  11  23  38  54  79 115 150 184 223 271 325
#     4  11  22  38  60  85 110 141 182 226 273 323
#     4   9  19  37  59  83 110 142 184 231 276 324
#     4  10  23  38  53  78 113 148 181 221 269 323
#     4  10  20  37  59  83 109 140 180 225 272 321
#
# _framework density 19.338939
#
# number of rings (size 3 to 8) (size 9 to 14) (size 15 to 20)
#    0.000    2.000    0.000    5.500    0.000    8.000 
#    0.000    6.667    0.000    0.000    0.000    0.000 
#    0.000    0.000    0.000    0.000    0.000    0.000 
#
# Total GULP energy -297673.258716 kJ/mol
# GULP energy per Si atom -12403.052446 kJ/mol
# Density = 1.929492 g / cm^3
# Si number density = 19.338939 Si / 1000 Ang^3
#
#
#
# Elastic Constant Matrix: (Units=GPa)
#
#
# Indices 1 2 3 4 5 6 
#
# 1 60.1795 24.4993 23.3798 0.0000 0.0000 0.0000
# 2 24.4993 113.8394 72.7284 0.0000 0.0000 0.0000
# 3 23.3798 72.7284 121.5824 0.0000 0.0000 0.0000
# 4 0.0000 0.0000 0.0000 9.5693 0.0000 0.0000
# 5 0.0000 0.0000 0.0000 0.0000 27.0918 0.0000
# 6 0.0000 0.0000 0.0000 0.0000 0.0000 37.0769
#
#
#
# Elastic Compliance Matrix: (Units=1/GPa)
#
#
# Indices 1 2 3 4 5 6 
#
# 1 0.018480 -0.002763 -0.001901 0.000000 0.000000 0.000000
# 2 -0.002763 0.014631 -0.008221 0.000000 0.000000 0.000000
# 3 -0.001901 -0.008221 0.013508 0.000000 0.000000 0.000000
# 4 0.000000 0.000000 0.000000 0.104501 0.000000 0.000000
# 5 0.000000 0.000000 0.000000 0.000000 0.036912 0.000000
# 6 0.000000 0.000000 0.000000 0.000000 0.000000 0.026971
#
#
# Mechanical properties :
#
#
# Convention : Reuss Voigt Hill
#
# Bulk Modulus (GPa) = 47.96122 59.64627 53.80375
# Shear Modulus (GPa) = 20.18398 26.41384 23.29891
#
# Velocity S-wave (km/s) = 3.23413 3.69973 3.47474
# Velocity P-wave (km/s) = 6.22899 7.01144 6.63176
#
# Compressibility (1/GPa) = 0.02085018
#
# Stress axis : x y z
#
# Youngs Moduli (GPa) = 54.11201 68.34940 74.03087
#
# Poissons Ratio (x) = 0.18882 0.14075
# Poissons Ratio (y) = 0.14948 0.60858
# Poissons Ratio (z) = 0.10288 0.56187
#
# Static dielectric constant tensor:
#      x y z
#    x 3.436920 0.000000 0.000000 
#    y 0.000000 3.636750 0.000000 
#    z 0.000000 0.000000 3.680380 
# 
# 
# High freq. dielectric constant tensor:
#      x y z
#    x 1.750920 0.000000 0.000000 
#    y 0.000000 1.765620 0.000000 
#    z 0.000000 0.000000 1.750960 
# 
# From -- ./inp_files/5292.got.cif
#   From: 2010.03.12/outbox.cif.g09.slc.cpg/sg35_3_cif.got.tgz:5292.got - 2010.04.14 02:02:04.
