data_PCOD8173563
_publ_section_title
;
Structure prediction by ZEFSAII (Michael W. Deem and Ramdas Pophale) SiO2 
 PCOD8173563
Probable space group: C M M 2
;
_chemical_formula_sum "Si O2"
_cell_formula_units_Z 48
_cell_length_a 8.686065
_cell_length_b 15.655072
_cell_length_c 17.165698
_cell_angle_alpha 90.000000
_cell_angle_beta 90.000000
_cell_angle_gamma 90.000000
_cell_volume 2334.208316
_symmetry_space_group_name_H-M "C M M 2"
_symmetry_group_IT_number 35
_symmetry_cell_setting 'orthorhombic'
loop_
_space_group_symop_operation_xyz
x,y,z
-x,-y,z
-x,y,z
x,-y,z
1/2+x,1/2+y,z
1/2-x,1/2-y,z
1/2-x,1/2+y,z
1/2+x,1/2-y,z
loop_
_atom_site_type_symbol
_atom_site_label
_atom_site_fract_x
_atom_site_fract_y
_atom_site_fract_z
Si Si1 0.316391 0.500000 0.594691
Si Si2 0.682940 0.342560 0.315808
Si Si3 0.181379 0.838711 0.691331
Si Si4 0.169027 0.097296 0.002576
Si Si5 0.323618 0.898546 0.847582
Si Si6 0.817233 0.000000 0.419287
Si Si7 0.181835 0.340894 0.151552
O O1 0.500000 0.500000 0.595228
O O2 0.252993 0.584151 0.638303
O O3 0.251529 0.500000 0.506762
O O4 0.500000 0.335383 0.313362
O O5 0.750000 0.250000 0.339156
O O6 0.741209 0.413910 0.376677
O O7 0.742628 0.373210 0.231615
O O8 0.250000 0.750000 0.659547
O O9 0.227095 0.853245 0.780433
O O10 0.000000 0.834070 0.684494
O O11 0.271546 0.098698 0.080492
O O12 0.000000 0.140916 0.014157
O O13 0.142656 0.000000 0.980570
O O14 0.259420 0.138315 0.929582
O O15 0.500000 0.870381 0.839897
O O16 0.305596 0.000000 0.840594
O O17 0.000000 0.000000 0.418939
O O18 0.250000 0.250000 0.128335
O O19 0.000000 0.337559 0.162780
#
# Coordination Sequence:
#
# PCOD8173563 Si02
#       7
#     4   8   8   8   8   4   8
#     4   9  20  40  63  88 121 156 193 241 296 363
#     4  10  20  37  60  87 119 156 198 245 296 353
#     4  11  22  38  62  90 120 158 202 243 296 355
#     4  10  21  36  56  83 116 154 197 240 290 346
#     4  10  20  36  58  84 118 155 197 248 298 346
#     4   9  20  38  63  90 117 156 197 235 296 365
#     4  11  22  37  56  80 114 153 195 243 295 344
#
# _framework density 20.563717
#
# number of rings (size 3 to 8) (size 9 to 14) (size 15 to 20)
#    0.000    1.833    0.833    4.500    1.167    3.000 
#    0.000    4.583    0.000    7.000    0.000    0.000 
#    0.000    0.000    0.000    0.000    0.000    0.000 
#
# Total GULP energy -297602.468525 kJ/mol
# GULP energy per Si atom -12400.102855 kJ/mol
# Density = 2.051691 g / cm^3
# Si number density = 20.563717 Si / 1000 Ang^3
#
#
#
# Elastic Constant Matrix: (Units=GPa)
#
#
# Indices 1 2 3 4 5 6 
#
# 1 102.8405 38.6977 34.8742 0.0000 0.0000 0.0000
# 2 38.6977 110.9484 74.1283 0.0000 0.0000 0.0000
# 3 34.8742 74.1283 160.3164 0.0000 0.0000 0.0000
# 4 0.0000 0.0000 0.0000 13.4346 0.0000 0.0000
# 5 0.0000 0.0000 0.0000 0.0000 17.6386 0.0000
# 6 0.0000 0.0000 0.0000 0.0000 0.0000 30.0162
#
#
#
# Elastic Compliance Matrix: (Units=1/GPa)
#
#
# Indices 1 2 3 4 5 6 
#
# 1 0.011286 -0.003322 -0.000919 0.000000 0.000000 0.000000
# 2 -0.003322 0.014021 -0.005760 0.000000 0.000000 0.000000
# 3 -0.000919 -0.005760 0.009101 0.000000 0.000000 0.000000
# 4 0.000000 0.000000 0.000000 0.074435 0.000000 0.000000
# 5 0.000000 0.000000 0.000000 0.000000 0.056694 0.000000
# 6 0.000000 0.000000 0.000000 0.000000 0.000000 0.033315
#
#
# Mechanical properties :
#
#
# Convention : Reuss Voigt Hill
#
# Bulk Modulus (GPa) = 69.42345 74.38951 71.90648
# Shear Modulus (GPa) = 22.35584 27.31155 24.83370
#
# Velocity S-wave (km/s) = 3.30077 3.64832 3.47889
# Velocity P-wave (km/s) = 6.95415 7.34852 7.15405
#
# Compressibility (1/GPa) = 0.01440435
#
# Stress axis : x y z
#
# Youngs Moduli (GPa) = 88.60894 71.32350 109.87833
#
# Poissons Ratio (x) = 0.23697 0.10095
# Poissons Ratio (y) = 0.29440 0.63292
# Poissons Ratio (z) = 0.08141 0.41084
#
# Static dielectric constant tensor:
#      x y z
#    x 3.716890 0.000000 0.000000 
#    y 0.000000 3.765800 0.000000 
#    z 0.000000 0.000000 3.808520 
# 
# 
# High freq. dielectric constant tensor:
#      x y z
#    x 1.800840 0.000000 0.000000 
#    y 0.000000 1.799910 0.000000 
#    z 0.000000 0.000000 1.804690 
# 
# From -- ./inp_files/15272.got.cif
#   From: 2010.03.12/outbox.cif.g09.slc.cpg/sg35_8_cif.got.tgz:15272.got - 2010.04.14 02:02:04.
