data_PCOD8173480
_publ_section_title
;
Structure prediction by ZEFSAII (Michael W. Deem and Ramdas Pophale) SiO2 
 PCOD8173480
Probable space group: C M M 2
;
_chemical_formula_sum "Si O2"
_cell_formula_units_Z 64
_cell_length_a 28.899371
_cell_length_b 8.777909
_cell_length_c 12.326225
_cell_angle_alpha 90.000000
_cell_angle_beta 90.000000
_cell_angle_gamma 90.000000
_cell_volume 3126.868055
_symmetry_space_group_name_H-M "C M M 2"
_symmetry_group_IT_number 35
_symmetry_cell_setting 'orthorhombic'
loop_
_space_group_symop_operation_xyz
x,y,z
-x,-y,z
-x,y,z
x,-y,z
1/2+x,1/2+y,z
1/2-x,1/2-y,z
1/2-x,1/2+y,z
1/2+x,1/2-y,z
loop_
_atom_site_type_symbol
_atom_site_label
_atom_site_fract_x
_atom_site_fract_y
_atom_site_fract_z
Si Si1 0.112080 0.822591 0.823780
Si Si2 0.702704 0.178420 0.903301
Si Si3 0.948853 0.670853 0.997276
Si Si4 0.554102 0.678347 0.613372
Si Si5 0.079142 0.828509 0.198040
Si Si6 0.817615 0.830064 0.126478
Si Si7 0.107465 0.679867 0.417062
Si Si8 0.796969 0.180776 0.367625
O O1 0.161129 0.737732 0.827679
O O2 0.082014 0.772424 0.720569
O O3 0.122785 0.000000 0.823839
O O4 0.083306 0.783381 0.930475
O O5 0.750000 0.250000 0.857831
O O6 0.705342 0.000000 0.890652
O O7 0.697130 0.218391 0.030504
O O8 0.927726 0.500000 0.996427
O O9 0.954116 0.732056 0.120154
O O10 0.000000 0.669692 0.945878
O O11 0.500000 0.718331 0.628600
O O12 0.560711 0.500000 0.588282
O O13 0.575532 0.777880 0.517994
O O14 0.127662 0.832067 0.136521
O O15 0.081591 0.746405 0.312980
O O16 0.060378 0.000000 0.216038
O O17 0.797382 0.771530 0.240887
O O18 0.799347 0.000000 0.098908
O O19 0.112267 0.500000 0.406304
O O20 0.158784 0.750579 0.429846
O O21 0.750000 0.250000 0.419177
O O22 0.798746 0.000000 0.381769
#
# Coordination Sequence:
#
# PCOD8173480 Si02
#       8
#     8   8   8   8   8   8   8   8
#     4  11  23  42  66  91 122 158 203 255 308 368
#     4  12  24  37  58  87 124 165 206 252 303 362
#     4  11  23  37  57  89 126 162 201 248 306 370
#     4  10  23  45  71  94 117 154 205 258 312 371
#     4  10  20  36  59  85 121 165 206 250 302 363
#     4   9  18  33  54  83 119 161 206 250 296 355
#     4  11  23  39  62  91 125 161 203 256 311 366
#     4  10  20  35  57  87 125 166 210 254 301 361
#
# _framework density 20.467765
#
# number of rings (size 3 to 8) (size 9 to 14) (size 15 to 20)
#    0.000    1.500    1.250    5.250    0.000    6.750 
#    0.000    0.625    0.000    3.000    0.000    0.000 
#    0.000    0.000    0.000    0.000    0.000    0.000 
#
# Total GULP energy -396856.279283 kJ/mol
# GULP energy per Si atom -12401.758728 kJ/mol
# Density = 2.042118 g / cm^3
# Si number density = 20.467765 Si / 1000 Ang^3
#
#
#
# Elastic Constant Matrix: (Units=GPa)
#
#
# Indices 1 2 3 4 5 6 
#
# 1 126.1488 54.0255 49.0216 0.0000 0.0000 0.0000
# 2 54.0255 133.6953 47.2514 0.0000 0.0000 0.0000
# 3 49.0216 47.2514 94.3311 0.0000 0.0000 0.0000
# 4 0.0000 0.0000 0.0000 20.8739 0.0000 0.0000
# 5 0.0000 0.0000 0.0000 0.0000 13.8212 0.0000
# 6 0.0000 0.0000 0.0000 0.0000 0.0000 31.3468
#
#
#
# Elastic Compliance Matrix: (Units=1/GPa)
#
#
# Indices 1 2 3 4 5 6 
#
# 1 0.010778 -0.002887 -0.004155 0.000000 0.000000 0.000000
# 2 -0.002887 0.009862 -0.003440 0.000000 0.000000 0.000000
# 3 -0.004155 -0.003440 0.014483 0.000000 0.000000 0.000000
# 4 0.000000 0.000000 0.000000 0.047907 0.000000 0.000000
# 5 0.000000 0.000000 0.000000 0.000000 0.072353 0.000000
# 6 0.000000 0.000000 0.000000 0.000000 0.000000 0.031901
#
#
# Mechanical properties :
#
#
# Convention : Reuss Voigt Hill
#
# Bulk Modulus (GPa) = 70.62142 72.75246 71.68694
# Shear Modulus (GPa) = 23.47778 26.80015 25.13897
#
# Velocity S-wave (km/s) = 3.39050 3.62247 3.50840
# Velocity P-wave (km/s) = 7.06442 7.28824 7.17720
#
# Compressibility (1/GPa) = 0.01416001
#
# Stress axis : x y z
#
# Youngs Moduli (GPa) = 92.77997 101.39987 69.04530
#
# Poissons Ratio (x) = 0.29273 0.28689
# Poissons Ratio (y) = 0.26784 0.23750
# Poissons Ratio (z) = 0.38551 0.34879
#
# Static dielectric constant tensor:
#      x y z
#    x 3.927210 0.000000 0.000000 
#    y 0.000000 3.718470 0.000000 
#    z 0.000000 0.000000 3.569200 
# 
# 
# High freq. dielectric constant tensor:
#      x y z
#    x 1.811080 0.000000 0.000000 
#    y 0.000000 1.806950 0.000000 
#    z 0.000000 0.000000 1.777340 
# 
# From -- ./inp_files/12031.got.cif
#   From: 2010.03.12/outbox.cif.g09.slc.cpg/sg35_7_cif.got.tgz:12031.got - 2010.04.14 02:02:04.
