data_PCOD8173613
_publ_section_title
;
Structure prediction by ZEFSAII (Michael W. Deem and Ramdas Pophale) SiO2 
 PCOD8173613
Probable space group: C M M 2
;
_chemical_formula_sum "Si O2"
_cell_formula_units_Z 48
_cell_length_a 10.082423
_cell_length_b 17.703400
_cell_length_c 13.849232
_cell_angle_alpha 90.000000
_cell_angle_beta 90.000000
_cell_angle_gamma 90.000000
_cell_volume 2471.993285
_symmetry_space_group_name_H-M "C M M 2"
_symmetry_group_IT_number 35
_symmetry_cell_setting 'orthorhombic'
loop_
_space_group_symop_operation_xyz
x,y,z
-x,-y,z
-x,y,z
x,-y,z
1/2+x,1/2+y,z
1/2-x,1/2-y,z
1/2-x,1/2+y,z
1/2+x,1/2-y,z
loop_
_atom_site_type_symbol
_atom_site_label
_atom_site_fract_x
_atom_site_fract_y
_atom_site_fract_z
Si Si1 0.261118 0.912771 0.318440
Si Si2 0.500000 0.409919 0.000738
Si Si3 0.000000 0.854316 0.217975
Si Si4 0.844977 0.320192 0.711658
Si Si5 0.000000 0.415315 0.040273
Si Si6 0.762862 0.413794 0.895554
Si Si7 0.651701 0.914703 0.525459
Si Si8 0.500000 0.175410 0.228504
O O1 0.252953 0.899555 0.433913
O O2 0.369774 0.856439 0.277943
O O3 0.124148 0.893552 0.268124
O O4 0.299611 0.000000 0.296717
O O5 0.500000 0.500000 0.017316
O O6 0.500000 0.369636 0.104073
O O7 0.625936 0.381667 0.938951
O O8 0.000000 0.765351 0.236708
O O9 0.750000 0.250000 0.721528
O O10 0.812354 0.373179 0.800623
O O11 0.806196 0.360795 0.612249
O O12 0.000000 0.297270 0.713080
O O13 0.000000 0.349759 0.118129
O O14 0.000000 0.500000 0.085959
O O15 0.129946 0.403434 0.978061
O O16 0.743470 0.500000 0.865535
O O17 0.500000 0.900025 0.492826
O O18 0.668234 0.000000 0.563099
#
# Coordination Sequence:
#
# PCOD8173613 Si02
#       8
#     8   4   4   8   4   8   8   4
#     4  11  22  42  66  91 122 168 218 259 307 373
#     4  10  22  40  61  88 125 170 207 252 312 376
#     4  12  26  40  61  94 137 166 203 258 336 374
#     4  11  24  40  62  92 128 163 197 248 317 375
#     4  10  20  36  61  90 115 154 215 264 298 360
#     4  10  21  39  64  90 116 158 212 256 300 358
#     4   9  19  40  68  92 115 156 212 260 298 354
#     4  12  24  38  61  94 125 164 207 266 316 376
#
# _framework density 19.417528999999998
#
# number of rings (size 3 to 8) (size 9 to 14) (size 15 to 20)
#    0.000    1.500    1.667    3.500    1.167    4.667 
#    1.500    0.000    0.000    0.000    0.000    0.000 
#    0.000    0.000    0.000    0.000    0.000    0.000 
#
# Total GULP energy -297636.215330 kJ/mol
# GULP energy per Si atom -12401.508972 kJ/mol
# Density = 1.937333 g / cm^3
# Si number density = 19.417529 Si / 1000 Ang^3
#
#
#
# Elastic Constant Matrix: (Units=GPa)
#
#
# Indices 1 2 3 4 5 6 
#
# 1 106.6687 18.6071 28.9187 0.0000 0.0000 0.0000
# 2 18.6071 77.8353 36.9534 0.0000 0.0000 0.0000
# 3 28.9187 36.9534 97.5443 0.0000 0.0000 0.0000
# 4 0.0000 0.0000 0.0000 64.7101 0.0000 0.0000
# 5 0.0000 0.0000 0.0000 0.0000 51.5415 0.0000
# 6 0.0000 0.0000 0.0000 0.0000 0.0000 28.6896
#
#
#
# Elastic Compliance Matrix: (Units=1/GPa)
#
#
# Indices 1 2 3 4 5 6 
#
# 1 0.010290 -0.001233 -0.002583 0.000000 0.000000 0.000000
# 2 -0.001233 0.015813 -0.005625 0.000000 0.000000 0.000000
# 3 -0.002583 -0.005625 0.013149 0.000000 0.000000 0.000000
# 4 0.000000 0.000000 0.000000 0.015454 0.000000 0.000000
# 5 0.000000 0.000000 0.000000 0.000000 0.019402 0.000000
# 6 0.000000 0.000000 0.000000 0.000000 0.000000 0.034856
#
#
# Mechanical properties :
#
#
# Convention : Reuss Voigt Hill
#
# Bulk Modulus (GPa) = 49.09574 50.11182 49.60378
# Shear Modulus (GPa) = 37.13713 42.15953 39.64833
#
# Velocity S-wave (km/s) = 4.37802 4.66468 4.52362
# Velocity P-wave (km/s) = 7.13409 7.40782 7.27225
#
# Compressibility (1/GPa) = 0.02036836
#
# Stress axis : x y z
#
# Youngs Moduli (GPa) = 97.17808 63.23912 76.05386
#
# Poissons Ratio (x) = 0.07800 0.19648
# Poissons Ratio (y) = 0.11986 0.42779
# Poissons Ratio (z) = 0.25106 0.35571
#
# Static dielectric constant tensor:
#      x y z
#    x 3.575010 0.000000 0.000000 
#    y 0.000000 3.507560 0.000000 
#    z 0.000000 0.000000 3.635040 
# 
# 
# High freq. dielectric constant tensor:
#      x y z
#    x 1.761150 0.000000 0.000000 
#    y 0.000000 1.753460 0.000000 
#    z 0.000000 0.000000 1.769250 
# 
# From -- ./inp_files/15327.got.cif
#   From: 2010.03.12/outbox.cif.g09.slc.cpg/sg35_8_cif.got.tgz:15327.got - 2010.04.14 02:02:04.
