data_PCOD8173453
_publ_section_title
;
Structure prediction by ZEFSAII (Michael W. Deem and Ramdas Pophale) SiO2 
 PCOD8173453
Probable space group: C M M 2
;
_chemical_formula_sum "Si O2"
_cell_formula_units_Z 48
_cell_length_a 16.773646
_cell_length_b 8.874649
_cell_length_c 16.803696
_cell_angle_alpha 90.000000
_cell_angle_beta 90.000000
_cell_angle_gamma 90.000000
_cell_volume 2501.401895
_symmetry_space_group_name_H-M "C M M 2"
_symmetry_group_IT_number 35
_symmetry_cell_setting 'orthorhombic'
loop_
_space_group_symop_operation_xyz
x,y,z
-x,-y,z
-x,y,z
x,-y,z
1/2+x,1/2+y,z
1/2-x,1/2-y,z
1/2-x,1/2+y,z
1/2+x,1/2-y,z
loop_
_atom_site_type_symbol
_atom_site_label
_atom_site_fract_x
_atom_site_fract_y
_atom_site_fract_z
Si Si1 0.500000 0.678159 0.992380
Si Si2 0.667940 0.677698 0.537183
Si Si3 0.588142 0.831193 0.681081
Si Si4 0.590599 0.836063 0.394923
Si Si5 0.834728 0.822865 0.072298
Si Si6 0.500000 0.678229 0.809780
Si Si7 0.831703 0.823157 0.255886
O O1 0.500000 0.500000 0.003805
O O2 0.500000 0.728714 0.900916
O O3 0.584014 0.739746 0.029710
O O4 0.673105 0.500000 0.542382
O O5 0.750000 0.750000 0.510296
O O6 0.645576 0.738603 0.624188
O O7 0.608177 0.727083 0.468661
O O8 0.500000 0.838768 0.641243
O O9 0.579207 0.746865 0.766747
O O10 0.622317 0.000000 0.693761
O O11 0.500000 0.875565 0.400755
O O12 0.602298 0.751072 0.311377
O O13 0.635873 0.000000 0.399037
O O14 0.750000 0.750000 0.042695
O O15 0.848821 0.782983 0.164406
O O16 0.825646 0.000000 0.057188
O O17 0.500000 0.500000 0.800022
O O18 0.750000 0.750000 0.285067
O O19 0.829236 0.000000 0.270077
#
# Coordination Sequence:
#
# PCOD8173453 Si02
#       7
#     4   8   8   8   8   4   8
#     4   9  18  35  61  88 117 156 199 241 292 357
#     4  12  24  38  58  82 111 146 190 233 281 340
#     4   9  19  36  58  81 112 143 178 227 278 330
#     4  11  24  39  55  78 112 148 188 236 285 333
#     4   9  19  36  58  85 118 156 197 247 298 351
#     4   9  17  33  59  86 111 146 189 227 278 345
#     4  10  20  35  57  80 111 149 192 238 288 341
#
# _framework density 19.189240000000002
#
# number of rings (size 3 to 8) (size 9 to 14) (size 15 to 20)
#    0.500    1.500    0.000    4.000    1.167    4.000 
#    0.000    2.917    0.000    2.000    0.000    0.000 
#    0.000    0.000    0.000    0.000    0.000    0.000 
#
# Total GULP energy -297405.449691 kJ/mol
# GULP energy per Si atom -12391.893737 kJ/mol
# Density = 1.914556 g / cm^3
# Si number density = 19.189240 Si / 1000 Ang^3
#
#
#
# Elastic Constant Matrix: (Units=GPa)
#
#
# Indices 1 2 3 4 5 6 
#
# 1 98.3387 36.8371 48.6404 0.0000 0.0000 0.0000
# 2 36.8371 132.1801 53.6207 0.0000 0.0000 0.0000
# 3 48.6404 53.6207 118.4019 0.0000 0.0000 0.0000
# 4 0.0000 0.0000 0.0000 25.7085 0.0000 0.0000
# 5 0.0000 0.0000 0.0000 0.0000 56.4573 0.0000
# 6 0.0000 0.0000 0.0000 0.0000 0.0000 27.3750
#
#
#
# Elastic Compliance Matrix: (Units=1/GPa)
#
#
# Indices 1 2 3 4 5 6 
#
# 1 0.013102 -0.001798 -0.004568 0.000000 0.000000 0.000000
# 2 -0.001798 0.009515 -0.003570 0.000000 0.000000 0.000000
# 3 -0.004568 -0.003570 0.011939 0.000000 0.000000 0.000000
# 4 0.000000 0.000000 0.000000 0.038898 0.000000 0.000000
# 5 0.000000 0.000000 0.000000 0.000000 0.017713 0.000000
# 6 0.000000 0.000000 0.000000 0.000000 0.000000 0.036530
#
#
# Mechanical properties :
#
#
# Convention : Reuss Voigt Hill
#
# Bulk Modulus (GPa) = 68.10587 69.67968 68.89277
# Shear Modulus (GPa) = 32.79471 35.89631 34.34551
#
# Velocity S-wave (km/s) = 4.13851 4.32979 4.23523
# Velocity P-wave (km/s) = 7.64232 7.83497 7.73925
#
# Compressibility (1/GPa) = 0.01468302
#
# Stress axis : x y z
#
# Youngs Moduli (GPa) = 76.32421 105.09792 83.75732
#
# Poissons Ratio (x) = 0.18900 0.38260
# Poissons Ratio (y) = 0.13725 0.29904
# Poissons Ratio (z) = 0.34865 0.37523
#
# Static dielectric constant tensor:
#      x y z
#    x 2.458880 0.000000 0.000000 
#    y 0.000000 3.515900 0.000000 
#    z 0.000000 0.000000 3.409950 
# 
# 
# High freq. dielectric constant tensor:
#      x y z
#    x 1.735570 0.000000 0.000000 
#    y 0.000000 1.752860 0.000000 
#    z 0.000000 0.000000 1.739330 
# 
# From -- ./inp_files/18803.got.cif
#   From: 2010.03.12/outbox.cif.g09.slc.cpg/sg35_10_cif.got.tgz:18803.got - 2010.04.14 02:02:04.
