data_PCOD8173770
_publ_section_title
;
Structure prediction by ZEFSAII (Michael W. Deem and Ramdas Pophale) SiO2 
 PCOD8173770
Probable space group: C M M 2
;
_chemical_formula_sum "Si O2"
_cell_formula_units_Z 64
_cell_length_a 9.225027
_cell_length_b 19.010682
_cell_length_c 20.066478
_cell_angle_alpha 90.000000
_cell_angle_beta 90.000000
_cell_angle_gamma 90.000000
_cell_volume 3519.139611
_symmetry_space_group_name_H-M "C M M 2"
_symmetry_group_IT_number 35
_symmetry_cell_setting 'orthorhombic'
loop_
_space_group_symop_operation_xyz
x,y,z
-x,-y,z
-x,y,z
x,-y,z
1/2+x,1/2+y,z
1/2-x,1/2-y,z
1/2-x,1/2+y,z
1/2+x,1/2-y,z
loop_
_atom_site_type_symbol
_atom_site_label
_atom_site_fract_x
_atom_site_fract_y
_atom_site_fract_z
Si Si1 0.167784 0.581170 0.142720
Si Si2 0.172596 0.175098 0.246738
Si Si3 0.670143 0.579905 0.370706
Si Si4 0.833499 0.417311 0.645282
Si Si5 0.838274 0.417899 0.989204
Si Si6 0.839125 0.416457 0.497689
Si Si7 0.168487 0.819879 0.895844
Si Si8 0.169269 0.820400 0.742791
O O1 0.207211 0.500000 0.158146
O O2 0.273040 0.632430 0.182824
O O3 0.000000 0.595389 0.161120
O O4 0.197024 0.598932 0.065793
O O5 0.250000 0.250000 0.250527
O O6 0.219969 0.130112 0.311054
O O7 0.000000 0.185255 0.242132
O O8 0.500000 0.580278 0.379214
O O9 0.725400 0.500000 0.356694
O O10 0.734805 0.611191 0.439328
O O11 0.812040 0.500000 0.650898
O O12 0.789487 0.390339 0.570998
O O13 0.726632 0.383987 0.698671
O O14 0.000000 0.396720 0.660358
O O15 0.828909 0.500000 0.976014
O O16 0.720392 0.383123 0.941852
O O17 0.000000 0.390612 0.971728
O O18 0.839569 0.500000 0.499047
O O19 0.000000 0.388046 0.482210
O O20 0.250000 0.750000 0.918937
O O21 0.204356 0.838516 0.819423
O O22 0.000000 0.807342 0.907116
O O23 0.250000 0.750000 0.720096
O O24 0.000000 0.809717 0.730546
#
# Coordination Sequence:
#
# PCOD8173770 Si02
#       8
#     8   8   8   8   8   8   8   8
#     4   9  19  37  59  81 105 135 172 211 253 306
#     4  11  23  37  53  76 107 140 175 215 258 304
#     4   9  18  33  53  76 101 131 169 212 257 306
#     4   9  18  33  53  78 107 137 171 212 257 306
#     4   9  19  36  57  81 108 136 168 209 256 306
#     4   8  15  29  50  76 103 131 166 207 251 303
#     4  10  21  36  54  76 103 137 176 216 257 306
#     4  10  21  36  53  74 102 137 177 217 258 307
#
# _framework density 18.186264000000001
#
# number of rings (size 3 to 8) (size 9 to 14) (size 15 to 20)
#    0.000    2.625    0.000    3.000    0.000    5.750 
#    0.000    6.875    0.000    1.500    0.000    0.000 
#    0.000    0.000    0.000    0.000    0.000    0.000 
#
# Total GULP energy -396781.363220 kJ/mol
# GULP energy per Si atom -12399.417601 kJ/mol
# Density = 1.814487 g / cm^3
# Si number density = 18.186264 Si / 1000 Ang^3
#
#
#
# Elastic Constant Matrix: (Units=GPa)
#
#
# Indices 1 2 3 4 5 6 
#
# 1 80.6857 49.5230 58.4573 0.0000 0.0000 0.0000
# 2 49.5230 76.5242 59.4709 0.0000 0.0000 0.0000
# 3 58.4573 59.4709 107.2844 0.0000 0.0000 0.0000
# 4 0.0000 0.0000 0.0000 0.9798 0.0000 0.0000
# 5 0.0000 0.0000 0.0000 0.0000 35.0670 0.0000
# 6 0.0000 0.0000 0.0000 0.0000 0.0000 30.7608
#
#
#
# Elastic Compliance Matrix: (Units=1/GPa)
#
#
# Indices 1 2 3 4 5 6 
#
# 1 0.023750 -0.009334 -0.007767 0.000000 0.000000 0.000000
# 2 -0.009334 0.026626 -0.009674 0.000000 0.000000 0.000000
# 3 -0.007767 -0.009674 0.018916 0.000000 0.000000 0.000000
# 4 0.000000 0.000000 0.000000 1.020569 0.000000 0.000000
# 5 0.000000 0.000000 0.000000 0.000000 0.028517 0.000000
# 6 0.000000 0.000000 0.000000 0.000000 0.000000 0.032509
#
#
# Mechanical properties :
#
#
# Convention : Reuss Voigt Hill
#
# Bulk Modulus (GPa) = 63.52214 66.59963 65.06089
# Shear Modulus (GPa) = 4.13332 19.83106 11.98219
#
# Velocity S-wave (km/s) = 1.50921 3.30577 2.56961
# Velocity P-wave (km/s) = 6.16777 7.16039 6.68253
#
# Compressibility (1/GPa) = 0.01574254
#
# Stress axis : x y z
#
# Youngs Moduli (GPa) = 42.10580 37.55689 52.86652
#
# Poissons Ratio (x) = 0.35055 0.41060
# Poissons Ratio (y) = 0.39301 0.51143
# Poissons Ratio (z) = 0.32703 0.36332
#
# Static dielectric constant tensor:
#      x y z
#    x 3.381210 0.000000 0.000000 
#    y 0.000000 3.196450 0.000000 
#    z 0.000000 0.000000 3.490420 
# 
# 
# High freq. dielectric constant tensor:
#      x y z
#    x 1.706420 0.000000 0.000000 
#    y 0.000000 1.687920 0.000000 
#    z 0.000000 0.000000 1.712820 
# 
# From -- ./inp_files/18449.got.cif
#   From: 2010.03.12/outbox.cif.g09.slc.cpg/sg35_10_cif.got.tgz:18449.got - 2010.04.14 02:02:04.
