data_PCOD8173632
_publ_section_title
;
Structure prediction by ZEFSAII (Michael W. Deem and Ramdas Pophale) SiO2 
 PCOD8173632
Probable space group: C M M 2
;
_chemical_formula_sum "Si O2"
_cell_formula_units_Z 48
_cell_length_a 16.180023
_cell_length_b 8.727900
_cell_length_c 17.153424
_cell_angle_alpha 90.000000
_cell_angle_beta 90.000000
_cell_angle_gamma 90.000000
_cell_volume 2422.365759
_symmetry_space_group_name_H-M "C M M 2"
_symmetry_group_IT_number 35
_symmetry_cell_setting 'orthorhombic'
loop_
_space_group_symop_operation_xyz
x,y,z
-x,-y,z
-x,y,z
x,-y,z
1/2+x,1/2+y,z
1/2-x,1/2-y,z
1/2-x,1/2+y,z
1/2+x,1/2-y,z
loop_
_atom_site_type_symbol
_atom_site_label
_atom_site_fract_x
_atom_site_fract_y
_atom_site_fract_z
Si Si1 0.000000 0.682319 0.339670
Si Si2 0.592769 0.834682 0.915919
Si Si3 0.500000 0.181802 0.516176
Si Si4 0.161086 0.317829 0.247419
Si Si5 0.335250 0.820000 0.073491
Si Si6 0.659366 0.181977 0.612222
Si Si7 0.163997 0.821700 0.774612
O O1 0.000000 0.743080 0.427994
O O2 0.084474 0.743810 0.299387
O O3 0.000000 0.500000 0.335388
O O4 0.500000 0.878294 0.905320
O O5 0.610145 0.706930 0.851055
O O6 0.641170 0.000000 0.904837
O O7 0.603967 0.769472 0.003845
O O8 0.585362 0.240933 0.555974
O O9 0.500000 0.000000 0.519758
O O10 0.168050 0.500000 0.253645
O O11 0.250000 0.250000 0.274855
O O12 0.139442 0.260198 0.159497
O O13 0.250000 0.750000 0.046299
O O14 0.327800 0.000000 0.079910
O O15 0.750000 0.250000 0.589447
O O16 0.630729 0.235333 0.697964
O O17 0.667734 0.000000 0.609798
O O18 0.250000 0.750000 0.798562
O O19 0.169647 0.000000 0.754867
#
# Coordination Sequence:
#
# PCOD8173632 Si02
#       7
#     4   8   4   8   8   8   8
#     4   9  18  34  57  84 111 144 182 223 269 331
#     4  10  21  34  50  75 108 143 181 223 268 316
#     4   9  20  36  57  84 113 144 180 221 275 333
#     4   9  18  33  56  82 111 145 185 226 271 321
#     4   9  18  32  51  75 102 139 181 222 264 313
#     4  10  20  37  59  83 110 145 184 226 275 330
#     4  11  22  37  56  78 105 139 181 224 271 323
#
# _framework density 19.815339999999999
#
# number of rings (size 3 to 8) (size 9 to 14) (size 15 to 20)
#    0.000    2.333    0.000    3.500    2.333    3.000 
#    0.000    1.667    0.000    3.000    0.000    0.000 
#    0.000    0.000    0.000    0.000    0.000    0.000 
#
# Total GULP energy -297327.889327 kJ/mol
# GULP energy per Si atom -12388.662055 kJ/mol
# Density = 1.977024 g / cm^3
# Si number density = 19.815340 Si / 1000 Ang^3
#
#
#
# Elastic Constant Matrix: (Units=GPa)
#
#
# Indices 1 2 3 4 5 6 
#
# 1 131.9688 32.7215 85.1160 0.0000 0.0000 0.0000
# 2 32.7215 47.3892 28.4540 0.0000 0.0000 0.0000
# 3 85.1160 28.4540 142.7987 0.0000 0.0000 0.0000
# 4 0.0000 0.0000 0.0000 28.2583 0.0000 0.0000
# 5 0.0000 0.0000 0.0000 0.0000 42.4948 0.0000
# 6 0.0000 0.0000 0.0000 0.0000 0.0000 23.7842
#
#
#
# Elastic Compliance Matrix: (Units=1/GPa)
#
#
# Indices 1 2 3 4 5 6 
#
# 1 0.013284 -0.005018 -0.006918 0.000000 0.000000 0.000000
# 2 -0.005018 0.025866 -0.002163 0.000000 0.000000 0.000000
# 3 -0.006918 -0.002163 0.011557 0.000000 0.000000 0.000000
# 4 0.000000 0.000000 0.000000 0.035388 0.000000 0.000000
# 5 0.000000 0.000000 0.000000 0.000000 0.023532 0.000000
# 6 0.000000 0.000000 0.000000 0.000000 0.000000 0.042045
#
#
# Mechanical properties :
#
#
# Convention : Reuss Voigt Hill
#
# Bulk Modulus (GPa) = 44.42765 68.30442 56.36603
# Shear Modulus (GPa) = 26.68488 30.63182 28.65835
#
# Velocity S-wave (km/s) = 3.67369 3.93601 3.80711
# Velocity P-wave (km/s) = 6.36115 7.42978 6.91613
#
# Compressibility (1/GPa) = 0.02250851
#
# Stress axis : x y z
#
# Youngs Moduli (GPa) = 75.28040 38.66139 86.52613
#
# Poissons Ratio (x) = 0.19402 0.59857
# Poissons Ratio (y) = 0.37779 0.18713
# Poissons Ratio (z) = 0.52078 0.08361
#
# Static dielectric constant tensor:
#      x y z
#    x 3.665660 0.000000 0.000000 
#    y 0.000000 3.339850 0.000000 
#    z 0.000000 0.000000 3.835840 
# 
# 
# High freq. dielectric constant tensor:
#      x y z
#    x 1.770690 0.000000 0.000000 
#    y 0.000000 1.749270 0.000000 
#    z 0.000000 0.000000 1.777620 
# 
# From -- ./inp_files/15255.got.cif
#   From: 2010.03.12/outbox.cif.g09.slc.cpg/sg35_8_cif.got.tgz:15255.got - 2010.04.14 02:02:04.
