data_PCOD8173300
_publ_section_title
;
Structure prediction by ZEFSAII (Michael W. Deem and Ramdas Pophale) SiO2 
 PCOD8173300
Probable space group: C M M 2
;
_chemical_formula_sum "Si O2"
_cell_formula_units_Z 48
_cell_length_a 8.834947
_cell_length_b 18.256946
_cell_length_c 15.633898
_cell_angle_alpha 90.000000
_cell_angle_beta 90.000000
_cell_angle_gamma 90.000000
_cell_volume 2521.734463
_symmetry_space_group_name_H-M "C M M 2"
_symmetry_group_IT_number 35
_symmetry_cell_setting 'orthorhombic'
loop_
_space_group_symop_operation_xyz
x,y,z
-x,-y,z
-x,y,z
x,-y,z
1/2+x,1/2+y,z
1/2-x,1/2-y,z
1/2-x,1/2+y,z
1/2+x,1/2-y,z
loop_
_atom_site_type_symbol
_atom_site_label
_atom_site_fract_x
_atom_site_fract_y
_atom_site_fract_z
Si Si1 0.323147 0.828819 0.178040
Si Si2 0.674826 0.085632 0.684646
Si Si3 0.819570 0.418023 0.017253
Si Si4 0.678432 0.330096 0.533155
Si Si5 0.321872 0.828991 0.854576
Si Si6 0.322689 0.829150 0.365425
O O1 0.500000 0.816280 0.165510
O O2 0.250000 0.750000 0.166732
O O3 0.259326 0.883424 0.106015
O O4 0.291363 0.865047 0.272044
O O5 0.500000 0.102114 0.662932
O O6 0.779658 0.117242 0.610584
O O7 0.723757 0.123000 0.772987
O O8 0.705544 0.000000 0.694192
O O9 0.753699 0.500000 0.009659
O O10 0.000000 0.420578 0.015543
O O11 0.757694 0.369782 0.938556
O O12 0.500000 0.321446 0.527121
O O13 0.750000 0.250000 0.547326
O O14 0.741665 0.368815 0.445759
O O15 0.500000 0.819287 0.861681
O O16 0.250000 0.750000 0.845658
O O17 0.500000 0.824125 0.384939
O O18 0.250000 0.750000 0.360967
#
# Coordination Sequence:
#
# PCOD8173300 Si02
#       6
#     8   8   8   8   8   8
#     4   9  17  29  49  75 101 132 170 211 253 297
#     4  10  21  37  55  76 104 137 172 211 258 311
#     4   9  17  31  51  75 103 134 169 207 247 297
#     4  11  21  34  54  78 104 136 175 217 261 308
#     4  10  20  34  55  80 103 132 169 209 252 299
#     4   9  16  28  47  73 102 132 170 213 257 301
#
# _framework density 19.034517000000001
#
# number of rings (size 3 to 8) (size 9 to 14) (size 15 to 20)
#    0.000    2.333    0.000    4.500    0.000    5.000 
#    0.000    0.833    0.000    6.000    0.000    0.000 
#    0.000    0.000    0.000    0.000    0.000    0.000 
#
# Total GULP energy -297503.328802 kJ/mol
# GULP energy per Si atom -12395.972033 kJ/mol
# Density = 1.899119 g / cm^3
# Si number density = 19.034517 Si / 1000 Ang^3
#
#
#
# Elastic Constant Matrix: (Units=GPa)
#
#
# Indices 1 2 3 4 5 6 
#
# 1 72.2055 36.8925 58.5828 0.0000 0.0000 0.0000
# 2 36.8925 111.6484 73.2761 0.0000 0.0000 0.0000
# 3 58.5828 73.2761 188.1445 0.0000 0.0000 0.0000
# 4 0.0000 0.0000 0.0000 -8.5732 0.0000 0.0000
# 5 0.0000 0.0000 0.0000 0.0000 -168.1863 0.0000
# 6 0.0000 0.0000 0.0000 0.0000 0.0000 20.2810
#
#
#
# Elastic Compliance Matrix: (Units=1/GPa)
#
#
# Indices 1 2 3 4 5 6 
#
# 1 0.019387 -0.003284 -0.004758 0.000000 0.000000 0.000000
# 2 -0.003284 0.012588 -0.003880 0.000000 0.000000 0.000000
# 3 -0.004758 -0.003880 0.008308 0.000000 0.000000 0.000000
# 4 0.000000 0.000000 0.000000 -0.116642 0.000000 0.000000
# 5 0.000000 0.000000 0.000000 0.000000 -0.005946 0.000000
# 6 0.000000 0.000000 0.000000 0.000000 0.000000 0.049307
#
#
# Mechanical properties :
#
#
# Convention : Reuss Voigt Hill
#
# Bulk Modulus (GPa) = 60.82753 78.83347 69.83050
# Shear Modulus (GPa) = -1361.02956 -17.74591 -689.38774
#
# Velocity S-wave (km/s) = -26.76910 -3.05667 -19.05161
# Velocity P-wave (km/s) = 30.38783 5.38965 21.14677
#
# Compressibility (1/GPa) = 0.01643992
#
# Stress axis : x y z
#
# Youngs Moduli (GPa) = 51.58042 79.43799 120.36944
#
# Poissons Ratio (x) = 0.26085 0.57269
# Poissons Ratio (y) = 0.16937 0.46708
# Poissons Ratio (z) = 0.24541 0.30825
#
# Static dielectric constant tensor:
#      x y z
#    x 3.339500 0.000000 0.000000 
#    y 0.000000 3.296720 0.000000 
#    z 0.000000 0.000000 4.281150 
# 
# 
# High freq. dielectric constant tensor:
#      x y z
#    x 1.720030 0.000000 0.000000 
#    y 0.000000 1.715800 0.000000 
#    z 0.000000 0.000000 1.767860 
# 
# From -- ./inp_files/15401.got.cif
#   From: 2010.03.12/outbox.cif.g09.slc.cpg/sg35_8_cif.got.tgz:15401.got - 2010.04.14 02:02:04.
