data_PCOD8173551
_publ_section_title
;
Structure prediction by ZEFSAII (Michael W. Deem and Ramdas Pophale) SiO2 
 PCOD8173551
Probable space group: C M M 2
;
_chemical_formula_sum "Si O2"
_cell_formula_units_Z 56
_cell_length_a 21.772844
_cell_length_b 8.647264
_cell_length_c 14.754806
_cell_angle_alpha 90.000000
_cell_angle_beta 90.000000
_cell_angle_gamma 90.000000
_cell_volume 2777.968921
_symmetry_space_group_name_H-M "C M M 2"
_symmetry_group_IT_number 35
_symmetry_cell_setting 'orthorhombic'
loop_
_space_group_symop_operation_xyz
x,y,z
-x,-y,z
-x,y,z
x,-y,z
1/2+x,1/2+y,z
1/2-x,1/2-y,z
1/2-x,1/2+y,z
1/2+x,1/2-y,z
loop_
_atom_site_type_symbol
_atom_site_label
_atom_site_fract_x
_atom_site_fract_y
_atom_site_fract_z
Si Si1 0.112521 0.323996 0.754840
Si Si2 0.814566 0.182517 0.907369
Si Si3 0.318427 0.677976 0.445163
Si Si4 0.000000 0.330323 0.886747
Si Si5 0.813130 0.822863 0.245502
Si Si6 0.623701 0.820332 0.078804
Si Si7 0.500000 0.678274 0.069372
Si Si8 0.429551 0.682655 0.569280
O O1 0.126981 0.500000 0.725606
O O2 0.170385 0.251400 0.807928
O O3 0.058750 0.313280 0.826119
O O4 0.092364 0.224619 0.669564
O O5 0.750000 0.250000 0.939931
O O6 0.812005 0.000000 0.899705
O O7 0.861719 0.229311 0.986472
O O8 0.308935 0.500000 0.471453
O O9 0.250000 0.750000 0.462570
O O10 0.346658 0.691782 0.342808
O O11 0.375091 0.750212 0.504344
O O12 0.000000 0.500000 0.934935
O O13 0.000000 0.196103 0.960849
O O14 0.750000 0.750000 0.275120
O O15 0.833892 0.715685 0.163582
O O16 0.810556 0.000000 0.211514
O O17 0.557787 0.763615 0.113140
O O18 0.626154 0.000000 0.055446
O O19 0.500000 0.500000 0.097550
O O20 0.500000 0.747340 0.550757
O O21 0.432464 0.500000 0.559017
#
# Coordination Sequence:
#
# PCOD8173551 Si02
#       8
#     8   8   8   4   8   8   4   8
#     4  11  22  38  60  86 118 156 197 242 295 352
#     4  12  25  41  60  86 119 157 202 248 298 352
#     4   9  20  39  63  90 119 156 200 252 309 366
#     4  10  20  36  58  81 114 153 194 239 288 342
#     4  10  20  38  62  89 117 153 201 246 299 361
#     4  12  24  40  60  86 122 159 196 244 299 353
#     4  12  24  38  60  87 116 157 204 245 292 350
#     4  10  21  38  61  89 122 159 205 254 307 367
#
# _framework density 20.158611000000001
#
# number of rings (size 3 to 8) (size 9 to 14) (size 15 to 20)
#    0.000    1.286    2.143    4.500    0.000    2.286 
#    1.286    1.429    0.000    0.000    0.000    0.000 
#    0.000    0.000    0.000    0.000    0.000    0.000 
#
# Total GULP energy -346961.702280 kJ/mol
# GULP energy per Si atom -12391.489367 kJ/mol
# Density = 2.011273 g / cm^3
# Si number density = 20.158611 Si / 1000 Ang^3
#
#
#
# Elastic Constant Matrix: (Units=GPa)
#
#
# Indices 1 2 3 4 5 6 
#
# 1 93.9867 24.4221 36.5034 0.0000 0.0000 0.0000
# 2 24.4221 73.0984 13.5067 0.0000 0.0000 0.0000
# 3 36.5034 13.5067 87.4073 0.0000 0.0000 0.0000
# 4 0.0000 0.0000 0.0000 24.6658 0.0000 0.0000
# 5 0.0000 0.0000 0.0000 0.0000 107.0332 0.0000
# 6 0.0000 0.0000 0.0000 0.0000 0.0000 29.7181
#
#
#
# Elastic Compliance Matrix: (Units=1/GPa)
#
#
# Indices 1 2 3 4 5 6 
#
# 1 0.013555 -0.003585 -0.005107 0.000000 0.000000 0.000000
# 2 -0.003585 0.015030 -0.000825 0.000000 0.000000 0.000000
# 3 -0.005107 -0.000825 0.013701 0.000000 0.000000 0.000000
# 4 0.000000 0.000000 0.000000 0.040542 0.000000 0.000000
# 5 0.000000 0.000000 0.000000 0.000000 0.009343 0.000000
# 6 0.000000 0.000000 0.000000 0.000000 0.000000 0.033649
#
#
# Mechanical properties :
#
#
# Convention : Reuss Voigt Hill
#
# Bulk Modulus (GPa) = 43.00759 44.81741 43.91250
# Shear Modulus (GPa) = 32.76418 44.28744 38.52581
#
# Velocity S-wave (km/s) = 4.03590 4.69225 4.37639
# Velocity P-wave (km/s) = 6.56497 7.18588 6.88243
#
# Compressibility (1/GPa) = 0.02325171
#
# Stress axis : x y z
#
# Youngs Moduli (GPa) = 73.77468 66.53161 72.98749
#
# Poissons Ratio (x) = 0.23852 0.37273
# Poissons Ratio (y) = 0.26448 0.06024
# Poissons Ratio (z) = 0.37675 0.05492
#
# Static dielectric constant tensor:
#      x y z
#    x 3.903230 0.000000 0.000000 
#    y 0.000000 3.680960 0.000000 
#    z 0.000000 0.000000 3.594890 
# 
# 
# High freq. dielectric constant tensor:
#      x y z
#    x 1.793920 0.000000 0.000000 
#    y 0.000000 1.786790 0.000000 
#    z 0.000000 0.000000 1.783840 
# 
# From -- ./inp_files/17435.got.cif
#   From: 2010.03.12/outbox.cif.g09.slc.cpg/sg35_9_cif.got.tgz:17435.got - 2010.04.14 02:02:04.
