data_PCOD8173077
_publ_section_title
;
Structure prediction by ZEFSAII (Michael W. Deem and Ramdas Pophale) SiO2 
 PCOD8173077
Probable space group: C M M 2
;
_chemical_formula_sum "Si O2"
_cell_formula_units_Z 56
_cell_length_a 8.975487
_cell_length_b 19.393379
_cell_length_c 17.709453
_cell_angle_alpha 90.000000
_cell_angle_beta 90.000000
_cell_angle_gamma 90.000000
_cell_volume 3082.596310
_symmetry_space_group_name_H-M "C M M 2"
_symmetry_group_IT_number 35
_symmetry_cell_setting 'orthorhombic'
loop_
_space_group_symop_operation_xyz
x,y,z
-x,-y,z
-x,y,z
x,-y,z
1/2+x,1/2+y,z
1/2-x,1/2-y,z
1/2-x,1/2+y,z
1/2+x,1/2-y,z
loop_
_atom_site_type_symbol
_atom_site_label
_atom_site_fract_x
_atom_site_fract_y
_atom_site_fract_z
Si Si1 0.824302 0.179300 0.380930
Si Si2 0.677034 0.825007 0.795907
Si Si3 0.325655 0.679009 0.210055
Si Si4 0.823202 0.423471 0.928146
Si Si5 0.675995 0.424605 0.504368
Si Si6 0.326600 0.580520 0.674513
Si Si7 0.330693 0.919242 0.097214
O O1 0.750000 0.250000 0.404809
O O2 0.780007 0.158666 0.295547
O O3 0.757023 0.124097 0.439542
O O4 0.000000 0.186995 0.389597
O O5 0.500000 0.816379 0.795874
O O6 0.750000 0.750000 0.793904
O O7 0.735560 0.865901 0.870044
O O8 0.724481 0.870293 0.724520
O O9 0.500000 0.689813 0.202566
O O10 0.250000 0.750000 0.184724
O O11 0.275663 0.617963 0.155987
O O12 0.759897 0.500000 0.907327
O O13 0.000000 0.427691 0.925628
O O14 0.773051 0.402486 0.012561
O O15 0.500000 0.429542 0.495194
O O16 0.746891 0.500000 0.491984
O O17 0.713323 0.398503 0.588591
O O18 0.500000 0.594430 0.692003
O O19 0.288878 0.500000 0.689103
O O20 0.500000 0.893299 0.107879
O O21 0.320136 0.000000 0.112988
#
# Coordination Sequence:
#
# PCOD8173077 Si02
#       7
#     8   8   8   8   8   8   8
#     4   9  18  32  50  71  97 131 167 203 244 291
#     4  11  22  35  52  75 104 134 167 207 248 293
#     4  10  20  33  50  73 102 135 171 209 248 294
#     4   8  16  33  55  75  96 128 167 203 245 299
#     4   8  15  30  52  75  98 127 163 201 243 292
#     4   9  18  34  55  77 102 132 166 204 248 299
#     4   9  18  34  55  77 102 131 163 202 250 301
#
# _framework density 18.166502999999999
#
# number of rings (size 3 to 8) (size 9 to 14) (size 15 to 20)
#    0.000    2.857    0.000    3.000    0.000    3.429 
#    0.000    6.429    0.000    3.000    0.000    0.000 
#    0.000    0.000    0.000    0.000    0.000    0.000 
#
# Total GULP energy -347114.446736 kJ/mol
# GULP energy per Si atom -12396.944526 kJ/mol
# Density = 1.812516 g / cm^3
# Si number density = 18.166503 Si / 1000 Ang^3
#
#
#
# Elastic Constant Matrix: (Units=GPa)
#
#
# Indices 1 2 3 4 5 6 
#
# 1 42.6003 37.6120 34.2347 0.0000 0.0000 0.0000
# 2 37.6120 115.1440 86.5582 0.0000 0.0000 0.0000
# 3 34.2347 86.5582 130.7621 0.0000 0.0000 0.0000
# 4 0.0000 0.0000 0.0000 23.8207 0.0000 0.0000
# 5 0.0000 0.0000 0.0000 0.0000 23.4749 0.0000
# 6 0.0000 0.0000 0.0000 0.0000 0.0000 24.0053
#
#
#
# Elastic Compliance Matrix: (Units=1/GPa)
#
#
# Indices 1 2 3 4 5 6 
#
# 1 0.033587 -0.008680 -0.003047 0.000000 0.000000 0.000000
# 2 -0.008680 0.019531 -0.010656 0.000000 0.000000 0.000000
# 3 -0.003047 -0.010656 0.015499 0.000000 0.000000 0.000000
# 4 0.000000 0.000000 0.000000 0.041980 0.000000 0.000000
# 5 0.000000 0.000000 0.000000 0.000000 0.042599 0.000000
# 6 0.000000 0.000000 0.000000 0.000000 0.000000 0.041658
#
#
# Mechanical properties :
#
#
# Convention : Reuss Voigt Hill
#
# Bulk Modulus (GPa) = 41.92971 67.25735 54.59353
# Shear Modulus (GPa) = 20.19635 22.93359 21.56497
#
# Velocity S-wave (km/s) = 3.33789 3.55690 3.44913
# Velocity P-wave (km/s) = 6.16330 7.34655 6.78078
#
# Compressibility (1/GPa) = 0.02384944
#
# Stress axis : x y z
#
# Youngs Moduli (GPa) = 29.77350 51.20191 64.52102
#
# Poissons Ratio (x) = 0.44445 0.19662
# Poissons Ratio (y) = 0.25845 0.68751
# Poissons Ratio (z) = 0.09073 0.54559
#
# Static dielectric constant tensor:
#      x y z
#    x 3.058790 0.000000 0.000000 
#    y 0.000000 3.616020 0.000000 
#    z 0.000000 0.000000 3.586430 
# 
# 
# High freq. dielectric constant tensor:
#      x y z
#    x 1.676110 0.000000 0.000000 
#    y 0.000000 1.703920 0.000000 
#    z 0.000000 0.000000 1.714340 
# 
# From -- ./inp_files/15631.got.cif
#   From: 2010.03.12/outbox.cif.g09.slc.cpg/sg35_8_cif.got.tgz:15631.got - 2010.04.14 02:02:04.
