data_PCOD8173057
_publ_section_title
;
Structure prediction by ZEFSAII (Michael W. Deem and Ramdas Pophale) SiO2 
 PCOD8173057
Probable space group: C M M 2
;
_chemical_formula_sum "Si O2"
_cell_formula_units_Z 64
_cell_length_a 17.942078
_cell_length_b 9.721928
_cell_length_c 20.932065
_cell_angle_alpha 90.000000
_cell_angle_beta 90.000000
_cell_angle_gamma 90.000000
_cell_volume 3651.213390
_symmetry_space_group_name_H-M "C M M 2"
_symmetry_group_IT_number 35
_symmetry_cell_setting 'orthorhombic'
loop_
_space_group_symop_operation_xyz
x,y,z
-x,-y,z
-x,y,z
x,-y,z
1/2+x,1/2+y,z
1/2-x,1/2-y,z
1/2-x,1/2+y,z
1/2+x,1/2-y,z
loop_
_atom_site_type_symbol
_atom_site_label
_atom_site_fract_x
_atom_site_fract_y
_atom_site_fract_z
Si Si1 0.323975 0.838417 0.260820
Si Si2 0.583078 0.162752 0.138677
Si Si3 0.081587 0.836799 0.638677
Si Si4 0.413918 0.158222 0.889717
Si Si5 0.589181 0.345449 0.501741
Si Si6 0.086082 0.658221 0.387636
Si Si7 0.323975 0.161583 0.016534
Si Si8 0.589180 0.345449 0.775613
O O1 0.250000 0.750000 0.260945
O O2 0.373397 0.787570 0.201394
O O3 0.369187 0.803572 0.324471
O O4 0.304684 0.000000 0.255794
O O5 0.500000 0.227422 0.138677
O O6 0.576326 0.000000 0.138678
O O7 0.626602 0.212429 0.075960
O O8 0.121820 0.795768 0.571442
O O9 0.121820 0.795768 0.705912
O O10 0.000000 0.767181 0.638677
O O11 0.072220 0.000000 0.638677
O O12 0.500000 0.194364 0.902752
O O13 0.369187 0.196428 0.952883
O O14 0.380663 0.246110 0.831022
O O15 0.403955 0.000000 0.870973
O O16 0.500000 0.340362 0.505595
O O17 0.616203 0.500000 0.485869
O O18 0.619336 0.246109 0.446332
O O19 0.096045 0.500000 0.406381
O O20 0.000000 0.694363 0.374602
O O21 0.250000 0.250000 0.016409
O O22 0.304684 0.000000 0.021560
O O23 0.500000 0.340359 0.771759
O O24 0.616202 0.500000 0.791485
#
# Coordination Sequence:
#
# PCOD8173057 Si02
#       8
#     8   8   8   8   8   8   8   8
#     4  10  20  33  50  71  95 123 154 189 227 268
#     4   9  17  32  55  77  94 119 156 190 222 267
#     4   7  10  18  33  55  84 115 146 181 223 271
#     4   9  17  29  44  64  91 121 153 189 228 270
#     4   8  13  22  38  60  86 117 151 186 225 270
#     4   9  17  29  44  64  91 121 153 189 228 270
#     4  10  20  33  50  71  95 123 154 189 227 268
#     4   8  13  22  38  60  86 117 151 186 225 270
#
# _framework density 17.528420000000001
#
# number of rings (size 3 to 8) (size 9 to 14) (size 15 to 20)
#    0.000    3.250    0.000    2.625    0.000    4.000 
#    0.000    0.625    0.000    6.750    0.000    0.875 
#    0.000    0.000    0.000    0.000    0.000    0.000 
#
# Total GULP energy -396522.382661 kJ/mol
# GULP energy per Si atom -12391.324458 kJ/mol
# Density = 1.748852 g / cm^3
# Si number density = 17.528420 Si / 1000 Ang^3
#
#
#
# Elastic Constant Matrix: (Units=GPa)
#
#
# Indices 1 2 3 4 5 6 
#
# 1 74.5747 40.9390 64.0541 0.0000 0.0000 0.0000
# 2 40.9390 57.7336 73.5099 0.0000 0.0000 0.0000
# 3 64.0541 73.5099 205.9543 0.0000 0.0000 0.0000
# 4 0.0000 0.0000 0.0000 27.8673 0.0000 0.0000
# 5 0.0000 0.0000 0.0000 0.0000 -0.9512 0.0000
# 6 0.0000 0.0000 0.0000 0.0000 0.0000 21.6261
#
#
#
# Elastic Compliance Matrix: (Units=1/GPa)
#
#
# Indices 1 2 3 4 5 6 
#
# 1 0.022584 -0.012962 -0.002398 0.000000 0.000000 0.000000
# 2 -0.012962 0.039189 -0.009956 0.000000 0.000000 0.000000
# 3 -0.002398 -0.009956 0.009155 0.000000 0.000000 0.000000
# 4 0.000000 0.000000 0.000000 0.035884 0.000000 0.000000
# 5 0.000000 0.000000 0.000000 0.000000 -1.051318 0.000000
# 6 0.000000 0.000000 0.000000 0.000000 0.000000 0.046240
#
#
# Mechanical properties :
#
#
# Convention : Reuss Voigt Hill
#
# Bulk Modulus (GPa) = 49.26876 77.25207 63.26042
# Shear Modulus (GPa) = -5.94624 20.35908 7.20642
#
# Velocity S-wave (km/s) = -1.84383 3.41176 2.02983
# Velocity P-wave (km/s) = 4.86169 7.72582 6.45462
#
# Compressibility (1/GPa) = 0.02029684
#
# Stress axis : x y z
#
# Youngs Moduli (GPa) = 44.27846 25.51735 109.23313
#
# Poissons Ratio (x) = 0.33075 0.26190
# Poissons Ratio (y) = 0.57393 1.08755
# Poissons Ratio (z) = 0.10616 0.25406
#
# Static dielectric constant tensor:
#      x y z
#    x 2.896870 0.000000 0.000000 
#    y 0.000000 3.048570 0.000000 
#    z 0.000000 0.000000 3.779280 
# 
# 
# High freq. dielectric constant tensor:
#      x y z
#    x 1.633680 0.000000 0.000000 
#    y 0.000000 1.647510 0.000000 
#    z 0.000000 0.000000 1.704050 
# 
# From -- ./inp_files/18887.got.cif
#   From: 2010.03.12/outbox.cif.g09.slc.cpg/sg35_10_cif.got.tgz:18887.got - 2010.04.14 02:02:04.
