data_PCOD8173538
_publ_section_title
;
Structure prediction by ZEFSAII (Michael W. Deem and Ramdas Pophale) SiO2 
 PCOD8173538
Probable space group: C M M 2
;
_chemical_formula_sum "Si O2"
_cell_formula_units_Z 48
_cell_length_a 8.719168
_cell_length_b 15.559788
_cell_length_c 17.059937
_cell_angle_alpha 90.000000
_cell_angle_beta 90.000000
_cell_angle_gamma 90.000000
_cell_volume 2314.494453
_symmetry_space_group_name_H-M "C M M 2"
_symmetry_group_IT_number 35
_symmetry_cell_setting 'orthorhombic'
loop_
_space_group_symop_operation_xyz
x,y,z
-x,-y,z
-x,y,z
x,-y,z
1/2+x,1/2+y,z
1/2-x,1/2-y,z
1/2-x,1/2+y,z
1/2+x,1/2-y,z
loop_
_atom_site_type_symbol
_atom_site_label
_atom_site_fract_x
_atom_site_fract_y
_atom_site_fract_z
Si Si1 0.318752 0.843922 0.298600
Si Si2 0.675877 0.000000 0.048195
Si Si3 0.320489 0.157341 0.467652
Si Si4 0.174651 0.500000 0.862877
Si Si5 0.324848 0.097168 0.632455
Si Si6 0.182031 0.153973 0.140473
Si Si7 0.320528 0.662190 0.781160
O O1 0.500000 0.841895 0.281854
O O2 0.250000 0.750000 0.305340
O O3 0.279948 0.887944 0.383356
O O4 0.235100 0.887152 0.224284
O O5 0.758857 0.912723 0.075860
O O6 0.500000 0.000000 0.077370
O O7 0.686495 0.000000 0.955513
O O8 0.500000 0.170734 0.469403
O O9 0.250000 0.250000 0.476721
O O10 0.266424 0.101353 0.542183
O O11 0.255036 0.584489 0.830930
O O12 0.000000 0.500000 0.833314
O O13 0.500000 0.129657 0.638946
O O14 0.220527 0.154494 0.688960
O O15 0.310310 0.000000 0.661914
O O16 0.250000 0.250000 0.127254
O O17 0.000000 0.160447 0.136489
O O18 0.500000 0.664979 0.792114
O O19 0.250000 0.750000 0.814935
#
# Coordination Sequence:
#
# PCOD8173538 Si02
#       7
#     8   4   8   4   8   8   8
#     4   9  16  30  52  80 115 157 207 256 305 357
#     4  11  25  45  69  96 125 160 201 249 310 373
#     4   9  18  31  50  79 111 155 206 255 306 357
#     4  11  25  47  71  96 127 158 197 253 310 369
#     4  10  20  36  57  82 121 164 207 257 308 360
#     4  11  22  39  64  93 128 167 209 254 307 366
#     4  12  25  42  67  96 127 165 208 250 305 368
#
# _framework density 20.738871
#
# number of rings (size 3 to 8) (size 9 to 14) (size 15 to 20)
#    0.000    1.667    0.833    5.500    0.000    4.667 
#    1.500    0.000    0.000    0.000    0.000    0.000 
#    0.000    0.000    0.000    0.000    0.000    0.000 
#
# Total GULP energy -297459.083994 kJ/mol
# GULP energy per Si atom -12394.128500 kJ/mol
# Density = 2.069167 g / cm^3
# Si number density = 20.738871 Si / 1000 Ang^3
#
#
#
# Elastic Constant Matrix: (Units=GPa)
#
#
# Indices 1 2 3 4 5 6 
#
# 1 150.1720 58.3297 56.0005 0.0000 0.0000 0.0000
# 2 58.3297 114.4898 45.8738 0.0000 0.0000 0.0000
# 3 56.0005 45.8738 104.2852 0.0000 0.0000 0.0000
# 4 0.0000 0.0000 0.0000 30.9993 0.0000 0.0000
# 5 0.0000 0.0000 0.0000 0.0000 28.1874 0.0000
# 6 0.0000 0.0000 0.0000 0.0000 0.0000 29.5419
#
#
#
# Elastic Compliance Matrix: (Units=1/GPa)
#
#
# Indices 1 2 3 4 5 6 
#
# 1 0.009254 -0.003306 -0.003515 0.000000 0.000000 0.000000
# 2 -0.003306 0.011785 -0.003408 0.000000 0.000000 0.000000
# 3 -0.003515 -0.003408 0.012976 0.000000 0.000000 0.000000
# 4 0.000000 0.000000 0.000000 0.032259 0.000000 0.000000
# 5 0.000000 0.000000 0.000000 0.000000 0.035477 0.000000
# 6 0.000000 0.000000 0.000000 0.000000 0.000000 0.033850
#
#
# Mechanical properties :
#
#
# Convention : Reuss Voigt Hill
#
# Bulk Modulus (GPa) = 73.77272 76.59500 75.18386
# Shear Modulus (GPa) = 31.13749 31.66192 31.39970
#
# Velocity S-wave (km/s) = 3.87900 3.91153 3.89530
# Velocity P-wave (km/s) = 7.46402 7.57716 7.52080
#
# Compressibility (1/GPa) = 0.01355515
#
# Stress axis : x y z
#
# Youngs Moduli (GPa) = 108.06100 84.85667 77.06583
#
# Poissons Ratio (x) = 0.28056 0.27088
# Poissons Ratio (y) = 0.35729 0.26267
# Poissons Ratio (z) = 0.37983 0.28923
#
# Static dielectric constant tensor:
#      x y z
#    x 3.803040 0.000000 0.000000 
#    y 0.000000 3.589850 0.000000 
#    z 0.000000 0.000000 4.325100 
# 
# 
# High freq. dielectric constant tensor:
#      x y z
#    x 1.813500 0.000000 0.000000 
#    y 0.000000 1.796590 0.000000 
#    z 0.000000 0.000000 1.826560 
# 
# From -- ./inp_files/17900.got.cif
#   From: 2010.03.12/outbox.cif.g09.slc.cpg/sg35_9_cif.got.tgz:17900.got - 2010.04.14 02:02:04.
