data_PCOD8173428
_publ_section_title
;
Structure prediction by ZEFSAII (Michael W. Deem and Ramdas Pophale) SiO2 
 PCOD8173428
Probable space group: C M M 2
;
_chemical_formula_sum "Si O2"
_cell_formula_units_Z 64
_cell_length_a 8.876879
_cell_length_b 18.324403
_cell_length_c 20.346864
_cell_angle_alpha 90.000000
_cell_angle_beta 90.000000
_cell_angle_gamma 90.000000
_cell_volume 3309.692279
_symmetry_space_group_name_H-M "C M M 2"
_symmetry_group_IT_number 35
_symmetry_cell_setting 'orthorhombic'
loop_
_space_group_symop_operation_xyz
x,y,z
-x,-y,z
-x,y,z
x,-y,z
1/2+x,1/2+y,z
1/2-x,1/2-y,z
1/2-x,1/2+y,z
1/2+x,1/2-y,z
loop_
_atom_site_type_symbol
_atom_site_label
_atom_site_fract_x
_atom_site_fract_y
_atom_site_fract_z
Si Si1 0.677270 0.325508 0.627000
Si Si2 0.678990 0.917904 0.114656
Si Si3 0.675646 0.083864 0.368341
Si Si4 0.169469 0.413899 0.736223
Si Si5 0.321216 0.829262 0.987877
Si Si6 0.175356 0.914297 0.869574
Si Si7 0.678550 0.829022 0.240267
Si Si8 0.676217 0.674771 0.476343
O O1 0.500000 0.321679 0.637755
O O2 0.750000 0.250000 0.650416
O O3 0.747261 0.389253 0.670344
O O4 0.719748 0.342038 0.551550
O O5 0.500000 0.921436 0.115884
O O6 0.739269 0.876091 0.178928
O O7 0.745583 0.000000 0.113654
O O8 0.736074 0.875058 0.050553
O O9 0.500000 0.095796 0.381383
O O10 0.731557 0.130676 0.306342
O O11 0.764318 0.108103 0.433116
O O12 0.713165 0.000000 0.353551
O O13 0.164574 0.500000 0.734157
O O14 0.263447 0.387177 0.799286
O O15 0.000000 0.381907 0.739652
O O16 0.500000 0.821906 0.986635
O O17 0.250000 0.750000 0.991634
O O18 0.267961 0.870895 0.923474
O O19 0.000000 0.894643 0.874464
O O20 0.204458 0.000000 0.879751
O O21 0.500000 0.821410 0.237448
O O22 0.750000 0.750000 0.237418
O O23 0.500000 0.683295 0.466791
O O24 0.750000 0.750000 0.451909
#
# Coordination Sequence:
#
# PCOD8173428 Si02
#       8
#     8   8   8   8   8   8   8   8
#     4  10  21  37  57  81 110 144 183 226 274 328
#     4   9  18  34  57  82 108 142 183 226 273 326
#     4  10  21  36  55  80 110 145 185 229 276 327
#     4  10  21  37  58  84 113 145 182 224 271 326
#     4  11  22  36  56  82 112 145 184 228 274 326
#     4  10  21  38  59  82 110 144 182 226 275 326
#     4  10  20  35  56  81 110 144 183 226 273 326
#     4  10  21  37  57  80 108 144 184 227 275 328
#
# _framework density 19.337146000000001
#
# number of rings (size 3 to 8) (size 9 to 14) (size 15 to 20)
#    0.000    2.000    0.000    3.375    0.000    7.750 
#    0.000    5.625    0.000    2.625    0.000    0.000 
#    0.000    0.000    0.000    0.000    0.000    0.000 
#
# Total GULP energy -396935.434706 kJ/mol
# GULP energy per Si atom -12404.232335 kJ/mol
# Density = 1.929313 g / cm^3
# Si number density = 19.337146 Si / 1000 Ang^3
#
#
#
# Elastic Constant Matrix: (Units=GPa)
#
#
# Indices 1 2 3 4 5 6 
#
# 1 71.6885 39.9181 44.4788 0.0000 0.0000 0.0000
# 2 39.9181 98.6861 65.9610 0.0000 0.0000 0.0000
# 3 44.4788 65.9610 133.9694 0.0000 0.0000 0.0000
# 4 0.0000 0.0000 0.0000 13.4537 0.0000 0.0000
# 5 0.0000 0.0000 0.0000 0.0000 24.0613 0.0000
# 6 0.0000 0.0000 0.0000 0.0000 0.0000 31.6707
#
#
#
# Elastic Compliance Matrix: (Units=1/GPa)
#
#
# Indices 1 2 3 4 5 6 
#
# 1 0.019224 -0.005232 -0.003807 0.000000 0.000000 0.000000
# 2 -0.005232 0.016527 -0.006400 0.000000 0.000000 0.000000
# 3 -0.003807 -0.006400 0.011880 0.000000 0.000000 0.000000
# 4 0.000000 0.000000 0.000000 0.074329 0.000000 0.000000
# 5 0.000000 0.000000 0.000000 0.000000 0.041560 0.000000
# 6 0.000000 0.000000 0.000000 0.000000 0.000000 0.031575
#
#
# Mechanical properties :
#
#
# Convention : Reuss Voigt Hill
#
# Bulk Modulus (GPa) = 59.68926 67.22886 63.45906
# Shear Modulus (GPa) = 21.59290 24.10289 22.84789
#
# Velocity S-wave (km/s) = 3.34526 3.53435 3.44110
# Velocity P-wave (km/s) = 6.77169 7.17619 6.97687
#
# Compressibility (1/GPa) = 0.01675343
#
# Stress axis : x y z
#
# Youngs Moduli (GPa) = 52.01753 60.50577 84.17845
#
# Poissons Ratio (x) = 0.31655 0.32044
# Poissons Ratio (y) = 0.27215 0.53877
# Poissons Ratio (z) = 0.19801 0.38726
#
# Static dielectric constant tensor:
#      x y z
#    x 3.491970 0.000000 0.000000 
#    y 0.000000 3.553670 0.000000 
#    z 0.000000 0.000000 3.694320 
# 
# 
# High freq. dielectric constant tensor:
#      x y z
#    x 1.746620 0.000000 0.000000 
#    y 0.000000 1.755350 0.000000 
#    z 0.000000 0.000000 1.766570 
# 
# From -- ./inp_files/18372.got.cif
#   From: 2010.03.12/outbox.cif.g09.slc.cpg/sg35_10_cif.got.tgz:18372.got - 2010.04.14 02:02:04.
