data_PCOD8173740
_publ_section_title
;
Structure prediction by ZEFSAII (Michael W. Deem and Ramdas Pophale) SiO2 
 PCOD8173740
Probable space group: C M M 2
;
_chemical_formula_sum "Si O2"
_cell_formula_units_Z 56
_cell_length_a 19.216287
_cell_length_b 17.071900
_cell_length_c 8.879698
_cell_angle_alpha 90.000000
_cell_angle_beta 90.000000
_cell_angle_gamma 90.000000
_cell_volume 2913.060673
_symmetry_space_group_name_H-M "C M M 2"
_symmetry_group_IT_number 35
_symmetry_cell_setting 'orthorhombic'
loop_
_space_group_symop_operation_xyz
x,y,z
-x,-y,z
-x,y,z
x,-y,z
1/2+x,1/2+y,z
1/2-x,1/2-y,z
1/2-x,1/2+y,z
1/2+x,1/2-y,z
loop_
_atom_site_type_symbol
_atom_site_label
_atom_site_fract_x
_atom_site_fract_y
_atom_site_fract_z
Si Si1 0.185242 0.300284 0.289010
Si Si2 0.343068 0.906872 0.022320
Si Si3 0.923407 0.090316 0.721531
Si Si4 0.421953 0.272720 0.511541
Si Si5 0.217429 0.908887 0.835095
Si Si6 0.292323 0.913477 0.548509
Si Si7 0.579749 0.869997 0.718317
O O1 0.250000 0.250000 0.222907
O O2 0.143044 0.351097 0.164922
O O3 0.130075 0.245419 0.375245
O O4 0.219095 0.361263 0.403461
O O5 0.351822 0.000000 0.059179
O O6 0.263100 0.883575 0.978117
O O7 0.395564 0.881346 0.890375
O O8 0.910284 0.138619 0.568619
O O9 0.864898 0.110738 0.848947
O O10 0.000000 0.108696 0.789983
O O11 0.916666 0.000000 0.673677
O O12 0.500000 0.261353 0.448137
O O13 0.411574 0.219517 0.661550
O O14 0.247275 0.871581 0.680611
O O15 0.232206 0.000000 0.813648
O O16 0.372586 0.920593 0.605138
O O17 0.265881 0.000000 0.506190
O O18 0.500000 0.898575 0.706578
#
# Coordination Sequence:
#
# PCOD8173740 Si02
#       7
#     8   8   8   8   8   8   8
#     4  11  22  34  49  72 101 138 176 208 250 301
#     4  10  21  35  51  74 106 140 173 210 247 292
#     4   9  16  28  51  80 104 129 165 210 258 306
#     4   9  19  35  53  77 107 132 163 212 261 303
#     4   8  15  29  49  73  97 122 159 208 254 292
#     4   9  17  31  52  74  97 127 165 211 256 300
#     4   9  18  33  54  79 105 133 165 204 253 306
#
# _framework density 19.223766000000001
#
# number of rings (size 3 to 8) (size 9 to 14) (size 15 to 20)
#    0.000    2.714    0.000    2.571    0.000    2.857 
#    0.000    2.143    0.000    3.429    0.000    1.000 
#    0.000   11.429    0.000    0.000    0.000    0.000 
#
# Total GULP energy -346901.744587 kJ/mol
# GULP energy per Si atom -12389.348021 kJ/mol
# Density = 1.918001 g / cm^3
# Si number density = 19.223766 Si / 1000 Ang^3
#
#
#
# Elastic Constant Matrix: (Units=GPa)
#
#
# Indices 1 2 3 4 5 6 
#
# 1 114.3281 22.5239 13.6459 0.0000 0.0000 0.0000
# 2 22.5239 59.8128 17.2368 0.0000 0.0000 0.0000
# 3 13.6459 17.2368 58.2833 0.0000 0.0000 0.0000
# 4 0.0000 0.0000 0.0000 22.5241 0.0000 0.0000
# 5 0.0000 0.0000 0.0000 0.0000 21.2466 0.0000
# 6 0.0000 0.0000 0.0000 0.0000 0.0000 22.2495
#
#
#
# Elastic Compliance Matrix: (Units=1/GPa)
#
#
# Indices 1 2 3 4 5 6 
#
# 1 0.009534 -0.003222 -0.001279 0.000000 0.000000 0.000000
# 2 -0.003222 0.019365 -0.004973 0.000000 0.000000 0.000000
# 3 -0.001279 -0.004973 0.018928 0.000000 0.000000 0.000000
# 4 0.000000 0.000000 0.000000 0.044397 0.000000 0.000000
# 5 0.000000 0.000000 0.000000 0.000000 0.047066 0.000000
# 6 0.000000 0.000000 0.000000 0.000000 0.000000 0.044945
#
#
# Mechanical properties :
#
#
# Convention : Reuss Voigt Hill
#
# Bulk Modulus (GPa) = 34.62687 37.69304 36.15996
# Shear Modulus (GPa) = 23.49521 25.13854 24.31687
#
# Velocity S-wave (km/s) = 3.49978 3.62011 3.56046
# Velocity P-wave (km/s) = 5.86370 6.09292 5.97941
#
# Compressibility (1/GPa) = 0.02887930
#
# Stress axis : x y z
#
# Youngs Moduli (GPa) = 104.88607 51.63938 52.83232
#
# Poissons Ratio (x) = 0.16636 0.06760
# Poissons Ratio (y) = 0.33790 0.26272
# Poissons Ratio (z) = 0.13420 0.25679
#
# Static dielectric constant tensor:
#      x y z
#    x 3.727680 0.000000 0.000000 
#    y 0.000000 3.527180 0.000000 
#    z 0.000000 0.000000 3.186440 
# 
# 
# High freq. dielectric constant tensor:
#      x y z
#    x 1.755800 0.000000 0.000000 
#    y 0.000000 1.746860 0.000000 
#    z 0.000000 0.000000 1.708630 
# 
# From -- ./inp_files/9292.got.cif
#   From: 2010.03.12/outbox.cif.g09.slc.cpg/sg35_5_cif.got.tgz:9292.got - 2010.04.14 02:02:04.
