data_PCOD8173733
_publ_section_title
;
Structure prediction by ZEFSAII (Michael W. Deem and Ramdas Pophale) SiO2 
 PCOD8173733
Probable space group: C M M 2
;
_chemical_formula_sum "Si O2"
_cell_formula_units_Z 48
_cell_length_a 37.449971
_cell_length_b 9.136599
_cell_length_c 7.574494
_cell_angle_alpha 90.000000
_cell_angle_beta 90.000000
_cell_angle_gamma 90.000000
_cell_volume 2591.729524
_symmetry_space_group_name_H-M "C M M 2"
_symmetry_group_IT_number 35
_symmetry_cell_setting 'orthorhombic'
loop_
_space_group_symop_operation_xyz
x,y,z
-x,-y,z
-x,y,z
x,-y,z
1/2+x,1/2+y,z
1/2-x,1/2-y,z
1/2-x,1/2+y,z
1/2+x,1/2-y,z
loop_
_atom_site_type_symbol
_atom_site_label
_atom_site_fract_x
_atom_site_fract_y
_atom_site_fract_z
Si Si1 0.541379 0.329105 0.613470
Si Si2 0.214243 0.829592 0.000509
Si Si3 0.041025 0.331787 0.968002
Si Si4 0.915074 0.327270 0.310854
Si Si5 0.785762 0.170407 0.600463
Si Si6 0.840441 0.828638 0.300457
O O1 0.500000 0.295818 0.573876
O O2 0.550037 0.500000 0.606586
O O3 0.552160 0.270067 0.805476
O O4 0.565067 0.246997 0.472338
O O5 0.250000 0.750000 0.064576
O O6 0.204049 0.784066 0.800493
O O7 0.222368 0.000000 0.016111
O O8 0.181746 0.785041 0.126505
O O9 0.047841 0.500000 0.914915
O O10 0.000000 0.306387 0.021921
O O11 0.064913 0.282739 0.132003
O O12 0.915304 0.500000 0.340768
O O13 0.875169 0.269895 0.299186
O O14 0.750000 0.250000 0.536335
O O15 0.818322 0.214821 0.474766
O O16 0.777618 0.000000 0.584911
O O17 0.850558 0.000000 0.300815
#
# Coordination Sequence:
#
# PCOD8173733 Si02
#       6
#     8   8   8   8   8   8
#     4  10  21  37  59  85 110 140 180 225 272 323
#     4   9  18  33  53  75  99 130 170 217 266 315
#     4   9  19  37  59  81 107 141 181 225 271 319
#     4  11  23  37  55  81 113 148 184 223 270 323
#     4   9  18  33  53  76 101 132 172 217 265 315
#     4  10  21  35  50  73 107 142 175 215 265 319
#
# _framework density 18.520451000000001
#
# number of rings (size 3 to 8) (size 9 to 14) (size 15 to 20)
#    0.000    2.333    0.000    2.000    0.000    5.667 
#    0.000    3.333    0.000    0.000    0.000    0.000 
#    0.000    0.000    0.000    0.000    0.000    0.000 
#
# Total GULP energy -297681.814943 kJ/mol
# GULP energy per Si atom -12403.408956 kJ/mol
# Density = 1.847830 g / cm^3
# Si number density = 18.520451 Si / 1000 Ang^3
#
#
#
# Elastic Constant Matrix: (Units=GPa)
#
#
# Indices 1 2 3 4 5 6 
#
# 1 133.9834 67.9388 94.0499 0.0000 0.0000 0.0000
# 2 67.9388 74.5430 63.6431 0.0000 0.0000 0.0000
# 3 94.0499 63.6431 137.2596 0.0000 0.0000 0.0000
# 4 0.0000 0.0000 0.0000 13.0187 0.0000 0.0000
# 5 0.0000 0.0000 0.0000 0.0000 38.2770 0.0000
# 6 0.0000 0.0000 0.0000 0.0000 0.0000 37.1167
#
#
#
# Elastic Compliance Matrix: (Units=1/GPa)
#
#
# Indices 1 2 3 4 5 6 
#
# 1 0.017732 -0.009580 -0.007708 0.000000 0.000000 0.000000
# 2 -0.009580 0.027382 -0.006132 0.000000 0.000000 0.000000
# 3 -0.007708 -0.006132 0.015410 0.000000 0.000000 0.000000
# 4 0.000000 0.000000 0.000000 0.076813 0.000000 0.000000
# 5 0.000000 0.000000 0.000000 0.000000 0.026125 0.000000
# 6 0.000000 0.000000 0.000000 0.000000 0.000000 0.026942
#
#
# Mechanical properties :
#
#
# Convention : Reuss Voigt Hill
#
# Bulk Modulus (GPa) = 73.07788 88.56107 80.81948
# Shear Modulus (GPa) = 20.67786 25.69275 23.18530
#
# Velocity S-wave (km/s) = 3.34501 3.72864 3.54202
# Velocity P-wave (km/s) = 7.37987 8.15223 7.77564
#
# Compressibility (1/GPa) = 0.01368403
#
# Stress axis : x y z
#
# Youngs Moduli (GPa) = 56.39533 36.52085 64.89320
#
# Poissons Ratio (x) = 0.34988 0.50019
# Poissons Ratio (y) = 0.54028 0.39791
# Poissons Ratio (z) = 0.43469 0.22393
#
# Static dielectric constant tensor:
#      x y z
#    x 3.313530 0.000000 0.000000 
#    y 0.000000 3.401130 0.000000 
#    z 0.000000 0.000000 3.664710 
# 
# 
# High freq. dielectric constant tensor:
#      x y z
#    x 1.713900 0.000000 0.000000 
#    y 0.000000 1.718770 0.000000 
#    z 0.000000 0.000000 1.732530 
# 
# From -- ./inp_files/10484.got.cif
#   From: 2010.03.12/outbox.cif.g09.slc.cpg/sg35_6_cif.got.tgz:10484.got - 2010.04.14 02:02:04.
