data_PCOD8173199
_publ_section_title
;
Structure prediction by ZEFSAII (Michael W. Deem and Ramdas Pophale) SiO2 
 PCOD8173199
Probable space group: C M M 2
;
_chemical_formula_sum "Si O2"
_cell_formula_units_Z 64
_cell_length_a 9.026602
_cell_length_b 32.874456
_cell_length_c 11.509167
_cell_angle_alpha 90.000000
_cell_angle_beta 90.000000
_cell_angle_gamma 90.000000
_cell_volume 3415.283506
_symmetry_space_group_name_H-M "C M M 2"
_symmetry_group_IT_number 35
_symmetry_cell_setting 'orthorhombic'
loop_
_space_group_symop_operation_xyz
x,y,z
-x,-y,z
-x,y,z
x,-y,z
1/2+x,1/2+y,z
1/2-x,1/2-y,z
1/2-x,1/2+y,z
1/2+x,1/2-y,z
loop_
_atom_site_type_symbol
_atom_site_label
_atom_site_fract_x
_atom_site_fract_y
_atom_site_fract_z
Si Si1 0.672129 0.395302 0.068710
Si Si2 0.824752 0.364581 0.273812
Si Si3 0.675962 0.129245 0.536260
Si Si4 0.676766 0.793170 0.691942
Si Si5 0.833287 0.817011 0.925352
Si Si6 0.325658 0.954226 0.646342
Si Si7 0.837973 0.953332 0.874681
Si Si8 0.666562 0.287997 0.170996
O O1 0.500000 0.388625 0.101066
O O2 0.763380 0.400048 0.189355
O O3 0.722485 0.359315 0.981133
O O4 0.708901 0.435822 0.998784
O O5 0.765194 0.366907 0.404963
O O6 0.760391 0.325412 0.213202
O O7 0.000000 0.364416 0.272681
O O8 0.500000 0.128389 0.543255
O O9 0.730662 0.168548 0.611252
O O10 0.738082 0.084646 0.575519
O O11 0.500000 0.788043 0.686138
O O12 0.750000 0.750000 0.651480
O O13 0.723401 0.802840 0.823916
O O14 0.833112 0.784689 0.030868
O O15 0.000000 0.820893 0.873792
O O16 0.500000 0.955964 0.633569
O O17 0.284035 0.943795 0.778259
O O18 0.262799 0.000000 0.610976
O O19 0.000000 0.935675 0.836383
O O20 0.852360 0.000000 0.898633
O O21 0.500000 0.290346 0.219798
O O22 0.750000 0.250000 0.226435
#
# Coordination Sequence:
#
# PCOD8173199 Si02
#       8
#     8   8   8   8   8   8   8   8
#     4   9  18  33  51  73 102 133 166 206 254 307
#     4  10  20  35  53  71  96 132 174 214 251 297
#     4   9  20  37  53  73 102 136 172 213 259 301
#     4  11  22  35  51  72 102 135 169 208 250 301
#     4   9  18  32  50  73 100 128 161 203 251 303
#     4   9  17  32  56  82 106 133 168 210 256 309
#     4   9  17  30  50  77 108 136 161 198 252 310
#     4  10  20  34  52  75 102 130 165 210 258 306
#
# _framework density 18.739293
#
# number of rings (size 3 to 8) (size 9 to 14) (size 15 to 20)
#    0.000    2.500    0.000    3.000    0.000    4.500 
#    0.000    6.250    0.000    0.750    0.000    0.000 
#    0.000    0.000    0.000    0.000    0.000    0.000 
#
# Total GULP energy -396428.861572 kJ/mol
# GULP energy per Si atom -12388.401924 kJ/mol
# Density = 1.869664 g / cm^3
# Si number density = 18.739293 Si / 1000 Ang^3
#
#
#
# Elastic Constant Matrix: (Units=GPa)
#
#
# Indices 1 2 3 4 5 6 
#
# 1 40.5391 32.5445 30.0810 0.0000 0.0000 0.0000
# 2 32.5445 81.1902 61.5756 0.0000 0.0000 0.0000
# 3 30.0810 61.5756 110.5031 0.0000 0.0000 0.0000
# 4 0.0000 0.0000 0.0000 12.5775 0.0000 0.0000
# 5 0.0000 0.0000 0.0000 0.0000 7.5642 0.0000
# 6 0.0000 0.0000 0.0000 0.0000 0.0000 21.9717
#
#
#
# Elastic Compliance Matrix: (Units=1/GPa)
#
#
# Indices 1 2 3 4 5 6 
#
# 1 0.036986 -0.012452 -0.003130 0.000000 0.000000 0.000000
# 2 -0.012452 0.025524 -0.010833 0.000000 0.000000 0.000000
# 3 -0.003130 -0.010833 0.015938 0.000000 0.000000 0.000000
# 4 0.000000 0.000000 0.000000 0.079507 0.000000 0.000000
# 5 0.000000 0.000000 0.000000 0.000000 0.132201 0.000000
# 6 0.000000 0.000000 0.000000 0.000000 0.000000 0.045513
#
#
# Mechanical properties :
#
#
# Convention : Reuss Voigt Hill
#
# Bulk Modulus (GPa) = 39.03407 53.40383 46.21895
# Shear Modulus (GPa) = 12.59322 15.62477 14.10899
#
# Velocity S-wave (km/s) = 2.59515 2.89069 2.74690
# Velocity P-wave (km/s) = 5.46398 6.30092 5.89731
#
# Compressibility (1/GPa) = 0.02561865
#
# Stress axis : x y z
#
# Youngs Moduli (GPa) = 27.03697 39.17882 62.74337
#
# Poissons Ratio (x) = 0.48786 0.19637
# Poissons Ratio (y) = 0.33667 0.67970
# Poissons Ratio (z) = 0.08462 0.42442
#
# Static dielectric constant tensor:
#      x y z
#    x 4.866340 0.000000 0.000000 
#    y 0.000000 3.687480 0.000000 
#    z 0.000000 0.000000 3.547860 
# 
# 
# High freq. dielectric constant tensor:
#      x y z
#    x 1.714170 0.000000 0.000000 
#    y 0.000000 1.732810 0.000000 
#    z 0.000000 0.000000 1.713300 
# 
# From -- ./inp_files/11838.got.cif
#   From: 2010.03.12/outbox.cif.g09.slc.cpg/sg35_6_cif.got.tgz:11838.got - 2010.04.14 02:02:04.
