data_PCOD8173455
_publ_section_title
;
Structure prediction by ZEFSAII (Michael W. Deem and Ramdas Pophale) SiO2 
 PCOD8173455
Probable space group: C M M 2
;
_chemical_formula_sum "Si O2"
_cell_formula_units_Z 48
_cell_length_a 8.837392
_cell_length_b 30.438263
_cell_length_c 9.470194
_cell_angle_alpha 90.000000
_cell_angle_beta 90.000000
_cell_angle_gamma 90.000000
_cell_volume 2547.433527
_symmetry_space_group_name_H-M "C M M 2"
_symmetry_group_IT_number 35
_symmetry_cell_setting 'orthorhombic'
loop_
_space_group_symop_operation_xyz
x,y,z
-x,-y,z
-x,y,z
x,-y,z
1/2+x,1/2+y,z
1/2-x,1/2-y,z
1/2-x,1/2+y,z
1/2+x,1/2-y,z
loop_
_atom_site_type_symbol
_atom_site_label
_atom_site_fract_x
_atom_site_fract_y
_atom_site_fract_z
Si Si1 0.825206 0.949156 0.026120
Si Si2 0.823435 0.875096 0.509246
Si Si3 0.322704 0.295045 0.712625
Si Si4 0.819867 0.951365 0.709599
Si Si5 0.822032 0.624342 0.206399
Si Si6 0.819993 0.296220 0.010169
O O1 0.732240 0.920610 0.136308
O O2 0.000000 0.935667 0.037579
O O3 0.802664 0.000000 0.066292
O O4 0.763013 0.940146 0.867772
O O5 0.790672 0.831018 0.594790
O O6 0.756495 0.916084 0.598538
O O7 0.739123 0.871691 0.363045
O O8 0.000000 0.882010 0.480609
O O9 0.500000 0.288517 0.741613
O O10 0.250000 0.250000 0.656230
O O11 0.243620 0.309737 0.857482
O O12 0.000000 0.950275 0.713507
O O13 0.763372 0.000000 0.664677
O O14 0.000000 0.623417 0.212737
O O15 0.765292 0.666482 0.118500
O O16 0.750000 0.250000 0.060688
O O17 0.000000 0.292058 0.002750
#
# Coordination Sequence:
#
# PCOD8173455 Si02
#       6
#     8   8   8   8   8   8
#     4   9  18  35  60  84 105 136 179 223 265 314
#     4  10  21  35  53  78 107 141 178 215 260 316
#     4  10  20  35  57  82 106 136 176 222 269 317
#     4   8  15  31  56  82 103 127 169 221 262 301
#     4  11  24  37  51  77 113 147 177 217 269 320
#     4  10  21  37  57  80 105 138 180 224 270 319
#
# _framework density 18.842495
#
# number of rings (size 3 to 8) (size 9 to 14) (size 15 to 20)
#    0.000    2.333    0.000    4.500    0.000    7.000 
#    0.000    5.833    0.000    1.000    0.000    0.000 
#    0.000    0.000    0.000    0.000    0.000    0.000 
#
# Total GULP energy -297616.465101 kJ/mol
# GULP energy per Si atom -12400.686046 kJ/mol
# Density = 1.879961 g / cm^3
# Si number density = 18.842495 Si / 1000 Ang^3
#
#
#
# Elastic Constant Matrix: (Units=GPa)
#
#
# Indices 1 2 3 4 5 6 
#
# 1 61.3790 48.2140 45.2179 0.0000 0.0000 0.0000
# 2 48.2140 119.7607 76.0016 0.0000 0.0000 0.0000
# 3 45.2179 76.0016 118.1638 0.0000 0.0000 0.0000
# 4 0.0000 0.0000 0.0000 17.4372 0.0000 0.0000
# 5 0.0000 0.0000 0.0000 0.0000 27.4456 0.0000
# 6 0.0000 0.0000 0.0000 0.0000 0.0000 25.1203
#
#
#
# Elastic Compliance Matrix: (Units=1/GPa)
#
#
# Indices 1 2 3 4 5 6 
#
# 1 0.025699 -0.006936 -0.005373 0.000000 0.000000 0.000000
# 2 -0.006936 0.015981 -0.007624 0.000000 0.000000 0.000000
# 3 -0.005373 -0.007624 0.015423 0.000000 0.000000 0.000000
# 4 0.000000 0.000000 0.000000 0.057349 0.000000 0.000000
# 5 0.000000 0.000000 0.000000 0.000000 0.036436 0.000000
# 6 0.000000 0.000000 0.000000 0.000000 0.000000 0.039808
#
#
# Mechanical properties :
#
#
# Convention : Reuss Voigt Hill
#
# Bulk Modulus (GPa) = 58.01992 70.90783 64.46387
# Shear Modulus (GPa) = 21.15880 22.65863 21.90871
#
# Velocity S-wave (km/s) = 3.35465 3.47151 3.41358
# Velocity P-wave (km/s) = 6.77228 7.33363 7.05854
#
# Compressibility (1/GPa) = 0.01723546
#
# Stress axis : x y z
#
# Youngs Moduli (GPa) = 38.91199 62.57399 64.83878
#
# Poissons Ratio (x) = 0.43404 0.34837
# Poissons Ratio (y) = 0.26991 0.49436
# Poissons Ratio (z) = 0.20907 0.47710
#
# Static dielectric constant tensor:
#      x y z
#    x 3.292770 0.000000 0.000000 
#    y 0.000000 3.772650 0.000000 
#    z 0.000000 0.000000 3.451860 
# 
# 
# High freq. dielectric constant tensor:
#      x y z
#    x 1.716240 0.000000 0.000000 
#    y 0.000000 1.747220 0.000000 
#    z 0.000000 0.000000 1.730840 
# 
# From -- ./inp_files/5294.got.cif
#   From: 2010.03.12/outbox.cif.g09.slc.cpg/sg35_3_cif.got.tgz:5294.got - 2010.04.14 02:02:04.
