data_PCOD8173276
_publ_section_title
;
Structure prediction by ZEFSAII (Michael W. Deem and Ramdas Pophale) SiO2 
 PCOD8173276
Probable space group: C M M 2
;
_chemical_formula_sum "Si O2"
_cell_formula_units_Z 40
_cell_length_a 9.000377
_cell_length_b 17.942548
_cell_length_c 12.953299
_cell_angle_alpha 90.000000
_cell_angle_beta 90.000000
_cell_angle_gamma 90.000000
_cell_volume 2091.824322
_symmetry_space_group_name_H-M "C M M 2"
_symmetry_group_IT_number 35
_symmetry_cell_setting 'orthorhombic'
loop_
_space_group_symop_operation_xyz
x,y,z
-x,-y,z
-x,y,z
x,-y,z
1/2+x,1/2+y,z
1/2-x,1/2-y,z
1/2-x,1/2+y,z
1/2+x,1/2-y,z
loop_
_atom_site_type_symbol
_atom_site_label
_atom_site_fract_x
_atom_site_fract_y
_atom_site_fract_z
Si Si1 0.667684 0.911161 0.645040
Si Si2 0.675791 0.170447 0.032425
Si Si3 0.332462 0.588776 0.443106
Si Si4 0.826380 0.585502 0.237944
Si Si5 0.331318 0.588473 0.849082
O O1 0.500000 0.880559 0.652555
O O2 0.742319 0.879330 0.540886
O O3 0.761291 0.881480 0.742440
O O4 0.668233 0.000000 0.643123
O O5 0.500000 0.177935 0.023140
O O6 0.750000 0.250000 0.021457
O O7 0.723652 0.134362 0.140793
O O8 0.733051 0.117376 0.942610
O O9 0.500000 0.619024 0.448903
O O10 0.328450 0.500000 0.445230
O O11 0.258619 0.617696 0.337520
O O12 0.781917 0.500000 0.215416
O O13 0.000000 0.592302 0.260599
O O14 0.500000 0.618121 0.857455
O O15 0.327095 0.500000 0.851973
#
# Coordination Sequence:
#
# PCOD8173276 Si02
#       5
#     8   8   8   8   8
#     4   9  16  27  46  73 105 138 170 206 252 306
#     4  11  23  38  55  75 103 139 178 219 264 314
#     4   9  16  26  44  73 106 135 165 206 255 304
#     4   9  18  33  53  76 102 134 172 212 255 307
#     4  10  20  34  54  80 108 137 173 217 262 310
#
# _framework density 19.122064999999999
#
# number of rings (size 3 to 8) (size 9 to 14) (size 15 to 20)
#    0.000    2.400    0.000    3.000    0.000    8.400 
#    0.000    2.000    0.000    1.200    0.000    5.600 
#    0.000    0.000    0.000    0.000    0.000    0.000 
#
# Total GULP energy -248033.143539 kJ/mol
# GULP energy per Si atom -12401.657177 kJ/mol
# Density = 1.907854 g / cm^3
# Si number density = 19.122065 Si / 1000 Ang^3
#
#
#
# Elastic Constant Matrix: (Units=GPa)
#
#
# Indices 1 2 3 4 5 6 
#
# 1 117.5522 20.2919 78.2067 0.0000 0.0000 0.0000
# 2 20.2919 15.0786 17.3950 0.0000 0.0000 0.0000
# 3 78.2067 17.3950 169.6286 0.0000 0.0000 0.0000
# 4 0.0000 0.0000 0.0000 -0.7443 0.0000 0.0000
# 5 0.0000 0.0000 0.0000 0.0000 38.2660 0.0000
# 6 0.0000 0.0000 0.0000 0.0000 0.0000 19.7800
#
#
#
# Elastic Compliance Matrix: (Units=1/GPa)
#
#
# Indices 1 2 3 4 5 6 
#
# 1 0.014252 -0.013155 -0.005222 0.000000 0.000000 0.000000
# 2 -0.013155 0.087360 -0.002893 0.000000 0.000000 0.000000
# 3 -0.005222 -0.002893 0.008599 0.000000 0.000000 0.000000
# 4 0.000000 0.000000 0.000000 -1.343457 0.000000 0.000000
# 5 0.000000 0.000000 0.000000 0.000000 0.026133 0.000000
# 6 0.000000 0.000000 0.000000 0.000000 0.000000 0.050556
#
#
# Mechanical properties :
#
#
# Convention : Reuss Voigt Hill
#
# Bulk Modulus (GPa) = 14.77740 59.33852 37.05796
# Shear Modulus (GPa) = -4.58102 23.88471 9.65184
#
# Velocity S-wave (km/s) = -1.54948 3.53805 2.24910
# Velocity P-wave (km/s) = 2.13156 6.91297 5.11531
#
# Compressibility (1/GPa) = 0.06767088
#
# Stress axis : x y z
#
# Youngs Moduli (GPa) = 70.16737 11.44682 116.28769
#
# Poissons Ratio (x) = 0.15059 0.60721
# Poissons Ratio (y) = 0.92307 0.33647
# Poissons Ratio (z) = 0.36639 0.03312
#
# Static dielectric constant tensor:
#      x y z
#    x 3.701940 0.000000 0.000000 
#    y 0.000000 2.993980 0.000000 
#    z 0.000000 0.000000 3.721670 
# 
# 
# High freq. dielectric constant tensor:
#      x y z
#    x 1.757810 0.000000 0.000000 
#    y 0.000000 1.688130 0.000000 
#    z 0.000000 0.000000 1.762850 
# 
# From -- ./inp_files/10995.got.cif
#   From: 2010.03.12/outbox.cif.g09.slc.cpg/sg35_6_cif.got.tgz:10995.got - 2010.04.14 02:02:04.
