data_PCOD8173191
_publ_section_title
;
Structure prediction by ZEFSAII (Michael W. Deem and Ramdas Pophale) SiO2 
 PCOD8173191
Probable space group: C M M 2
;
_chemical_formula_sum "Si O2"
_cell_formula_units_Z 64
_cell_length_a 8.956385
_cell_length_b 19.227439
_cell_length_c 20.732070
_cell_angle_alpha 90.000000
_cell_angle_beta 90.000000
_cell_angle_gamma 90.000000
_cell_volume 3570.235489
_symmetry_space_group_name_H-M "C M M 2"
_symmetry_group_IT_number 35
_symmetry_cell_setting 'orthorhombic'
loop_
_space_group_symop_operation_xyz
x,y,z
-x,-y,z
-x,y,z
x,-y,z
1/2+x,1/2+y,z
1/2-x,1/2-y,z
1/2-x,1/2+y,z
1/2+x,1/2-y,z
loop_
_atom_site_type_symbol
_atom_site_label
_atom_site_fract_x
_atom_site_fract_y
_atom_site_fract_z
Si Si1 0.677962 0.177520 0.103960
Si Si2 0.168165 0.417255 0.613081
Si Si3 0.178523 0.176422 0.969451
Si Si4 0.332085 0.082673 0.471772
Si Si5 0.825232 0.578647 0.220221
Si Si6 0.166563 0.917348 0.737301
Si Si7 0.667255 0.582914 0.347500
Si Si8 0.328011 0.917883 0.865923
O O1 0.500000 0.184876 0.094960
O O2 0.750000 0.250000 0.125703
O O3 0.722400 0.122034 0.157958
O O4 0.752875 0.152304 0.037616
O O5 0.167456 0.500000 0.617068
O O6 0.229457 0.393812 0.542379
O O7 0.270814 0.386201 0.670001
O O8 0.000000 0.389530 0.622741
O O9 0.250000 0.250000 0.948919
O O10 0.223242 0.118538 0.918027
O O11 0.000000 0.183039 0.974038
O O12 0.500000 0.109985 0.463199
O O13 0.235483 0.114576 0.413444
O O14 0.329033 0.000000 0.467935
O O15 0.769439 0.500000 0.208442
O O16 0.752201 0.611144 0.284437
O O17 0.000000 0.581224 0.231774
O O18 0.273308 0.893439 0.795457
O O19 0.000000 0.887859 0.748396
O O20 0.163051 0.000000 0.733529
O O21 0.500000 0.610305 0.342985
O O22 0.677466 0.500000 0.349268
O O23 0.500000 0.895461 0.874550
O O24 0.308149 0.000000 0.874800
#
# Coordination Sequence:
#
# PCOD8173191 Si02
#       8
#     8   8   8   8   8   8   8   8
#     4  10  20  35  54  74  96 124 157 193 236 283
#     4   8  13  21  33  50  75 112 155 192 228 274
#     4  11  22  37  56  76 100 128 160 198 241 289
#     4   8  13  21  33  49  74 112 154 190 226 274
#     4   9  18  32  49  68  92 124 159 192 229 278
#     4   9  16  25  38  59  88 120 154 194 239 283
#     4   9  16  24  36  57  85 115 148 189 235 277
#     4  10  20  34  52  73  99 131 165 201 242 289
#
# _framework density 17.925989000000001
#
# number of rings (size 3 to 8) (size 9 to 14) (size 15 to 20)
#    0.000    2.750    0.000    4.125    0.000    5.750 
#    0.000    3.750    0.000    0.000    0.000    0.000 
#    0.000    1.000    0.000    5.250    0.000    7.750 
#
# Total GULP energy -396655.858971 kJ/mol
# GULP energy per Si atom -12395.495593 kJ/mol
# Density = 1.788519 g / cm^3
# Si number density = 17.925989 Si / 1000 Ang^3
#
#
#
# Elastic Constant Matrix: (Units=GPa)
#
#
# Indices 1 2 3 4 5 6 
#
# 1 103.2652 25.4415 70.2690 0.0000 0.0000 0.0000
# 2 25.4415 28.6311 45.0894 0.0000 0.0000 0.0000
# 3 70.2690 45.0894 162.4493 0.0000 0.0000 0.0000
# 4 0.0000 0.0000 0.0000 -0.5106 0.0000 0.0000
# 5 0.0000 0.0000 0.0000 0.0000 31.8985 0.0000
# 6 0.0000 0.0000 0.0000 0.0000 0.0000 17.0928
#
#
#
# Elastic Compliance Matrix: (Units=1/GPa)
#
#
# Indices 1 2 3 4 5 6 
#
# 1 0.014148 -0.005213 -0.004673 0.000000 0.000000 0.000000
# 2 -0.005213 0.063970 -0.015501 0.000000 0.000000 0.000000
# 3 -0.004673 -0.015501 0.012480 0.000000 0.000000 0.000000
# 4 0.000000 0.000000 0.000000 -1.958478 0.000000 0.000000
# 5 0.000000 0.000000 0.000000 0.000000 0.031349 0.000000
# 6 0.000000 0.000000 0.000000 0.000000 0.000000 0.058504
#
#
# Mechanical properties :
#
#
# Convention : Reuss Voigt Hill
#
# Bulk Modulus (GPa) = 25.10988 63.99393 44.55191
# Shear Modulus (GPa) = -2.91719 19.93251 8.50766
#
# Velocity S-wave (km/s) = -1.27706 3.33818 2.18089
# Velocity P-wave (km/s) = 3.44433 7.11579 5.59007
#
# Compressibility (1/GPa) = 0.03982496
#
# Stress axis : x y z
#
# Youngs Moduli (GPa) = 70.68204 15.63223 80.13106
#
# Poissons Ratio (x) = 0.08148 0.37445
# Poissons Ratio (y) = 0.36843 1.24210
# Poissons Ratio (z) = 0.33030 0.24231
#
# Static dielectric constant tensor:
#      x y z
#    x 3.452510 0.000000 0.000000 
#    y 0.000000 2.760920 0.000000 
#    z 0.000000 0.000000 3.644250 
# 
# 
# High freq. dielectric constant tensor:
#      x y z
#    x 1.702090 0.000000 0.000000 
#    y 0.000000 1.623500 0.000000 
#    z 0.000000 0.000000 1.714150 
# 
# From -- ./inp_files/18465.got.cif
#   From: 2010.03.12/outbox.cif.g09.slc.cpg/sg35_10_cif.got.tgz:18465.got - 2010.04.14 02:02:04.
