data_PCOD8173436
_publ_section_title
;
Structure prediction by ZEFSAII (Michael W. Deem and Ramdas Pophale) SiO2 
 PCOD8173436
Probable space group: C M M 2
;
_chemical_formula_sum "Si O2"
_cell_formula_units_Z 56
_cell_length_a 8.714393
_cell_length_b 23.397840
_cell_length_c 15.313969
_cell_angle_alpha 90.000000
_cell_angle_beta 90.000000
_cell_angle_gamma 90.000000
_cell_volume 3122.487239
_symmetry_space_group_name_H-M "C M M 2"
_symmetry_group_IT_number 35
_symmetry_cell_setting 'orthorhombic'
loop_
_space_group_symop_operation_xyz
x,y,z
-x,-y,z
-x,y,z
x,-y,z
1/2+x,1/2+y,z
1/2-x,1/2-y,z
1/2-x,1/2+y,z
1/2+x,1/2-y,z
loop_
_atom_site_type_symbol
_atom_site_label
_atom_site_fract_x
_atom_site_fract_y
_atom_site_fract_z
Si Si1 0.181040 0.116667 0.551280
Si Si2 0.182467 0.500000 0.611931
Si Si3 0.181995 0.500000 0.809220
Si Si4 0.179352 0.812628 0.033435
Si Si5 0.824314 0.380678 0.880073
Si Si6 0.320527 0.187017 0.398517
Si Si7 0.822715 0.311618 0.204929
Si Si8 0.676558 0.810718 0.703687
O O1 0.259527 0.055432 0.561283
O O2 0.233815 0.142810 0.459771
O O3 0.230232 0.159089 0.627598
O O4 0.000000 0.108939 0.552138
O O5 0.249099 0.500000 0.710784
O O6 0.000000 0.500000 0.612144
O O7 0.237551 0.555426 0.862327
O O8 0.000000 0.500000 0.800178
O O9 0.250000 0.750000 0.018545
O O10 0.240203 0.842914 0.123155
O O11 0.000000 0.804925 0.039333
O O12 0.218681 0.853427 0.953376
O O13 0.807913 0.346708 0.790828
O O14 0.000000 0.380700 0.912480
O O15 0.500000 0.191005 0.422367
O O16 0.250000 0.250000 0.409030
O O17 0.297676 0.160916 0.300561
O O18 0.750000 0.250000 0.210147
O O19 0.000000 0.306727 0.181327
O O20 0.500000 0.804522 0.674589
O O21 0.750000 0.750000 0.722904
#
# Coordination Sequence:
#
# PCOD8173436 Si02
#       8
#     8   4   4   8   8   8   8   8
#     4  12  24  37  55  81 111 144 182 226 274 324
#     4  11  21  41  63  80 103 140 189 231 274 322
#     4   9  18  37  61  80  99 136 183 227 270 316
#     4  11  21  33  52  80 113 146 179 220 272 325
#     4  10  20  36  57  79 105 139 181 225 270 320
#     4  10  20  35  56  83 113 146 182 225 274 328
#     4   9  17  31  53  79 108 142 180 220 267 323
#     4  11  22  36  54  77 109 145 180 223 273 326
#
# _framework density 17.934419999999999
#
# number of rings (size 3 to 8) (size 9 to 14) (size 15 to 20)
#    0.000    1.571    1.429    5.786    0.000    4.000 
#    0.000    0.357    0.000    0.857    0.000    2.000 
#    0.000    0.000    0.000    0.000    0.000    0.000 
#
# Total GULP energy -347172.893450 kJ/mol
# GULP energy per Si atom -12399.031909 kJ/mol
# Density = 1.789360 g / cm^3
# Si number density = 17.934420 Si / 1000 Ang^3
#
#
#
# Elastic Constant Matrix: (Units=GPa)
#
#
# Indices 1 2 3 4 5 6 
#
# 1 124.4711 37.3575 52.6424 0.0000 0.0000 0.0000
# 2 37.3575 101.7686 40.1309 0.0000 0.0000 0.0000
# 3 52.6424 40.1309 114.6339 0.0000 0.0000 0.0000
# 4 0.0000 0.0000 0.0000 -6.8740 0.0000 0.0000
# 5 0.0000 0.0000 0.0000 0.0000 20.5840 0.0000
# 6 0.0000 0.0000 0.0000 0.0000 0.0000 26.0279
#
#
#
# Elastic Compliance Matrix: (Units=1/GPa)
#
#
# Indices 1 2 3 4 5 6 
#
# 1 0.010394 -0.002243 -0.003988 0.000000 0.000000 0.000000
# 2 -0.002243 0.011884 -0.003130 0.000000 0.000000 0.000000
# 3 -0.003988 -0.003130 0.011651 0.000000 0.000000 0.000000
# 4 0.000000 0.000000 0.000000 -0.145476 0.000000 0.000000
# 5 0.000000 0.000000 0.000000 0.000000 0.048582 0.000000
# 6 0.000000 0.000000 0.000000 0.000000 0.000000 0.038420
#
#
# Mechanical properties :
#
#
# Convention : Reuss Voigt Hill
#
# Bulk Modulus (GPa) = 65.76274 66.79282 66.27778
# Shear Modulus (GPa) = -6624.96947 21.99709 -3301.48619
#
# Velocity S-wave (km/s) = -60.84420 3.50598 -42.95186
# Velocity P-wave (km/s) = 69.99481 7.32891 49.22175
#
# Compressibility (1/GPa) = 0.01520618
#
# Stress axis : x y z
#
# Youngs Moduli (GPa) = 96.21209 84.14729 85.83232
#
# Poissons Ratio (x) = 0.18873 0.34229
# Poissons Ratio (y) = 0.21578 0.26869
# Poissons Ratio (z) = 0.38368 0.26341
#
# Static dielectric constant tensor:
#      x y z
#    x 3.500330 0.000000 0.000000 
#    y 0.000000 3.243290 0.000000 
#    z 0.000000 0.000000 3.937610 
# 
# 
# High freq. dielectric constant tensor:
#      x y z
#    x 1.704250 0.000000 0.000000 
#    y 0.000000 1.670610 0.000000 
#    z 0.000000 0.000000 1.706390 
# 
# From -- ./inp_files/15763.got.cif
#   From: 2010.03.12/outbox.cif.g09.slc.cpg/sg35_8_cif.got.tgz:15763.got - 2010.04.14 02:02:04.
