data_PCOD8173443
_publ_section_title
;
Structure prediction by ZEFSAII (Michael W. Deem and Ramdas Pophale) SiO2 
 PCOD8173443
Probable space group: C M M 2
;
_chemical_formula_sum "Si O2"
_cell_formula_units_Z 48
_cell_length_a 17.919114
_cell_length_b 8.696301
_cell_length_c 15.485533
_cell_angle_alpha 90.000000
_cell_angle_beta 90.000000
_cell_angle_gamma 90.000000
_cell_volume 2413.110747
_symmetry_space_group_name_H-M "C M M 2"
_symmetry_group_IT_number 35
_symmetry_cell_setting 'orthorhombic'
loop_
_space_group_symop_operation_xyz
x,y,z
-x,-y,z
-x,y,z
x,-y,z
1/2+x,1/2+y,z
1/2-x,1/2-y,z
1/2-x,1/2+y,z
1/2+x,1/2-y,z
loop_
_atom_site_type_symbol
_atom_site_label
_atom_site_fract_x
_atom_site_fract_y
_atom_site_fract_z
Si Si1 0.586538 0.320983 0.052080
Si Si2 0.916627 0.683259 0.729196
Si Si3 0.911530 0.826573 0.368819
Si Si4 0.330403 0.181537 0.894697
Si Si5 0.411219 0.828911 0.540762
Si Si6 0.669343 0.180321 0.214017
O O1 0.500000 0.287332 0.069400
O O2 0.602511 0.500000 0.037581
O O3 0.632250 0.264396 0.133787
O O4 0.611494 0.229473 0.967800
O O5 0.920378 0.500000 0.730581
O O6 0.861103 0.745360 0.803118
O O7 0.886095 0.736486 0.634825
O O8 0.000000 0.749089 0.746326
O O9 0.882193 0.780983 0.464294
O O10 0.878599 0.709533 0.299560
O O11 0.000000 0.813002 0.364386
O O12 0.884975 0.000000 0.348783
O O13 0.250000 0.250000 0.915309
O O14 0.323537 0.000000 0.893413
O O15 0.500000 0.836975 0.541195
O O16 0.378669 0.000000 0.525278
O O17 0.750000 0.250000 0.229787
O O18 0.673942 0.000000 0.195100
#
# Coordination Sequence:
#
# PCOD8173443 Si02
#       6
#     8   8   8   8   8   8
#     4  11  24  42  63  87 114 143 180 228 278 329
#     4   8  15  30  54  81 107 141 189 240 283 327
#     4  10  20  35  56  84 117 150 187 232 279 328
#     4  11  22  37  57  82 115 152 190 230 277 332
#     4   8  14  28  52  80 108 142 188 237 282 328
#     4  12  25  41  61  84 113 148 186 227 276 333
#
# _framework density 19.891337
#
# number of rings (size 3 to 8) (size 9 to 14) (size 15 to 20)
#    0.000    2.000    0.000    5.500    0.000    5.000 
#    0.000    2.500    0.000    6.000    0.000    0.000 
#    0.000    0.000    0.000    0.000    0.000    0.000 
#
# Total GULP energy -297606.987055 kJ/mol
# GULP energy per Si atom -12400.291127 kJ/mol
# Density = 1.984606 g / cm^3
# Si number density = 19.891337 Si / 1000 Ang^3
#
#
#
# Elastic Constant Matrix: (Units=GPa)
#
#
# Indices 1 2 3 4 5 6 
#
# 1 29.3206 32.3922 18.5010 0.0000 0.0000 0.0000
# 2 32.3922 55.6240 21.0138 0.0000 0.0000 0.0000
# 3 18.5010 21.0138 131.7759 0.0000 0.0000 0.0000
# 4 0.0000 0.0000 0.0000 -263.5406 0.0000 0.0000
# 5 0.0000 0.0000 0.0000 0.0000 -0.6270 0.0000
# 6 0.0000 0.0000 0.0000 0.0000 0.0000 23.8275
#
#
#
# Elastic Compliance Matrix: (Units=1/GPa)
#
#
# Indices 1 2 3 4 5 6 
#
# 1 0.098616 -0.055544 -0.004988 0.000000 0.000000 0.000000
# 2 -0.055544 0.050415 -0.000241 0.000000 0.000000 0.000000
# 3 -0.004988 -0.000241 0.008327 0.000000 0.000000 0.000000
# 4 0.000000 0.000000 0.000000 -0.003794 0.000000 0.000000
# 5 0.000000 0.000000 0.000000 0.000000 -1.594887 0.000000
# 6 0.000000 0.000000 0.000000 0.000000 0.000000 0.041968
#
#
# Mechanical properties :
#
#
# Convention : Reuss Voigt Hill
#
# Bulk Modulus (GPa) = 27.92387 40.05939 33.99163
# Shear Modulus (GPa) = -3.94985 -38.41379 -21.18182
#
# Velocity S-wave (km/s) = -1.41068 -4.39929 -3.26678
# Velocity P-wave (km/s) = 3.37866 2.37111 1.70193
#
# Compressibility (1/GPa) = 0.03581166
#
# Stress axis : x y z
#
# Youngs Moduli (GPa) = 10.14035 19.83556 120.08537
#
# Poissons Ratio (x) = 1.10174 0.59899
# Poissons Ratio (y) = 0.56323 0.02896
# Poissons Ratio (z) = 0.05058 0.00478
#
# Static dielectric constant tensor:
#      x y z
#    x 3.487490 0.000000 0.000000 
#    y 0.000000 3.661620 0.000000 
#    z 0.000000 0.000000 4.113510 
# 
# 
# High freq. dielectric constant tensor:
#      x y z
#    x 1.756580 0.000000 0.000000 
#    y 0.000000 1.765800 0.000000 
#    z 0.000000 0.000000 1.797110 
# 
# From -- ./inp_files/17076.got.cif
#   From: 2010.03.12/outbox.cif.g09.slc.cpg/sg35_9_cif.got.tgz:17076.got - 2010.04.14 02:02:04.
