data_PCOD8173153
_publ_section_title
;
Structure prediction by ZEFSAII (Michael W. Deem and Ramdas Pophale) SiO2 
 PCOD8173153
Probable space group: C M M 2
;
_chemical_formula_sum "Si O2"
_cell_formula_units_Z 64
_cell_length_a 8.977556
_cell_length_b 19.109534
_cell_length_c 20.282459
_cell_angle_alpha 90.000000
_cell_angle_beta 90.000000
_cell_angle_gamma 90.000000
_cell_volume 3479.596026
_symmetry_space_group_name_H-M "C M M 2"
_symmetry_group_IT_number 35
_symmetry_cell_setting 'orthorhombic'
loop_
_space_group_symop_operation_xyz
x,y,z
-x,-y,z
-x,y,z
x,-y,z
1/2+x,1/2+y,z
1/2-x,1/2-y,z
1/2-x,1/2+y,z
1/2+x,1/2-y,z
loop_
_atom_site_type_symbol
_atom_site_label
_atom_site_fract_x
_atom_site_fract_y
_atom_site_fract_z
Si Si1 0.172888 0.679922 0.207410
Si Si2 0.174521 0.320660 0.355930
Si Si3 0.668315 0.582305 0.454312
Si Si4 0.672116 0.175965 0.707249
Si Si5 0.826627 0.418546 0.089879
Si Si6 0.671510 0.418915 0.603043
Si Si7 0.177456 0.826650 0.980479
Si Si8 0.174294 0.675440 0.852190
O O1 0.250000 0.750000 0.179557
O O2 0.228659 0.662359 0.281391
O O3 0.209659 0.613621 0.161604
O O4 0.000000 0.697058 0.207459
O O5 0.250000 0.250000 0.382094
O O6 0.218910 0.383702 0.403201
O O7 0.000000 0.310170 0.359111
O O8 0.500000 0.604535 0.436626
O O9 0.687631 0.500000 0.448525
O O10 0.706349 0.606418 0.528714
O O11 0.500000 0.191035 0.696379
O O12 0.750000 0.250000 0.698499
O O13 0.725656 0.122175 0.653017
O O14 0.698942 0.141030 0.780000
O O15 0.783583 0.500000 0.091527
O O16 0.000000 0.407868 0.071503
O O17 0.723345 0.378936 0.038095
O O18 0.500000 0.404756 0.620476
O O19 0.710394 0.500000 0.610402
O O20 0.250000 0.750000 0.991421
O O21 0.240288 0.862512 0.912670
O O22 0.000000 0.819208 0.977906
O O23 0.250000 0.750000 0.847141
O O24 0.000000 0.681645 0.869657
#
# Coordination Sequence:
#
# PCOD8173153 Si02
#       8
#     8   8   8   8   8   8   8   8
#     4   9  19  35  55  78 103 135 173 211 254 306
#     4  10  20  34  54  80 108 136 170 213 258 305
#     4   9  19  36  55  75 102 137 175 214 259 310
#     4  10  20  33  53  80 107 135 170 214 259 306
#     4  10  21  37  55  76 106 140 171 210 260 307
#     4   9  19  36  55  74 101 138 176 214 258 309
#     4  11  21  34  55  80 105 135 174 215 255 305
#     4   9  17  31  51  76 104 134 170 211 257 306
#
# _framework density 18.392938999999998
#
# number of rings (size 3 to 8) (size 9 to 14) (size 15 to 20)
#    0.000    2.375    0.000    4.125    0.000    5.750 
#    0.000    3.125    0.000    0.750    0.000    0.000 
#    0.000    0.000    0.000    0.000    0.000    0.000 
#
# Total GULP energy -396699.953365 kJ/mol
# GULP energy per Si atom -12396.873543 kJ/mol
# Density = 1.835108 g / cm^3
# Si number density = 18.392939 Si / 1000 Ang^3
#
#
#
# Elastic Constant Matrix: (Units=GPa)
#
#
# Indices 1 2 3 4 5 6 
#
# 1 101.4077 45.8602 61.0840 0.0000 0.0000 0.0000
# 2 45.8602 78.2630 59.0048 0.0000 0.0000 0.0000
# 3 61.0840 59.0048 121.1963 0.0000 0.0000 0.0000
# 4 0.0000 0.0000 0.0000 0.3900 0.0000 0.0000
# 5 0.0000 0.0000 0.0000 0.0000 29.8271 0.0000
# 6 0.0000 0.0000 0.0000 0.0000 0.0000 29.8702
#
#
#
# Elastic Compliance Matrix: (Units=1/GPa)
#
#
# Indices 1 2 3 4 5 6 
#
# 1 0.015297 -0.004978 -0.005286 0.000000 0.000000 0.000000
# 2 -0.004978 0.021807 -0.008108 0.000000 0.000000 0.000000
# 3 -0.005286 -0.008108 0.014863 0.000000 0.000000 0.000000
# 4 0.000000 0.000000 0.000000 2.564060 0.000000 0.000000
# 5 0.000000 0.000000 0.000000 0.000000 0.033527 0.000000
# 6 0.000000 0.000000 0.000000 0.000000 0.000000 0.033478
#
#
# Mechanical properties :
#
#
# Convention : Reuss Voigt Hill
#
# Bulk Modulus (GPa) = 65.69271 70.30724 67.99998
# Shear Modulus (GPa) = 1.83496 21.01199 11.42347
#
# Velocity S-wave (km/s) = 0.99991 3.38360 2.49485
# Velocity P-wave (km/s) = 6.09318 7.31936 6.73424
#
# Compressibility (1/GPa) = 0.01522239
#
# Stress axis : x y z
#
# Youngs Moduli (GPa) = 65.37431 45.85620 67.28287
#
# Poissons Ratio (x) = 0.22828 0.35566
# Poissons Ratio (y) = 0.32544 0.54552
# Poissons Ratio (z) = 0.34557 0.37180
#
# Static dielectric constant tensor:
#      x y z
#    x 3.432100 0.000000 0.000000 
#    y 0.000000 3.127360 0.000000 
#    z 0.000000 0.000000 3.887260 
# 
# 
# High freq. dielectric constant tensor:
#      x y z
#    x 1.717890 0.000000 0.000000 
#    y 0.000000 1.687700 0.000000 
#    z 0.000000 0.000000 1.729010 
# 
# From -- ./inp_files/18448.got.cif
#   From: 2010.03.12/outbox.cif.g09.slc.cpg/sg35_10_cif.got.tgz:18448.got - 2010.04.14 02:02:04.
