data_PCOD8173500
_publ_section_title
;
Structure prediction by ZEFSAII (Michael W. Deem and Ramdas Pophale) SiO2 
 PCOD8173500
Probable space group: C M M 2
;
_chemical_formula_sum "Si O2"
_cell_formula_units_Z 64
_cell_length_a 8.914937
_cell_length_b 28.472275
_cell_length_c 12.636779
_cell_angle_alpha 90.000000
_cell_angle_beta 90.000000
_cell_angle_gamma 90.000000
_cell_volume 3207.575137
_symmetry_space_group_name_H-M "C M M 2"
_symmetry_group_IT_number 35
_symmetry_cell_setting 'orthorhombic'
loop_
_space_group_symop_operation_xyz
x,y,z
-x,-y,z
-x,y,z
x,-y,z
1/2+x,1/2+y,z
1/2-x,1/2-y,z
1/2-x,1/2+y,z
1/2+x,1/2-y,z
loop_
_atom_site_type_symbol
_atom_site_label
_atom_site_fract_x
_atom_site_fract_y
_atom_site_fract_z
Si Si1 0.826214 0.646206 0.775820
Si Si2 0.665136 0.055092 0.097821
Si Si3 0.176631 0.362545 0.406436
Si Si4 0.322060 0.698830 0.588063
Si Si5 0.174844 0.054527 0.308238
Si Si6 0.321849 0.051675 0.865723
Si Si7 0.324761 0.798136 0.214768
Si Si8 0.827982 0.703056 0.979791
O O1 0.720225 0.676184 0.700475
O O2 0.778450 0.590925 0.777908
O O3 0.000000 0.652771 0.741326
O O4 0.799440 0.662124 0.896274
O O5 0.500000 0.079573 0.112018
O O6 0.773706 0.071755 0.191686
O O7 0.641340 0.000000 0.105507
O O8 0.737909 0.066395 0.982809
O O9 0.260666 0.335986 0.499785
O O10 0.236414 0.415924 0.397737
O O11 0.221888 0.338418 0.296051
O O12 0.000000 0.362292 0.430057
O O13 0.500000 0.703937 0.579469
O O14 0.250000 0.750000 0.575454
O O15 0.000000 0.064647 0.319390
O O16 0.213080 0.000000 0.327644
O O17 0.500000 0.049464 0.877219
O O18 0.259980 0.000000 0.831251
O O19 0.500000 0.789292 0.219070
O O20 0.250000 0.750000 0.252424
O O21 0.269722 0.812660 0.096426
O O22 0.750000 0.750000 0.938430
O O23 0.000000 0.716383 0.988528
#
# Coordination Sequence:
#
# PCOD8173500 Si02
#       8
#     8   8   8   8   8   8   8   8
#     4  10  20  35  59  86 116 152 197 244 293 348
#     4   8  14  27  50  79 112 154 199 239 282 335
#     4  11  23  39  63  89 114 149 200 248 296 354
#     4  12  26  45  66  87 116 149 194 247 300 358
#     4  10  21  36  54  82 122 162 199 242 293 347
#     4   8  15  29  53  85 118 154 198 245 289 339
#     4   9  19  34  54  82 115 147 182 229 288 351
#     4   9  18  32  51  78 112 146 180 227 286 347
#
# _framework density 19.952766
#
# number of rings (size 3 to 8) (size 9 to 14) (size 15 to 20)
#    0.000    2.375    0.000    3.375    1.750    4.250 
#    0.000    1.250    0.000    3.375    0.000    0.000 
#    0.000    0.000    0.000    0.000    0.000    0.000 
#
# Total GULP energy -396666.447096 kJ/mol
# GULP energy per Si atom -12395.826472 kJ/mol
# Density = 1.990735 g / cm^3
# Si number density = 19.952766 Si / 1000 Ang^3
#
#
#
# Elastic Constant Matrix: (Units=GPa)
#
#
# Indices 1 2 3 4 5 6 
#
# 1 76.2246 32.7101 31.8773 0.0000 0.0000 0.0000
# 2 32.7101 81.4809 31.9387 0.0000 0.0000 0.0000
# 3 31.8773 31.9387 64.7958 0.0000 0.0000 0.0000
# 4 0.0000 0.0000 0.0000 31.3826 0.0000 0.0000
# 5 0.0000 0.0000 0.0000 0.0000 27.9036 0.0000
# 6 0.0000 0.0000 0.0000 0.0000 0.0000 23.7913
#
#
#
# Elastic Compliance Matrix: (Units=1/GPa)
#
#
# Indices 1 2 3 4 5 6 
#
# 1 0.017810 -0.004605 -0.006492 0.000000 0.000000 0.000000
# 2 -0.004605 0.016403 -0.005820 0.000000 0.000000 0.000000
# 3 -0.006492 -0.005820 0.021496 0.000000 0.000000 0.000000
# 4 0.000000 0.000000 0.000000 0.031865 0.000000 0.000000
# 5 0.000000 0.000000 0.000000 0.000000 0.035838 0.000000
# 6 0.000000 0.000000 0.000000 0.000000 0.000000 0.042032
#
#
# Mechanical properties :
#
#
# Convention : Reuss Voigt Hill
#
# Bulk Modulus (GPa) = 45.71439 46.17261 45.94350
# Shear Modulus (GPa) = 24.20509 25.01387 24.60948
#
# Velocity S-wave (km/s) = 3.48676 3.54454 3.51577
# Velocity P-wave (km/s) = 6.25868 6.32004 6.28943
#
# Compressibility (1/GPa) = 0.02187495
#
# Stress axis : x y z
#
# Youngs Moduli (GPa) = 56.14724 60.96587 46.52135
#
# Poissons Ratio (x) = 0.28075 0.30202
# Poissons Ratio (y) = 0.25856 0.27073
# Poissons Ratio (z) = 0.36452 0.35479
#
# Static dielectric constant tensor:
#      x y z
#    x 3.482640 0.000000 0.000000 
#    y 0.000000 3.856760 0.000000 
#    z 0.000000 0.000000 3.712730 
# 
# 
# High freq. dielectric constant tensor:
#      x y z
#    x 1.754960 0.000000 0.000000 
#    y 0.000000 1.786330 0.000000 
#    z 0.000000 0.000000 1.766720 
# 
# From -- ./inp_files/12017.got.cif
#   From: 2010.03.12/outbox.cif.g09.slc.cpg/sg35_7_cif.got.tgz:12017.got - 2010.04.14 02:02:04.
