data_PCOD8173895
_publ_section_title
;
Structure prediction by ZEFSAII (Michael W. Deem and Ramdas Pophale) SiO2 
 PCOD8173895
Probable space group: C M M 2
;
_chemical_formula_sum "Si O2"
_cell_formula_units_Z 40
_cell_length_a 8.726975
_cell_length_b 15.630890
_cell_length_c 14.323703
_cell_angle_alpha 90.000000
_cell_angle_beta 90.000000
_cell_angle_gamma 90.000000
_cell_volume 1953.901859
_symmetry_space_group_name_H-M "C M M 2"
_symmetry_group_IT_number 35
_symmetry_cell_setting 'orthorhombic'
loop_
_space_group_symop_operation_xyz
x,y,z
-x,-y,z
-x,y,z
x,-y,z
1/2+x,1/2+y,z
1/2-x,1/2-y,z
1/2-x,1/2+y,z
1/2+x,1/2-y,z
loop_
_atom_site_type_symbol
_atom_site_label
_atom_site_fract_x
_atom_site_fract_y
_atom_site_fract_z
Si Si1 0.180089 0.841865 0.652440
Si Si2 0.829162 0.903828 0.022011
Si Si3 0.179235 0.340240 0.846639
Si Si4 0.320844 0.500000 0.521191
Si Si5 0.181407 0.838802 0.218151
Si Si6 0.179957 0.500000 0.321808
O O1 0.250000 0.750000 0.622885
O O2 0.245385 0.874379 0.751496
O O3 0.000000 0.829758 0.662772
O O4 0.222100 0.914420 0.578022
O O5 0.771979 0.847152 0.109030
O O6 0.000000 0.875375 0.990331
O O7 0.831725 0.000000 0.060415
O O8 0.715432 0.900952 0.933984
O O9 0.250000 0.250000 0.874991
O O10 0.000000 0.333287 0.829954
O O11 0.500000 0.500000 0.494705
O O12 0.215994 0.500000 0.430980
O O13 0.250000 0.750000 0.256274
O O14 0.250143 0.915160 0.277803
O O15 0.000000 0.839847 0.231040
O O16 0.000000 0.500000 0.304719
#
# Coordination Sequence:
#
# PCOD8173895 Si02
#       6
#     8   8   8   4   8   4
#     4  10  21  40  64  91 122 163 206 254 308 366
#     4  10  21  38  60  88 124 166 207 253 306 362
#     4  11  22  36  56  86 123 164 206 253 300 359
#     4  10  24  44  67  90 121 162 203 254 318 378
#     4  11  23  43  68  95 127 167 210 259 315 373
#     4  12  26  44  67  96 127 162 207 262 316 378
#
# _framework density 20.471858000000001
#
# number of rings (size 3 to 8) (size 9 to 14) (size 15 to 20)
#    0.000    1.400    1.000    5.700    1.400    6.000 
#    0.000    2.000    0.000    0.000    0.000    0.000 
#    0.000    0.000    0.000    0.000    0.000    0.000 
#
# Total GULP energy -248043.669663 kJ/mol
# GULP energy per Si atom -12402.183483 kJ/mol
# Density = 2.042526 g / cm^3
# Si number density = 20.471858 Si / 1000 Ang^3
#
#
#
# Elastic Constant Matrix: (Units=GPa)
#
#
# Indices 1 2 3 4 5 6 
#
# 1 129.2295 58.8531 66.4703 0.0000 0.0000 0.0000
# 2 58.8531 137.1867 68.9030 0.0000 0.0000 0.0000
# 3 66.4703 68.9030 124.1309 0.0000 0.0000 0.0000
# 4 0.0000 0.0000 0.0000 8.9101 0.0000 0.0000
# 5 0.0000 0.0000 0.0000 0.0000 29.0716 0.0000
# 6 0.0000 0.0000 0.0000 0.0000 0.0000 33.9401
#
#
#
# Elastic Compliance Matrix: (Units=1/GPa)
#
#
# Indices 1 2 3 4 5 6 
#
# 1 0.011266 -0.002500 -0.004645 0.000000 0.000000 0.000000
# 2 -0.002500 0.010662 -0.004580 0.000000 0.000000 0.000000
# 3 -0.004645 -0.004580 0.013085 0.000000 0.000000 0.000000
# 4 0.000000 0.000000 0.000000 0.112233 0.000000 0.000000
# 5 0.000000 0.000000 0.000000 0.000000 0.034398 0.000000
# 6 0.000000 0.000000 0.000000 0.000000 0.000000 0.029464
#
#
# Mechanical properties :
#
#
# Convention : Reuss Voigt Hill
#
# Bulk Modulus (GPa) = 86.47485 86.55553 86.51519
# Shear Modulus (GPa) = 20.97216 27.47239 24.22228
#
# Velocity S-wave (km/s) = 3.20416 3.66725 3.44350
# Velocity P-wave (km/s) = 7.48474 7.76554 7.62644
#
# Compressibility (1/GPa) = 0.01156406
#
# Stress axis : x y z
#
# Youngs Moduli (GPa) = 88.76306 93.79122 76.42140
#
# Poissons Ratio (x) = 0.23449 0.35498
# Poissons Ratio (y) = 0.22192 0.34997
# Poissons Ratio (z) = 0.41230 0.42952
#
# Static dielectric constant tensor:
#      x y z
#    x 3.741810 0.000000 0.000000 
#    y 0.000000 3.831410 0.000000 
#    z 0.000000 0.000000 3.649880 
# 
# 
# High freq. dielectric constant tensor:
#      x y z
#    x 1.805960 0.000000 0.000000 
#    y 0.000000 1.808520 0.000000 
#    z 0.000000 0.000000 1.798530 
# 
# From -- ./inp_files/14753.got.cif
#   From: 2010.03.12/outbox.cif.g09.slc.cpg/sg35_8_cif.got.tgz:14753.got - 2010.04.14 02:02:04.
