data_PCOD8173274
_publ_section_title
;
Structure prediction by ZEFSAII (Michael W. Deem and Ramdas Pophale) SiO2 
 PCOD8173274
Probable space group: C M M 2
;
_chemical_formula_sum "Si O2"
_cell_formula_units_Z 48
_cell_length_a 15.747770
_cell_length_b 8.813678
_cell_length_c 16.951649
_cell_angle_alpha 90.000000
_cell_angle_beta 90.000000
_cell_angle_gamma 90.000000
_cell_volume 2352.817243
_symmetry_space_group_name_H-M "C M M 2"
_symmetry_group_IT_number 35
_symmetry_cell_setting 'orthorhombic'
loop_
_space_group_symop_operation_xyz
x,y,z
-x,-y,z
-x,y,z
x,-y,z
1/2+x,1/2+y,z
1/2-x,1/2-y,z
1/2-x,1/2+y,z
1/2+x,1/2-y,z
loop_
_atom_site_type_symbol
_atom_site_label
_atom_site_fract_x
_atom_site_fract_y
_atom_site_fract_z
Si Si1 0.661835 0.179956 0.322750
Si Si2 0.838663 0.321061 0.964003
Si Si3 0.000000 0.320171 0.067050
Si Si4 0.500000 0.319779 0.236569
Si Si5 0.163701 0.323103 0.787629
Si Si6 0.903585 0.163364 0.646551
Si Si7 0.098377 0.821386 0.475329
O O1 0.750000 0.250000 0.290017
O O2 0.584165 0.250916 0.274660
O O3 0.653095 0.222682 0.414594
O O4 0.662578 0.000000 0.310801
O O5 0.827301 0.500000 0.965202
O O6 0.750000 0.250000 0.994177
O O7 0.860095 0.262449 0.875002
O O8 0.916408 0.270801 0.018623
O O9 0.000000 0.222210 0.145111
O O10 0.000000 0.500000 0.084545
O O11 0.500000 0.500000 0.248362
O O12 0.172815 0.500000 0.791917
O O13 0.250000 0.250000 0.756944
O O14 0.097450 0.278496 0.719996
O O15 0.866024 0.223414 0.563094
O O16 0.000000 0.133101 0.624215
O O17 0.862099 0.000000 0.670221
O O18 0.000000 0.777402 0.462885
O O19 0.112343 0.000000 0.459534
#
# Coordination Sequence:
#
# PCOD8173274 Si02
#       7
#     8   8   4   4   8   8   8
#     4  12  25  42  67  97 126 164 208 251 306 368
#     4   9  20  38  61  87 121 158 199 249 303 358
#     4  10  22  42  66  91 120 159 198 241 304 371
#     4  12  26  46  68  95 130 161 198 251 306 369
#     4  10  20  34  54  79 112 155 199 248 300 351
#     4   9  19  34  53  81 116 157 200 247 299 348
#     4   9  18  36  60  84 119 162 203 253 309 360
#
# _framework density 20.401076
#
# number of rings (size 3 to 8) (size 9 to 14) (size 15 to 20)
#    0.000    2.000    0.833    3.750    1.167    3.667 
#    0.000    3.333    0.000    0.000    0.000    0.000 
#    0.000    0.000    0.000    0.000    0.000    0.000 
#
# Total GULP energy -297485.018248 kJ/mol
# GULP energy per Si atom -12395.209094 kJ/mol
# Density = 2.035464 g / cm^3
# Si number density = 20.401076 Si / 1000 Ang^3
#
#
#
# Elastic Constant Matrix: (Units=GPa)
#
#
# Indices 1 2 3 4 5 6 
#
# 1 126.2517 50.0845 63.3831 0.0000 0.0000 0.0000
# 2 50.0845 98.8151 51.4729 0.0000 0.0000 0.0000
# 3 63.3831 51.4729 130.9165 0.0000 0.0000 0.0000
# 4 0.0000 0.0000 0.0000 36.0822 0.0000 0.0000
# 5 0.0000 0.0000 0.0000 0.0000 9.6204 0.0000
# 6 0.0000 0.0000 0.0000 0.0000 0.0000 30.2699
#
#
#
# Elastic Compliance Matrix: (Units=1/GPa)
#
#
# Indices 1 2 3 4 5 6 
#
# 1 0.011428 -0.003660 -0.004094 0.000000 0.000000 0.000000
# 2 -0.003660 0.013898 -0.003693 0.000000 0.000000 0.000000
# 3 -0.004094 -0.003693 0.011072 0.000000 0.000000 0.000000
# 4 0.000000 0.000000 0.000000 0.027715 0.000000 0.000000
# 5 0.000000 0.000000 0.000000 0.000000 0.103946 0.000000
# 6 0.000000 0.000000 0.000000 0.000000 0.000000 0.033036
#
#
# Mechanical properties :
#
#
# Convention : Reuss Voigt Hill
#
# Bulk Modulus (GPa) = 74.04058 76.20715 75.12387
# Shear Modulus (GPa) = 21.88289 27.93068 24.90679
#
# Velocity S-wave (km/s) = 3.27866 3.70412 3.49787
# Velocity P-wave (km/s) = 7.12068 7.46523 7.29499
#
# Compressibility (1/GPa) = 0.01350611
#
# Stress axis : x y z
#
# Youngs Moduli (GPa) = 87.50617 71.95117 90.31520
#
# Poissons Ratio (x) = 0.26332 0.36974
# Poissons Ratio (y) = 0.32024 0.33350
# Poissons Ratio (z) = 0.35824 0.26569
#
# Static dielectric constant tensor:
#      x y z
#    x 3.647640 0.000000 0.000000 
#    y 0.000000 3.620400 0.000000 
#    z 0.000000 0.000000 3.851660 
# 
# 
# High freq. dielectric constant tensor:
#      x y z
#    x 1.792010 0.000000 0.000000 
#    y 0.000000 1.789230 0.000000 
#    z 0.000000 0.000000 1.804300 
# 
# From -- ./inp_files/18809.got.cif
#   From: 2010.03.12/outbox.cif.g09.slc.cpg/sg35_10_cif.got.tgz:18809.got - 2010.04.14 02:02:04.
