data_PCOD8173109
_publ_section_title
;
Structure prediction by ZEFSAII (Michael W. Deem and Ramdas Pophale) SiO2 
 PCOD8173109
Probable space group: C M M 2
;
_chemical_formula_sum "Si O2"
_cell_formula_units_Z 64
_cell_length_a 8.880897
_cell_length_b 18.976796
_cell_length_c 20.586934
_cell_angle_alpha 90.000000
_cell_angle_beta 90.000000
_cell_angle_gamma 90.000000
_cell_volume 3469.535970
_symmetry_space_group_name_H-M "C M M 2"
_symmetry_group_IT_number 35
_symmetry_cell_setting 'orthorhombic'
loop_
_space_group_symop_operation_xyz
x,y,z
-x,-y,z
-x,y,z
x,-y,z
1/2+x,1/2+y,z
1/2-x,1/2-y,z
1/2-x,1/2+y,z
1/2+x,1/2-y,z
loop_
_atom_site_type_symbol
_atom_site_label
_atom_site_fract_x
_atom_site_fract_y
_atom_site_fract_z
Si Si1 0.829256 0.917073 0.950540
Si Si2 0.321829 0.326982 0.325257
Si Si3 0.823443 0.674073 0.198685
Si Si4 0.325542 0.174970 0.055975
Si Si5 0.826360 0.080956 0.567675
Si Si6 0.178078 0.173944 0.689791
Si Si7 0.826518 0.417792 0.434134
Si Si8 0.679051 0.421656 0.805785
O O1 0.723926 0.880188 0.002372
O O2 0.772945 0.896958 0.878042
O O3 0.000000 0.891295 0.961111
O O4 0.817106 0.000000 0.960840
O O5 0.500000 0.319939 0.320982
O O6 0.250000 0.250000 0.334358
O O7 0.257929 0.364915 0.259247
O O8 0.278105 0.375169 0.385463
O O9 0.750000 0.750000 0.196341
O O10 0.000000 0.678753 0.213702
O O11 0.791679 0.640760 0.127484
O O12 0.500000 0.189648 0.048472
O O13 0.250000 0.250000 0.045106
O O14 0.773747 0.129452 0.626992
O O15 0.723327 0.101627 0.506848
O O16 0.000000 0.094499 0.549187
O O17 0.801802 0.000000 0.588506
O O18 0.250000 0.250000 0.685469
O O19 0.242325 0.133591 0.753270
O O20 0.000000 0.181744 0.694185
O O21 0.800861 0.500000 0.420633
O O22 0.000000 0.396046 0.424931
O O23 0.500000 0.425681 0.802033
O O24 0.743676 0.500000 0.791135
#
# Coordination Sequence:
#
# PCOD8173109 Si02
#       8
#     8   8   8   8   8   8   8   8
#     4   9  18  33  53  76 103 135 172 215 260 308
#     4  11  21  34  55  80 106 136 172 214 257 305
#     4   9  17  31  50  73 101 134 172 212 256 306
#     4  10  20  33  52  76 103 136 173 214 258 307
#     4   9  18  34  55  75  96 130 175 213 247 297
#     4  10  20  33  51  76 105 133 163 207 257 302
#     4  10  21  37  56  78 106 138 171 211 258 306
#     4   8  15  31  54  75  96 130 174 211 247 298
#
# _framework density 18.446269999999998
#
# number of rings (size 3 to 8) (size 9 to 14) (size 15 to 20)
#    0.000    2.500    0.000    4.125    0.000    5.500 
#    0.000    3.750    0.000    2.625    0.000    0.000 
#    0.000    0.000    0.000    0.000    0.000    0.000 
#
# Total GULP energy -396684.547774 kJ/mol
# GULP energy per Si atom -12396.392118 kJ/mol
# Density = 1.840429 g / cm^3
# Si number density = 18.446270 Si / 1000 Ang^3
#
#
#
# Elastic Constant Matrix: (Units=GPa)
#
#
# Indices 1 2 3 4 5 6 
#
# 1 83.9975 36.1444 57.6929 0.0000 0.0000 0.0000
# 2 36.1444 75.2182 73.0897 0.0000 0.0000 0.0000
# 3 57.6929 73.0897 156.5396 0.0000 0.0000 0.0000
# 4 0.0000 0.0000 0.0000 -4.8786 0.0000 0.0000
# 5 0.0000 0.0000 0.0000 0.0000 27.9704 0.0000
# 6 0.0000 0.0000 0.0000 0.0000 0.0000 28.8757
#
#
#
# Elastic Compliance Matrix: (Units=1/GPa)
#
#
# Indices 1 2 3 4 5 6 
#
# 1 0.016482 -0.003693 -0.004350 0.000000 0.000000 0.000000
# 2 -0.003693 0.025163 -0.010388 0.000000 0.000000 0.000000
# 3 -0.004350 -0.010388 0.012842 0.000000 0.000000 0.000000
# 4 0.000000 0.000000 0.000000 -0.204979 0.000000 0.000000
# 5 0.000000 0.000000 0.000000 0.000000 0.035752 0.000000
# 6 0.000000 0.000000 0.000000 0.000000 0.000000 0.034631
#
#
# Mechanical properties :
#
#
# Convention : Reuss Voigt Hill
#
# Bulk Modulus (GPa) = 56.73835 72.17882 64.45858
# Shear Modulus (GPa) = -133.79084 20.31540 -56.73772
#
# Velocity S-wave (km/s) = -8.52570 3.32223 -5.55204
# Velocity P-wave (km/s) = 8.12965 7.34373 2.46584
#
# Compressibility (1/GPa) = 0.01762476
#
# Stress axis : x y z
#
# Youngs Moduli (GPa) = 60.67179 39.74080 77.87202
#
# Poissons Ratio (x) = 0.14676 0.33876
# Poissons Ratio (y) = 0.22406 0.80892
# Poissons Ratio (z) = 0.26394 0.41282
#
# Static dielectric constant tensor:
#      x y z
#    x 3.321220 0.000000 0.000000 
#    y 0.000000 3.290760 0.000000 
#    z 0.000000 0.000000 3.946220 
# 
# 
# High freq. dielectric constant tensor:
#      x y z
#    x 1.707380 0.000000 0.000000 
#    y 0.000000 1.692360 0.000000 
#    z 0.000000 0.000000 1.735170 
# 
# From -- ./inp_files/18388.got.cif
#   From: 2010.03.12/outbox.cif.g09.slc.cpg/sg35_10_cif.got.tgz:18388.got - 2010.04.14 02:02:04.
