data_PCOD8173658
_publ_section_title
;
Structure prediction by ZEFSAII (Michael W. Deem and Ramdas Pophale) SiO2 
 PCOD8173658
Probable space group: C M M 2
;
_chemical_formula_sum "Si O2"
_cell_formula_units_Z 64
_cell_length_a 8.929610
_cell_length_b 29.649645
_cell_length_c 12.215446
_cell_angle_alpha 90.000000
_cell_angle_beta 90.000000
_cell_angle_gamma 90.000000
_cell_volume 3234.158631
_symmetry_space_group_name_H-M "C M M 2"
_symmetry_group_IT_number 35
_symmetry_cell_setting 'orthorhombic'
loop_
_space_group_symop_operation_xyz
x,y,z
-x,-y,z
-x,y,z
x,-y,z
1/2+x,1/2+y,z
1/2-x,1/2-y,z
1/2-x,1/2+y,z
1/2+x,1/2-y,z
loop_
_atom_site_type_symbol
_atom_site_label
_atom_site_fract_x
_atom_site_fract_y
_atom_site_fract_z
Si Si1 0.677109 0.376941 0.447680
Si Si2 0.822912 0.299154 0.312138
Si Si3 0.675352 0.876737 0.678752
Si Si4 0.823895 0.701722 0.838048
Si Si5 0.332389 0.553566 0.075252
Si Si6 0.327162 0.202866 0.074923
Si Si7 0.673655 0.946931 0.294153
Si Si8 0.827181 0.551519 0.859453
O O1 0.500000 0.373914 0.435234
O O2 0.751157 0.331909 0.400524
O O3 0.721814 0.380759 0.573555
O O4 0.735895 0.421684 0.388290
O O5 0.750000 0.250000 0.324885
O O6 0.788854 0.321449 0.190862
O O7 0.000000 0.295152 0.333555
O O8 0.500000 0.873918 0.647284
O O9 0.729622 0.832900 0.745798
O O10 0.709007 0.920733 0.750938
O O11 0.750000 0.750000 0.817238
O O12 0.000000 0.708744 0.830021
O O13 0.780832 0.680086 0.958547
O O14 0.500000 0.572671 0.089660
O O15 0.331919 0.500000 0.071860
O O16 0.231729 0.570131 0.176369
O O17 0.264255 0.571842 0.961909
O O18 0.500000 0.213694 0.072272
O O19 0.250000 0.250000 0.080005
O O20 0.500000 0.934064 0.303093
O O21 0.700833 0.000000 0.310221
O O22 0.782360 0.500000 0.834732
O O23 0.000000 0.555944 0.892714
#
# Coordination Sequence:
#
# PCOD8173658 Si02
#       8
#     8   8   8   8   8   8   8   8
#     4  12  26  41  57  81 114 151 195 243 291 345
#     4  10  20  37  61  87 117 151 188 232 284 342
#     4  10  22  39  56  77 108 147 194 241 280 328
#     4   9  18  34  56  81 109 140 175 220 274 328
#     4   9  17  31  54  86 121 150 179 221 276 338
#     4   8  15  29  52  82 111 140 175 219 273 331
#     4  10  21  39  63  87 113 148 189 234 286 344
#     4   9  18  34  57  83 111 146 187 229 276 334
#
# _framework density 19.788764
#
# number of rings (size 3 to 8) (size 9 to 14) (size 15 to 20)
#    0.000    2.375    0.000    2.250    0.000    5.750 
#    0.000    5.000    0.000    0.000    0.000    0.000 
#    0.000    0.000    0.000    0.000    0.000    0.000 
#
# Total GULP energy -396617.782385 kJ/mol
# GULP energy per Si atom -12394.305700 kJ/mol
# Density = 1.974372 g / cm^3
# Si number density = 19.788764 Si / 1000 Ang^3
#
#
#
# Elastic Constant Matrix: (Units=GPa)
#
#
# Indices 1 2 3 4 5 6 
#
# 1 102.2630 43.5328 64.5188 0.0000 0.0000 0.0000
# 2 43.5328 82.3953 55.4418 0.0000 0.0000 0.0000
# 3 64.5188 55.4418 152.7750 0.0000 0.0000 0.0000
# 4 0.0000 0.0000 0.0000 56.7508 0.0000 0.0000
# 5 0.0000 0.0000 0.0000 0.0000 31.2907 0.0000
# 6 0.0000 0.0000 0.0000 0.0000 0.0000 25.7504
#
#
#
# Elastic Compliance Matrix: (Units=1/GPa)
#
#
# Indices 1 2 3 4 5 6 
#
# 1 0.014595 -0.004715 -0.004453 0.000000 0.000000 0.000000
# 2 -0.004715 0.017581 -0.004389 0.000000 0.000000 0.000000
# 3 -0.004453 -0.004389 0.010019 0.000000 0.000000 0.000000
# 4 0.000000 0.000000 0.000000 0.017621 0.000000 0.000000
# 5 0.000000 0.000000 0.000000 0.000000 0.031958 0.000000
# 6 0.000000 0.000000 0.000000 0.000000 0.000000 0.038834
#
#
# Mechanical properties :
#
#
# Convention : Reuss Voigt Hill
#
# Bulk Modulus (GPa) = 66.30601 73.82446 70.06523
# Shear Modulus (GPa) = 30.72221 34.35437 32.53829
#
# Velocity S-wave (km/s) = 3.94446 4.17112 4.05937
# Velocity P-wave (km/s) = 7.37053 7.78363 7.57989
#
# Compressibility (1/GPa) = 0.01508159
#
# Stress axis : x y z
#
# Youngs Moduli (GPa) = 68.51616 56.87974 99.81383
#
# Poissons Ratio (x) = 0.26820 0.44443
# Poissons Ratio (y) = 0.32306 0.43807
# Poissons Ratio (z) = 0.30507 0.24964
#
# Static dielectric constant tensor:
#      x y z
#    x 3.588620 0.000000 0.000000 
#    y 0.000000 3.327850 0.000000 
#    z 0.000000 0.000000 3.993580 
# 
# 
# High freq. dielectric constant tensor:
#      x y z
#    x 1.771210 0.000000 0.000000 
#    y 0.000000 1.759100 0.000000 
#    z 0.000000 0.000000 1.781010 
# 
# From -- ./inp_files/12022.got.cif
#   From: 2010.03.12/outbox.cif.g09.slc.cpg/sg35_7_cif.got.tgz:12022.got - 2010.04.14 02:02:04.
