data_PCOD8173499
_publ_section_title
;
Structure prediction by ZEFSAII (Michael W. Deem and Ramdas Pophale) SiO2 
 PCOD8173499
Probable space group: C M M 2
;
_chemical_formula_sum "Si O2"
_cell_formula_units_Z 64
_cell_length_a 27.081625
_cell_length_b 17.611880
_cell_length_c 6.844526
_cell_angle_alpha 90.000000
_cell_angle_beta 90.000000
_cell_angle_gamma 90.000000
_cell_volume 3264.553689
_symmetry_space_group_name_H-M "C M M 2"
_symmetry_group_IT_number 35
_symmetry_cell_setting 'orthorhombic'
loop_
_space_group_symop_operation_xyz
x,y,z
-x,-y,z
-x,y,z
x,-y,z
1/2+x,1/2+y,z
1/2-x,1/2-y,z
1/2-x,1/2+y,z
1/2+x,1/2-y,z
loop_
_atom_site_type_symbol
_atom_site_label
_atom_site_fract_x
_atom_site_fract_y
_atom_site_fract_z
Si Si1 0.691335 0.821124 0.960470
Si Si2 0.634489 0.588288 0.657574
Si Si3 0.882774 0.808537 0.989686
Si Si4 0.122607 0.414272 0.673117
Si Si5 0.557703 0.662050 0.383816
Si Si6 0.763720 0.831269 0.619783
Si Si7 0.554269 0.213584 0.695727
Si Si8 0.803096 0.584357 0.342766
O O1 0.654145 0.871611 0.835780
O O2 0.743035 0.822693 0.841915
O O3 0.669974 0.735975 0.003557
O O4 0.700693 0.856732 0.169692
O O5 0.650766 0.500000 0.647697
O O6 0.587079 0.600575 0.517004
O O7 0.678323 0.648334 0.606293
O O8 0.621568 0.609913 0.881314
O O9 0.910411 0.826883 0.189689
O O10 0.915299 0.752682 0.863497
O O11 0.114956 0.500000 0.743506
O O12 0.070389 0.372668 0.656860
O O13 0.145241 0.409597 0.456132
O O14 0.500000 0.636284 0.347485
O O15 0.558175 0.742377 0.491649
O O16 0.750000 0.750000 0.518142
O O17 0.738582 0.899236 0.503059
O O18 0.500000 0.211710 0.780291
O O19 0.794596 0.500000 0.259512
#
# Coordination Sequence:
#
# PCOD8173499 Si02
#       8
#     8   8   8   8   8   8   8   8
#     4  10  20  35  59  86 115 157 201 244 292 359
#     4  11  25  43  61  88 126 157 197 256 313 368
#     4  10  20  37  62  87 114 153 200 251 307 365
#     4   9  18  32  50  79 117 153 192 239 288 348
#     4  10  22  40  64  89 116 155 206 260 314 368
#     4  11  23  40  61  87 122 159 199 243 294 369
#     4   9  18  33  54  82 113 148 193 245 298 356
#     4  10  21  35  57  84 115 154 194 237 289 346
#
# _framework density 19.604517999999999
#
# number of rings (size 3 to 8) (size 9 to 14) (size 15 to 20)
#    0.000    2.000    1.250    1.875    3.500    4.500 
#    0.000    0.000    0.000    0.000    0.000    3.500 
#    0.000    0.000    0.000    0.000    0.000    0.000 
#
# Total GULP energy -396518.424522 kJ/mol
# GULP energy per Si atom -12391.200766 kJ/mol
# Density = 1.955990 g / cm^3
# Si number density = 19.604518 Si / 1000 Ang^3
#
#
#
# Elastic Constant Matrix: (Units=GPa)
#
#
# Indices 1 2 3 4 5 6 
#
# 1 96.8468 34.7526 23.9287 0.0000 0.0000 0.0000
# 2 34.7526 105.8400 22.4616 0.0000 0.0000 0.0000
# 3 23.9287 22.4616 96.3077 0.0000 0.0000 0.0000
# 4 0.0000 0.0000 0.0000 19.0762 0.0000 0.0000
# 5 0.0000 0.0000 0.0000 0.0000 6.3321 0.0000
# 6 0.0000 0.0000 0.0000 0.0000 0.0000 19.5274
#
#
#
# Elastic Compliance Matrix: (Units=1/GPa)
#
#
# Indices 1 2 3 4 5 6 
#
# 1 0.012130 -0.003517 -0.002193 0.000000 0.000000 0.000000
# 2 -0.003517 0.010960 -0.001682 0.000000 0.000000 0.000000
# 3 -0.002193 -0.001682 0.011321 0.000000 0.000000 0.000000
# 4 0.000000 0.000000 0.000000 0.052421 0.000000 0.000000
# 5 0.000000 0.000000 0.000000 0.000000 0.157925 0.000000
# 6 0.000000 0.000000 0.000000 0.000000 0.000000 0.051210
#
#
# Mechanical properties :
#
#
# Convention : Reuss Voigt Hill
#
# Bulk Modulus (GPa) = 50.95664 51.25336 51.10500
# Shear Modulus (GPa) = 15.75822 23.51059 19.63440
#
# Velocity S-wave (km/s) = 2.83822 3.46677 3.16812
# Velocity P-wave (km/s) = 6.06543 6.49808 6.28548
#
# Compressibility (1/GPa) = 0.01962453
#
# Stress axis : x y z
#
# Youngs Moduli (GPa) = 82.44245 91.23964 88.33360
#
# Poissons Ratio (x) = 0.32092 0.19375
# Poissons Ratio (y) = 0.28997 0.14860
# Poissons Ratio (z) = 0.18083 0.15349
#
# Static dielectric constant tensor:
#      x y z
#    x 3.790830 0.000000 0.000000 
#    y 0.000000 3.627630 0.000000 
#    z 0.000000 0.000000 3.486070 
# 
# 
# High freq. dielectric constant tensor:
#      x y z
#    x 1.763770 0.000000 0.000000 
#    y 0.000000 1.762050 0.000000 
#    z 0.000000 0.000000 1.759110 
# 
# From -- ./inp_files/4080.got.cif
#   From: 2010.03.12/outbox.cif.g09.slc.cpg/sg35_3_cif.got.tgz:4080.got - 2010.04.14 02:02:04.
