data_PCOD8173825
_publ_section_title
;
Structure prediction by ZEFSAII (Michael W. Deem and Ramdas Pophale) SiO2 
 PCOD8173825
Probable space group: C M M 2
;
_chemical_formula_sum "Si O2"
_cell_formula_units_Z 64
_cell_length_a 9.063629
_cell_length_b 19.089331
_cell_length_c 20.424845
_cell_angle_alpha 90.000000
_cell_angle_beta 90.000000
_cell_angle_gamma 90.000000
_cell_volume 3533.878374
_symmetry_space_group_name_H-M "C M M 2"
_symmetry_group_IT_number 35
_symmetry_cell_setting 'orthorhombic'
loop_
_space_group_symop_operation_xyz
x,y,z
-x,-y,z
-x,y,z
x,-y,z
1/2+x,1/2+y,z
1/2-x,1/2-y,z
1/2-x,1/2+y,z
1/2+x,1/2-y,z
loop_
_atom_site_type_symbol
_atom_site_label
_atom_site_fract_x
_atom_site_fract_y
_atom_site_fract_z
Si Si1 0.173086 0.581252 0.160060
Si Si2 0.175097 0.174379 0.268396
Si Si3 0.672465 0.580083 0.391668
Si Si4 0.672710 0.419753 0.649037
Si Si5 0.668178 0.419238 0.027658
Si Si6 0.833677 0.416696 0.521080
Si Si7 0.172953 0.821147 0.911585
Si Si8 0.173368 0.821444 0.764811
O O1 0.210178 0.500000 0.175863
O O2 0.263879 0.631442 0.207241
O O3 0.224215 0.600556 0.087016
O O4 0.000000 0.596376 0.167052
O O5 0.250000 0.250000 0.272551
O O6 0.218473 0.130040 0.332309
O O7 0.000000 0.183298 0.261120
O O8 0.500000 0.583016 0.405971
O O9 0.720996 0.500000 0.375435
O O10 0.753621 0.610242 0.455674
O O11 0.500000 0.411068 0.636680
O O12 0.717888 0.500000 0.659253
O O13 0.753732 0.387001 0.585750
O O14 0.726070 0.380738 0.714435
O O15 0.500000 0.398991 0.046589
O O16 0.680092 0.500000 0.009738
O O17 0.723318 0.379840 0.962792
O O18 0.825736 0.500000 0.522255
O O19 0.000000 0.388479 0.520362
O O20 0.250000 0.750000 0.933128
O O21 0.221291 0.844048 0.838248
O O22 0.000000 0.808339 0.914293
O O23 0.250000 0.750000 0.743573
O O24 0.000000 0.809618 0.760607
#
# Coordination Sequence:
#
# PCOD8173825 Si02
#       8
#     8   8   8   8   8   8   8   8
#     4  10  21  37  57  80 106 137 173 212 254 304
#     4  11  23  38  56  79 108 139 172 212 257 304
#     4   9  18  34  56  78 100 131 169 206 248 301
#     4   9  17  30  49  72  98 128 163 205 250 295
#     4   9  18  33  53  76 102 132 167 209 254 299
#     4   9  17  29  48  75 103 129 161 204 250 296
#     4   9  18  32  50  72  98 130 167 206 249 299
#     4   9  18  32  49  70  97 130 167 205 248 298
#
# _framework density 18.110413999999999
#
# number of rings (size 3 to 8) (size 9 to 14) (size 15 to 20)
#    0.000    2.625    0.000    1.500    0.000    5.750 
#    0.000    5.625    0.000    0.000    0.000    7.000 
#    0.000    0.000    0.000    0.000    0.000    0.000 
#
# Total GULP energy -396802.955517 kJ/mol
# GULP energy per Si atom -12400.092360 kJ/mol
# Density = 1.806919 g / cm^3
# Si number density = 18.110414 Si / 1000 Ang^3
#
#
#
# Elastic Constant Matrix: (Units=GPa)
#
#
# Indices 1 2 3 4 5 6 
#
# 1 59.9851 44.7345 56.8948 0.0000 0.0000 0.0000
# 2 44.7345 92.7335 83.1183 0.0000 0.0000 0.0000
# 3 56.8948 83.1183 151.8821 0.0000 0.0000 0.0000
# 4 0.0000 0.0000 0.0000 6.3363 0.0000 0.0000
# 5 0.0000 0.0000 0.0000 0.0000 25.1134 0.0000
# 6 0.0000 0.0000 0.0000 0.0000 0.0000 26.1506
#
#
#
# Elastic Compliance Matrix: (Units=1/GPa)
#
#
# Indices 1 2 3 4 5 6 
#
# 1 0.028770 -0.008281 -0.006246 0.000000 0.000000 0.000000
# 2 -0.008281 0.023549 -0.009785 0.000000 0.000000 0.000000
# 3 -0.006246 -0.009785 0.014279 0.000000 0.000000 0.000000
# 4 0.000000 0.000000 0.000000 0.157820 0.000000 0.000000
# 5 0.000000 0.000000 0.000000 0.000000 0.039819 0.000000
# 6 0.000000 0.000000 0.000000 0.000000 0.000000 0.038240
#
#
# Mechanical properties :
#
#
# Convention : Reuss Voigt Hill
#
# Bulk Modulus (GPa) = 55.63430 74.89955 65.26692
# Shear Modulus (GPa) = 14.00201 19.51027 16.75614
#
# Velocity S-wave (km/s) = 2.78357 3.28578 3.04505
# Velocity P-wave (km/s) = 6.41227 7.47276 6.96273
#
# Compressibility (1/GPa) = 0.01797452
#
# Stress axis : x y z
#
# Youngs Moduli (GPa) = 34.75845 42.46488 70.03412
#
# Poissons Ratio (x) = 0.35163 0.43741
# Poissons Ratio (y) = 0.28782 0.68531
# Poissons Ratio (z) = 0.21709 0.41553
#
# Static dielectric constant tensor:
#      x y z
#    x 3.340910 0.000000 0.000000 
#    y 0.000000 3.325870 0.000000 
#    z 0.000000 0.000000 3.559180 
# 
# 
# High freq. dielectric constant tensor:
#      x y z
#    x 1.700780 0.000000 0.000000 
#    y 0.000000 1.681830 0.000000 
#    z 0.000000 0.000000 1.714080 
# 
# From -- ./inp_files/18413.got.cif
#   From: 2010.03.12/outbox.cif.g09.slc.cpg/sg35_10_cif.got.tgz:18413.got - 2010.04.14 02:02:04.
