data_PCOD8173018
_publ_section_title
;
Structure prediction by ZEFSAII (Michael W. Deem and Ramdas Pophale) SiO2 
 PCOD8173018
Probable space group: C M M 2
;
_chemical_formula_sum "Si O2"
_cell_formula_units_Z 64
_cell_length_a 28.306648
_cell_length_b 8.761584
_cell_length_c 15.544547
_cell_angle_alpha 90.000000
_cell_angle_beta 90.000000
_cell_angle_gamma 90.000000
_cell_volume 3855.219800
_symmetry_space_group_name_H-M "C M M 2"
_symmetry_group_IT_number 35
_symmetry_cell_setting 'orthorhombic'
loop_
_space_group_symop_operation_xyz
x,y,z
-x,-y,z
-x,y,z
x,-y,z
1/2+x,1/2+y,z
1/2-x,1/2-y,z
1/2-x,1/2+y,z
1/2+x,1/2-y,z
loop_
_atom_site_type_symbol
_atom_site_label
_atom_site_fract_x
_atom_site_fract_y
_atom_site_fract_z
Si Si1 0.800979 0.322971 0.110530
Si Si2 0.351599 0.321903 0.764330
Si Si3 0.199223 0.680396 0.602849
Si Si4 0.053279 0.676867 0.500114
Si Si5 0.698316 0.320283 0.278557
Si Si6 0.301658 0.821784 0.920218
Si Si7 0.947531 0.825633 0.680265
Si Si8 0.143261 0.178459 0.447750
O O1 0.796755 0.500000 0.132120
O O2 0.750000 0.250000 0.106484
O O3 0.827340 0.241769 0.191046
O O4 0.823488 0.295613 0.016222
O O5 0.339887 0.500000 0.760363
O O6 0.319867 0.239765 0.693385
O O7 0.338858 0.256576 0.857267
O O8 0.407429 0.289320 0.750733
O O9 0.203487 0.500000 0.606641
O O10 0.250000 0.750000 0.582582
O O11 0.164368 0.728082 0.526940
O O12 0.064944 0.500000 0.486685
O O13 0.060689 0.715045 0.600208
O O14 0.087989 0.778451 0.441582
O O15 0.000000 0.716121 0.471389
O O16 0.702805 0.500000 0.272802
O O17 0.750000 0.250000 0.290255
O O18 0.667120 0.268893 0.359294
O O19 0.250000 0.750000 0.908885
O O20 0.296987 0.000000 0.899368
O O21 0.000000 0.799037 0.720298
O O22 0.942285 0.000000 0.647526
O O23 0.150312 0.000000 0.465056
#
# Coordination Sequence:
#
# PCOD8173018 Si02
#       8
#     8   8   8   8   8   8   8   8
#     4   9  17  30  49  70  94 125 160 201 245 288
#     4  11  21  33  50  72  98 129 165 201 243 293
#     4  12  24  36  49  66  96 134 169 204 238 284
#     4  10  20  33  51  74  97 125 163 206 250 291
#     4  10  20  32  49  72  99 129 163 201 241 289
#     4  10  20  33  49  71  99 130 165 202 242 287
#     4   9  18  33  52  71  94 125 161 203 247 291
#     4  11  22  35  50  72  99 131 167 201 244 293
#
# _framework density 16.600868999999999
#
# number of rings (size 3 to 8) (size 9 to 14) (size 15 to 20)
#    0.000    1.750    1.250    4.875    0.000    5.750 
#    0.000    0.000    0.000    0.000    0.000    0.875 
#    0.000    3.000    0.000    0.000    0.000    0.000 
#
# Total GULP energy -396745.550292 kJ/mol
# GULP energy per Si atom -12398.298447 kJ/mol
# Density = 1.656308 g / cm^3
# Si number density = 16.600869 Si / 1000 Ang^3
#
#
#
# Elastic Constant Matrix: (Units=GPa)
#
#
# Indices 1 2 3 4 5 6 
#
# 1 87.4719 33.1058 42.3076 0.0000 0.0000 0.0000
# 2 33.1058 93.8812 42.7077 0.0000 0.0000 0.0000
# 3 42.3076 42.7077 108.4300 0.0000 0.0000 0.0000
# 4 0.0000 0.0000 0.0000 29.0948 0.0000 0.0000
# 5 0.0000 0.0000 0.0000 0.0000 12.1213 0.0000
# 6 0.0000 0.0000 0.0000 0.0000 0.0000 22.7269
#
#
#
# Elastic Compliance Matrix: (Units=1/GPa)
#
#
# Indices 1 2 3 4 5 6 
#
# 1 0.014824 -0.003163 -0.004538 0.000000 0.000000 0.000000
# 2 -0.003163 0.013652 -0.004143 0.000000 0.000000 0.000000
# 3 -0.004538 -0.004143 0.012625 0.000000 0.000000 0.000000
# 4 0.000000 0.000000 0.000000 0.034370 0.000000 0.000000
# 5 0.000000 0.000000 0.000000 0.000000 0.082500 0.000000
# 6 0.000000 0.000000 0.000000 0.000000 0.000000 0.044001
#
#
# Mechanical properties :
#
#
# Convention : Reuss Voigt Hill
#
# Bulk Modulus (GPa) = 57.42948 58.44725 57.93837
# Shear Modulus (GPa) = 21.60152 24.23272 22.91712
#
# Velocity S-wave (km/s) = 3.61117 3.82478 3.71951
# Velocity P-wave (km/s) = 7.21504 7.40196 7.30910
#
# Compressibility (1/GPa) = 0.01741266
#
# Stress axis : x y z
#
# Youngs Moduli (GPa) = 67.45601 73.25024 79.20702
#
# Poissons Ratio (x) = 0.23169 0.35948
# Poissons Ratio (y) = 0.21337 0.32815
# Poissons Ratio (z) = 0.30614 0.30347
#
# Static dielectric constant tensor:
#      x y z
#    x 3.155030 0.000000 0.000000 
#    y 0.000000 3.269760 0.000000 
#    z 0.000000 0.000000 3.477030 
# 
# 
# High freq. dielectric constant tensor:
#      x y z
#    x 1.618310 0.000000 0.000000 
#    y 0.000000 1.658790 0.000000 
#    z 0.000000 0.000000 1.629210 
# 
# From -- ./inp_files/17771.got.cif
#   From: 2010.03.12/outbox.cif.g09.slc.cpg/sg35_9_cif.got.tgz:17771.got - 2010.04.14 02:02:04.
