data_PCOD8173831
_publ_section_title
;
Structure prediction by ZEFSAII (Michael W. Deem and Ramdas Pophale) SiO2 
 PCOD8173831
Probable space group: C M M 2
;
_chemical_formula_sum "Si O2"
_cell_formula_units_Z 56
_cell_length_a 8.667732
_cell_length_b 19.151688
_cell_length_c 17.479682
_cell_angle_alpha 90.000000
_cell_angle_beta 90.000000
_cell_angle_gamma 90.000000
_cell_volume 2901.656909
_symmetry_space_group_name_H-M "C M M 2"
_symmetry_group_IT_number 35
_symmetry_cell_setting 'orthorhombic'
loop_
_space_group_symop_operation_xyz
x,y,z
-x,-y,z
-x,y,z
x,-y,z
1/2+x,1/2+y,z
1/2-x,1/2-y,z
1/2-x,1/2+y,z
1/2+x,1/2-y,z
loop_
_atom_site_type_symbol
_atom_site_label
_atom_site_fract_x
_atom_site_fract_y
_atom_site_fract_z
Si Si1 0.818815 0.676580 0.436170
Si Si2 0.320141 0.323172 0.842385
Si Si3 0.676953 0.081634 0.718663
Si Si4 0.822784 0.917916 0.561389
Si Si5 0.819333 0.176131 0.019771
Si Si6 0.680553 0.081393 0.144396
Si Si7 0.817783 0.175655 0.273140
O O1 0.750000 0.750000 0.464587
O O2 0.782998 0.618028 0.498291
O O3 0.744956 0.653700 0.355951
O O4 0.000000 0.684524 0.424865
O O5 0.500000 0.322421 0.825011
O O6 0.250000 0.250000 0.815544
O O7 0.240246 0.384038 0.795267
O O8 0.284341 0.337317 0.931003
O O9 0.500000 0.102150 0.705651
O O10 0.772145 0.108263 0.645204
O O11 0.699477 0.000000 0.730440
O O12 0.000000 0.897347 0.548123
O O13 0.794589 0.000000 0.553763
O O14 0.750000 0.250000 0.046549
O O15 0.000000 0.176322 0.038334
O O16 0.736300 0.114172 0.064760
O O17 0.500000 0.094544 0.155247
O O18 0.771078 0.115979 0.214209
O O19 0.721664 0.000000 0.142892
O O20 0.750000 0.250000 0.246457
O O21 0.000000 0.182379 0.276891
#
# Coordination Sequence:
#
# PCOD8173831 Si02
#       7
#     8   8   8   8   8   8   8
#     4  11  22  38  60  86 116 147 186 232 278 330
#     4  10  21  37  58  84 113 146 186 232 280 331
#     4  10  21  37  57  82 113 149 188 230 279 334
#     4  10  21  38  59  83 113 149 189 231 278 333
#     4  10  21  38  60  84 112 147 187 230 278 334
#     4  11  24  40  58  83 115 149 187 231 278 328
#     4  11  22  39  62  85 113 148 187 229 277 333
#
# _framework density 19.299316999999999
#
# number of rings (size 3 to 8) (size 9 to 14) (size 15 to 20)
#    0.000    1.571    0.000    6.000    0.000    6.286 
#    0.000    5.714    0.000    0.000    0.000    0.000 
#    0.000    0.000    0.000    0.000    0.000    0.000 
#
# Total GULP energy -347375.063213 kJ/mol
# GULP energy per Si atom -12406.252258 kJ/mol
# Density = 1.925539 g / cm^3
# Si number density = 19.299317 Si / 1000 Ang^3
#
#
#
# Elastic Constant Matrix: (Units=GPa)
#
#
# Indices 1 2 3 4 5 6 
#
# 1 136.5141 61.9940 51.3017 0.0000 0.0000 0.0000
# 2 61.9940 89.1534 64.6597 0.0000 0.0000 0.0000
# 3 51.3017 64.6597 103.3178 0.0000 0.0000 0.0000
# 4 0.0000 0.0000 0.0000 35.2077 0.0000 0.0000
# 5 0.0000 0.0000 0.0000 0.0000 37.7427 0.0000
# 6 0.0000 0.0000 0.0000 0.0000 0.0000 34.5103
#
#
#
# Elastic Compliance Matrix: (Units=1/GPa)
#
#
# Indices 1 2 3 4 5 6 
#
# 1 0.010788 -0.006623 -0.001212 0.000000 0.000000 0.000000
# 2 -0.006623 0.024605 -0.012110 0.000000 0.000000 0.000000
# 3 -0.001212 -0.012110 0.017860 0.000000 0.000000 0.000000
# 4 0.000000 0.000000 0.000000 0.028403 0.000000 0.000000
# 5 0.000000 0.000000 0.000000 0.000000 0.026495 0.000000
# 6 0.000000 0.000000 0.000000 0.000000 0.000000 0.028977
#
#
# Mechanical properties :
#
#
# Convention : Reuss Voigt Hill
#
# Bulk Modulus (GPa) = 74.83376 76.09956 75.46666
# Shear Modulus (GPa) = 27.55257 31.56082 29.55670
#
# Velocity S-wave (km/s) = 3.78252 4.04831 3.91767
# Velocity P-wave (km/s) = 7.61158 7.83381 7.72349
#
# Compressibility (1/GPa) = 0.01336295
#
# Stress axis : x y z
#
# Youngs Moduli (GPa) = 92.69342 40.64268 55.99222
#
# Poissons Ratio (x) = 0.26916 0.06787
# Poissons Ratio (y) = 0.61387 0.67807
# Poissons Ratio (z) = 0.11236 0.49218
#
# Static dielectric constant tensor:
#      x y z
#    x 3.734150 0.000000 0.000000 
#    y 0.000000 3.531230 0.000000 
#    z 0.000000 0.000000 3.562260 
# 
# 
# High freq. dielectric constant tensor:
#      x y z
#    x 1.771890 0.000000 0.000000 
#    y 0.000000 1.746690 0.000000 
#    z 0.000000 0.000000 1.760210 
# 
# From -- ./inp_files/15625.got.cif
#   From: 2010.03.12/outbox.cif.g09.slc.cpg/sg35_8_cif.got.tgz:15625.got - 2010.04.14 02:02:04.
