data_PCOD8173479
_publ_section_title
;
Structure prediction by ZEFSAII (Michael W. Deem and Ramdas Pophale) SiO2 
 PCOD8173479
Probable space group: C M M 2
;
_chemical_formula_sum "Si O2"
_cell_formula_units_Z 64
_cell_length_a 21.642763
_cell_length_b 14.991744
_cell_length_c 9.837671
_cell_angle_alpha 90.000000
_cell_angle_beta 90.000000
_cell_angle_gamma 90.000000
_cell_volume 3191.957908
_symmetry_space_group_name_H-M "C M M 2"
_symmetry_group_IT_number 35
_symmetry_cell_setting 'orthorhombic'
loop_
_space_group_symop_operation_xyz
x,y,z
-x,-y,z
-x,y,z
x,-y,z
1/2+x,1/2+y,z
1/2-x,1/2-y,z
1/2-x,1/2+y,z
1/2+x,1/2-y,z
loop_
_atom_site_type_symbol
_atom_site_label
_atom_site_fract_x
_atom_site_fract_y
_atom_site_fract_z
Si Si1 0.369887 0.101056 0.316160
Si Si2 0.844392 0.897982 0.495448
Si Si3 0.796114 0.832228 0.951276
Si Si4 0.070998 0.265069 0.527688
Si Si5 0.126194 0.702486 0.801771
Si Si6 0.265491 0.352591 0.250533
Si Si7 0.239906 0.598749 0.704023
Si Si8 0.568502 0.895012 0.042984
O O1 0.388222 0.163610 0.442627
O O2 0.296945 0.094709 0.285936
O O3 0.400618 0.142857 0.180348
O O4 0.392886 0.000000 0.347181
O O5 0.903833 0.834945 0.507794
O O6 0.819539 0.889299 0.343893
O O7 0.790137 0.865031 0.596688
O O8 0.863877 0.000000 0.527323
O O9 0.750000 0.750000 0.948285
O O10 0.860555 0.792626 0.890185
O O11 0.772574 0.909367 0.851095
O O12 0.795430 0.871629 0.102532
O O13 0.073161 0.283877 0.689664
O O14 0.000000 0.270665 0.479547
O O15 0.184489 0.669183 0.712137
O O16 0.107351 0.627486 0.909444
O O17 0.250000 0.250000 0.274941
O O18 0.216283 0.500000 0.661180
O O19 0.500000 0.853827 0.030589
O O20 0.566262 0.000000 0.055113
#
# Coordination Sequence:
#
# PCOD8173479 Si02
#       8
#     8   8   8   8   8   8   8   8
#     4  11  23  40  63  95 132 167 205 253 313 377
#     4  11  24  41  62  90 119 156 205 258 319 376
#     4   9  19  33  55  88 121 152 188 238 301 370
#     4  12  26  43  64  87 121 171 217 261 309 364
#     4  11  21  36  59  89 122 160 205 254 307 369
#     4  11  20  35  62  93 126 155 194 250 315 380
#     4  10  20  35  57  87 122 154 188 245 312 370
#     4  10  21  37  56  83 124 170 210 247 292 362
#
# _framework density 20.05039
#
# number of rings (size 3 to 8) (size 9 to 14) (size 15 to 20)
#    0.000    1.375    2.500    4.500    0.000    5.000 
#    0.000    0.000    0.000    0.000    0.000    0.000 
#    0.000    0.000    0.000    0.000    0.000    0.000 
#
# Total GULP energy -396697.453846 kJ/mol
# GULP energy per Si atom -12396.795433 kJ/mol
# Density = 2.000475 g / cm^3
# Si number density = 20.050390 Si / 1000 Ang^3
#
#
#
# Elastic Constant Matrix: (Units=GPa)
#
#
# Indices 1 2 3 4 5 6 
#
# 1 68.0418 14.6484 33.2586 0.0000 0.0000 0.0000
# 2 14.6484 67.4489 21.0265 0.0000 0.0000 0.0000
# 3 33.2586 21.0265 135.0889 0.0000 0.0000 0.0000
# 4 0.0000 0.0000 0.0000 16.3999 0.0000 0.0000
# 5 0.0000 0.0000 0.0000 0.0000 27.8845 0.0000
# 6 0.0000 0.0000 0.0000 0.0000 0.0000 20.3362
#
#
#
# Elastic Compliance Matrix: (Units=1/GPa)
#
#
# Indices 1 2 3 4 5 6 
#
# 1 0.017107 -0.002525 -0.003819 0.000000 0.000000 0.000000
# 2 -0.002525 0.015955 -0.001862 0.000000 0.000000 0.000000
# 3 -0.003819 -0.001862 0.008632 0.000000 0.000000 0.000000
# 4 0.000000 0.000000 0.000000 0.060976 0.000000 0.000000
# 5 0.000000 0.000000 0.000000 0.000000 0.035862 0.000000
# 6 0.000000 0.000000 0.000000 0.000000 0.000000 0.049173
#
#
# Mechanical properties :
#
#
# Convention : Reuss Voigt Hill
#
# Bulk Modulus (GPa) = 39.55125 45.38297 42.46711
# Shear Modulus (GPa) = 23.52450 26.36718 24.94584
#
# Velocity S-wave (km/s) = 3.42902 3.63029 3.53109
# Velocity P-wave (km/s) = 5.95368 6.34473 6.15231
#
# Compressibility (1/GPa) = 0.02528365
#
# Stress axis : x y z
#
# Youngs Moduli (GPa) = 58.45565 62.67721 115.84159
#
# Poissons Ratio (x) = 0.15825 0.44237
# Poissons Ratio (y) = 0.14759 0.21567
# Poissons Ratio (z) = 0.22323 0.11669
#
# Static dielectric constant tensor:
#      x y z
#    x 3.528310 0.000000 0.000000 
#    y 0.000000 3.624940 0.000000 
#    z 0.000000 0.000000 3.972090 
# 
# 
# High freq. dielectric constant tensor:
#      x y z
#    x 1.754370 0.000000 0.000000 
#    y 0.000000 1.770010 0.000000 
#    z 0.000000 0.000000 1.802240 
# 
# From -- ./inp_files/7875.got.cif
#   From: 2010.03.12/outbox.cif.g09.slc.cpg/sg35_4_cif.got.tgz:7875.got - 2010.04.14 02:02:04.
