data_PCOD8173371
_publ_section_title
;
Structure prediction by ZEFSAII (Michael W. Deem and Ramdas Pophale) SiO2 
 PCOD8173371
Probable space group: C M M 2
;
_chemical_formula_sum "Si O2"
_cell_formula_units_Z 56
_cell_length_a 18.572694
_cell_length_b 8.833068
_cell_length_c 18.049931
_cell_angle_alpha 90.000000
_cell_angle_beta 90.000000
_cell_angle_gamma 90.000000
_cell_volume 2961.161017
_symmetry_space_group_name_H-M "C M M 2"
_symmetry_group_IT_number 35
_symmetry_cell_setting 'orthorhombic'
loop_
_space_group_symop_operation_xyz
x,y,z
-x,-y,z
-x,y,z
x,-y,z
1/2+x,1/2+y,z
1/2-x,1/2-y,z
1/2-x,1/2+y,z
1/2+x,1/2-y,z
loop_
_atom_site_type_symbol
_atom_site_label
_atom_site_fract_x
_atom_site_fract_y
_atom_site_fract_z
Si Si1 0.414431 0.667420 0.853840
Si Si2 0.672645 0.679395 0.417579
Si Si3 0.416047 0.174923 0.291110
Si Si4 0.580818 0.821780 0.708568
Si Si5 0.327174 0.822618 0.146007
Si Si6 0.327120 0.180788 0.570392
Si Si7 0.582045 0.680057 0.017341
O O1 0.500000 0.662616 0.851094
O O2 0.382213 0.500000 0.843733
O O3 0.383624 0.766776 0.785919
O O4 0.393067 0.732032 0.934741
O O5 0.681107 0.500000 0.425699
O O6 0.750000 0.750000 0.396964
O O7 0.615502 0.718262 0.354537
O O8 0.642601 0.750753 0.493834
O O9 0.500000 0.210158 0.282230
O O10 0.378297 0.218491 0.214451
O O11 0.402057 0.000000 0.311886
O O12 0.500000 0.758260 0.701181
O O13 0.623413 0.761570 0.637444
O O14 0.581776 0.000000 0.709872
O O15 0.250000 0.750000 0.160515
O O16 0.363038 0.758128 0.072483
O O17 0.316907 0.000000 0.136380
O O18 0.250000 0.250000 0.586854
O O19 0.323564 0.000000 0.564186
O O20 0.500000 0.733168 0.033607
O O21 0.587111 0.500000 0.024328
#
# Coordination Sequence:
#
# PCOD8173371 Si02
#       7
#     8   8   8   8   8   8   8
#     4   8  15  29  50  76 105 137 172 213 264 316
#     4  11  22  37  58  82 108 141 181 220 264 318
#     4  10  22  40  60  83 111 140 173 217 267 316
#     4   9  18  32  51  76 104 136 176 219 263 312
#     4  11  23  38  57  81 109 143 181 219 264 317
#     4  10  20  35  54  76 105 141 178 217 265 317
#     4   9  18  34  56  81 109 141 178 222 271 319
#
# _framework density 18.911501999999999
#
# number of rings (size 3 to 8) (size 9 to 14) (size 15 to 20)
#    0.000    2.286    0.000    4.714    0.000    5.714 
#    0.000    3.571    0.000    1.714    0.000    0.000 
#    0.000    0.000    0.000    0.000    0.000    0.000 
#
# Total GULP energy -347168.683567 kJ/mol
# GULP energy per Si atom -12398.881556 kJ/mol
# Density = 1.886846 g / cm^3
# Si number density = 18.911502 Si / 1000 Ang^3
#
#
#
# Elastic Constant Matrix: (Units=GPa)
#
#
# Indices 1 2 3 4 5 6 
#
# 1 85.9475 38.1353 70.5408 0.0000 0.0000 0.0000
# 2 38.1353 74.0760 56.9579 0.0000 0.0000 0.0000
# 3 70.5408 56.9579 166.3129 0.0000 0.0000 0.0000
# 4 0.0000 0.0000 0.0000 32.5743 0.0000 0.0000
# 5 0.0000 0.0000 0.0000 0.0000 11.0302 0.0000
# 6 0.0000 0.0000 0.0000 0.0000 0.0000 25.9590
#
#
#
# Elastic Compliance Matrix: (Units=1/GPa)
#
#
# Indices 1 2 3 4 5 6 
#
# 1 0.019067 -0.004884 -0.006414 0.000000 0.000000 0.000000
# 2 -0.004884 0.019576 -0.004633 0.000000 0.000000 0.000000
# 3 -0.006414 -0.004633 0.010320 0.000000 0.000000 0.000000
# 4 0.000000 0.000000 0.000000 0.030699 0.000000 0.000000
# 5 0.000000 0.000000 0.000000 0.000000 0.090660 0.000000
# 6 0.000000 0.000000 0.000000 0.000000 0.000000 0.038522
#
#
# Mechanical properties :
#
#
# Convention : Reuss Voigt Hill
#
# Bulk Modulus (GPa) = 58.47702 73.06717 65.77209
# Shear Modulus (GPa) = 20.29165 24.62617 22.45891
#
# Velocity S-wave (km/s) = 3.27919 3.61249 3.44987
# Velocity P-wave (km/s) = 6.73246 7.49135 7.12202
#
# Compressibility (1/GPa) = 0.01710073
#
# Stress axis : x y z
#
# Youngs Moduli (GPa) = 52.44800 51.08269 96.89811
#
# Poissons Ratio (x) = 0.24946 0.62155
# Poissons Ratio (y) = 0.25613 0.44893
# Poissons Ratio (z) = 0.33643 0.23667
#
# Static dielectric constant tensor:
#      x y z
#    x 3.359610 0.000000 0.000000 
#    y 0.000000 3.452850 0.000000 
#    z 0.000000 0.000000 3.834450 
# 
# 
# High freq. dielectric constant tensor:
#      x y z
#    x 1.715070 0.000000 0.000000 
#    y 0.000000 1.732770 0.000000 
#    z 0.000000 0.000000 1.753690 
# 
# From -- ./inp_files/17410.got.cif
#   From: 2010.03.12/outbox.cif.g09.slc.cpg/sg35_9_cif.got.tgz:17410.got - 2010.04.14 02:02:04.
