data_PCOD8173483
_publ_section_title
;
Structure prediction by ZEFSAII (Michael W. Deem and Ramdas Pophale) SiO2 
 PCOD8173483
Probable space group: C M M 2
;
_chemical_formula_sum "Si O2"
_cell_formula_units_Z 48
_cell_length_a 8.802457
_cell_length_b 18.083319
_cell_length_c 15.456106
_cell_angle_alpha 90.000000
_cell_angle_beta 90.000000
_cell_angle_gamma 90.000000
_cell_volume 2460.266444
_symmetry_space_group_name_H-M "C M M 2"
_symmetry_group_IT_number 35
_symmetry_cell_setting 'orthorhombic'
loop_
_space_group_symop_operation_xyz
x,y,z
-x,-y,z
-x,y,z
x,-y,z
1/2+x,1/2+y,z
1/2-x,1/2-y,z
1/2-x,1/2+y,z
1/2+x,1/2-y,z
loop_
_atom_site_type_symbol
_atom_site_label
_atom_site_fract_x
_atom_site_fract_y
_atom_site_fract_z
Si Si1 0.178492 0.829322 0.592220
Si Si2 0.678853 0.085156 0.433726
Si Si3 0.174201 0.086357 0.765594
Si Si4 0.322588 0.330750 0.279882
Si Si5 0.823937 0.170546 0.088190
Si Si6 0.321689 0.830715 0.919662
O O1 0.250000 0.750000 0.608170
O O2 0.247208 0.865856 0.507557
O O3 0.220752 0.879056 0.674204
O O4 0.000000 0.821212 0.578823
O O5 0.500000 0.097272 0.434905
O O6 0.743145 0.110735 0.341825
O O7 0.723419 0.000000 0.448267
O O8 0.282313 0.118088 0.839106
O O9 0.000000 0.104975 0.788734
O O10 0.203245 0.000000 0.757802
O O11 0.500000 0.323302 0.301970
O O12 0.250000 0.250000 0.290947
O O13 0.299124 0.364883 0.183053
O O14 0.750000 0.250000 0.092873
O O15 0.000000 0.177119 0.065294
O O16 0.741850 0.129417 0.007643
O O17 0.500000 0.821924 0.927033
O O18 0.250000 0.750000 0.906203
#
# Coordination Sequence:
#
# PCOD8173483 Si02
#       6
#     8   8   8   8   8   8
#     4  11  23  40  63  88 113 144 184 229 276 329
#     4  11  24  40  58  82 114 150 186 229 280 331
#     4  10  22  40  60  83 113 148 185 228 279 332
#     4  10  20  35  58  85 113 147 188 233 279 330
#     4   9  17  31  53  81 111 145 186 233 281 326
#     4  11  21  34  56  84 114 149 189 233 279 329
#
# _framework density 19.510081
#
# number of rings (size 3 to 8) (size 9 to 14) (size 15 to 20)
#    0.000    1.667    0.000    6.000    0.000    7.000 
#    0.000    0.833    0.000    1.000    0.000    0.000 
#    0.000    0.000    0.000    0.000    0.000    0.000 
#
# Total GULP energy -297595.737515 kJ/mol
# GULP energy per Si atom -12399.822396 kJ/mol
# Density = 1.946568 g / cm^3
# Si number density = 19.510081 Si / 1000 Ang^3
#
#
#
# Elastic Constant Matrix: (Units=GPa)
#
#
# Indices 1 2 3 4 5 6 
#
# 1 127.7199 45.6395 63.6405 0.0000 0.0000 0.0000
# 2 45.6395 80.6689 42.7300 0.0000 0.0000 0.0000
# 3 63.6405 42.7300 136.7219 0.0000 0.0000 0.0000
# 4 0.0000 0.0000 0.0000 -5.9528 0.0000 0.0000
# 5 0.0000 0.0000 0.0000 0.0000 26.9458 0.0000
# 6 0.0000 0.0000 0.0000 0.0000 0.0000 24.5860
#
#
#
# Elastic Compliance Matrix: (Units=1/GPa)
#
#
# Indices 1 2 3 4 5 6 
#
# 1 0.011332 -0.004335 -0.003920 0.000000 0.000000 0.000000
# 2 -0.004335 0.016514 -0.003143 0.000000 0.000000 0.000000
# 3 -0.003920 -0.003143 0.010121 0.000000 0.000000 0.000000
# 4 0.000000 0.000000 0.000000 -0.167988 0.000000 0.000000
# 5 0.000000 0.000000 0.000000 0.000000 0.037112 0.000000
# 6 0.000000 0.000000 0.000000 0.000000 0.000000 0.040674
#
#
# Mechanical properties :
#
#
# Convention : Reuss Voigt Hill
#
# Bulk Modulus (GPa) = 65.91664 72.12563 69.02114
# Shear Modulus (GPa) = -205.06114 21.98918 -91.53598
#
# Velocity S-wave (km/s) = -10.26321 3.36082 -6.85705
# Velocity P-wave (km/s) = 10.32401 7.21864 5.21902
#
# Compressibility (1/GPa) = 0.01517068
#
# Stress axis : x y z
#
# Youngs Moduli (GPa) = 88.24683 60.55523 98.80304
#
# Poissons Ratio (x) = 0.26249 0.38730
# Poissons Ratio (y) = 0.38253 0.31058
# Poissons Ratio (z) = 0.34592 0.19035
#
# Static dielectric constant tensor:
#      x y z
#    x 3.717430 0.000000 0.000000 
#    y 0.000000 3.345270 0.000000 
#    z 0.000000 0.000000 4.224740 
# 
# 
# High freq. dielectric constant tensor:
#      x y z
#    x 1.774850 0.000000 0.000000 
#    y 0.000000 1.735480 0.000000 
#    z 0.000000 0.000000 1.784890 
# 
# From -- ./inp_files/15130.got.cif
#   From: 2010.03.12/outbox.cif.g09.slc.cpg/sg35_8_cif.got.tgz:15130.got - 2010.04.14 02:02:04.
