data_PCOD8173783
_publ_section_title
;
Structure prediction by ZEFSAII (Michael W. Deem and Ramdas Pophale) SiO2 
 PCOD8173783
Probable space group: C M M 2
;
_chemical_formula_sum "Si O2"
_cell_formula_units_Z 40
_cell_length_a 9.169225
_cell_length_b 18.067977
_cell_length_c 12.794117
_cell_angle_alpha 90.000000
_cell_angle_beta 90.000000
_cell_angle_gamma 90.000000
_cell_volume 2119.593001
_symmetry_space_group_name_H-M "C M M 2"
_symmetry_group_IT_number 35
_symmetry_cell_setting 'orthorhombic'
loop_
_space_group_symop_operation_xyz
x,y,z
-x,-y,z
-x,y,z
x,-y,z
1/2+x,1/2+y,z
1/2-x,1/2-y,z
1/2-x,1/2+y,z
1/2+x,1/2-y,z
loop_
_atom_site_type_symbol
_atom_site_label
_atom_site_fract_x
_atom_site_fract_y
_atom_site_fract_z
Si Si1 0.666981 0.086676 0.799080
Si Si2 0.670337 0.415317 0.415759
Si Si3 0.327482 0.671941 0.621532
Si Si4 0.828244 0.584642 0.208511
Si Si5 0.829673 0.326645 0.007436
O O1 0.500000 0.105006 0.768110
O O2 0.775934 0.118961 0.713848
O O3 0.693776 0.000000 0.807181
O O4 0.706716 0.120432 0.910982
O O5 0.500000 0.408436 0.393784
O O6 0.714684 0.500000 0.440604
O O7 0.719195 0.365065 0.512512
O O8 0.753444 0.385402 0.313804
O O9 0.500000 0.682620 0.629868
O O10 0.250000 0.750000 0.632842
O O11 0.781899 0.500000 0.187097
O O12 0.771677 0.633772 0.112250
O O13 0.000000 0.591603 0.222840
O O14 0.750000 0.250000 0.989771
O O15 0.000000 0.310687 0.016352
#
# Coordination Sequence:
#
# PCOD8173783 Si02
#       5
#     8   8   8   8   8
#     4  10  21  38  60  83 108 141 181 224 271 325
#     4   9  19  36  56  78 106 140 178 222 270 318
#     4  11  23  38  56  80 112 146 181 224 273 323
#     4   9  18  34  56  79 104 138 180 222 263 313
#     4  10  21  36  54  79 111 143 176 218 268 319
#
# _framework density 18.871548000000001
#
# number of rings (size 3 to 8) (size 9 to 14) (size 15 to 20)
#    0.000    2.200    0.000    2.400    0.000    9.200 
#    0.000    6.000    0.000    3.600    0.000    0.000 
#    0.000    0.000    0.000    0.000    0.000    0.000 
#
# Total GULP energy -248081.031986 kJ/mol
# GULP energy per Si atom -12404.051599 kJ/mol
# Density = 1.882860 g / cm^3
# Si number density = 18.871548 Si / 1000 Ang^3
#
#
#
# Elastic Constant Matrix: (Units=GPa)
#
#
# Indices 1 2 3 4 5 6 
#
# 1 53.7482 44.4882 59.1560 0.0000 0.0000 0.0000
# 2 44.4882 116.9918 72.4605 0.0000 0.0000 0.0000
# 3 59.1560 72.4605 152.7407 0.0000 0.0000 0.0000
# 4 0.0000 0.0000 0.0000 -180.9200 0.0000 0.0000
# 5 0.0000 0.0000 0.0000 0.0000 40.3490 0.0000
# 6 0.0000 0.0000 0.0000 0.0000 0.0000 24.3626
#
#
#
# Elastic Compliance Matrix: (Units=1/GPa)
#
#
# Indices 1 2 3 4 5 6 
#
# 1 0.036269 -0.007210 -0.010626 0.000000 0.000000 0.000000
# 2 -0.007210 0.013538 -0.003630 0.000000 0.000000 0.000000
# 3 -0.010626 -0.003630 0.012384 0.000000 0.000000 0.000000
# 4 0.000000 0.000000 0.000000 -0.005527 0.000000 0.000000
# 5 0.000000 0.000000 0.000000 0.000000 0.024784 0.000000
# 6 0.000000 0.000000 0.000000 0.000000 0.000000 0.041047
#
#
# Mechanical properties :
#
#
# Convention : Reuss Voigt Hill
#
# Bulk Modulus (GPa) = 51.92564 75.07667 63.50116
# Shear Modulus (GPa) = 29.09592 -13.41661 7.83965
#
# Velocity S-wave (km/s) = 3.93082 -2.66925 2.04040
# Velocity P-wave (km/s) = 6.94095 5.51086 6.26683
#
# Compressibility (1/GPa) = 0.01925831
#
# Stress axis : x y z
#
# Youngs Moduli (GPa) = 27.57205 73.86844 80.74638
#
# Poissons Ratio (x) = 0.53262 0.85802
# Poissons Ratio (y) = 0.19880 0.29309
# Poissons Ratio (z) = 0.29298 0.26812
#
# Static dielectric constant tensor:
#      x y z
#    x 3.380740 0.000000 0.000000 
#    y 0.000000 3.494800 0.000000 
#    z 0.000000 0.000000 3.643340 
# 
# 
# High freq. dielectric constant tensor:
#      x y z
#    x 1.726320 0.000000 0.000000 
#    y 0.000000 1.738050 0.000000 
#    z 0.000000 0.000000 1.747610 
# 
# From -- ./inp_files/5891.got.cif
#   From: 2010.03.12/outbox.cif.g09.slc.cpg/sg35_3_cif.got.tgz:5891.got - 2010.04.14 02:02:04.
