data_PCOD8173609
_publ_section_title
;
Structure prediction by ZEFSAII (Michael W. Deem and Ramdas Pophale) SiO2 
 PCOD8173609
Probable space group: C M M 2
;
_chemical_formula_sum "Si O2"
_cell_formula_units_Z 44
_cell_length_a 9.647661
_cell_length_b 15.004540
_cell_length_c 15.732073
_cell_angle_alpha 90.000000
_cell_angle_beta 90.000000
_cell_angle_gamma 90.000000
_cell_volume 2277.354678
_symmetry_space_group_name_H-M "C M M 2"
_symmetry_group_IT_number 35
_symmetry_cell_setting 'orthorhombic'
loop_
_space_group_symop_operation_xyz
x,y,z
-x,-y,z
-x,y,z
x,-y,z
1/2+x,1/2+y,z
1/2-x,1/2-y,z
1/2-x,1/2+y,z
1/2+x,1/2-y,z
loop_
_atom_site_type_symbol
_atom_site_label
_atom_site_fract_x
_atom_site_fract_y
_atom_site_fract_z
Si Si1 0.163704 0.829868 0.164740
Si Si2 0.340350 0.500000 0.053566
Si Si3 0.000000 0.705565 0.636998
Si Si4 0.847006 0.601285 0.303692
Si Si5 0.648911 0.000000 0.893912
Si Si6 0.274800 0.152899 0.770881
Si Si7 0.000000 0.602140 0.464880
Si Si8 0.500000 0.599063 0.687005
O O1 0.250000 0.750000 0.120907
O O2 0.199930 0.914645 0.108337
O O3 0.227394 0.840087 0.259981
O O4 0.000000 0.810896 0.171377
O O5 0.500000 0.500000 0.030177
O O6 0.266616 0.500000 0.963647
O O7 0.865418 0.669888 0.686190
O O8 0.000000 0.813779 0.625996
O O9 0.000000 0.668922 0.542423
O O10 0.802361 0.500000 0.288945
O O11 0.000000 0.619064 0.261573
O O12 0.863166 0.619228 0.405550
O O13 0.650954 0.910964 0.837233
O O14 0.500000 0.000000 0.940255
O O15 0.250000 0.250000 0.813944
O O16 0.133160 0.104101 0.747036
O O17 0.000000 0.500000 0.497820
O O18 0.500000 0.500000 0.641807
#
# Coordination Sequence:
#
# PCOD8173609 Si02
#       8
#     8   4   4   8   4   8   4   4
#     4  11  22  40  66  95 124 166 208 250 310 382
#     4  10  26  44  62  92 128 161 201 253 317 366
#     4  10  20  38  62  88 128 156 220 260 291 373
#     4   8  16  34  60  92 120 156 212 241 312 369
#     4  12  24  40  62  94 120 157 207 263 305 368
#     4  10  22  38  60  89 119 166 208 251 309 364
#     4   8  18  32  62  96 121 166 199 258 314 356
#     4  10  20  36  60  88 113 170 209 250 311 359
#
# _framework density 19.320663
#
# number of rings (size 3 to 8) (size 9 to 14) (size 15 to 20)
#    0.545    1.636    2.727    0.545    2.545    2.182 
#    0.000    4.545    2.000    0.000    2.364    0.000 
#    0.000    0.000    0.000    0.000    0.000    0.000 
#
# Total GULP energy -272572.974372 kJ/mol
# GULP energy per Si atom -12389.680653 kJ/mol
# Density = 1.927669 g / cm^3
# Si number density = 19.320663 Si / 1000 Ang^3
#
#
#
# Elastic Constant Matrix: (Units=GPa)
#
#
# Indices 1 2 3 4 5 6 
#
# 1 107.7230 52.3626 39.1007 0.0000 0.0000 0.0000
# 2 52.3626 157.4129 63.6594 0.0000 0.0000 0.0000
# 3 39.1007 63.6594 94.0335 0.0000 0.0000 0.0000
# 4 0.0000 0.0000 0.0000 4.5469 0.0000 0.0000
# 5 0.0000 0.0000 0.0000 0.0000 24.7688 0.0000
# 6 0.0000 0.0000 0.0000 0.0000 0.0000 24.7225
#
#
#
# Elastic Compliance Matrix: (Units=1/GPa)
#
#
# Indices 1 2 3 4 5 6 
#
# 1 0.011682 -0.002646 -0.003066 0.000000 0.000000 0.000000
# 2 -0.002646 0.009347 -0.005228 0.000000 0.000000 0.000000
# 3 -0.003066 -0.005228 0.015449 0.000000 0.000000 0.000000
# 4 0.000000 0.000000 0.000000 0.219929 0.000000 0.000000
# 5 0.000000 0.000000 0.000000 0.000000 0.040373 0.000000
# 6 0.000000 0.000000 0.000000 0.000000 0.000000 0.040449
#
#
# Mechanical properties :
#
#
# Convention : Reuss Voigt Hill
#
# Bulk Modulus (GPa) = 68.50267 74.37942 71.44105
# Shear Modulus (GPa) = 13.73721 24.41075 19.07398
#
# Velocity S-wave (km/s) = 2.66937 3.55836 3.14543
# Velocity P-wave (km/s) = 6.71069 7.44738 7.08861
#
# Compressibility (1/GPa) = 0.01459797
#
# Stress axis : x y z
#
# Youngs Moduli (GPa) = 85.59991 106.98688 64.73105
#
# Poissons Ratio (x) = 0.28308 0.19849
# Poissons Ratio (y) = 0.22649 0.33838
# Poissons Ratio (z) = 0.26248 0.55928
#
# Static dielectric constant tensor:
#      x y z
#    x 3.547740 0.000000 0.000000 
#    y 0.000000 3.759250 0.000000 
#    z 0.000000 0.000000 3.102490 
# 
# 
# High freq. dielectric constant tensor:
#      x y z
#    x 1.755970 0.000000 0.000000 
#    y 0.000000 1.770830 0.000000 
#    z 0.000000 0.000000 1.714450 
# 
# From -- ./inp_files/17812.got.cif
#   From: 2010.03.12/outbox.cif.g09.slc.cpg/sg35_9_cif.got.tgz:17812.got - 2010.04.14 02:02:04.
