data_PCOD8173869
_publ_section_title
;
Structure prediction by ZEFSAII (Michael W. Deem and Ramdas Pophale) SiO2 
 PCOD8173869
Probable space group: C M M 2
;
_chemical_formula_sum "Si O2"
_cell_formula_units_Z 64
_cell_length_a 17.434964
_cell_length_b 18.004222
_cell_length_c 9.341014
_cell_angle_alpha 90.000000
_cell_angle_beta 90.000000
_cell_angle_gamma 90.000000
_cell_volume 2932.171967
_symmetry_space_group_name_H-M "C M M 2"
_symmetry_group_IT_number 35
_symmetry_cell_setting 'orthorhombic'
loop_
_space_group_symop_operation_xyz
x,y,z
-x,-y,z
-x,y,z
x,-y,z
1/2+x,1/2+y,z
1/2-x,1/2-y,z
1/2-x,1/2+y,z
1/2+x,1/2-y,z
loop_
_atom_site_type_symbol
_atom_site_label
_atom_site_fract_x
_atom_site_fract_y
_atom_site_fract_z
Si Si1 0.586456 0.084806 0.465400
Si Si2 0.781971 0.414386 0.255455
Si Si3 0.689539 0.312549 0.454332
Si Si4 0.910346 0.786984 0.195361
Si Si5 0.909273 0.917471 0.996664
Si Si6 0.413841 0.662510 0.714704
Si Si7 0.413755 0.835838 0.750484
Si Si8 0.312873 0.811589 0.001406
O O1 0.500000 0.107530 0.427003
O O2 0.632680 0.096654 0.318869
O O3 0.616702 0.135710 0.596697
O O4 0.592947 0.000000 0.518462
O O5 0.762363 0.500000 0.227027
O O6 0.726388 0.382483 0.376131
O O7 0.771828 0.370174 0.106769
O O8 0.750000 0.250000 0.505995
O O9 0.631680 0.271460 0.345173
O O10 0.643561 0.349338 0.583898
O O11 0.000000 0.779087 0.221289
O O12 0.887277 0.868666 0.135165
O O13 0.884167 0.726326 0.081165
O O14 0.877749 0.881729 0.849320
O O15 0.000000 0.919139 0.981134
O O16 0.875126 0.000000 0.017812
O O17 0.500000 0.634427 0.675036
O O18 0.417759 0.747865 0.755806
O O19 0.500000 0.868371 0.780433
O O20 0.349906 0.857633 0.869155
O O21 0.250000 0.750000 0.953399
#
# Coordination Sequence:
#
# PCOD8173869 Si02
#       8
#     8   8   8   8   8   8   8   8
#     4   9  20  40  63  88 120 160 206 254 303 359
#     4  11  24  42  61  86 126 166 203 250 308 367
#     4  12  23  41  59  89 124 162 203 255 306 356
#     4  11  21  39  65  91 119 158 207 252 302 361
#     4   9  19  38  62  89 122 155 193 246 303 359
#     4  10  21  38  62  91 118 155 205 252 300 360
#     4  10  21  37  62  92 120 154 201 255 304 359
#     4  12  23  41  60  90 124 160 199 252 307 360
#
# _framework density 21.826823000000001
#
# number of rings (size 3 to 8) (size 9 to 14) (size 15 to 20)
#    0.000    1.500    3.750    1.500    0.000    4.000 
#    0.000    0.000    0.000    3.750    0.000    0.000 
#    0.000    0.000    0.000    0.000    0.000    0.000 
#
# Total GULP energy -396829.165955 kJ/mol
# GULP energy per Si atom -12400.911436 kJ/mol
# Density = 2.177714 g / cm^3
# Si number density = 21.826823 Si / 1000 Ang^3
#
#
#
# Elastic Constant Matrix: (Units=GPa)
#
#
# Indices 1 2 3 4 5 6 
#
# 1 77.0580 1.2445 22.2844 0.0000 0.0000 0.0000
# 2 1.2445 63.0126 -4.9738 0.0000 0.0000 0.0000
# 3 22.2844 -4.9738 76.8219 0.0000 0.0000 0.0000
# 4 0.0000 0.0000 0.0000 29.2024 0.0000 0.0000
# 5 0.0000 0.0000 0.0000 0.0000 35.6199 0.0000
# 6 0.0000 0.0000 0.0000 0.0000 0.0000 24.4648
#
#
#
# Elastic Compliance Matrix: (Units=1/GPa)
#
#
# Indices 1 2 3 4 5 6 
#
# 1 0.014189 -0.000608 -0.004155 0.000000 0.000000 0.000000
# 2 -0.000608 0.015977 0.001211 0.000000 0.000000 0.000000
# 3 -0.004155 0.001211 0.014301 0.000000 0.000000 0.000000
# 4 0.000000 0.000000 0.000000 0.034244 0.000000 0.000000
# 5 0.000000 0.000000 0.000000 0.000000 0.028074 0.000000
# 6 0.000000 0.000000 0.000000 0.000000 0.000000 0.040875
#
#
# Mechanical properties :
#
#
# Convention : Reuss Voigt Hill
#
# Bulk Modulus (GPa) = 26.76524 28.22252 27.49388
# Shear Modulus (GPa) = 29.90090 31.07992 30.49041
#
# Velocity S-wave (km/s) = 3.70525 3.77760 3.74160
# Velocity P-wave (km/s) = 5.53122 5.65555 5.59373
#
# Compressibility (1/GPa) = 0.03736190
#
# Stress axis : x y z
#
# Youngs Moduli (GPa) = 70.47862 62.58828 69.92587
#
# Poissons Ratio (x) = 0.03807 0.29056
# Poissons Ratio (y) = 0.04287 -0.08467
# Poissons Ratio (z) = 0.29285 -0.07579
#
# Static dielectric constant tensor:
#      x y z
#    x 4.068650 0.000000 0.000000 
#    y 0.000000 3.927260 0.000000 
#    z 0.000000 0.000000 3.909590 
# 
# 
# High freq. dielectric constant tensor:
#      x y z
#    x 1.866200 0.000000 0.000000 
#    y 0.000000 1.841920 0.000000 
#    z 0.000000 0.000000 1.853180 
# 
# From -- ./inp_files/8764.got.cif
#   From: 2010.03.12/outbox.cif.g09.slc.cpg/sg35_5_cif.got.tgz:8764.got - 2010.04.14 02:02:04.
