data_PCOD8173670
_publ_section_title
;
Structure prediction by ZEFSAII (Michael W. Deem and Ramdas Pophale) SiO2 
 PCOD8173670
Probable space group: C M M 2
;
_chemical_formula_sum "Si O2"
_cell_formula_units_Z 64
_cell_length_a 8.850595
_cell_length_b 30.476222
_cell_length_c 11.835714
_cell_angle_alpha 90.000000
_cell_angle_beta 90.000000
_cell_angle_gamma 90.000000
_cell_volume 3192.479071
_symmetry_space_group_name_H-M "C M M 2"
_symmetry_group_IT_number 35
_symmetry_cell_setting 'orthorhombic'
loop_
_space_group_symop_operation_xyz
x,y,z
-x,-y,z
-x,y,z
x,-y,z
1/2+x,1/2+y,z
1/2-x,1/2-y,z
1/2-x,1/2+y,z
1/2+x,1/2-y,z
loop_
_atom_site_type_symbol
_atom_site_label
_atom_site_fract_x
_atom_site_fract_y
_atom_site_fract_z
Si Si1 0.677994 0.205030 0.598960
Si Si2 0.675272 0.874578 0.198024
Si Si3 0.822562 0.205780 0.071944
Si Si4 0.674133 0.821275 0.847720
Si Si5 0.676200 0.120698 0.461613
Si Si6 0.827468 0.950238 0.065049
Si Si7 0.673462 0.550302 0.611107
Si Si8 0.674075 0.075471 0.841845
O O1 0.500000 0.209368 0.590506
O O2 0.750000 0.250000 0.553772
O O3 0.730606 0.196016 0.726885
O O4 0.734751 0.165108 0.521091
O O5 0.500000 0.867158 0.170793
O O6 0.767329 0.835411 0.142953
O O7 0.709358 0.875209 0.329934
O O8 0.724459 0.920658 0.145128
O O9 0.750000 0.250000 0.123027
O O10 0.000000 0.209430 0.082429
O O11 0.776996 0.201565 0.941085
O O12 0.500000 0.808862 0.869868
O O13 0.698019 0.872967 0.853651
O O14 0.500000 0.113009 0.488112
O O15 0.769516 0.079553 0.507326
O O16 0.000000 0.933693 0.070513
O O17 0.813941 0.000000 0.108777
O O18 0.772635 0.948602 0.936013
O O19 0.500000 0.561648 0.638664
O O20 0.692187 0.500000 0.573638
O O21 0.773792 0.559572 0.720117
O O22 0.500000 0.062409 0.857796
#
# Coordination Sequence:
#
# PCOD8173670 Si02
#       8
#     8   8   8   8   8   8   8   8
#     4  10  21  39  61  89 122 154 193 242 298 356
#     4  11  24  43  66  90 120 160 211 262 311 368
#     4  12  25  41  64  92 127 164 205 253 308 371
#     4  10  20  37  62  91 125 159 199 250 305 367
#     4  10  23  44  65  87 119 161 208 258 305 360
#     4  11  24  41  62  91 127 163 201 251 312 374
#     4  11  24  40  61  92 128 163 203 253 308 367
#     4  11  21  37  64  93 125 163 202 249 306 367
#
# _framework density 20.047117
#
# number of rings (size 3 to 8) (size 9 to 14) (size 15 to 20)
#    0.000    1.250    2.500    3.375    0.000    8.000 
#    0.000    3.750    0.000    0.000    0.000    0.000 
#    0.000    0.000    0.000    0.000    0.000    0.000 
#
# Total GULP energy -397011.122621 kJ/mol
# GULP energy per Si atom -12406.597582 kJ/mol
# Density = 2.000149 g / cm^3
# Si number density = 20.047117 Si / 1000 Ang^3
#
#
#
# Elastic Constant Matrix: (Units=GPa)
#
#
# Indices 1 2 3 4 5 6 
#
# 1 94.8065 53.6154 46.0799 0.0000 0.0000 0.0000
# 2 53.6154 116.6300 46.0452 0.0000 0.0000 0.0000
# 3 46.0799 46.0452 103.3560 0.0000 0.0000 0.0000
# 4 0.0000 0.0000 0.0000 4.6161 0.0000 0.0000
# 5 0.0000 0.0000 0.0000 0.0000 22.5932 0.0000
# 6 0.0000 0.0000 0.0000 0.0000 0.0000 35.2794
#
#
#
# Elastic Compliance Matrix: (Units=1/GPa)
#
#
# Indices 1 2 3 4 5 6 
#
# 1 0.015905 -0.005475 -0.004652 0.000000 0.000000 0.000000
# 2 -0.005475 0.012289 -0.003034 0.000000 0.000000 0.000000
# 3 -0.004652 -0.003034 0.013101 0.000000 0.000000 0.000000
# 4 0.000000 0.000000 0.000000 0.216633 0.000000 0.000000
# 5 0.000000 0.000000 0.000000 0.000000 0.044261 0.000000
# 6 0.000000 0.000000 0.000000 0.000000 0.000000 0.028345
#
#
# Mechanical properties :
#
#
# Convention : Reuss Voigt Hill
#
# Bulk Modulus (GPa) = 66.78548 67.36370 67.07459
# Shear Modulus (GPa) = 13.81802 23.76788 18.79295
#
# Velocity S-wave (km/s) = 2.62826 3.44699 3.06508
# Velocity P-wave (km/s) = 6.52663 7.03690 6.78656
#
# Compressibility (1/GPa) = 0.01497331
#
# Stress axis : x y z
#
# Youngs Moduli (GPa) = 62.87282 81.37537 76.33127
#
# Poissons Ratio (x) = 0.44554 0.35509
# Poissons Ratio (y) = 0.34423 0.23156
# Poissons Ratio (z) = 0.29248 0.24686
#
# Static dielectric constant tensor:
#      x y z
#    x 3.778800 0.000000 0.000000 
#    y 0.000000 3.779720 0.000000 
#    z 0.000000 0.000000 3.625830 
# 
# 
# High freq. dielectric constant tensor:
#      x y z
#    x 1.786330 0.000000 0.000000 
#    y 0.000000 1.798580 0.000000 
#    z 0.000000 0.000000 1.778530 
# 
# From -- ./inp_files/12014.got.cif
#   From: 2010.03.12/outbox.cif.g09.slc.cpg/sg35_7_cif.got.tgz:12014.got - 2010.04.14 02:02:04.
