data_PCOD8173413
_publ_section_title
;
Structure prediction by ZEFSAII (Michael W. Deem and Ramdas Pophale) SiO2 
 PCOD8173413
Probable space group: C M M 2
;
_chemical_formula_sum "Si O2"
_cell_formula_units_Z 48
_cell_length_a 15.969155
_cell_length_b 9.304441
_cell_length_c 16.985760
_cell_angle_alpha 90.000000
_cell_angle_beta 90.000000
_cell_angle_gamma 90.000000
_cell_volume 2523.813192
_symmetry_space_group_name_H-M "C M M 2"
_symmetry_group_IT_number 35
_symmetry_cell_setting 'orthorhombic'
loop_
_space_group_symop_operation_xyz
x,y,z
-x,-y,z
-x,y,z
x,-y,z
1/2+x,1/2+y,z
1/2-x,1/2-y,z
1/2-x,1/2+y,z
1/2+x,1/2-y,z
loop_
_atom_site_type_symbol
_atom_site_label
_atom_site_fract_x
_atom_site_fract_y
_atom_site_fract_z
Si Si1 0.500000 0.830085 0.365101
Si Si2 0.594217 0.343526 0.771030
Si Si3 0.500000 0.671050 0.201009
Si Si4 0.831996 0.164752 0.930795
Si Si5 0.334019 0.167513 0.459816
Si Si6 0.332757 0.831819 0.640545
Si Si7 0.838141 0.833570 0.103689
O O1 0.500000 0.743770 0.285390
O O2 0.583895 0.784064 0.412151
O O3 0.500000 0.000000 0.349919
O O4 0.500000 0.377479 0.788705
O O5 0.637267 0.500000 0.752060
O O6 0.625350 0.270679 0.852647
O O7 0.598002 0.232387 0.698621
O O8 0.500000 0.500000 0.209196
O O9 0.585888 0.722799 0.158631
O O10 0.750000 0.250000 0.947175
O O11 0.812546 0.000000 0.912871
O O12 0.877898 0.182447 0.015277
O O13 0.250000 0.250000 0.431464
O O14 0.354768 0.204362 0.550513
O O15 0.315070 0.000000 0.448683
O O16 0.250000 0.750000 0.668054
O O17 0.323134 0.000000 0.654325
O O18 0.750000 0.750000 0.118813
O O19 0.817524 0.000000 0.121177
#
# Coordination Sequence:
#
# PCOD8173413 Si02
#       7
#     4   8   4   8   8   8   8
#     4  10  22  40  60  83 112 146 178 219 276 334
#     4  10  21  33  48  76 110 143 182 224 267 315
#     4  10  22  38  58  85 112 142 180 223 272 332
#     4   9  18  33  53  74 101 140 181 221 265 314
#     4   9  20  38  60  83 110 145 185 225 272 328
#     4  10  20  35  56  77 104 141 182 224 270 321
#     4   9  19  36  58  82 110 145 185 225 271 324
#
# _framework density 19.018840000000001
#
# number of rings (size 3 to 8) (size 9 to 14) (size 15 to 20)
#    0.000    2.500    0.000    1.000    2.333    5.000 
#    0.000    3.333    0.000    0.000    0.000    0.000 
#    0.000    0.000    0.000    0.000    0.000    0.000 
#
# Total GULP energy -297328.742366 kJ/mol
# GULP energy per Si atom -12388.697599 kJ/mol
# Density = 1.897555 g / cm^3
# Si number density = 19.018840 Si / 1000 Ang^3
#
#
#
# Elastic Constant Matrix: (Units=GPa)
#
#
# Indices 1 2 3 4 5 6 
#
# 1 111.0984 35.4149 64.7128 0.0000 0.0000 0.0000
# 2 35.4149 53.3453 46.9476 0.0000 0.0000 0.0000
# 3 64.7128 46.9476 125.8125 0.0000 0.0000 0.0000
# 4 0.0000 0.0000 0.0000 30.9302 0.0000 0.0000
# 5 0.0000 0.0000 0.0000 0.0000 35.7753 0.0000
# 6 0.0000 0.0000 0.0000 0.0000 0.0000 25.7667
#
#
#
# Elastic Compliance Matrix: (Units=1/GPa)
#
#
# Indices 1 2 3 4 5 6 
#
# 1 0.013464 -0.004234 -0.005345 0.000000 0.000000 0.000000
# 2 -0.004234 0.029244 -0.008735 0.000000 0.000000 0.000000
# 3 -0.005345 -0.008735 0.013957 0.000000 0.000000 0.000000
# 4 0.000000 0.000000 0.000000 0.032331 0.000000 0.000000
# 5 0.000000 0.000000 0.000000 0.000000 0.027952 0.000000
# 6 0.000000 0.000000 0.000000 0.000000 0.000000 0.038810
#
#
# Mechanical properties :
#
#
# Convention : Reuss Voigt Hill
#
# Bulk Modulus (GPa) = 49.90828 64.93408 57.42118
# Shear Modulus (GPa) = 25.11728 28.03984 26.57856
#
# Velocity S-wave (km/s) = 3.63802 3.84385 3.74235
# Velocity P-wave (km/s) = 6.62913 7.34278 6.99506
#
# Compressibility (1/GPa) = 0.02003676
#
# Stress axis : x y z
#
# Youngs Moduli (GPa) = 74.26940 34.19515 71.64780
#
# Poissons Ratio (x) = 0.14480 0.38299
# Poissons Ratio (y) = 0.31449 0.62581
# Poissons Ratio (z) = 0.39701 0.29868
#
# Static dielectric constant tensor:
#      x y z
#    x 3.430080 0.000000 0.000000 
#    y 0.000000 3.379640 0.000000 
#    z 0.000000 0.000000 3.635720 
# 
# 
# High freq. dielectric constant tensor:
#      x y z
#    x 1.732760 0.000000 0.000000 
#    y 0.000000 1.731850 0.000000 
#    z 0.000000 0.000000 1.747600 
# 
# From -- ./inp_files/15178.got.cif
#   From: 2010.03.12/outbox.cif.g09.slc.cpg/sg35_8_cif.got.tgz:15178.got - 2010.04.14 02:02:04.
