data_PCOD8173477
_publ_section_title
;
Structure prediction by ZEFSAII (Michael W. Deem and Ramdas Pophale) SiO2 
 PCOD8173477
Probable space group: C M M 2
;
_chemical_formula_sum "Si O2"
_cell_formula_units_Z 56
_cell_length_a 14.580562
_cell_length_b 13.797031
_cell_length_c 13.107730
_cell_angle_alpha 90.000000
_cell_angle_beta 90.000000
_cell_angle_gamma 90.000000
_cell_volume 2636.861936
_symmetry_space_group_name_H-M "C M M 2"
_symmetry_group_IT_number 35
_symmetry_cell_setting 'orthorhombic'
loop_
_space_group_symop_operation_xyz
x,y,z
-x,-y,z
-x,y,z
x,-y,z
1/2+x,1/2+y,z
1/2-x,1/2-y,z
1/2-x,1/2+y,z
1/2+x,1/2-y,z
loop_
_atom_site_type_symbol
_atom_site_label
_atom_site_fract_x
_atom_site_fract_y
_atom_site_fract_z
Si Si1 0.150101 0.227970 0.361990
Si Si2 0.603501 0.107742 0.505347
Si Si3 0.782654 0.386810 0.071206
Si Si4 0.395521 0.716642 0.144117
Si Si5 0.600647 0.108626 0.877543
Si Si6 0.896258 0.892586 0.547968
Si Si7 0.151569 0.726571 0.689942
O O1 0.250000 0.250000 0.319140
O O2 0.104701 0.325999 0.404853
O O3 0.095606 0.187792 0.263744
O O4 0.160791 0.148920 0.452318
O O5 0.500000 0.106297 0.548012
O O6 0.665556 0.151627 0.595792
O O7 0.637994 0.000000 0.477606
O O8 0.790903 0.500000 0.099918
O O9 0.676059 0.353222 0.083104
O O10 0.853254 0.325623 0.141250
O O11 0.817589 0.366391 0.955846
O O12 0.500000 0.709659 0.098379
O O13 0.500000 0.115933 0.931285
O O14 0.595216 0.181411 0.782346
O O15 0.616510 0.000000 0.835277
O O16 0.893826 0.825212 0.648213
O O17 0.000000 0.895942 0.508469
O O18 0.860154 0.000000 0.576065
O O19 0.250000 0.750000 0.735788
#
# Coordination Sequence:
#
# PCOD8173477 Si02
#       7
#     8   8   8   8   8   8   8
#     4  11  21  37  57  86 124 163 205 253 309 371
#     4  10  20  35  57  86 119 157 204 257 310 367
#     4  10  23  43  66  96 126 160 214 270 322 382
#     4  11  23  42  67  94 130 170 213 265 325 383
#     4  10  21  40  67  93 119 156 202 259 324 383
#     4  10  21  37  57  83 119 164 210 251 298 366
#     4  11  22  34  57  87 123 159 200 248 308 374
#
# _framework density 21.237366000000002
#
# number of rings (size 3 to 8) (size 9 to 14) (size 15 to 20)
#    0.000    1.571    1.429    6.000    2.000    6.286 
#    0.000    0.000    0.000    0.000    0.000    0.000 
#    0.000    0.000    0.000    0.000    0.000    0.000 
#
# Total GULP energy -347053.388116 kJ/mol
# GULP energy per Si atom -12394.763861 kJ/mol
# Density = 2.118903 g / cm^3
# Si number density = 21.237366 Si / 1000 Ang^3
#
#
#
# Elastic Constant Matrix: (Units=GPa)
#
#
# Indices 1 2 3 4 5 6 
#
# 1 119.4477 28.1181 29.1481 0.0000 0.0000 0.0000
# 2 28.1181 157.3424 55.2247 0.0000 0.0000 0.0000
# 3 29.1481 55.2247 108.6762 0.0000 0.0000 0.0000
# 4 0.0000 0.0000 0.0000 23.8277 0.0000 0.0000
# 5 0.0000 0.0000 0.0000 0.0000 33.5201 0.0000
# 6 0.0000 0.0000 0.0000 0.0000 0.0000 30.3638
#
#
#
# Elastic Compliance Matrix: (Units=1/GPa)
#
#
# Indices 1 2 3 4 5 6 
#
# 1 0.009069 -0.000933 -0.001958 0.000000 0.000000 0.000000
# 2 -0.000933 0.007831 -0.003729 0.000000 0.000000 0.000000
# 3 -0.001958 -0.003729 0.011622 0.000000 0.000000 0.000000
# 4 0.000000 0.000000 0.000000 0.041968 0.000000 0.000000
# 5 0.000000 0.000000 0.000000 0.000000 0.029833 0.000000
# 6 0.000000 0.000000 0.000000 0.000000 0.000000 0.032934
#
#
# Mechanical properties :
#
#
# Convention : Reuss Voigt Hill
#
# Bulk Modulus (GPa) = 65.44092 67.82757 66.63425
# Shear Modulus (GPa) = 32.98313 35.74067 34.36190
#
# Velocity S-wave (km/s) = 3.94518 4.10678 4.02679
# Velocity P-wave (km/s) = 7.18565 7.38206 7.28451
#
# Compressibility (1/GPa) = 0.01528096
#
# Stress axis : x y z
#
# Youngs Moduli (GPa) = 110.26030 127.69347 86.04490
#
# Poissons Ratio (x) = 0.11920 0.16849
# Poissons Ratio (y) = 0.10293 0.32087
# Poissons Ratio (z) = 0.21591 0.47619
#
# Static dielectric constant tensor:
#      x y z
#    x 3.938010 0.000000 0.000000 
#    y 0.000000 3.962240 0.000000 
#    z 0.000000 0.000000 3.492650 
# 
# 
# High freq. dielectric constant tensor:
#      x y z
#    x 1.842260 0.000000 0.000000 
#    y 0.000000 1.828020 0.000000 
#    z 0.000000 0.000000 1.811490 
# 
# From -- ./inp_files/13024.got.cif
#   From: 2010.03.12/outbox.cif.g09.slc.cpg/sg35_7_cif.got.tgz:13024.got - 2010.04.14 02:02:04.
