data_PCOD8173845
_publ_section_title
;
Structure prediction by ZEFSAII (Michael W. Deem and Ramdas Pophale) SiO2 
 PCOD8173845
Probable space group: C M M 2
;
_chemical_formula_sum "Si O2"
_cell_formula_units_Z 64
_cell_length_a 8.850505
_cell_length_b 27.803308
_cell_length_c 12.993363
_cell_angle_alpha 90.000000
_cell_angle_beta 90.000000
_cell_angle_gamma 90.000000
_cell_volume 3197.319926
_symmetry_space_group_name_H-M "C M M 2"
_symmetry_group_IT_number 35
_symmetry_cell_setting 'orthorhombic'
loop_
_space_group_symop_operation_xyz
x,y,z
-x,-y,z
-x,y,z
x,-y,z
1/2+x,1/2+y,z
1/2-x,1/2-y,z
1/2-x,1/2+y,z
1/2+x,1/2-y,z
loop_
_atom_site_type_symbol
_atom_site_label
_atom_site_fract_x
_atom_site_fract_y
_atom_site_fract_z
Si Si1 0.820899 0.197484 0.828030
Si Si2 0.677916 0.945074 0.729156
Si Si3 0.321771 0.887134 0.926599
Si Si4 0.677245 0.198088 0.625344
Si Si5 0.678302 0.392027 0.319241
Si Si6 0.322408 0.444831 0.523457
Si Si7 0.675881 0.055862 0.130402
Si Si8 0.323371 0.198169 0.396534
O O1 0.750000 0.250000 0.844073
O O2 0.766015 0.163784 0.922139
O O3 0.758287 0.171886 0.722048
O O4 0.000000 0.201551 0.825220
O O5 0.500000 0.940503 0.719728
O O6 0.736287 0.918784 0.830894
O O7 0.746684 0.921630 0.625258
O O8 0.732100 0.000000 0.738455
O O9 0.500000 0.877802 0.922152
O O10 0.275355 0.915013 0.029389
O O11 0.500000 0.200922 0.648817
O O12 0.750000 0.250000 0.624582
O O13 0.709099 0.176705 0.511709
O O14 0.500000 0.385836 0.318155
O O15 0.736628 0.418041 0.422257
O O16 0.726916 0.424158 0.223788
O O17 0.753692 0.339210 0.314982
O O18 0.500000 0.439589 0.535338
O O19 0.271491 0.500000 0.512152
O O20 0.500000 0.063185 0.155107
O O21 0.714116 0.000000 0.112676
O O22 0.500000 0.203950 0.376539
O O23 0.250000 0.250000 0.379483
#
# Coordination Sequence:
#
# PCOD8173845 Si02
#       8
#     8   8   8   8   8   8   8   8
#     4  11  22  36  56  83 118 157 199 242 290 347
#     4   9  18  33  55  83 114 148 186 231 286 348
#     4  10  21  38  60  86 117 151 193 243 298 351
#     4   9  17  31  52  79 113 153 194 237 285 338
#     4  11  23  38  59  86 119 157 199 245 298 354
#     4   9  19  35  53  78 115 154 189 231 287 347
#     4  10  22  42  67  91 116 151 198 250 300 355
#     4  10  21  37  58  85 119 157 200 246 295 351
#
# _framework density 20.016764999999999
#
# number of rings (size 3 to 8) (size 9 to 14) (size 15 to 20)
#    0.000    2.125    0.000    3.750    1.750    5.750 
#    0.000    1.875    0.000    5.250    0.000    0.000 
#    0.000    0.000    0.000    0.000    0.000    0.000 
#
# Total GULP energy -396766.097923 kJ/mol
# GULP energy per Si atom -12398.940560 kJ/mol
# Density = 1.997121 g / cm^3
# Si number density = 20.016765 Si / 1000 Ang^3
#
#
#
# Elastic Constant Matrix: (Units=GPa)
#
#
# Indices 1 2 3 4 5 6 
#
# 1 84.6562 43.7454 44.7427 0.0000 0.0000 0.0000
# 2 43.7454 92.9757 56.1503 0.0000 0.0000 0.0000
# 3 44.7427 56.1503 115.3337 0.0000 0.0000 0.0000
# 4 0.0000 0.0000 0.0000 37.3610 0.0000 0.0000
# 5 0.0000 0.0000 0.0000 0.0000 1.8217 0.0000
# 6 0.0000 0.0000 0.0000 0.0000 0.0000 28.1266
#
#
#
# Elastic Compliance Matrix: (Units=1/GPa)
#
#
# Indices 1 2 3 4 5 6 
#
# 1 0.016681 -0.005581 -0.003754 0.000000 0.000000 0.000000
# 2 -0.005581 0.017102 -0.006161 0.000000 0.000000 0.000000
# 3 -0.003754 -0.006161 0.013126 0.000000 0.000000 0.000000
# 4 0.000000 0.000000 0.000000 0.026766 0.000000 0.000000
# 5 0.000000 0.000000 0.000000 0.000000 0.548928 0.000000
# 6 0.000000 0.000000 0.000000 0.000000 0.000000 0.035554
#
#
# Mechanical properties :
#
#
# Convention : Reuss Voigt Hill
#
# Bulk Modulus (GPa) = 62.82654 64.69359 63.76006
# Shear Modulus (GPa) = 7.19990 23.35033 15.27512
#
# Velocity S-wave (km/s) = 1.89862 3.41917 2.76545
# Velocity P-wave (km/s) = 6.02175 6.92658 6.48995
#
# Compressibility (1/GPa) = 0.01591684
#
# Stress axis : x y z
#
# Youngs Moduli (GPa) = 59.95012 58.47161 76.18292
#
# Poissons Ratio (x) = 0.32634 0.28598
# Poissons Ratio (y) = 0.33459 0.46937
# Poissons Ratio (z) = 0.22504 0.36025
#
# Static dielectric constant tensor:
#      x y z
#    x 3.511900 0.000000 0.000000 
#    y 0.000000 3.652570 0.000000 
#    z 0.000000 0.000000 3.855400 
# 
# 
# High freq. dielectric constant tensor:
#      x y z
#    x 1.776310 0.000000 0.000000 
#    y 0.000000 1.787700 0.000000 
#    z 0.000000 0.000000 1.771010 
# 
# From -- ./inp_files/11969.got.cif
#   From: 2010.03.12/outbox.cif.g09.slc.cpg/sg35_6_cif.got.tgz:11969.got - 2010.04.14 02:02:04.
