data_PCOD8173978
_publ_section_title
;
Structure prediction by ZEFSAII (Michael W. Deem and Ramdas Pophale) SiO2 
 PCOD8173978
Probable space group: C M M 2
;
_chemical_formula_sum "Si O2"
_cell_formula_units_Z 48
_cell_length_a 14.965267
_cell_length_b 8.465540
_cell_length_c 18.772937
_cell_angle_alpha 90.000000
_cell_angle_beta 90.000000
_cell_angle_gamma 90.000000
_cell_volume 2378.325862
_symmetry_space_group_name_H-M "C M M 2"
_symmetry_group_IT_number 35
_symmetry_cell_setting 'orthorhombic'
loop_
_space_group_symop_operation_xyz
x,y,z
-x,-y,z
-x,y,z
x,-y,z
1/2+x,1/2+y,z
1/2-x,1/2-y,z
1/2-x,1/2+y,z
1/2+x,1/2-y,z
loop_
_atom_site_type_symbol
_atom_site_label
_atom_site_fract_x
_atom_site_fract_y
_atom_site_fract_z
Si Si1 0.158631 0.686267 0.303690
Si Si2 0.156614 0.316028 0.009456
Si Si3 0.000000 0.818601 0.919249
Si Si4 0.648672 0.313411 0.668348
Si Si5 0.500000 0.816682 0.766751
Si Si6 0.000000 0.315572 0.405728
Si Si7 0.396375 0.317056 0.154528
Si Si8 0.500000 0.315027 0.561871
O O1 0.157308 0.500000 0.290309
O O2 0.250000 0.750000 0.337738
O O3 0.084929 0.737822 0.360414
O O4 0.146802 0.775646 0.229572
O O5 0.145790 0.500000 0.991908
O O6 0.250000 0.250000 0.981348
O O7 0.148779 0.289247 0.094091
O O8 0.084447 0.214314 0.968245
O O9 0.000000 0.706142 0.851163
O O10 0.000000 0.000000 0.894552
O O11 0.656350 0.500000 0.669383
O O12 0.750000 0.250000 0.667387
O O13 0.591839 0.259494 0.737138
O O14 0.590810 0.251038 0.600084
O O15 0.500000 0.000000 0.747567
O O16 0.000000 0.226585 0.479827
O O17 0.000000 0.500000 0.422022
O O18 0.500000 0.274850 0.158361
O O19 0.379243 0.500000 0.136709
O O20 0.500000 0.500000 0.572257
#
# Coordination Sequence:
#
# PCOD8173978 Si02
#       8
#     8   8   4   8   4   4   8   4
#     4  11  23  40  59  84 116 154 202 253 307 364
#     4  12  25  42  64  90 122 161 205 255 308 365
#     4  12  25  44  65  91 127 163 203 252 303 362
#     4  10  21  40  65  96 127 162 203 247 296 352
#     4  11  23  41  65  95 127 164 203 246 299 356
#     4  10  23  40  59  83 119 159 199 246 301 362
#     4  11  22  38  62  88 116 154 202 254 309 366
#     4   9  21  39  61  89 125 160 199 246 297 354
#
# _framework density 20.182262000000001
#
# number of rings (size 3 to 8) (size 9 to 14) (size 15 to 20)
#    0.000    1.167    1.667    5.500    0.000    5.333 
#    0.000    6.667    0.000    0.000    0.000    0.000 
#    0.000    0.000    0.000    0.000    0.000    0.000 
#
# Total GULP energy -297670.882756 kJ/mol
# GULP energy per Si atom -12402.953448 kJ/mol
# Density = 2.013633 g / cm^3
# Si number density = 20.182262 Si / 1000 Ang^3
#
#
#
# Elastic Constant Matrix: (Units=GPa)
#
#
# Indices 1 2 3 4 5 6 
#
# 1 178.6095 37.5398 49.3309 0.0000 0.0000 0.0000
# 2 37.5398 80.4441 10.4777 0.0000 0.0000 0.0000
# 3 49.3309 10.4777 107.4946 0.0000 0.0000 0.0000
# 4 0.0000 0.0000 0.0000 35.0317 0.0000 0.0000
# 5 0.0000 0.0000 0.0000 0.0000 19.1431 0.0000
# 6 0.0000 0.0000 0.0000 0.0000 0.0000 30.5207
#
#
#
# Elastic Compliance Matrix: (Units=1/GPa)
#
#
# Indices 1 2 3 4 5 6 
#
# 1 0.007018 -0.002892 -0.002939 0.000000 0.000000 0.000000
# 2 -0.002892 0.013783 -0.000016 0.000000 0.000000 0.000000
# 3 -0.002939 -0.000016 0.010653 0.000000 0.000000 0.000000
# 4 0.000000 0.000000 0.000000 0.028546 0.000000 0.000000
# 5 0.000000 0.000000 0.000000 0.000000 0.052238 0.000000
# 6 0.000000 0.000000 0.000000 0.000000 0.000000 0.032765
#
#
# Mechanical properties :
#
#
# Convention : Reuss Voigt Hill
#
# Bulk Modulus (GPa) = 50.60849 62.36055 56.48452
# Shear Modulus (GPa) = 30.62146 34.88575 32.75361
#
# Velocity S-wave (km/s) = 3.89941 4.16208 4.03288
# Velocity P-wave (km/s) = 6.73825 7.35275 7.05220
#
# Compressibility (1/GPa) = 0.01975953
#
# Stress axis : x y z
#
# Youngs Moduli (GPa) = 142.48167 72.55393 93.86953
#
# Poissons Ratio (x) = 0.20986 0.27588
# Poissons Ratio (y) = 0.41212 0.00151
# Poissons Ratio (z) = 0.41875 0.00117
#
# Static dielectric constant tensor:
#      x y z
#    x 4.244540 0.000000 0.000000 
#    y 0.000000 3.656830 0.000000 
#    z 0.000000 0.000000 3.549720 
# 
# 
# High freq. dielectric constant tensor:
#      x y z
#    x 1.806240 0.000000 0.000000 
#    y 0.000000 1.796060 0.000000 
#    z 0.000000 0.000000 1.781470 
# 
# From -- ./inp_files/18823.got.cif
#   From: 2010.03.12/outbox.cif.g09.slc.cpg/sg35_10_cif.got.tgz:18823.got - 2010.04.14 02:02:04.
