data_PCOD8173694
_publ_section_title
;
Structure prediction by ZEFSAII (Michael W. Deem and Ramdas Pophale) SiO2 
 PCOD8173694
Probable space group: C M M 2
;
_chemical_formula_sum "Si O2"
_cell_formula_units_Z 48
_cell_length_a 8.734695
_cell_length_b 33.973891
_cell_length_c 7.993765
_cell_angle_alpha 90.000000
_cell_angle_beta 90.000000
_cell_angle_gamma 90.000000
_cell_volume 2372.162361
_symmetry_space_group_name_H-M "C M M 2"
_symmetry_group_IT_number 35
_symmetry_cell_setting 'orthorhombic'
loop_
_space_group_symop_operation_xyz
x,y,z
-x,-y,z
-x,y,z
x,-y,z
1/2+x,1/2+y,z
1/2-x,1/2-y,z
1/2-x,1/2+y,z
1/2+x,1/2-y,z
loop_
_atom_site_type_symbol
_atom_site_label
_atom_site_fract_x
_atom_site_fract_y
_atom_site_fract_z
Si Si1 0.321436 0.578216 0.202930
Si Si2 0.679237 0.658986 0.342149
Si Si3 0.181531 0.207122 0.027650
Si Si4 0.818748 0.500000 0.704417
Si Si5 0.819886 0.845010 0.712509
Si Si6 0.180210 0.500000 0.333949
Si Si7 0.180623 0.581826 0.857510
O O1 0.500000 0.569122 0.217523
O O2 0.268221 0.613388 0.325912
O O3 0.229889 0.538640 0.236375
O O4 0.278309 0.593386 0.019257
O O5 0.500000 0.660062 0.308907
O O6 0.720298 0.673881 0.529747
O O7 0.750885 0.686327 0.195437
O O8 0.250000 0.250000 0.015448
O O9 0.233684 0.183947 0.860420
O O10 0.000000 0.210113 0.034662
O O11 0.746811 0.500000 0.518794
O O12 0.762150 0.461082 0.798678
O O13 0.000000 0.500000 0.690270
O O14 0.724899 0.885596 0.720467
O O15 0.000000 0.854352 0.723821
O O16 0.000000 0.500000 0.341146
O O17 0.000000 0.582124 0.893450
#
# Coordination Sequence:
#
# PCOD8173694 Si02
#       7
#     8   8   8   4   8   4   8
#     4  11  21  37  58  83 114 153 200 242 287 345
#     4   9  19  37  61  86 114 152 196 241 288 343
#     4  10  21  39  60  86 118 151 189 236 292 351
#     4   9  21  37  52  76 116 155 190 240 293 341
#     4  10  20  38  62  85 116 155 193 240 293 344
#     4  11  22  37  54  80 116 153 194 244 297 339
#     4  11  21  36  58  84 116 155 198 242 291 343
#
# _framework density 20.234701000000001
#
# number of rings (size 3 to 8) (size 9 to 14) (size 15 to 20)
#    0.000    1.833    1.667    2.750    0.000    2.000 
#    0.000    5.417    0.000    0.000    0.000    0.000 
#    0.000    0.000    0.000    0.000    0.000    0.000 
#
# Total GULP energy -297574.173989 kJ/mol
# GULP energy per Si atom -12398.923916 kJ/mol
# Density = 2.018865 g / cm^3
# Si number density = 20.234701 Si / 1000 Ang^3
#
#
#
# Elastic Constant Matrix: (Units=GPa)
#
#
# Indices 1 2 3 4 5 6 
#
# 1 35.7889 27.2634 20.3220 0.0000 0.0000 0.0000
# 2 27.2634 144.5940 65.8255 0.0000 0.0000 0.0000
# 3 20.3220 65.8255 153.6050 0.0000 0.0000 0.0000
# 4 0.0000 0.0000 0.0000 24.7157 0.0000 0.0000
# 5 0.0000 0.0000 0.0000 0.0000 20.1051 0.0000
# 6 0.0000 0.0000 0.0000 0.0000 0.0000 29.9432
#
#
#
# Elastic Compliance Matrix: (Units=1/GPa)
#
#
# Indices 1 2 3 4 5 6 
#
# 1 0.033176 -0.005289 -0.002123 0.000000 0.000000 0.000000
# 2 -0.005289 0.009435 -0.003344 0.000000 0.000000 0.000000
# 3 -0.002123 -0.003344 0.008224 0.000000 0.000000 0.000000
# 4 0.000000 0.000000 0.000000 0.040460 0.000000 0.000000
# 5 0.000000 0.000000 0.000000 0.000000 0.049739 0.000000
# 6 0.000000 0.000000 0.000000 0.000000 0.000000 0.033397
#
#
# Mechanical properties :
#
#
# Convention : Reuss Voigt Hill
#
# Bulk Modulus (GPa) = 34.10108 62.31220 48.20664
# Shear Modulus (GPa) = 24.30534 29.65795 26.98164
#
# Velocity S-wave (km/s) = 3.46955 3.83260 3.65558
# Velocity P-wave (km/s) = 5.73932 7.10258 6.45703
#
# Compressibility (1/GPa) = 0.02932458
#
# Stress axis : x y z
#
# Youngs Moduli (GPa) = 30.14222 105.98425 121.59661
#
# Poissons Ratio (x) = 0.56056 0.25810
# Poissons Ratio (y) = 0.15942 0.40658
# Poissons Ratio (z) = 0.06398 0.35438
#
# Static dielectric constant tensor:
#      x y z
#    x 3.317380 0.000000 0.000000 
#    y 0.000000 3.673020 0.000000 
#    z 0.000000 0.000000 3.964840 
# 
# 
# High freq. dielectric constant tensor:
#      x y z
#    x 1.761170 0.000000 0.000000 
#    y 0.000000 1.790290 0.000000 
#    z 0.000000 0.000000 1.807060 
# 
# From -- ./inp_files/5405.got.cif
#   From: 2010.03.12/outbox.cif.g09.slc.cpg/sg35_3_cif.got.tgz:5405.got - 2010.04.14 02:02:04.
