data_PCOD8173775
_publ_section_title
;
Structure prediction by ZEFSAII (Michael W. Deem and Ramdas Pophale) SiO2 
 PCOD8173775
Probable space group: C M M 2
;
_chemical_formula_sum "Si O2"
_cell_formula_units_Z 64
_cell_length_a 9.311435
_cell_length_b 18.518126
_cell_length_c 20.216211
_cell_angle_alpha 90.000000
_cell_angle_beta 90.000000
_cell_angle_gamma 90.000000
_cell_volume 3485.887865
_symmetry_space_group_name_H-M "C M M 2"
_symmetry_group_IT_number 35
_symmetry_cell_setting 'orthorhombic'
loop_
_space_group_symop_operation_xyz
x,y,z
-x,-y,z
-x,y,z
x,-y,z
1/2+x,1/2+y,z
1/2-x,1/2-y,z
1/2-x,1/2+y,z
1/2+x,1/2-y,z
loop_
_atom_site_type_symbol
_atom_site_label
_atom_site_fract_x
_atom_site_fract_y
_atom_site_fract_z
Si Si1 0.167969 0.824835 0.208790
Si Si2 0.334072 0.416167 0.080346
Si Si3 0.667404 0.822468 0.981829
Si Si4 0.338889 0.086022 0.462697
Si Si5 0.166019 0.321129 0.828318
Si Si6 0.167808 0.083158 0.335001
Si Si7 0.837966 0.085246 0.731851
Si Si8 0.660497 0.414076 0.584863
O O1 0.250000 0.750000 0.204557
O O2 0.208887 0.873098 0.145955
O O3 0.217346 0.868896 0.273234
O O4 0.000000 0.808200 0.211010
O O5 0.500000 0.403148 0.061211
O O6 0.303310 0.500000 0.093445
O O7 0.233729 0.389843 0.020688
O O8 0.500000 0.812915 0.999179
O O9 0.750000 0.750000 0.003660
O O10 0.691716 0.839222 0.904929
O O11 0.500000 0.116381 0.458402
O O12 0.252020 0.112842 0.398738
O O13 0.266932 0.117969 0.529364
O O14 0.337098 0.000000 0.465202
O O15 0.250000 0.250000 0.806588
O O16 0.226062 0.386549 0.785433
O O17 0.000000 0.309359 0.812418
O O18 0.000000 0.091228 0.349802
O O19 0.206754 0.000000 0.319433
O O20 0.792851 0.112032 0.658216
O O21 0.000000 0.111583 0.748066
O O22 0.831072 0.000000 0.734979
O O23 0.500000 0.386488 0.569109
O O24 0.662722 0.500000 0.582604
#
# Coordination Sequence:
#
# PCOD8173775 Si02
#       8
#     8   8   8   8   8   8   8   8
#     4  10  21  36  54  76 102 134 171 208 249 300
#     4  10  21  37  57  81 108 137 170 210 255 303
#     4  10  21  37  56  78 104 136 174 213 255 306
#     4   9  16  25  41  69 101 129 161 205 253 298
#     4  10  21  36  54  75 102 137 175 214 256 306
#     4   9  17  31  51  72  96 129 167 206 249 299
#     4   9  18  32  51  76 105 136 172 215 260 307
#     4   8  14  26  44  67  97 133 169 203 245 300
#
# _framework density 18.359742000000001
#
# number of rings (size 3 to 8) (size 9 to 14) (size 15 to 20)
#    0.000    2.625    0.000    2.625    0.000    8.000 
#    0.000    3.750    0.000    3.000    0.000    3.500 
#    0.000    0.000    0.000    0.000    0.000    0.000 
#
# Total GULP energy -396811.802797 kJ/mol
# GULP energy per Si atom -12400.368837 kJ/mol
# Density = 1.831795 g / cm^3
# Si number density = 18.359742 Si / 1000 Ang^3
#
#
#
# Elastic Constant Matrix: (Units=GPa)
#
#
# Indices 1 2 3 4 5 6 
#
# 1 106.8771 47.6357 73.8597 0.0000 0.0000 0.0000
# 2 47.6357 75.2226 53.6986 0.0000 0.0000 0.0000
# 3 73.8597 53.6986 120.4280 0.0000 0.0000 0.0000
# 4 0.0000 0.0000 0.0000 9.2294 0.0000 0.0000
# 5 0.0000 0.0000 0.0000 0.0000 26.0942 0.0000
# 6 0.0000 0.0000 0.0000 0.0000 0.0000 28.1951
#
#
#
# Elastic Compliance Matrix: (Units=1/GPa)
#
#
# Indices 1 2 3 4 5 6 
#
# 1 0.017433 -0.004998 -0.008463 0.000000 0.000000 0.000000
# 2 -0.004998 0.020934 -0.006269 0.000000 0.000000 0.000000
# 3 -0.008463 -0.006269 0.016290 0.000000 0.000000 0.000000
# 4 0.000000 0.000000 0.000000 0.108349 0.000000 0.000000
# 5 0.000000 0.000000 0.000000 0.000000 0.038323 0.000000
# 6 0.000000 0.000000 0.000000 0.000000 0.000000 0.035467
#
#
# Mechanical properties :
#
#
# Convention : Reuss Voigt Hill
#
# Bulk Modulus (GPa) = 65.80660 72.54616 69.17638
# Shear Modulus (GPa) = 17.77324 21.19265 19.48295
#
# Velocity S-wave (km/s) = 3.11473 3.40119 3.26111
# Velocity P-wave (km/s) = 6.98971 7.41779 7.20693
#
# Compressibility (1/GPa) = 0.01519604
#
# Stress axis : x y z
#
# Youngs Moduli (GPa) = 57.36308 47.76843 61.38875
#
# Poissons Ratio (x) = 0.23875 0.51954
# Poissons Ratio (y) = 0.28671 0.38486
# Poissons Ratio (z) = 0.48547 0.29947
#
# Static dielectric constant tensor:
#      x y z
#    x 3.482630 0.000000 0.000000 
#    y 0.000000 3.052200 0.000000 
#    z 0.000000 0.000000 3.554490 
# 
# 
# High freq. dielectric constant tensor:
#      x y z
#    x 1.713080 0.000000 0.000000 
#    y 0.000000 1.679590 0.000000 
#    z 0.000000 0.000000 1.724130 
# 
# From -- ./inp_files/18415.got.cif
#   From: 2010.03.12/outbox.cif.g09.slc.cpg/sg35_10_cif.got.tgz:18415.got - 2010.04.14 02:02:04.
