data_PCOD8173398
_publ_section_title
;
Structure prediction by ZEFSAII (Michael W. Deem and Ramdas Pophale) SiO2 
 PCOD8173398
Probable space group: C M M 2
;
_chemical_formula_sum "Si O2"
_cell_formula_units_Z 48
_cell_length_a 8.595355
_cell_length_b 18.632341
_cell_length_c 15.437437
_cell_angle_alpha 90.000000
_cell_angle_beta 90.000000
_cell_angle_gamma 90.000000
_cell_volume 2472.330010
_symmetry_space_group_name_H-M "C M M 2"
_symmetry_group_IT_number 35
_symmetry_cell_setting 'orthorhombic'
loop_
_space_group_symop_operation_xyz
x,y,z
-x,-y,z
-x,y,z
x,-y,z
1/2+x,1/2+y,z
1/2-x,1/2-y,z
1/2-x,1/2+y,z
1/2+x,1/2-y,z
loop_
_atom_site_type_symbol
_atom_site_label
_atom_site_fract_x
_atom_site_fract_y
_atom_site_fract_z
Si Si1 0.183685 0.329191 0.592320
Si Si2 0.184697 0.671256 0.279016
Si Si3 0.815020 0.826863 0.095076
Si Si4 0.683830 0.081005 0.754061
Si Si5 0.817843 0.081821 0.932184
Si Si6 0.182338 0.916190 0.433854
O O1 0.250000 0.250000 0.585251
O O2 0.250601 0.368538 0.677990
O O3 0.230888 0.375316 0.509989
O O4 0.000000 0.323701 0.595956
O O5 0.250000 0.750000 0.301485
O O6 0.236805 0.646269 0.183641
O O7 0.254205 0.612666 0.343213
O O8 0.000000 0.673517 0.286112
O O9 0.750000 0.750000 0.069171
O O10 0.000000 0.824790 0.107517
O O11 0.760265 0.878303 0.017952
O O12 0.500000 0.079208 0.749850
O O13 0.736819 0.113674 0.846236
O O14 0.750901 0.000000 0.742394
O O15 0.000000 0.091343 0.919507
O O16 0.767201 0.000000 0.944462
O O17 0.000000 0.901171 0.440584
O O18 0.221754 0.000000 0.440544
#
# Coordination Sequence:
#
# PCOD8173398 Si02
#       6
#     8   8   8   8   8   8
#     4  11  23  39  59  84 115 148 186 230 277 330
#     4  11  22  38  60  84 113 148 187 230 278 331
#     4  10  20  35  55  80 111 146 185 228 276 328
#     4   9  19  36  57  80 108 144 184 228 277 327
#     4   9  19  35  55  79 108 144 184 227 275 327
#     4  11  24  41  61  85 113 146 184 227 277 332
#
# _framework density 19.414885000000002
#
# number of rings (size 3 to 8) (size 9 to 14) (size 15 to 20)
#    0.000    1.833    0.000    5.000    0.000    6.000 
#    0.000    6.667    0.000    0.000    0.000    0.000 
#    0.000    0.000    0.000    0.000    0.000    0.000 
#
# Total GULP energy -297664.347114 kJ/mol
# GULP energy per Si atom -12402.681130 kJ/mol
# Density = 1.937070 g / cm^3
# Si number density = 19.414885 Si / 1000 Ang^3
#
#
#
# Elastic Constant Matrix: (Units=GPa)
#
#
# Indices 1 2 3 4 5 6 
#
# 1 29.2930 24.8598 0.5973 0.0000 0.0000 0.0000
# 2 24.8598 104.0427 73.8157 0.0000 0.0000 0.0000
# 3 0.5973 73.8157 123.5091 0.0000 0.0000 0.0000
# 4 0.0000 0.0000 0.0000 42.8940 0.0000 0.0000
# 5 0.0000 0.0000 0.0000 0.0000 36.2097 0.0000
# 6 0.0000 0.0000 0.0000 0.0000 0.0000 24.0679
#
#
#
# Elastic Compliance Matrix: (Units=1/GPa)
#
#
# Indices 1 2 3 4 5 6 
#
# 1 0.051890 -0.021217 0.012429 0.000000 0.000000 0.000000
# 2 -0.021217 0.025362 -0.015055 0.000000 0.000000 0.000000
# 3 0.012429 -0.015055 0.017034 0.000000 0.000000 0.000000
# 4 0.000000 0.000000 0.000000 0.023313 0.000000 0.000000
# 5 0.000000 0.000000 0.000000 0.000000 0.027617 0.000000
# 6 0.000000 0.000000 0.000000 0.000000 0.000000 0.041549
#
#
# Mechanical properties :
#
#
# Convention : Reuss Voigt Hill
#
# Bulk Modulus (GPa) = 21.45859 50.59892 36.02876
# Shear Modulus (GPa) = 20.00116 31.13913 25.57015
#
# Velocity S-wave (km/s) = 3.21315 4.00919 3.63304
# Velocity P-wave (km/s) = 4.98422 6.89565 6.01633
#
# Compressibility (1/GPa) = 0.04660138
#
# Stress axis : x y z
#
# Youngs Moduli (GPa) = 19.27140 39.42860 58.70514
#
# Poissons Ratio (x) = 0.83655 -0.72967
# Poissons Ratio (y) = 0.40888 0.88382
# Poissons Ratio (z) = -0.23953 0.59361
#
# Static dielectric constant tensor:
#      x y z
#    x 3.579610 0.000000 0.000000 
#    y 0.000000 3.726820 0.000000 
#    z 0.000000 0.000000 3.812690 
# 
# 
# High freq. dielectric constant tensor:
#      x y z
#    x 1.760660 0.000000 0.000000 
#    y 0.000000 1.753370 0.000000 
#    z 0.000000 0.000000 1.773510 
# 
# From -- ./inp_files/15143.got.cif
#   From: 2010.03.12/outbox.cif.g09.slc.cpg/sg35_8_cif.got.tgz:15143.got - 2010.04.14 02:02:04.
