data_PCOD8173364
_publ_section_title
;
Structure prediction by ZEFSAII (Michael W. Deem and Ramdas Pophale) SiO2 
 PCOD8173364
Probable space group: C M M 2
;
_chemical_formula_sum "Si O2"
_cell_formula_units_Z 40
_cell_length_a 14.615019
_cell_length_b 8.745268
_cell_length_c 16.546066
_cell_angle_alpha 90.000000
_cell_angle_beta 90.000000
_cell_angle_gamma 90.000000
_cell_volume 2114.790056
_symmetry_space_group_name_H-M "C M M 2"
_symmetry_group_IT_number 35
_symmetry_cell_setting 'orthorhombic'
loop_
_space_group_symop_operation_xyz
x,y,z
-x,-y,z
-x,y,z
x,-y,z
1/2+x,1/2+y,z
1/2-x,1/2-y,z
1/2-x,1/2+y,z
1/2+x,1/2-y,z
loop_
_atom_site_type_symbol
_atom_site_label
_atom_site_fract_x
_atom_site_fract_y
_atom_site_fract_z
Si Si1 0.346563 0.321294 0.285330
Si Si2 0.851058 0.819703 0.876253
Si Si3 0.000000 0.824338 0.157292
Si Si4 0.500000 0.180006 0.572191
Si Si5 0.000000 0.320810 0.987345
Si Si6 0.500000 0.676635 0.745710
Si Si7 0.848136 0.318450 0.451619
O O1 0.335828 0.500000 0.303025
O O2 0.250000 0.250000 0.261433
O O3 0.411622 0.287969 0.210442
O O4 0.386493 0.243480 0.366308
O O5 0.750000 0.750000 0.869711
O O6 0.908557 0.780454 0.795561
O O7 0.842872 0.000000 0.889492
O O8 0.907105 0.751089 0.951340
O O9 0.000000 0.710555 0.082305
O O10 0.000000 0.000000 0.127505
O O11 0.500000 0.230447 0.663979
O O12 0.588581 0.240833 0.524547
O O13 0.500000 0.000000 0.570694
O O14 0.000000 0.500000 0.969737
O O15 0.500000 0.500000 0.723474
O O16 0.843763 0.500000 0.446884
O O17 0.750000 0.250000 0.470346
#
# Coordination Sequence:
#
# PCOD8173364 Si02
#       7
#     8   8   4   4   4   4   8
#     4  10  20  35  55  78 105 142 184 226 273 322
#     4  10  21  40  63  86 113 146 183 225 276 332
#     4  10  22  38  55  78 112 147 180 225 276 325
#     4  10  22  36  53  78 110 145 180 223 272 321
#     4  11  23  38  59  87 115 147 185 226 275 330
#     4   9  21  38  57  83 113 143 179 224 271 326
#     4  10  20  35  53  76 106 142 183 226 271 320
#
# _framework density 18.914408000000002
#
# number of rings (size 3 to 8) (size 9 to 14) (size 15 to 20)
#    0.000    2.000    0.000    5.100    0.000    7.200 
#    0.000    6.000    0.000    0.000    0.000    0.000 
#    0.000    0.000    0.000    0.000    0.000    0.000 
#
# Total GULP energy -248015.902799 kJ/mol
# GULP energy per Si atom -12400.795140 kJ/mol
# Density = 1.887136 g / cm^3
# Si number density = 18.914408 Si / 1000 Ang^3
#
#
#
# Elastic Constant Matrix: (Units=GPa)
#
#
# Indices 1 2 3 4 5 6 
#
# 1 139.9223 58.2743 69.9033 0.0000 0.0000 0.0000
# 2 58.2743 102.1768 50.5844 0.0000 0.0000 0.0000
# 3 69.9033 50.5844 126.0964 0.0000 0.0000 0.0000
# 4 0.0000 0.0000 0.0000 36.4424 0.0000 0.0000
# 5 0.0000 0.0000 0.0000 0.0000 47.6293 0.0000
# 6 0.0000 0.0000 0.0000 0.0000 0.0000 28.9148
#
#
#
# Elastic Compliance Matrix: (Units=1/GPa)
#
#
# Indices 1 2 3 4 5 6 
#
# 1 0.011110 -0.004102 -0.004514 0.000000 0.000000 0.000000
# 2 -0.004102 0.013727 -0.003233 0.000000 0.000000 0.000000
# 3 -0.004514 -0.003233 0.011729 0.000000 0.000000 0.000000
# 4 0.000000 0.000000 0.000000 0.027441 0.000000 0.000000
# 5 0.000000 0.000000 0.000000 0.000000 0.020995 0.000000
# 6 0.000000 0.000000 0.000000 0.000000 0.000000 0.034584
#
#
# Mechanical properties :
#
#
# Convention : Reuss Voigt Hill
#
# Bulk Modulus (GPa) = 77.69952 80.63550 79.16751
# Shear Modulus (GPa) = 33.88161 35.22620 34.55391
#
# Velocity S-wave (km/s) = 4.23698 4.32024 4.27881
# Velocity P-wave (km/s) = 8.06875 8.22255 8.14601
#
# Compressibility (1/GPa) = 0.01287009
#
# Stress axis : x y z
#
# Youngs Moduli (GPa) = 90.00855 72.85036 85.25614
#
# Poissons Ratio (x) = 0.29882 0.38480
# Poissons Ratio (y) = 0.36921 0.27560
# Poissons Ratio (z) = 0.40625 0.23550
#
# Static dielectric constant tensor:
#      x y z
#    x 3.553460 0.000000 0.000000 
#    y 0.000000 3.508670 0.000000 
#    z 0.000000 0.000000 3.497220 
# 
# 
# High freq. dielectric constant tensor:
#      x y z
#    x 1.744940 0.000000 0.000000 
#    y 0.000000 1.744150 0.000000 
#    z 0.000000 0.000000 1.734510 
# 
# From -- ./inp_files/16647.got.cif
#   From: 2010.03.12/outbox.cif.g09.slc.cpg/sg35_9_cif.got.tgz:16647.got - 2010.04.14 02:02:04.
