data_PCOD8173126
_publ_section_title
;
Structure prediction by ZEFSAII (Michael W. Deem and Ramdas Pophale) SiO2 
 PCOD8173126
Probable space group: C M M 2
;
_chemical_formula_sum "Si O2"
_cell_formula_units_Z 64
_cell_length_a 14.615629
_cell_length_b 24.996237
_cell_length_c 8.702781
_cell_angle_alpha 90.000000
_cell_angle_beta 90.000000
_cell_angle_gamma 90.000000
_cell_volume 3179.436818
_symmetry_space_group_name_H-M "C M M 2"
_symmetry_group_IT_number 35
_symmetry_cell_setting 'orthorhombic'
loop_
_space_group_symop_operation_xyz
x,y,z
-x,-y,z
-x,y,z
x,-y,z
1/2+x,1/2+y,z
1/2-x,1/2-y,z
1/2-x,1/2+y,z
1/2+x,1/2-y,z
loop_
_atom_site_type_symbol
_atom_site_label
_atom_site_fract_x
_atom_site_fract_y
_atom_site_fract_z
Si Si1 0.401180 0.194662 0.166940
Si Si2 0.893153 0.147790 0.503180
Si Si3 0.729140 0.939785 0.959379
Si Si4 0.892063 0.755462 0.707194
Si Si5 0.395740 0.697022 0.022491
Si Si6 0.732706 0.368222 0.217846
Si Si7 0.602711 0.440888 0.754044
Si Si8 0.602719 0.146921 0.828507
O O1 0.500000 0.180587 0.243887
O O2 0.390347 0.258499 0.157396
O O3 0.318546 0.169479 0.264670
O O4 0.400323 0.174725 0.993151
O O5 0.864500 0.208199 0.559242
O O6 0.831907 0.126324 0.363872
O O7 0.872577 0.105344 0.635036
O O8 0.000000 0.147297 0.454617
O O9 0.833064 0.936751 0.901450
O O10 0.667288 0.904703 0.841523
O O11 0.690489 0.000000 0.952568
O O12 0.726248 0.922299 0.140503
O O13 0.859490 0.692746 0.706484
O O14 0.000000 0.754074 0.725371
O O15 0.854349 0.784034 0.860100
O O16 0.500000 0.675940 0.006249
O O17 0.325993 0.651967 0.073550
O O18 0.500000 0.432234 0.815216
O O19 0.613041 0.500000 0.676570
O O20 0.500000 0.128715 0.780703
#
# Coordination Sequence:
#
# PCOD8173126 Si02
#       8
#     8   8   8   8   8   8   8   8
#     4   8  16  31  49  70  99 135 173 209 251 314
#     4  10  20  33  51  79 111 140 176 222 273 332
#     4  10  21  35  53  79 106 137 185 235 272 316
#     4   8  15  30  52  76 105 140 173 207 257 328
#     4   9  16  29  51  75  99 131 169 208 252 310
#     4  11  20  30  49  77 108 138 170 215 273 322
#     4   9  19  37  56  70  94 139 186 222 260 312
#     4   8  15  31  55  80 104 132 169 218 275 325
#
# _framework density 20.129351
#
# number of rings (size 3 to 8) (size 9 to 14) (size 15 to 20)
#    0.000    2.875    0.000    3.000    0.000    2.750 
#    0.000    4.375    0.000    2.250    0.000    0.875 
#    0.000    0.000    0.000    0.000    0.000    0.000 
#
# Total GULP energy -396428.684012 kJ/mol
# GULP energy per Si atom -12388.396375 kJ/mol
# Density = 2.008354 g / cm^3
# Si number density = 20.129351 Si / 1000 Ang^3
#
#
#
# Elastic Constant Matrix: (Units=GPa)
#
#
# Indices 1 2 3 4 5 6 
#
# 1 73.0765 31.5354 18.5494 0.0000 0.0000 0.0000
# 2 31.5354 122.1014 30.4134 0.0000 0.0000 0.0000
# 3 18.5494 30.4134 51.6280 0.0000 0.0000 0.0000
# 4 0.0000 0.0000 0.0000 14.7385 0.0000 0.0000
# 5 0.0000 0.0000 0.0000 0.0000 21.0251 0.0000
# 6 0.0000 0.0000 0.0000 0.0000 0.0000 25.2757
#
#
#
# Elastic Compliance Matrix: (Units=1/GPa)
#
#
# Indices 1 2 3 4 5 6 
#
# 1 0.016042 -0.003173 -0.003895 0.000000 0.000000 0.000000
# 2 -0.003173 0.010226 -0.004884 0.000000 0.000000 0.000000
# 3 -0.003895 -0.004884 0.023646 0.000000 0.000000 0.000000
# 4 0.000000 0.000000 0.000000 0.067849 0.000000 0.000000
# 5 0.000000 0.000000 0.000000 0.000000 0.047562 0.000000
# 6 0.000000 0.000000 0.000000 0.000000 0.000000 0.039564
#
#
# Mechanical properties :
#
#
# Convention : Reuss Voigt Hill
#
# Bulk Modulus (GPa) = 38.44582 45.31134 41.87858
# Shear Modulus (GPa) = 21.05597 23.29505 22.17551
#
# Velocity S-wave (km/s) = 3.23775 3.40555 3.32271
# Velocity P-wave (km/s) = 5.75484 6.16625 5.96410
#
# Compressibility (1/GPa) = 0.02601063
#
# Stress axis : x y z
#
# Youngs Moduli (GPa) = 62.33549 97.79042 42.29110
#
# Poissons Ratio (x) = 0.31031 0.16470
# Poissons Ratio (y) = 0.19780 0.20654
# Poissons Ratio (z) = 0.24277 0.47760
#
# Static dielectric constant tensor:
#      x y z
#    x 3.837250 0.000000 0.000000 
#    y 0.000000 3.907840 0.000000 
#    z 0.000000 0.000000 3.222600 
# 
# 
# High freq. dielectric constant tensor:
#      x y z
#    x 1.788780 0.000000 0.000000 
#    y 0.000000 1.778300 0.000000 
#    z 0.000000 0.000000 1.740800 
# 
# From -- ./inp_files/7891.got.cif
#   From: 2010.03.12/outbox.cif.g09.slc.cpg/sg35_4_cif.got.tgz:7891.got - 2010.04.14 02:02:04.
