data_PCOD8173527
_publ_section_title
;
Structure prediction by ZEFSAII (Michael W. Deem and Ramdas Pophale) SiO2 
 PCOD8173527
Probable space group: C M M 2
;
_chemical_formula_sum "Si O2"
_cell_formula_units_Z 64
_cell_length_a 27.927915
_cell_length_b 9.038272
_cell_length_c 12.892210
_cell_angle_alpha 90.000000
_cell_angle_beta 90.000000
_cell_angle_gamma 90.000000
_cell_volume 3254.252836
_symmetry_space_group_name_H-M "C M M 2"
_symmetry_group_IT_number 35
_symmetry_cell_setting 'orthorhombic'
loop_
_space_group_symop_operation_xyz
x,y,z
-x,-y,z
-x,y,z
x,-y,z
1/2+x,1/2+y,z
1/2-x,1/2-y,z
1/2-x,1/2+y,z
1/2+x,1/2-y,z
loop_
_atom_site_type_symbol
_atom_site_label
_atom_site_fract_x
_atom_site_fract_y
_atom_site_fract_z
Si Si1 0.801383 0.173158 0.349360
Si Si2 0.053539 0.324321 0.623847
Si Si3 0.109493 0.325346 0.825864
Si Si4 0.890490 0.674656 0.421857
Si Si5 0.698609 0.673261 0.898365
Si Si6 0.298831 0.332541 0.123875
Si Si7 0.056622 0.167983 0.241283
Si Si8 0.556623 0.667969 0.006457
O O1 0.750000 0.250000 0.360893
O O2 0.838579 0.247680 0.427932
O O3 0.825121 0.200759 0.233514
O O4 0.795644 0.000000 0.374024
O O5 0.051188 0.500000 0.623838
O O6 0.080604 0.267487 0.726064
O O7 0.080636 0.267465 0.521677
O O8 0.000000 0.257467 0.623819
O O9 0.117078 0.500000 0.824022
O O10 0.161393 0.247604 0.819759
O O11 0.080730 0.282469 0.928742
O O12 0.882917 0.500000 0.423697
O O13 0.919267 0.717523 0.318997
O O14 0.704259 0.500000 0.873980
O O15 0.750000 0.750000 0.886635
O O16 0.675020 0.701731 0.014232
O O17 0.282515 0.500000 0.123251
O O18 0.250000 0.250000 0.124704
O O19 0.000000 0.187388 0.248765
O O20 0.071526 0.000000 0.270699
O O21 0.073956 0.202164 0.123864
O O22 0.500000 0.687250 0.998933
O O23 0.571572 0.500000 0.977067
#
# Coordination Sequence:
#
# PCOD8173527 Si02
#       8
#     8   8   8   8   8   8   8   8
#     4  10  20  36  56  82 116 154 193 235 284 337
#     4   9  20  40  62  83 112 149 190 241 294 339
#     4  11  22  36  58  86 113 148 194 239 288 344
#     4  11  22  36  58  86 113 148 194 239 288 344
#     4  10  20  36  56  82 116 154 193 235 284 337
#     4   8  16  30  50  74 105 146 183 220 268 323
#     4   9  19  36  56  80 114 152 186 228 287 348
#     4   9  19  36  56  80 114 152 186 228 287 348
#
# _framework density 19.666573
#
# number of rings (size 3 to 8) (size 9 to 14) (size 15 to 20)
#    0.000    2.375    0.000    3.000    1.750    3.000 
#    0.000    4.375    0.000    4.500    0.000    0.000 
#    0.000    0.000    0.000    0.000    0.000    0.000 
#
# Total GULP energy -396640.870328 kJ/mol
# GULP energy per Si atom -12395.027198 kJ/mol
# Density = 1.962181 g / cm^3
# Si number density = 19.666573 Si / 1000 Ang^3
#
#
#
# Elastic Constant Matrix: (Units=GPa)
#
#
# Indices 1 2 3 4 5 6 
#
# 1 110.7935 51.3776 75.2253 0.0000 0.0000 0.0000
# 2 51.3776 87.5374 46.6666 0.0000 0.0000 0.0000
# 3 75.2253 46.6666 114.4229 0.0000 0.0000 0.0000
# 4 0.0000 0.0000 0.0000 20.8251 0.0000 0.0000
# 5 0.0000 0.0000 0.0000 0.0000 34.1726 0.0000
# 6 0.0000 0.0000 0.0000 0.0000 0.0000 36.1233
#
#
#
# Elastic Compliance Matrix: (Units=1/GPa)
#
#
# Indices 1 2 3 4 5 6 
#
# 1 0.018154 -0.005485 -0.009698 0.000000 0.000000 0.000000
# 2 -0.005485 0.016255 -0.003023 0.000000 0.000000 0.000000
# 3 -0.009698 -0.003023 0.016348 0.000000 0.000000 0.000000
# 4 0.000000 0.000000 0.000000 0.048019 0.000000 0.000000
# 5 0.000000 0.000000 0.000000 0.000000 0.029263 0.000000
# 6 0.000000 0.000000 0.000000 0.000000 0.000000 0.027683
#
#
# Mechanical properties :
#
#
# Convention : Reuss Voigt Hill
#
# Bulk Modulus (GPa) = 69.71378 73.25473 71.48426
# Shear Modulus (GPa) = 25.39152 27.52315 26.45733
#
# Velocity S-wave (km/s) = 3.59709 3.74503 3.67180
# Velocity P-wave (km/s) = 7.26477 7.48529 7.37585
#
# Compressibility (1/GPa) = 0.01434437
#
# Stress axis : x y z
#
# Youngs Moduli (GPa) = 55.08466 61.52077 61.16828
#
# Poissons Ratio (x) = 0.33743 0.59321
# Poissons Ratio (y) = 0.30213 0.18494
# Poissons Ratio (z) = 0.53421 0.18600
#
# Static dielectric constant tensor:
#      x y z
#    x 3.531930 0.000000 0.000000 
#    y 0.000000 3.435880 0.000000 
#    z 0.000000 0.000000 3.502850 
# 
# 
# High freq. dielectric constant tensor:
#      x y z
#    x 1.775370 0.000000 0.000000 
#    y 0.000000 1.756220 0.000000 
#    z 0.000000 0.000000 1.756140 
# 
# From -- ./inp_files/14525.got.cif
#   From: 2010.03.12/outbox.cif.g09.slc.cpg/sg35_8_cif.got.tgz:14525.got - 2010.04.14 02:02:04.
