data_PCOD8173180
_publ_section_title
;
Structure prediction by ZEFSAII (Michael W. Deem and Ramdas Pophale) SiO2 
 PCOD8173180
Probable space group: C M M 2
;
_chemical_formula_sum "Si O2"
_cell_formula_units_Z 56
_cell_length_a 29.070218
_cell_length_b 8.774777
_cell_length_c 12.797593
_cell_angle_alpha 90.000000
_cell_angle_beta 90.000000
_cell_angle_gamma 90.000000
_cell_volume 3264.469919
_symmetry_space_group_name_H-M "C M M 2"
_symmetry_group_IT_number 35
_symmetry_cell_setting 'orthorhombic'
loop_
_space_group_symop_operation_xyz
x,y,z
-x,-y,z
-x,y,z
x,-y,z
1/2+x,1/2+y,z
1/2-x,1/2-y,z
1/2-x,1/2+y,z
1/2+x,1/2-y,z
loop_
_atom_site_type_symbol
_atom_site_label
_atom_site_fract_x
_atom_site_fract_y
_atom_site_fract_z
Si Si1 0.199631 0.818846 0.295520
Si Si2 0.798719 0.180239 0.924179
Si Si3 0.854383 0.322279 0.103105
Si Si4 0.797912 0.179451 0.687370
Si Si5 0.050918 0.673909 0.194974
Si Si6 0.356354 0.318821 0.497045
Si Si7 0.050028 0.820080 0.413305
O O1 0.250000 0.750000 0.291376
O O2 0.170815 0.760053 0.197811
O O3 0.175211 0.760971 0.401562
O O4 0.202656 0.000000 0.289767
O O5 0.750000 0.250000 0.959326
O O6 0.810492 0.228261 0.805204
O O7 0.796273 0.000000 0.938518
O O8 0.838947 0.249530 0.994114
O O9 0.841837 0.500000 0.105289
O O10 0.909457 0.294184 0.109804
O O11 0.750000 0.250000 0.651239
O O12 0.836739 0.241118 0.607599
O O13 0.792692 0.000000 0.678577
O O14 0.054048 0.500000 0.234364
O O15 0.060211 0.780839 0.293527
O O16 0.000000 0.706881 0.146711
O O17 0.357178 0.500000 0.494800
O O18 0.408474 0.254317 0.484434
O O19 0.000000 0.752995 0.448248
O O20 0.049033 0.000000 0.422772
#
# Coordination Sequence:
#
# PCOD8173180 Si02
#       7
#     8   8   8   8   8   8   8
#     4  11  21  32  46  68 100 131 158 192 235 288
#     4  10  20  34  52  71  94 126 165 206 243 282
#     4  11  21  33  50  71  97 127 160 197 240 290
#     4   9  18  33  51  70  94 125 162 201 238 279
#     4   9  18  32  49  70  96 125 158 197 239 283
#     4   9  17  30  48  71  98 126 156 194 237 282
#     4   9  16  28  48  72  97 126 159 193 233 284
#
# _framework density 17.154392999999999
#
# number of rings (size 3 to 8) (size 9 to 14) (size 15 to 20)
#    0.000    2.286    1.429    2.143    0.000    1.143 
#    0.000    1.429    0.000    0.857    0.000    2.000 
#    0.000    0.000    0.000    0.000    0.000    0.000 
#
# Total GULP energy -347103.856933 kJ/mol
# GULP energy per Si atom -12396.566319 kJ/mol
# Density = 1.711535 g / cm^3
# Si number density = 17.154393 Si / 1000 Ang^3
#
#
#
# Elastic Constant Matrix: (Units=GPa)
#
#
# Indices 1 2 3 4 5 6 
#
# 1 161.0468 32.1818 77.1219 0.0000 0.0000 0.0000
# 2 32.1818 41.0882 22.3265 0.0000 0.0000 0.0000
# 3 77.1219 22.3265 103.0164 0.0000 0.0000 0.0000
# 4 0.0000 0.0000 0.0000 15.4997 0.0000 0.0000
# 5 0.0000 0.0000 0.0000 0.0000 26.1518 0.0000
# 6 0.0000 0.0000 0.0000 0.0000 0.0000 13.7863
#
#
#
# Elastic Compliance Matrix: (Units=1/GPa)
#
#
# Indices 1 2 3 4 5 6 
#
# 1 0.010340 -0.004412 -0.006785 0.000000 0.000000 0.000000
# 2 -0.004412 0.029469 -0.003084 0.000000 0.000000 0.000000
# 3 -0.006785 -0.003084 0.015455 0.000000 0.000000 0.000000
# 4 0.000000 0.000000 0.000000 0.064517 0.000000 0.000000
# 5 0.000000 0.000000 0.000000 0.000000 0.038238 0.000000
# 6 0.000000 0.000000 0.000000 0.000000 0.000000 0.072536
#
#
# Mechanical properties :
#
#
# Convention : Reuss Voigt Hill
#
# Bulk Modulus (GPa) = 37.44897 63.15688 50.30293
# Shear Modulus (GPa) = 18.65546 22.65564 20.65555
#
# Velocity S-wave (km/s) = 3.30131 3.63807 3.47377
# Velocity P-wave (km/s) = 6.03402 7.38540 6.74365
#
# Compressibility (1/GPa) = 0.02670300
#
# Stress axis : x y z
#
# Youngs Moduli (GPa) = 96.71066 33.93371 64.70449
#
# Poissons Ratio (x) = 0.14972 0.43901
# Poissons Ratio (y) = 0.42669 0.19953
# Poissons Ratio (z) = 0.65616 0.10464
#
# Static dielectric constant tensor:
#      x y z
#    x 3.723660 0.000000 0.000000 
#    y 0.000000 3.141040 0.000000 
#    z 0.000000 0.000000 3.223920 
# 
# 
# High freq. dielectric constant tensor:
#      x y z
#    x 1.671060 0.000000 0.000000 
#    y 0.000000 1.655440 0.000000 
#    z 0.000000 0.000000 1.641680 
# 
# From -- ./inp_files/17679.got.cif
#   From: 2010.03.12/outbox.cif.g09.slc.cpg/sg35_9_cif.got.tgz:17679.got - 2010.04.14 02:02:04.
