data_PCOD8173533
_publ_section_title
;
Structure prediction by ZEFSAII (Michael W. Deem and Ramdas Pophale) SiO2 
 PCOD8173533
Probable space group: C M M 2
;
_chemical_formula_sum "Si O2"
_cell_formula_units_Z 48
_cell_length_a 29.958748
_cell_length_b 8.829384
_cell_length_c 9.526526
_cell_angle_alpha 90.000000
_cell_angle_beta 90.000000
_cell_angle_gamma 90.000000
_cell_volume 2519.930843
_symmetry_space_group_name_H-M "C M M 2"
_symmetry_group_IT_number 35
_symmetry_cell_setting 'orthorhombic'
loop_
_space_group_symop_operation_xyz
x,y,z
-x,-y,z
-x,y,z
x,-y,z
1/2+x,1/2+y,z
1/2-x,1/2-y,z
1/2-x,1/2+y,z
1/2+x,1/2-y,z
loop_
_atom_site_type_symbol
_atom_site_label
_atom_site_fract_x
_atom_site_fract_y
_atom_site_fract_z
Si Si1 0.378089 0.823674 0.196670
Si Si2 0.050633 0.178017 0.387288
Si Si3 0.129301 0.676862 0.874508
Si Si4 0.050284 0.323688 0.673826
Si Si5 0.797196 0.820520 0.687928
Si Si6 0.796837 0.678966 0.393617
O O1 0.419909 0.735702 0.259284
O O2 0.332684 0.778783 0.275630
O O3 0.388278 0.000000 0.212529
O O4 0.373285 0.775273 0.035896
O O5 0.068745 0.241295 0.535155
O O6 0.000000 0.234131 0.362515
O O7 0.053698 0.000000 0.394111
O O8 0.141154 0.500000 0.856072
O O9 0.081807 0.716811 0.804418
O O10 0.167464 0.778241 0.806243
O O11 0.051456 0.500000 0.639716
O O12 0.000000 0.269713 0.711338
O O13 0.750000 0.750000 0.732675
O O14 0.813048 0.751181 0.539812
O O15 0.792663 0.000000 0.674158
O O16 0.791315 0.500000 0.413772
O O17 0.750000 0.750000 0.345040
#
# Coordination Sequence:
#
# PCOD8173533 Si02
#       6
#     8   8   8   8   8   8
#     4  10  22  37  55  80 111 146 180 218 266 322
#     4  10  21  36  55  80 109 141 180 226 271 316
#     4  10  21  37  55  80 113 144 178 221 268 319
#     4   9  18  34  57  81 105 139 182 224 267 318
#     4  11  22  37  58  82 107 140 181 223 269 318
#     4  10  20  36  57  81 107 138 179 224 269 317
#
# _framework density 19.048141999999999
#
# number of rings (size 3 to 8) (size 9 to 14) (size 15 to 20)
#    0.000    2.000    0.000    4.500    0.000    9.000 
#    0.000    3.333    0.000    2.000    0.000    0.000 
#    0.000    0.000    0.000    0.000    0.000    0.000 
#
# Total GULP energy -297701.579026 kJ/mol
# GULP energy per Si atom -12404.232459 kJ/mol
# Density = 1.900479 g / cm^3
# Si number density = 19.048142 Si / 1000 Ang^3
#
#
#
# Elastic Constant Matrix: (Units=GPa)
#
#
# Indices 1 2 3 4 5 6 
#
# 1 115.9275 54.1478 88.9712 0.0000 0.0000 0.0000
# 2 54.1478 83.4371 53.3615 0.0000 0.0000 0.0000
# 3 88.9712 53.3615 151.1499 0.0000 0.0000 0.0000
# 4 0.0000 0.0000 0.0000 18.8743 0.0000 0.0000
# 5 0.0000 0.0000 0.0000 0.0000 17.7429 0.0000
# 6 0.0000 0.0000 0.0000 0.0000 0.0000 31.6313
#
#
#
# Elastic Compliance Matrix: (Units=1/GPa)
#
#
# Indices 1 2 3 4 5 6 
#
# 1 0.018001 -0.006336 -0.008359 0.000000 0.000000 0.000000
# 2 -0.006336 0.017710 -0.002523 0.000000 0.000000 0.000000
# 3 -0.008359 -0.002523 0.012427 0.000000 0.000000 0.000000
# 4 0.000000 0.000000 0.000000 0.052982 0.000000 0.000000
# 5 0.000000 0.000000 0.000000 0.000000 0.056361 0.000000
# 6 0.000000 0.000000 0.000000 0.000000 0.000000 0.031614
#
#
# Mechanical properties :
#
#
# Convention : Reuss Voigt Hill
#
# Bulk Modulus (GPa) = 72.97942 82.60836 77.79389
# Shear Modulus (GPa) = 21.92038 23.91862 22.91950
#
# Velocity S-wave (km/s) = 3.39601 3.54742 3.47254
# Velocity P-wave (km/s) = 7.33304 7.76152 7.55032
#
# Compressibility (1/GPa) = 0.01370249
#
# Stress axis : x y z
#
# Youngs Moduli (GPa) = 55.55319 56.46407 80.47043
#
# Poissons Ratio (x) = 0.35776 0.67265
# Poissons Ratio (y) = 0.35198 0.20302
# Poissons Ratio (z) = 0.46437 0.14245
#
# Static dielectric constant tensor:
#      x y z
#    x 3.657040 0.000000 0.000000 
#    y 0.000000 3.451140 0.000000 
#    z 0.000000 0.000000 3.464220 
# 
# 
# High freq. dielectric constant tensor:
#      x y z
#    x 1.751290 0.000000 0.000000 
#    y 0.000000 1.740900 0.000000 
#    z 0.000000 0.000000 1.736490 
# 
# From -- ./inp_files/5269.got.cif
#   From: 2010.03.12/outbox.cif.g09.slc.cpg/sg35_3_cif.got.tgz:5269.got - 2010.04.14 02:02:04.
