data_PCOD8173705
_publ_section_title
;
Structure prediction by ZEFSAII (Michael W. Deem and Ramdas Pophale) SiO2 
 PCOD8173705
Probable space group: C M M 2
;
_chemical_formula_sum "Si O2"
_cell_formula_units_Z 40
_cell_length_a 7.723741
_cell_length_b 17.734715
_cell_length_c 14.424689
_cell_angle_alpha 90.000000
_cell_angle_beta 90.000000
_cell_angle_gamma 90.000000
_cell_volume 1975.870032
_symmetry_space_group_name_H-M "C M M 2"
_symmetry_group_IT_number 35
_symmetry_cell_setting 'orthorhombic'
loop_
_space_group_symop_operation_xyz
x,y,z
-x,-y,z
-x,y,z
x,-y,z
1/2+x,1/2+y,z
1/2-x,1/2-y,z
1/2-x,1/2+y,z
1/2+x,1/2-y,z
loop_
_atom_site_type_symbol
_atom_site_label
_atom_site_fract_x
_atom_site_fract_y
_atom_site_fract_z
Si Si1 0.191671 0.586369 0.586150
Si Si2 0.200961 0.414081 0.941972
Si Si3 0.202987 0.663141 0.133389
Si Si4 0.500000 0.410500 0.459128
Si Si5 0.000000 0.910506 0.250389
Si Si6 0.306837 0.333467 0.762318
O O1 0.237990 0.500000 0.611056
O O2 0.328797 0.619119 0.512361
O O3 0.188601 0.633294 0.681151
O O4 0.000000 0.592639 0.541938
O O5 0.254974 0.500000 0.962589
O O6 0.304093 0.384305 0.853820
O O7 0.000000 0.407074 0.918199
O O8 0.250410 0.364554 0.030726
O O9 0.250000 0.750000 0.141023
O O10 0.322789 0.617832 0.204311
O O11 0.000000 0.648575 0.156304
O O12 0.500000 0.500000 0.455218
O O13 0.500000 0.378449 0.355232
O O14 0.000000 0.000000 0.247107
O O15 0.500000 0.333194 0.722697
O O16 0.250000 0.250000 0.790428
#
# Coordination Sequence:
#
# PCOD8173705 Si02
#       6
#     8   8   8   4   4   8
#     4  10  20  38  64  90 121 160 203 255 310 368
#     4  10  22  39  60  91 125 162 210 258 307 372
#     4  11  23  42  67  94 132 172 216 261 325 387
#     4   9  20  40  63  93 123 155 207 259 314 372
#     4  11  24  42  69  99 130 165 215 277 325 382
#     4  12  24  37  57  85 125 165 210 252 308 373
#
# _framework density 20.244246
#
# number of rings (size 3 to 8) (size 9 to 14) (size 15 to 20)
#    0.000    1.400    2.000    3.600    1.400    6.400 
#    0.000    3.000    0.000    0.000    0.000    0.000 
#    0.000    0.000    0.000    0.000    0.000    0.000 
#
# Total GULP energy -248066.849045 kJ/mol
# GULP energy per Si atom -12403.342452 kJ/mol
# Density = 2.019817 g / cm^3
# Si number density = 20.244246 Si / 1000 Ang^3
#
#
#
# Elastic Constant Matrix: (Units=GPa)
#
#
# Indices 1 2 3 4 5 6 
#
# 1 134.7586 30.1702 62.9381 0.0000 0.0000 0.0000
# 2 30.1702 89.4203 36.2193 0.0000 0.0000 0.0000
# 3 62.9381 36.2193 141.1533 0.0000 0.0000 0.0000
# 4 0.0000 0.0000 0.0000 6.1144 0.0000 0.0000
# 5 0.0000 0.0000 0.0000 0.0000 21.4996 0.0000
# 6 0.0000 0.0000 0.0000 0.0000 0.0000 19.9893
#
#
#
# Elastic Compliance Matrix: (Units=1/GPa)
#
#
# Indices 1 2 3 4 5 6 
#
# 1 0.009593 -0.001679 -0.003847 0.000000 0.000000 0.000000
# 2 -0.001679 0.012774 -0.002529 0.000000 0.000000 0.000000
# 3 -0.003847 -0.002529 0.009449 0.000000 0.000000 0.000000
# 4 0.000000 0.000000 0.000000 0.163548 0.000000 0.000000
# 5 0.000000 0.000000 0.000000 0.000000 0.046512 0.000000
# 6 0.000000 0.000000 0.000000 0.000000 0.000000 0.050027
#
#
# Mechanical properties :
#
#
# Convention : Reuss Voigt Hill
#
# Bulk Modulus (GPa) = 63.66756 69.33194 66.49975
# Shear Modulus (GPa) = 15.96180 25.25431 20.60806
#
# Velocity S-wave (km/s) = 2.81100 3.53580 3.19403
# Velocity P-wave (km/s) = 6.48488 7.14082 6.82074
#
# Compressibility (1/GPa) = 0.01570658
#
# Stress axis : x y z
#
# Youngs Moduli (GPa) = 104.24214 78.28420 105.83498
#
# Poissons Ratio (x) = 0.13141 0.40711
# Poissons Ratio (y) = 0.17498 0.26769
# Poissons Ratio (z) = 0.40099 0.19800
#
# Static dielectric constant tensor:
#      x y z
#    x 3.882980 0.000000 0.000000 
#    y 0.000000 3.614650 0.000000 
#    z 0.000000 0.000000 3.618380 
# 
# 
# High freq. dielectric constant tensor:
#      x y z
#    x 1.806130 0.000000 0.000000 
#    y 0.000000 1.786190 0.000000 
#    z 0.000000 0.000000 1.782690 
# 
# From -- ./inp_files/14804.got.cif
#   From: 2010.03.12/outbox.cif.g09.slc.cpg/sg35_8_cif.got.tgz:14804.got - 2010.04.14 02:02:04.
