data_PCOD8173851
_publ_section_title
;
Structure prediction by ZEFSAII (Michael W. Deem and Ramdas Pophale) SiO2 
 PCOD8173851
Probable space group: C M M 2
;
_chemical_formula_sum "Si O2"
_cell_formula_units_Z 48
_cell_length_a 9.108050
_cell_length_b 33.700579
_cell_length_c 7.894605
_cell_angle_alpha 90.000000
_cell_angle_beta 90.000000
_cell_angle_gamma 90.000000
_cell_volume 2423.221836
_symmetry_space_group_name_H-M "C M M 2"
_symmetry_group_IT_number 35
_symmetry_cell_setting 'orthorhombic'
loop_
_space_group_symop_operation_xyz
x,y,z
-x,-y,z
-x,y,z
x,-y,z
1/2+x,1/2+y,z
1/2-x,1/2-y,z
1/2-x,1/2+y,z
1/2+x,1/2-y,z
loop_
_atom_site_type_symbol
_atom_site_label
_atom_site_fract_x
_atom_site_fract_y
_atom_site_fract_z
Si Si1 0.669745 0.847122 0.116260
Si Si2 0.671054 0.500000 0.463600
Si Si3 0.831082 0.657026 0.492950
Si Si4 0.174711 0.500000 0.111029
Si Si5 0.334207 0.583501 0.610454
Si Si6 0.673608 0.208130 0.805410
Si Si7 0.169400 0.921732 0.998642
O O1 0.500000 0.859000 0.089589
O O2 0.693166 0.826789 0.301363
O O3 0.721051 0.817057 0.970202
O O4 0.765857 0.886990 0.114949
O O5 0.500000 0.500000 0.408518
O O6 0.776508 0.500000 0.304230
O O7 0.711298 0.461778 0.575294
O O8 0.763310 0.613375 0.502975
O O9 0.765613 0.687059 0.633736
O O10 0.000000 0.651529 0.536875
O O11 0.000000 0.500000 0.097219
O O12 0.238698 0.538451 0.019514
O O13 0.500000 0.590678 0.551658
O O14 0.314004 0.592848 0.807161
O O15 0.500000 0.214569 0.798720
O O16 0.750000 0.250000 0.821734
O O17 0.000000 0.929654 0.048364
#
# Coordination Sequence:
#
# PCOD8173851 Si02
#       7
#     8   4   8   4   8   8   8
#     4  10  21  39  62  89 120 156 198 241 293 354
#     4  10  21  38  56  80 116 154 197 249 295 339
#     4  10  21  38  61  87 118 156 195 240 292 348
#     4  12  25  38  54  82 118 158 203 247 293 347
#     4  10  21  37  59  85 116 154 197 244 293 347
#     4  10  22  40  61  87 121 154 192 242 293 351
#     4  11  22  38  60  86 117 155 199 246 296 348
#
# _framework density 19.808339
#
# number of rings (size 3 to 8) (size 9 to 14) (size 15 to 20)
#    0.000    1.667    1.667    2.750    0.000    8.000 
#    0.000    0.833    0.000    0.000    0.000    0.000 
#    0.000    0.000    0.000    0.000    0.000    0.000 
#
# Total GULP energy -297650.097313 kJ/mol
# GULP energy per Si atom -12402.087388 kJ/mol
# Density = 1.976325 g / cm^3
# Si number density = 19.808339 Si / 1000 Ang^3
#
#
#
# Elastic Constant Matrix: (Units=GPa)
#
#
# Indices 1 2 3 4 5 6 
#
# 1 78.3042 49.2952 38.4266 0.0000 0.0000 0.0000
# 2 49.2952 135.3342 54.0575 0.0000 0.0000 0.0000
# 3 38.4266 54.0575 122.8440 0.0000 0.0000 0.0000
# 4 0.0000 0.0000 0.0000 20.6290 0.0000 0.0000
# 5 0.0000 0.0000 0.0000 0.0000 25.5810 0.0000
# 6 0.0000 0.0000 0.0000 0.0000 0.0000 38.4780
#
#
#
# Elastic Compliance Matrix: (Units=1/GPa)
#
#
# Indices 1 2 3 4 5 6 
#
# 1 0.017580 -0.005104 -0.003253 0.000000 0.000000 0.000000
# 2 -0.005104 0.010447 -0.003000 0.000000 0.000000 0.000000
# 3 -0.003253 -0.003000 0.010478 0.000000 0.000000 0.000000
# 4 0.000000 0.000000 0.000000 0.048475 0.000000 0.000000
# 5 0.000000 0.000000 0.000000 0.000000 0.039091 0.000000
# 6 0.000000 0.000000 0.000000 0.000000 0.000000 0.025989
#
#
# Mechanical properties :
#
#
# Convention : Reuss Voigt Hill
#
# Bulk Modulus (GPa) = 63.33171 68.89346 66.11259
# Shear Modulus (GPa) = 27.77154 29.91781 28.84468
#
# Velocity S-wave (km/s) = 3.74841 3.89056 3.82014
# Velocity P-wave (km/s) = 7.12571 7.41872 7.27369
#
# Compressibility (1/GPa) = 0.01578988
#
# Stress axis : x y z
#
# Youngs Moduli (GPa) = 56.88144 95.72293 95.43437
#
# Poissons Ratio (x) = 0.48859 0.31047
# Poissons Ratio (y) = 0.29033 0.28635
# Poissons Ratio (z) = 0.18505 0.28722
#
# Static dielectric constant tensor:
#      x y z
#    x 3.538100 0.000000 0.000000 
#    y 0.000000 3.546710 0.000000 
#    z 0.000000 0.000000 3.852150 
# 
# 
# High freq. dielectric constant tensor:
#      x y z
#    x 1.764680 0.000000 0.000000 
#    y 0.000000 1.766290 0.000000 
#    z 0.000000 0.000000 1.788500 
# 
# From -- ./inp_files/5383.got.cif
#   From: 2010.03.12/outbox.cif.g09.slc.cpg/sg35_3_cif.got.tgz:5383.got - 2010.04.14 02:02:04.
