data_PCOD8173145
_publ_section_title
;
Structure prediction by ZEFSAII (Michael W. Deem and Ramdas Pophale) SiO2 
 PCOD8173145
Probable space group: C M M 2
;
_chemical_formula_sum "Si O2"
_cell_formula_units_Z 64
_cell_length_a 9.243655
_cell_length_b 28.894928
_cell_length_c 12.470851
_cell_angle_alpha 90.000000
_cell_angle_beta 90.000000
_cell_angle_gamma 90.000000
_cell_volume 3330.898776
_symmetry_space_group_name_H-M "C M M 2"
_symmetry_group_IT_number 35
_symmetry_cell_setting 'orthorhombic'
loop_
_space_group_symop_operation_xyz
x,y,z
-x,-y,z
-x,y,z
x,-y,z
1/2+x,1/2+y,z
1/2-x,1/2-y,z
1/2-x,1/2+y,z
1/2+x,1/2-y,z
loop_
_atom_site_type_symbol
_atom_site_label
_atom_site_fract_x
_atom_site_fract_y
_atom_site_fract_z
Si Si1 0.827881 0.705510 0.872870
Si Si2 0.174838 0.703598 0.339161
Si Si3 0.839352 0.578561 0.038220
Si Si4 0.838595 0.317919 0.104329
Si Si5 0.169793 0.946605 0.615014
Si Si6 0.170967 0.604834 0.805027
Si Si7 0.828214 0.884924 0.411193
Si Si8 0.338731 0.550612 0.223816
O O1 0.750000 0.750000 0.819211
O O2 0.787343 0.659482 0.805393
O O3 0.000000 0.711781 0.873357
O O4 0.765435 0.701486 0.995266
O O5 0.250000 0.750000 0.383959
O O6 0.234419 0.697346 0.216478
O O7 0.236646 0.662387 0.413636
O O8 0.000000 0.705062 0.347688
O O9 0.778528 0.582920 0.918031
O O10 0.000000 0.557806 0.033638
O O11 0.838857 0.627180 0.098989
O O12 0.743133 0.545550 0.111005
O O13 0.000000 0.298164 0.107304
O O14 0.247990 0.923288 0.714789
O O15 0.213402 0.916555 0.512119
O O16 0.000000 0.944607 0.636112
O O17 0.220349 0.000000 0.600761
O O18 0.000000 0.599477 0.790032
O O19 0.772647 0.913021 0.307291
O O20 0.000000 0.874815 0.408259
O O21 0.500000 0.566645 0.196080
O O22 0.337233 0.500000 0.278931
#
# Coordination Sequence:
#
# PCOD8173145 Si02
#       8
#     8   8   8   8   8   8   8   8
#     4   9  17  31  51  78 112 149 185 222 267 321
#     4  11  21  34  55  83 115 150 188 229 275 328
#     4   9  17  33  53  76 111 151 184 221 273 330
#     4   8  15  29  49  74 109 148 183 220 262 314
#     4  10  22  41  64  85 106 139 186 239 289 336
#     4   9  20  37  57  81 113 148 185 230 279 331
#     4  10  21  39  59  80 110 146 186 232 284 335
#     4  10  20  33  52  80 112 144 180 226 281 339
#
# _framework density 19.214034000000002
#
# number of rings (size 3 to 8) (size 9 to 14) (size 15 to 20)
#    0.000    2.500    1.250    2.625    0.000    4.000 
#    0.000    5.625    0.000    3.750    0.000    0.000 
#    0.000    0.000    0.000    0.000    0.000    0.000 
#
# Total GULP energy -396565.317178 kJ/mol
# GULP energy per Si atom -12392.666162 kJ/mol
# Density = 1.917030 g / cm^3
# Si number density = 19.214034 Si / 1000 Ang^3
#
#
#
# Elastic Constant Matrix: (Units=GPa)
#
#
# Indices 1 2 3 4 5 6 
#
# 1 55.0122 50.2996 46.6099 0.0000 0.0000 0.0000
# 2 50.2996 139.7798 65.9139 0.0000 0.0000 0.0000
# 3 46.6099 65.9139 110.4027 0.0000 0.0000 0.0000
# 4 0.0000 0.0000 0.0000 23.4619 0.0000 0.0000
# 5 0.0000 0.0000 0.0000 0.0000 27.6940 0.0000
# 6 0.0000 0.0000 0.0000 0.0000 0.0000 27.6278
#
#
#
# Elastic Compliance Matrix: (Units=1/GPa)
#
#
# Indices 1 2 3 4 5 6 
#
# 1 0.032997 -0.007384 -0.009522 0.000000 0.000000 0.000000
# 2 -0.007384 0.011610 -0.003814 0.000000 0.000000 0.000000
# 3 -0.009522 -0.003814 0.015355 0.000000 0.000000 0.000000
# 4 0.000000 0.000000 0.000000 0.042622 0.000000 0.000000
# 5 0.000000 0.000000 0.000000 0.000000 0.036109 0.000000
# 6 0.000000 0.000000 0.000000 0.000000 0.000000 0.036195
#
#
# Mechanical properties :
#
#
# Convention : Reuss Voigt Hill
#
# Bulk Modulus (GPa) = 53.99165 70.09348 62.04257
# Shear Modulus (GPa) = 22.47169 25.24816 23.85992
#
# Velocity S-wave (km/s) = 3.42357 3.62891 3.52774
# Velocity P-wave (km/s) = 6.61732 7.35651 6.99668
#
# Compressibility (1/GPa) = 0.01852138
#
# Stress axis : x y z
#
# Youngs Moduli (GPa) = 30.30593 86.13529 65.12489
#
# Poissons Ratio (x) = 0.63598 0.62015
# Poissons Ratio (y) = 0.22376 0.24840
# Poissons Ratio (z) = 0.28859 0.32853
#
# Static dielectric constant tensor:
#      x y z
#    x 3.271530 0.000000 0.000000 
#    y 0.000000 3.577640 0.000000 
#    z 0.000000 0.000000 3.399420 
# 
# 
# High freq. dielectric constant tensor:
#      x y z
#    x 1.725500 0.000000 0.000000 
#    y 0.000000 1.757100 0.000000 
#    z 0.000000 0.000000 1.731100 
# 
# From -- ./inp_files/11858.got.cif
#   From: 2010.03.12/outbox.cif.g09.slc.cpg/sg35_6_cif.got.tgz:11858.got - 2010.04.14 02:02:04.
