data_PCOD8173793
_publ_section_title
;
Structure prediction by ZEFSAII (Michael W. Deem and Ramdas Pophale) SiO2 
 PCOD8173793
Probable space group: C M M 2
;
_chemical_formula_sum "Si O2"
_cell_formula_units_Z 64
_cell_length_a 9.001685
_cell_length_b 18.483731
_cell_length_c 20.100280
_cell_angle_alpha 90.000000
_cell_angle_beta 90.000000
_cell_angle_gamma 90.000000
_cell_volume 3344.379542
_symmetry_space_group_name_H-M "C M M 2"
_symmetry_group_IT_number 35
_symmetry_cell_setting 'orthorhombic'
loop_
_space_group_symop_operation_xyz
x,y,z
-x,-y,z
-x,y,z
x,-y,z
1/2+x,1/2+y,z
1/2-x,1/2-y,z
1/2-x,1/2+y,z
1/2+x,1/2-y,z
loop_
_atom_site_type_symbol
_atom_site_label
_atom_site_fract_x
_atom_site_fract_y
_atom_site_fract_z
Si Si1 0.324778 0.172814 0.989070
Si Si2 0.326870 0.083498 0.861182
Si Si3 0.673481 0.676391 0.602099
Si Si4 0.328797 0.083332 0.116786
Si Si5 0.326247 0.323789 0.755473
Si Si6 0.175483 0.672685 0.367495
Si Si7 0.172322 0.416720 0.496977
Si Si8 0.173112 0.083904 0.252663
O O1 0.500000 0.182636 0.988316
O O2 0.250000 0.250000 0.986422
O O3 0.271546 0.126897 0.925678
O O4 0.273436 0.131338 0.055310
O O5 0.500000 0.096430 0.847407
O O6 0.236238 0.109272 0.796965
O O7 0.291065 0.000000 0.873786
O O8 0.500000 0.685271 0.590019
O O9 0.750000 0.750000 0.577076
O O10 0.712282 0.660898 0.678723
O O11 0.733923 0.609358 0.560085
O O12 0.500000 0.099122 0.135137
O O13 0.226433 0.104307 0.178914
O O14 0.307869 0.000000 0.096302
O O15 0.500000 0.315591 0.767610
O O16 0.250000 0.250000 0.780307
O O17 0.250000 0.750000 0.374271
O O18 0.221465 0.626781 0.431837
O O19 0.234389 0.632113 0.302971
O O20 0.000000 0.681802 0.361023
O O21 0.210096 0.500000 0.483722
O O22 0.000000 0.404829 0.513184
O O23 0.000000 0.102189 0.259208
O O24 0.206287 0.000000 0.267807
#
# Coordination Sequence:
#
# PCOD8173793 Si02
#       8
#     8   8   8   8   8   8   8   8
#     4  10  21  36  55  80 109 142 182 227 275 329
#     4  10  21  37  57  81 110 145 185 229 277 329
#     4  10  21  37  58  83 112 147 185 226 273 326
#     4   9  18  35  58  80 106 144 185 224 270 325
#     4  10  21  37  57  82 112 146 185 227 273 327
#     4  11  23  39  59  83 112 146 185 228 275 327
#     4  10  22  39  59  84 113 145 183 227 274 327
#     4  10  21  37  58  85 115 146 183 227 273 324
#
# _framework density 19.136583999999999
#
# number of rings (size 3 to 8) (size 9 to 14) (size 15 to 20)
#    0.000    2.000    0.000    3.000    0.000    9.750 
#    0.000    3.750    0.000    2.250    0.000    0.000 
#    0.000    0.000    0.000    0.000    0.000    0.000 
#
# Total GULP energy -396984.321272 kJ/mol
# GULP energy per Si atom -12405.760040 kJ/mol
# Density = 1.909303 g / cm^3
# Si number density = 19.136584 Si / 1000 Ang^3
#
#
#
# Elastic Constant Matrix: (Units=GPa)
#
#
# Indices 1 2 3 4 5 6 
#
# 1 73.6204 57.7389 56.3320 0.0000 0.0000 0.0000
# 2 57.7389 137.7967 84.6947 0.0000 0.0000 0.0000
# 3 56.3320 84.6947 121.8382 0.0000 0.0000 0.0000
# 4 0.0000 0.0000 0.0000 40.2279 0.0000 0.0000
# 5 0.0000 0.0000 0.0000 0.0000 26.6357 0.0000
# 6 0.0000 0.0000 0.0000 0.0000 0.0000 35.0323
#
#
#
# Elastic Compliance Matrix: (Units=1/GPa)
#
#
# Indices 1 2 3 4 5 6 
#
# 1 0.023148 -0.005450 -0.006914 0.000000 0.000000 0.000000
# 2 -0.005450 0.013954 -0.007180 0.000000 0.000000 0.000000
# 3 -0.006914 -0.007180 0.016396 0.000000 0.000000 0.000000
# 4 0.000000 0.000000 0.000000 0.024858 0.000000 0.000000
# 5 0.000000 0.000000 0.000000 0.000000 0.037544 0.000000
# 6 0.000000 0.000000 0.000000 0.000000 0.000000 0.028545
#
#
# Mechanical properties :
#
#
# Convention : Reuss Voigt Hill
#
# Bulk Modulus (GPa) = 69.40001 81.19848 75.29924
# Shear Modulus (GPa) = 26.54847 29.34515 27.94681
#
# Velocity S-wave (km/s) = 3.72871 3.92019 3.82565
# Velocity P-wave (km/s) = 7.40824 7.93811 7.67775
#
# Compressibility (1/GPa) = 0.01440922
#
# Stress axis : x y z
#
# Youngs Moduli (GPa) = 43.20099 71.66557 60.99200
#
# Poissons Ratio (x) = 0.39054 0.42171
# Poissons Ratio (y) = 0.23543 0.43793
# Poissons Ratio (z) = 0.29870 0.51457
#
# Static dielectric constant tensor:
#      x y z
#    x 3.474620 0.000000 0.000000 
#    y 0.000000 3.533040 0.000000 
#    z 0.000000 0.000000 3.584460 
# 
# 
# High freq. dielectric constant tensor:
#      x y z
#    x 1.745070 0.000000 0.000000 
#    y 0.000000 1.748090 0.000000 
#    z 0.000000 0.000000 1.754830 
# 
# From -- ./inp_files/18336.got.cif
#   From: 2010.03.12/outbox.cif.g09.slc.cpg/sg35_10_cif.got.tgz:18336.got - 2010.04.14 02:02:04.
