data_PCOD8173810
_publ_section_title
;
Structure prediction by ZEFSAII (Michael W. Deem and Ramdas Pophale) SiO2 
 PCOD8173810
Probable space group: C M M 2
;
_chemical_formula_sum "Si O2"
_cell_formula_units_Z 56
_cell_length_a 19.927283
_cell_length_b 16.361831
_cell_length_c 8.492717
_cell_angle_alpha 90.000000
_cell_angle_beta 90.000000
_cell_angle_gamma 90.000000
_cell_volume 2769.023513
_symmetry_space_group_name_H-M "C M M 2"
_symmetry_group_IT_number 35
_symmetry_cell_setting 'orthorhombic'
loop_
_space_group_symop_operation_xyz
x,y,z
-x,-y,z
-x,y,z
x,-y,z
1/2+x,1/2+y,z
1/2-x,1/2-y,z
1/2-x,1/2+y,z
1/2+x,1/2-y,z
loop_
_atom_site_type_symbol
_atom_site_label
_atom_site_fract_x
_atom_site_fract_y
_atom_site_fract_z
Si Si1 0.304481 0.408617 0.630630
Si Si2 0.781981 0.671392 0.118903
Si Si3 0.074699 0.297024 0.576168
Si Si4 0.076974 0.129938 0.421911
Si Si5 0.852474 0.777875 0.858066
Si Si6 0.142490 0.092097 0.090769
Si Si7 0.678288 0.906052 0.420001
O O1 0.289447 0.500000 0.701062
O O2 0.379592 0.411297 0.560025
O O3 0.299407 0.335330 0.759198
O O4 0.252155 0.388685 0.490342
O O5 0.750000 0.750000 0.205689
O O6 0.722959 0.606496 0.085012
O O7 0.832042 0.631821 0.245503
O O8 0.816480 0.705258 0.957863
O O9 0.080447 0.227749 0.442129
O O10 0.092278 0.261695 0.747383
O O11 0.124215 0.370329 0.539122
O O12 0.000000 0.332646 0.584252
O O13 0.109694 0.103675 0.259370
O O14 0.000000 0.099033 0.432559
O O15 0.890912 0.841291 0.974182
O O16 0.128758 0.000000 0.031986
O O17 0.662349 0.000000 0.404024
#
# Coordination Sequence:
#
# PCOD8173810 Si02
#       7
#     8   8   8   8   8   8   8
#     4  10  21  37  59  93 125 157 203 250 302 358
#     4  10  21  36  58  90 123 160 198 247 298 360
#     4  10  23  42  63  87 118 158 208 257 305 367
#     4  10  21  38  62  90 125 168 206 243 291 354
#     4  10  23  37  59  85 121 164 197 249 303 359
#     4  11  21  35  55  87 128 162 200 244 296 358
#     4  11  23  39  64  91 119 155 201 261 311 353
#
# _framework density 20.223735999999999
#
# number of rings (size 3 to 8) (size 9 to 14) (size 15 to 20)
#    0.000    1.714    1.429    3.000    8.000    2.000 
#    0.000    1.429    0.000    2.571    0.000    0.000 
#    0.000    0.000    0.000    0.000    0.000    0.000 
#
# Total GULP energy -346991.270086 kJ/mol
# GULP energy per Si atom -12392.545360 kJ/mol
# Density = 2.017771 g / cm^3
# Si number density = 20.223736 Si / 1000 Ang^3
#
#
#
# Elastic Constant Matrix: (Units=GPa)
#
#
# Indices 1 2 3 4 5 6 
#
# 1 105.9069 38.3044 34.1475 0.0000 0.0000 0.0000
# 2 38.3044 86.7143 38.7717 0.0000 0.0000 0.0000
# 3 34.1475 38.7717 97.9511 0.0000 0.0000 0.0000
# 4 0.0000 0.0000 0.0000 19.6225 0.0000 0.0000
# 5 0.0000 0.0000 0.0000 0.0000 21.2170 0.0000
# 6 0.0000 0.0000 0.0000 0.0000 0.0000 13.8447
#
#
#
# Elastic Compliance Matrix: (Units=1/GPa)
#
#
# Indices 1 2 3 4 5 6 
#
# 1 0.011711 -0.004067 -0.002473 0.000000 0.000000 0.000000
# 2 -0.004067 0.015425 -0.004688 0.000000 0.000000 0.000000
# 3 -0.002473 -0.004688 0.012927 0.000000 0.000000 0.000000
# 4 0.000000 0.000000 0.000000 0.050962 0.000000 0.000000
# 5 0.000000 0.000000 0.000000 0.000000 0.047132 0.000000
# 6 0.000000 0.000000 0.000000 0.000000 0.000000 0.072230
#
#
# Mechanical properties :
#
#
# Convention : Reuss Voigt Hill
#
# Bulk Modulus (GPa) = 56.79584 57.00218 56.89901
# Shear Modulus (GPa) = 20.94597 22.89343 21.91970
#
# Velocity S-wave (km/s) = 3.22174 3.36818 3.29577
# Velocity P-wave (km/s) = 6.47952 6.58583 6.53289
#
# Compressibility (1/GPa) = 0.01760692
#
# Stress axis : x y z
#
# Youngs Moduli (GPa) = 85.39297 64.83101 77.35981
#
# Poissons Ratio (x) = 0.26369 0.19127
# Poissons Ratio (y) = 0.34733 0.36263
# Poissons Ratio (z) = 0.21114 0.30390
#
# Static dielectric constant tensor:
#      x y z
#    x 3.512110 0.000000 0.000000 
#    y 0.000000 3.768010 0.000000 
#    z 0.000000 0.000000 3.816390 
# 
# 
# High freq. dielectric constant tensor:
#      x y z
#    x 1.760380 0.000000 0.000000 
#    y 0.000000 1.793130 0.000000 
#    z 0.000000 0.000000 1.794700 
# 
# From -- ./inp_files/7602.got.cif
#   From: 2010.03.12/outbox.cif.g09.slc.cpg/sg35_4_cif.got.tgz:7602.got - 2010.04.14 02:02:04.
