data_PCOD8173392
_publ_section_title
;
Structure prediction by ZEFSAII (Michael W. Deem and Ramdas Pophale) SiO2 
 PCOD8173392
Probable space group: C M M 2
;
_chemical_formula_sum "Si O2"
_cell_formula_units_Z 64
_cell_length_a 27.642928
_cell_length_b 9.097183
_cell_length_c 13.783624
_cell_angle_alpha 90.000000
_cell_angle_beta 90.000000
_cell_angle_gamma 90.000000
_cell_volume 3466.206172
_symmetry_space_group_name_H-M "C M M 2"
_symmetry_group_IT_number 35
_symmetry_cell_setting 'orthorhombic'
loop_
_space_group_symop_operation_xyz
x,y,z
-x,-y,z
-x,y,z
x,-y,z
1/2+x,1/2+y,z
1/2-x,1/2-y,z
1/2-x,1/2+y,z
1/2+x,1/2-y,z
loop_
_atom_site_type_symbol
_atom_site_label
_atom_site_fract_x
_atom_site_fract_y
_atom_site_fract_z
Si Si1 0.200802 0.171650 0.957820
Si Si2 0.111226 0.166913 0.092057
Si Si3 0.556010 0.329217 0.458650
Si Si4 0.639506 0.171784 0.801411
Si Si5 0.892252 0.328251 0.289295
Si Si6 0.633136 0.828955 0.578682
Si Si7 0.700629 0.830451 0.408040
Si Si8 0.944422 0.830503 0.901358
O O1 0.250000 0.250000 0.989365
O O2 0.181030 0.241449 0.858442
O O3 0.209668 0.000000 0.939318
O O4 0.163230 0.199066 0.044446
O O5 0.101602 0.276806 0.179465
O O6 0.108774 0.000000 0.130409
O O7 0.069675 0.197088 0.013015
O O8 0.500000 0.302495 0.481324
O O9 0.568655 0.500000 0.449909
O O10 0.569234 0.253375 0.357001
O O11 0.585679 0.261274 0.548311
O O12 0.647544 0.205206 0.688495
O O13 0.586355 0.227424 0.830730
O O14 0.643680 0.000000 0.825321
O O15 0.903325 0.500000 0.296174
O O16 0.837893 0.292118 0.324199
O O17 0.678362 0.781167 0.511553
O O18 0.621067 0.000000 0.561644
O O19 0.750000 0.750000 0.384236
O O20 0.713562 0.000000 0.409401
O O21 0.000000 0.788969 0.886233
O O22 0.933572 0.000000 0.874586
#
# Coordination Sequence:
#
# PCOD8173392 Si02
#       8
#     8   8   8   8   8   8   8   8
#     4  10  21  37  56  79 108 142 179 220 266 314
#     4   9  19  35  54  77 105 138 176 216 260 310
#     4  10  21  36  55  79 105 136 176 218 260 311
#     4  10  20  35  55  79 108 140 176 219 265 315
#     4  10  21  36  54  77 106 138 172 213 261 312
#     4   9  20  37  54  76 107 139 172 214 263 311
#     4   9  19  35  52  73 101 132 167 206 251 302
#     4   9  19  36  55  76 106 141 175 216 265 314
#
# _framework density 18.463991
#
# number of rings (size 3 to 8) (size 9 to 14) (size 15 to 20)
#    0.000    2.500    0.000    3.000    0.000    9.250 
#    0.000    7.500    0.000    0.000    0.000    0.000 
#    0.000    0.000    0.000    0.000    0.000    0.000 
#
# Total GULP energy -396883.810385 kJ/mol
# GULP energy per Si atom -12402.619075 kJ/mol
# Density = 1.842197 g / cm^3
# Si number density = 18.463991 Si / 1000 Ang^3
#
#
#
# Elastic Constant Matrix: (Units=GPa)
#
#
# Indices 1 2 3 4 5 6 
#
# 1 42.0593 13.8323 -21.4418 0.0000 0.0000 0.0000
# 2 13.8323 73.2310 15.6683 0.0000 0.0000 0.0000
# 3 -21.4418 15.6683 49.4922 0.0000 0.0000 0.0000
# 4 0.0000 0.0000 0.0000 33.2377 0.0000 0.0000
# 5 0.0000 0.0000 0.0000 0.0000 11.9330 0.0000
# 6 0.0000 0.0000 0.0000 0.0000 0.0000 34.2520
#
#
#
# Elastic Compliance Matrix: (Units=1/GPa)
#
#
# Indices 1 2 3 4 5 6 
#
# 1 0.037676 -0.011380 0.019925 0.000000 0.000000 0.000000
# 2 -0.011380 0.018085 -0.010655 0.000000 0.000000 0.000000
# 3 0.019925 -0.010655 0.032211 0.000000 0.000000 0.000000
# 4 0.000000 0.000000 0.000000 0.030086 0.000000 0.000000
# 5 0.000000 0.000000 0.000000 0.000000 0.083802 0.000000
# 6 0.000000 0.000000 0.000000 0.000000 0.000000 0.029195
#
#
# Mechanical properties :
#
#
# Convention : Reuss Voigt Hill
#
# Bulk Modulus (GPa) = 11.93995 20.10002 16.01999
# Shear Modulus (GPa) = 18.99753 26.33277 22.66515
#
# Velocity S-wave (km/s) = 3.21112 3.78056 3.50742
# Velocity P-wave (km/s) = 4.49767 5.47417 5.00977
#
# Compressibility (1/GPa) = 0.08375244
#
# Stress axis : x y z
#
# Youngs Moduli (GPa) = 26.54185 55.29544 31.04543
#
# Poissons Ratio (x) = 0.62925 -0.61859
# Poissons Ratio (y) = 0.30204 0.33080
# Poissons Ratio (z) = -0.52886 0.58919
#
# Static dielectric constant tensor:
#      x y z
#    x 3.375240 0.000000 0.000000 
#    y 0.000000 3.444030 0.000000 
#    z 0.000000 0.000000 3.348260 
# 
# 
# High freq. dielectric constant tensor:
#      x y z
#    x 1.715110 0.000000 0.000000 
#    y 0.000000 1.723080 0.000000 
#    z 0.000000 0.000000 1.713580 
# 
# From -- ./inp_files/17750.got.cif
#   From: 2010.03.12/outbox.cif.g09.slc.cpg/sg35_9_cif.got.tgz:17750.got - 2010.04.14 02:02:04.
