data_PCOD8173007
_publ_section_title
;
Structure prediction by ZEFSAII (Michael W. Deem and Ramdas Pophale) SiO2 
 PCOD8173007
Probable space group: C M M 2
;
_chemical_formula_sum "Si O2"
_cell_formula_units_Z 48
_cell_length_a 19.781184
_cell_length_b 9.041170
_cell_length_c 15.541903
_cell_angle_alpha 90.000000
_cell_angle_beta 90.000000
_cell_angle_gamma 90.000000
_cell_volume 2779.592378
_symmetry_space_group_name_H-M "C M M 2"
_symmetry_group_IT_number 35
_symmetry_cell_setting 'orthorhombic'
loop_
_space_group_symop_operation_xyz
x,y,z
-x,-y,z
-x,y,z
x,-y,z
1/2+x,1/2+y,z
1/2-x,1/2-y,z
1/2-x,1/2+y,z
1/2+x,1/2-y,z
loop_
_atom_site_type_symbol
_atom_site_label
_atom_site_fract_x
_atom_site_fract_y
_atom_site_fract_z
Si Si1 0.177973 0.672071 0.868940
Si Si2 0.425398 0.675264 0.381412
Si Si3 0.178529 0.827536 0.520402
Si Si4 0.321780 0.828100 0.059537
Si Si5 0.322117 0.327883 0.709999
Si Si6 0.078707 0.171055 0.187395
O O1 0.185343 0.500000 0.848145
O O2 0.250000 0.750000 0.870926
O O3 0.136562 0.749997 0.789510
O O4 0.146678 0.698223 0.963695
O O5 0.500000 0.741323 0.400070
O O6 0.429064 0.500000 0.390450
O O7 0.372829 0.741317 0.450453
O O8 0.402487 0.716848 0.284940
O O9 0.250000 0.750000 0.509385
O O10 0.145264 0.803134 0.615500
O O11 0.190924 0.000000 0.503751
O O12 0.250000 0.750000 0.073103
O O13 0.376995 0.770467 0.125319
O O14 0.308875 0.000000 0.075977
O O15 0.314386 0.500000 0.731035
O O16 0.250000 0.250000 0.705431
O O17 0.000000 0.202115 0.169573
O O18 0.095813 0.000000 0.170731
#
# Coordination Sequence:
#
# PCOD8173007 Si02
#       6
#     8   8   8   8   8   8
#     4   9  16  26  41  62  88 119 151 183 223 268
#     4   8  15  30  50  68  88 118 154 187 222 269
#     4   9  17  28  44  68  94 119 148 184 225 265
#     4  10  20  32  48  71  97 124 155 194 237 278
#     4   9  15  23  38  61  88 117 147 181 221 264
#     4   9  18  33  52  71  92 122 158 194 234 280
#
# _framework density 17.268718
#
# number of rings (size 3 to 8) (size 9 to 14) (size 15 to 20)
#    0.000    3.000    0.000    3.500    0.000    3.667 
#    0.000    2.500    0.000    2.500    0.000    2.333 
#    0.000    0.000    0.000    0.000    0.000    0.000 
#
# Total GULP energy -297317.382674 kJ/mol
# GULP energy per Si atom -12388.224278 kJ/mol
# Density = 1.722941 g / cm^3
# Si number density = 17.268718 Si / 1000 Ang^3
#
#
#
# Elastic Constant Matrix: (Units=GPa)
#
#
# Indices 1 2 3 4 5 6 
#
# 1 60.8461 35.6495 69.5788 0.0000 0.0000 0.0000
# 2 35.6495 87.2325 66.0410 0.0000 0.0000 0.0000
# 3 69.5788 66.0410 170.4235 0.0000 0.0000 0.0000
# 4 0.0000 0.0000 0.0000 26.0502 0.0000 0.0000
# 5 0.0000 0.0000 0.0000 0.0000 1.8076 0.0000
# 6 0.0000 0.0000 0.0000 0.0000 0.0000 19.2551
#
#
#
# Elastic Compliance Matrix: (Units=1/GPa)
#
#
# Indices 1 2 3 4 5 6 
#
# 1 0.032036 -0.004515 -0.011330 0.000000 0.000000 0.000000
# 2 -0.004515 0.016859 -0.004690 0.000000 0.000000 0.000000
# 3 -0.011330 -0.004690 0.012311 0.000000 0.000000 0.000000
# 4 0.000000 0.000000 0.000000 0.038387 0.000000 0.000000
# 5 0.000000 0.000000 0.000000 0.000000 0.553227 0.000000
# 6 0.000000 0.000000 0.000000 0.000000 0.000000 0.051934
#
#
# Mechanical properties :
#
#
# Convention : Reuss Voigt Hill
#
# Bulk Modulus (GPa) = 49.65981 73.44898 61.55439
# Shear Modulus (GPa) = 6.64420 19.23810 12.94115
#
# Velocity S-wave (km/s) = 1.96364 3.34135 2.74048
# Velocity P-wave (km/s) = 5.82758 7.58363 6.76285
#
# Compressibility (1/GPa) = 0.02013701
#
# Stress axis : x y z
#
# Youngs Moduli (GPa) = 31.21488 59.31462 81.22990
#
# Poissons Ratio (x) = 0.26779 0.92032
# Poissons Ratio (y) = 0.14093 0.38096
# Poissons Ratio (z) = 0.35366 0.27818
#
# Static dielectric constant tensor:
#      x y z
#    x 2.922340 0.000000 0.000000 
#    y 0.000000 3.137530 0.000000 
#    z 0.000000 0.000000 4.362050 
# 
# 
# High freq. dielectric constant tensor:
#      x y z
#    x 1.614160 0.000000 0.000000 
#    y 0.000000 1.659770 0.000000 
#    z 0.000000 0.000000 1.693500 
# 
# From -- ./inp_files/15378.got.cif
#   From: 2010.03.12/outbox.cif.g09.slc.cpg/sg35_8_cif.got.tgz:15378.got - 2010.04.14 02:02:04.
