data_PCOD8173918
_publ_section_title
;
Structure prediction by ZEFSAII (Michael W. Deem and Ramdas Pophale) SiO2 
 PCOD8173918
Probable space group: C M M 2
;
_chemical_formula_sum "Si O2"
_cell_formula_units_Z 64
_cell_length_a 30.668496
_cell_length_b 8.696233
_cell_length_c 11.857146
_cell_angle_alpha 90.000000
_cell_angle_beta 90.000000
_cell_angle_gamma 90.000000
_cell_volume 3162.305427
_symmetry_space_group_name_H-M "C M M 2"
_symmetry_group_IT_number 35
_symmetry_cell_setting 'orthorhombic'
loop_
_space_group_symop_operation_xyz
x,y,z
-x,-y,z
-x,y,z
x,-y,z
1/2+x,1/2+y,z
1/2-x,1/2-y,z
1/2-x,1/2+y,z
1/2+x,1/2-y,z
loop_
_atom_site_type_symbol
_atom_site_label
_atom_site_fract_x
_atom_site_fract_y
_atom_site_fract_z
Si Si1 0.205629 0.181011 0.895870
Si Si2 0.584674 0.676523 0.127342
Si Si3 0.950440 0.176791 0.370563
Si Si4 0.627326 0.821784 0.497106
Si Si5 0.871346 0.678628 0.757912
Si Si6 0.451162 0.823765 0.912186
Si Si7 0.705574 0.319277 0.361340
Si Si8 0.677398 0.180380 0.129345
O O1 0.250000 0.250000 0.842919
O O2 0.165983 0.219687 0.813667
O O3 0.209579 0.000000 0.908602
O O4 0.199295 0.255350 0.017604
O O5 0.600522 0.500000 0.120357
O O6 0.556289 0.706846 0.238145
O O7 0.626183 0.786669 0.128729
O O8 0.555214 0.715620 0.020067
O O9 0.919377 0.284762 0.443551
O O10 0.000000 0.219501 0.401162
O O11 0.940050 0.000000 0.399859
O O12 0.625579 0.777250 0.627639
O O13 0.664798 0.724043 0.438284
O O14 0.637836 0.000000 0.478264
O O15 0.859920 0.500000 0.776152
O O16 0.917605 0.721512 0.813728
O O17 0.500000 0.797804 0.865092
O O18 0.444012 0.000000 0.949687
O O19 0.709659 0.500000 0.357919
O O20 0.750000 0.250000 0.413758
O O21 0.700071 0.258417 0.235352
O O22 0.685348 0.000000 0.136147
#
# Coordination Sequence:
#
# PCOD8173918 Si02
#       8
#     8   8   8   8   8   8   8   8
#     4  12  25  42  66  95 127 165 206 252 310 370
#     4  11  21  36  61  93 126 166 205 250 309 372
#     4  10  22  40  62  90 128 169 208 257 314 372
#     4  11  24  42  65  92 123 165 214 263 315 370
#     4  10  23  43  64  89 125 165 211 262 311 366
#     4  10  21  38  62  91 125 166 208 255 310 368
#     4  12  25  43  66  94 127 164 206 255 312 373
#     4  12  23  39  64  95 130 164 202 251 309 373
#
# _framework density 20.238399999999999
#
# number of rings (size 3 to 8) (size 9 to 14) (size 15 to 20)
#    0.000    1.000    2.500    4.875    0.000    3.500 
#    0.000    1.250    0.000    0.000    0.000    0.000 
#    0.000    0.000    0.000    0.000    0.000    0.000 
#
# Total GULP energy -397007.628334 kJ/mol
# GULP energy per Si atom -12406.488385 kJ/mol
# Density = 2.019234 g / cm^3
# Si number density = 20.238400 Si / 1000 Ang^3
#
#
#
# Elastic Constant Matrix: (Units=GPa)
#
#
# Indices 1 2 3 4 5 6 
#
# 1 146.4293 52.8580 49.1858 0.0000 0.0000 0.0000
# 2 52.8580 127.0711 54.4544 0.0000 0.0000 0.0000
# 3 49.1858 54.4544 124.5461 0.0000 0.0000 0.0000
# 4 0.0000 0.0000 0.0000 5.2446 0.0000 0.0000
# 5 0.0000 0.0000 0.0000 0.0000 10.8747 0.0000
# 6 0.0000 0.0000 0.0000 0.0000 0.0000 34.6508
#
#
#
# Elastic Compliance Matrix: (Units=1/GPa)
#
#
# Indices 1 2 3 4 5 6 
#
# 1 0.008512 -0.002584 -0.002232 0.000000 0.000000 0.000000
# 2 -0.002584 0.010469 -0.003557 0.000000 0.000000 0.000000
# 3 -0.002232 -0.003557 0.010465 0.000000 0.000000 0.000000
# 4 0.000000 0.000000 0.000000 0.190671 0.000000 0.000000
# 5 0.000000 0.000000 0.000000 0.000000 0.091957 0.000000
# 6 0.000000 0.000000 0.000000 0.000000 0.000000 0.028859
#
#
# Mechanical properties :
#
#
# Convention : Reuss Voigt Hill
#
# Bulk Modulus (GPa) = 78.73372 79.00476 78.86924
# Shear Modulus (GPa) = 13.81551 26.25722 20.03637
#
# Velocity S-wave (km/s) = 2.61557 3.60585 3.14987
# Velocity P-wave (km/s) = 6.93608 7.51385 7.23074
#
# Compressibility (1/GPa) = 0.01270104
#
# Stress axis : x y z
#
# Youngs Moduli (GPa) = 117.48528 95.52252 95.55268
#
# Poissons Ratio (x) = 0.24686 0.21323
# Poissons Ratio (y) = 0.30362 0.33984
# Poissons Ratio (z) = 0.26217 0.33973
#
# Static dielectric constant tensor:
#      x y z
#    x 3.869420 0.000000 0.000000 
#    y 0.000000 3.788390 0.000000 
#    z 0.000000 0.000000 3.649670 
# 
# 
# High freq. dielectric constant tensor:
#      x y z
#    x 1.806800 0.000000 0.000000 
#    y 0.000000 1.796550 0.000000 
#    z 0.000000 0.000000 1.784930 
# 
# From -- ./inp_files/11887.got.cif
#   From: 2010.03.12/outbox.cif.g09.slc.cpg/sg35_6_cif.got.tgz:11887.got - 2010.04.14 02:02:04.
