data_PCOD8173096
_publ_section_title
;
Structure prediction by ZEFSAII (Michael W. Deem and Ramdas Pophale) SiO2 
 PCOD8173096
Probable space group: C M M 2
;
_chemical_formula_sum "Si O2"
_cell_formula_units_Z 64
_cell_length_a 23.729354
_cell_length_b 16.978524
_cell_length_c 8.100559
_cell_angle_alpha 90.000000
_cell_angle_beta 90.000000
_cell_angle_gamma 90.000000
_cell_volume 3263.629407
_symmetry_space_group_name_H-M "C M M 2"
_symmetry_group_IT_number 35
_symmetry_cell_setting 'orthorhombic'
loop_
_space_group_symop_operation_xyz
x,y,z
-x,-y,z
-x,y,z
x,-y,z
1/2+x,1/2+y,z
1/2-x,1/2-y,z
1/2-x,1/2+y,z
1/2+x,1/2-y,z
loop_
_atom_site_type_symbol
_atom_site_label
_atom_site_fract_x
_atom_site_fract_y
_atom_site_fract_z
Si Si1 0.135672 0.788241 0.133890
Si Si2 0.775968 0.829049 0.660284
Si Si3 0.177182 0.620634 0.122291
Si Si4 0.374988 0.253142 0.491091
Si Si5 0.676663 0.911990 0.484413
Si Si6 0.292638 0.411238 0.978803
Si Si7 0.562896 0.913795 0.952831
Si Si8 0.063712 0.249480 0.819217
O O1 0.178333 0.714910 0.125970
O O2 0.102504 0.781717 0.310824
O O3 0.174427 0.865988 0.125074
O O4 0.093025 0.787649 0.979926
O O5 0.750000 0.750000 0.741621
O O6 0.815417 0.797870 0.512191
O O7 0.730415 0.890693 0.594448
O O8 0.810617 0.872124 0.804869
O O9 0.195991 0.583459 0.294900
O O10 0.224379 0.592803 0.992284
O O11 0.113529 0.591150 0.084418
O O12 0.369782 0.157613 0.499370
O O13 0.413754 0.281042 0.643068
O O14 0.654968 0.000000 0.537674
O O15 0.314188 0.500000 0.982618
O O16 0.500000 0.903715 0.035880
O O17 0.571166 0.844678 0.819277
O O18 0.566068 0.000000 0.866662
O O19 0.000000 0.221780 0.831041
#
# Coordination Sequence:
#
# PCOD8173096 Si02
#       8
#     8   8   8   8   8   8   8   8
#     4  10  21  39  60  82 116 151 186 233 285 341
#     4  10  20  34  51  78 116 155 189 226 280 342
#     4  10  20  34  54  81 114 156 198 231 275 337
#     4  10  21  37  58  81 113 154 188 228 284 336
#     4  10  20  33  50  81 118 151 191 233 272 329
#     4  12  22  33  56  88 115 147 188 234 290 345
#     4   9  18  32  52  80 115 155 196 238 279 317
#     4  10  21  38  60  84 109 145 196 241 279 337
#
# _framework density 19.610071000000001
#
# number of rings (size 3 to 8) (size 9 to 14) (size 15 to 20)
#    0.000    1.875    1.250    3.375    5.250    3.000 
#    0.000    2.500    0.000    1.125    0.000    3.500 
#    0.000    0.000    0.000    0.000    0.000    0.000 
#
# Total GULP energy -396529.117389 kJ/mol
# GULP energy per Si atom -12391.534918 kJ/mol
# Density = 1.956544 g / cm^3
# Si number density = 19.610071 Si / 1000 Ang^3
#
#
#
# Elastic Constant Matrix: (Units=GPa)
#
#
# Indices 1 2 3 4 5 6 
#
# 1 77.5893 35.3079 44.2949 0.0000 0.0000 0.0000
# 2 35.3079 109.5360 34.9019 0.0000 0.0000 0.0000
# 3 44.2949 34.9019 128.7838 0.0000 0.0000 0.0000
# 4 0.0000 0.0000 0.0000 17.0478 0.0000 0.0000
# 5 0.0000 0.0000 0.0000 0.0000 15.8108 0.0000
# 6 0.0000 0.0000 0.0000 0.0000 0.0000 15.5510
#
#
#
# Elastic Compliance Matrix: (Units=1/GPa)
#
#
# Indices 1 2 3 4 5 6 
#
# 1 0.017566 -0.004090 -0.004933 0.000000 0.000000 0.000000
# 2 -0.004090 0.010945 -0.001559 0.000000 0.000000 0.000000
# 3 -0.004933 -0.001559 0.009884 0.000000 0.000000 0.000000
# 4 0.000000 0.000000 0.000000 0.058659 0.000000 0.000000
# 5 0.000000 0.000000 0.000000 0.000000 0.063248 0.000000
# 6 0.000000 0.000000 0.000000 0.000000 0.000000 0.064304
#
#
# Mechanical properties :
#
#
# Convention : Reuss Voigt Hill
#
# Bulk Modulus (GPa) = 58.04058 60.54649 59.29354
# Shear Modulus (GPa) = 19.87952 23.10889 21.49420
#
# Velocity S-wave (km/s) = 3.18738 3.43654 3.31430
# Velocity P-wave (km/s) = 6.57324 6.83291 6.70433
#
# Compressibility (1/GPa) = 0.01722932
#
# Stress axis : x y z
#
# Youngs Moduli (GPa) = 56.92785 91.36808 101.17028
#
# Poissons Ratio (x) = 0.37373 0.49910
# Poissons Ratio (y) = 0.23285 0.15775
# Poissons Ratio (z) = 0.28084 0.14247
#
# Static dielectric constant tensor:
#      x y z
#    x 3.350420 0.000000 0.000000 
#    y 0.000000 3.607300 0.000000 
#    z 0.000000 0.000000 3.496620 
# 
# 
# High freq. dielectric constant tensor:
#      x y z
#    x 1.733280 0.000000 0.000000 
#    y 0.000000 1.755030 0.000000 
#    z 0.000000 0.000000 1.760880 
# 
# From -- ./inp_files/9919.got.cif
#   From: 2010.03.12/outbox.cif.g09.slc.cpg/sg35_5_cif.got.tgz:9919.got - 2010.04.14 02:02:04.
