data_PCOD8173278
_publ_section_title
;
Structure prediction by ZEFSAII (Michael W. Deem and Ramdas Pophale) SiO2 
 PCOD8173278
Probable space group: C M M 2
;
_chemical_formula_sum "Si O2"
_cell_formula_units_Z 56
_cell_length_a 8.805665
_cell_length_b 19.355682
_cell_length_c 17.427798
_cell_angle_alpha 90.000000
_cell_angle_beta 90.000000
_cell_angle_gamma 90.000000
_cell_volume 2970.387818
_symmetry_space_group_name_H-M "C M M 2"
_symmetry_group_IT_number 35
_symmetry_cell_setting 'orthorhombic'
loop_
_space_group_symop_operation_xyz
x,y,z
-x,-y,z
-x,y,z
x,-y,z
1/2+x,1/2+y,z
1/2-x,1/2-y,z
1/2-x,1/2+y,z
1/2+x,1/2-y,z
loop_
_atom_site_type_symbol
_atom_site_label
_atom_site_fract_x
_atom_site_fract_y
_atom_site_fract_z
Si Si1 0.322628 0.179689 0.431820
Si Si2 0.178086 0.320807 0.259670
Si Si3 0.326163 0.419190 0.721294
Si Si4 0.672633 0.580624 0.547036
Si Si5 0.680266 0.322836 0.001957
Si Si6 0.321132 0.178618 0.838779
Si Si7 0.321943 0.919914 0.125057
O O1 0.500000 0.190408 0.430683
O O2 0.250000 0.250000 0.463482
O O3 0.262373 0.163043 0.345766
O O4 0.283302 0.117834 0.488304
O O5 0.250000 0.250000 0.227779
O O6 0.224603 0.384552 0.205513
O O7 0.000000 0.309506 0.259187
O O8 0.500000 0.399360 0.740558
O O9 0.300362 0.500000 0.733618
O O10 0.287314 0.398141 0.634038
O O11 0.210861 0.379958 0.776496
O O12 0.500000 0.601376 0.528347
O O13 0.697995 0.500000 0.535697
O O14 0.500000 0.315766 0.998745
O O15 0.750000 0.250000 0.030478
O O16 0.743674 0.342509 0.918584
O O17 0.726934 0.384519 0.057851
O O18 0.500000 0.187139 0.851266
O O19 0.250000 0.250000 0.808240
O O20 0.500000 0.910587 0.107954
O O21 0.276135 0.000000 0.129945
#
# Coordination Sequence:
#
# PCOD8173278 Si02
#       7
#     8   8   8   8   8   8   8
#     4  10  20  34  54  80 109 141 180 224 268 317
#     4   9  19  35  55  78 105 141 180 220 268 318
#     4   9  19  37  58  79 107 143 180 219 267 321
#     4   9  19  36  56  78 107 143 180 220 269 321
#     4  11  22  38  59  81 108 141 179 220 265 318
#     4  11  22  37  58  83 110 140 178 221 266 316
#     4  10  21  37  56  80 111 143 177 219 266 316
#
# _framework density 18.852758000000001
#
# number of rings (size 3 to 8) (size 9 to 14) (size 15 to 20)
#    0.000    2.143    0.000    5.143    0.000    5.429 
#    0.000    2.857    0.000    0.000    0.000    0.000 
#    0.000    0.000    0.000    0.000    0.000    0.000 
#
# Total GULP energy -347267.936971 kJ/mol
# GULP energy per Si atom -12402.426320 kJ/mol
# Density = 1.880985 g / cm^3
# Si number density = 18.852758 Si / 1000 Ang^3
#
#
#
# Elastic Constant Matrix: (Units=GPa)
#
#
# Indices 1 2 3 4 5 6 
#
# 1 94.4652 50.1615 49.2134 0.0000 0.0000 0.0000
# 2 50.1615 110.6317 72.9862 0.0000 0.0000 0.0000
# 3 49.2134 72.9862 105.2336 0.0000 0.0000 0.0000
# 4 0.0000 0.0000 0.0000 14.2519 0.0000 0.0000
# 5 0.0000 0.0000 0.0000 0.0000 29.3180 0.0000
# 6 0.0000 0.0000 0.0000 0.0000 0.0000 32.4511
#
#
#
# Elastic Compliance Matrix: (Units=1/GPa)
#
#
# Indices 1 2 3 4 5 6 
#
# 1 0.014888 -0.003977 -0.004204 0.000000 0.000000 0.000000
# 2 -0.003977 0.017726 -0.010434 0.000000 0.000000 0.000000
# 3 -0.004204 -0.010434 0.018706 0.000000 0.000000 0.000000
# 4 0.000000 0.000000 0.000000 0.070166 0.000000 0.000000
# 5 0.000000 0.000000 0.000000 0.000000 0.034109 0.000000
# 6 0.000000 0.000000 0.000000 0.000000 0.000000 0.030816
#
#
# Mechanical properties :
#
#
# Convention : Reuss Voigt Hill
#
# Bulk Modulus (GPa) = 70.97821 72.78363 71.88092
# Shear Modulus (GPa) = 21.89751 24.40217 23.14984
#
# Velocity S-wave (km/s) = 3.41178 3.60162 3.50798
# Velocity P-wave (km/s) = 7.29731 7.48236 7.39041
#
# Compressibility (1/GPa) = 0.01408883
#
# Stress axis : x y z
#
# Youngs Moduli (GPa) = 67.16881 56.41517 53.45952
#
# Poissons Ratio (x) = 0.22434 0.22477
# Poissons Ratio (y) = 0.26710 0.55781
# Poissons Ratio (z) = 0.28241 0.58865
#
# Static dielectric constant tensor:
#      x y z
#    x 3.419390 0.000000 0.000000 
#    y 0.000000 3.391690 0.000000 
#    z 0.000000 0.000000 3.561990 
# 
# 
# High freq. dielectric constant tensor:
#      x y z
#    x 1.732040 0.000000 0.000000 
#    y 0.000000 1.729360 0.000000 
#    z 0.000000 0.000000 1.738930 
# 
# From -- ./inp_files/15624.got.cif
#   From: 2010.03.12/outbox.cif.g09.slc.cpg/sg35_8_cif.got.tgz:15624.got - 2010.04.14 02:02:04.
