data_PCOD8173590
_publ_section_title
;
Structure prediction by ZEFSAII (Michael W. Deem and Ramdas Pophale) SiO2 
 PCOD8173590
Probable space group: C M M 2
;
_chemical_formula_sum "Si O2"
_cell_formula_units_Z 46
_cell_length_a 7.663356
_cell_length_b 24.588492
_cell_length_c 13.351943
_cell_angle_alpha 90.000000
_cell_angle_beta 90.000000
_cell_angle_gamma 90.000000
_cell_volume 2515.911529
_symmetry_space_group_name_H-M "C M M 2"
_symmetry_group_IT_number 35
_symmetry_cell_setting 'orthorhombic'
loop_
_space_group_symop_operation_xyz
x,y,z
-x,-y,z
-x,y,z
x,-y,z
1/2+x,1/2+y,z
1/2-x,1/2-y,z
1/2-x,1/2+y,z
1/2+x,1/2-y,z
loop_
_atom_site_type_symbol
_atom_site_label
_atom_site_fract_x
_atom_site_fract_y
_atom_site_fract_z
Si Si1 0.309231 0.000000 0.009341
Si Si2 0.194746 0.437359 0.653988
Si Si3 0.798525 0.309595 0.981360
Si Si4 0.795646 0.310994 0.213441
Si Si5 0.305389 0.408854 0.864886
Si Si6 0.500000 0.564164 0.508003
Si Si7 0.500000 0.500000 0.165811
Si Si8 0.000000 0.111096 0.290913
O O1 0.170244 0.000000 0.097352
O O2 0.500000 0.000000 0.060625
O O3 0.298948 0.947362 0.939695
O O4 0.230774 0.500000 0.681077
O O5 0.215246 0.404199 0.756794
O O6 0.329260 0.417723 0.569844
O O7 0.000000 0.428355 0.611401
O O8 0.750000 0.250000 0.943749
O O9 0.685490 0.349630 0.913790
O O10 0.000000 0.322332 0.964156
O O11 0.746734 0.316551 0.097074
O O12 0.750000 0.250000 0.250449
O O13 0.675337 0.354700 0.269671
O O14 0.000000 0.323455 0.233826
O O15 0.500000 0.432023 0.851035
O O16 0.500000 0.500000 0.484591
O O17 0.500000 0.598373 0.407617
O O18 0.500000 0.554445 0.231226
#
# Coordination Sequence:
#
# PCOD8173590 Si02
#       8
#     4   8   8   8   8   4   2   4
#     4  12  24  38  55  85 128 165 203 238 291 360
#     4  10  20  36  59  85 115 151 199 247 291 355
#     4  10  21  35  54  85 121 159 198 237 286 350
#     4  10  21  39  64  92 118 160 214 257 296 355
#     4  12  21  34  57  88 119 158 200 241 289 355
#     4  10  22  41  60  86 118 155 199 248 311 371
#     4  12  26  40  54  90 132 178 190 244 326 378
#     4  12  24  40  65  90 125 157 208 263 314 370
#
# _framework density 18.283632000000001
#
# number of rings (size 3 to 8) (size 9 to 14) (size 15 to 20)
#    0.000    1.217    3.913    3.130    2.435    2.783 
#    0.000    0.000    0.000    1.043    0.000    0.000 
#    0.000    0.000    0.000    0.000    0.000    0.000 
#
# Total GULP energy -285270.753413 kJ/mol
# GULP energy per Si atom -12403.076235 kJ/mol
# Density = 1.824202 g / cm^3
# Si number density = 18.283632 Si / 1000 Ang^3
#
#
#
# Elastic Constant Matrix: (Units=GPa)
#
#
# Indices 1 2 3 4 5 6 
#
# 1 142.0664 42.7071 56.6729 0.0000 0.0000 0.0000
# 2 42.7071 113.1098 61.7264 0.0000 0.0000 0.0000
# 3 56.6729 61.7264 117.6232 0.0000 0.0000 0.0000
# 4 0.0000 0.0000 0.0000 5.0208 0.0000 0.0000
# 5 0.0000 0.0000 0.0000 0.0000 -3.9739 0.0000
# 6 0.0000 0.0000 0.0000 0.0000 0.0000 10.1233
#
#
#
# Elastic Compliance Matrix: (Units=1/GPa)
#
#
# Indices 1 2 3 4 5 6 
#
# 1 0.008875 -0.001426 -0.003528 0.000000 0.000000 0.000000
# 2 -0.001426 0.012618 -0.005935 0.000000 0.000000 0.000000
# 3 -0.003528 -0.005935 0.013316 0.000000 0.000000 0.000000
# 4 0.000000 0.000000 0.000000 0.199172 0.000000 0.000000
# 5 0.000000 0.000000 0.000000 0.000000 -0.251639 0.000000
# 6 0.000000 0.000000 0.000000 0.000000 0.000000 0.098782
#
#
# Mechanical properties :
#
#
# Convention : Reuss Voigt Hill
#
# Bulk Modulus (GPa) = 76.73316 77.22359 76.97838
# Shear Modulus (GPa) = 46.62252 16.34690 31.48471
#
# Velocity S-wave (km/s) = 5.05519 2.99335 4.15422
# Velocity P-wave (km/s) = 8.72540 7.36716 8.07489
#
# Compressibility (1/GPa) = 0.01303217
#
# Stress axis : x y z
#
# Youngs Moduli (GPa) = 112.67754 79.25206 75.09772
#
# Poissons Ratio (x) = 0.11299 0.26494
# Poissons Ratio (y) = 0.16064 0.44569
# Poissons Ratio (z) = 0.39752 0.47034
#
# Static dielectric constant tensor:
#      x y z
#    x 3.535570 0.000000 0.000000 
#    y 0.000000 3.351640 0.000000 
#    z 0.000000 0.000000 3.146820 
# 
# 
# High freq. dielectric constant tensor:
#      x y z
#    x 1.731290 0.000000 0.000000 
#    y 0.000000 1.699260 0.000000 
#    z 0.000000 0.000000 1.684340 
# 
# From -- ./inp_files/11440.got.cif
#   From: 2010.03.12/outbox.cif.g09.slc.cpg/sg35_6_cif.got.tgz:11440.got - 2010.04.14 02:02:04.
