data_PCOD8173931
_publ_section_title
;
Structure prediction by ZEFSAII (Michael W. Deem and Ramdas Pophale) SiO2 
 PCOD8173931
Probable space group: C M M 2
;
_chemical_formula_sum "Si O2"
_cell_formula_units_Z 64
_cell_length_a 17.991600
_cell_length_b 18.963706
_cell_length_c 9.570041
_cell_angle_alpha 90.000000
_cell_angle_beta 90.000000
_cell_angle_gamma 90.000000
_cell_volume 3265.177530
_symmetry_space_group_name_H-M "C M M 2"
_symmetry_group_IT_number 35
_symmetry_cell_setting 'orthorhombic'
loop_
_space_group_symop_operation_xyz
x,y,z
-x,-y,z
-x,y,z
x,-y,z
1/2+x,1/2+y,z
1/2-x,1/2-y,z
1/2-x,1/2+y,z
1/2+x,1/2-y,z
loop_
_atom_site_type_symbol
_atom_site_label
_atom_site_fract_x
_atom_site_fract_y
_atom_site_fract_z
Si Si1 0.706787 0.677113 0.087340
Si Si2 0.827999 0.579886 0.954476
Si Si3 0.322336 0.335819 0.400229
Si Si4 0.585152 0.839758 0.729916
Si Si5 0.913305 0.081259 0.617593
Si Si6 0.085841 0.812179 0.856871
Si Si7 0.584633 0.079892 0.227121
Si Si8 0.844167 0.321156 0.443115
O O1 0.750000 0.750000 0.114815
O O2 0.685517 0.643733 0.237012
O O3 0.756650 0.623519 0.000796
O O4 0.632051 0.689301 0.999483
O O5 0.801423 0.500000 0.933102
O O6 0.860138 0.608135 0.809876
O O7 0.894612 0.585691 0.065139
O O8 0.370703 0.394500 0.478286
O O9 0.242583 0.331919 0.476561
O O10 0.362739 0.260202 0.411099
O O11 0.500000 0.862035 0.754008
O O12 0.600459 0.760009 0.775425
O O13 0.604471 0.848129 0.567843
O O14 0.887788 0.125345 0.753600
O O15 0.000000 0.093631 0.589174
O O16 0.894545 0.000000 0.647346
O O17 0.000000 0.821350 0.899322
O O18 0.500000 0.104080 0.245219
O O19 0.637930 0.132699 0.307853
O O20 0.596533 0.000000 0.281471
#
# Coordination Sequence:
#
# PCOD8173931 Si02
#       8
#     8   8   8   8   8   8   8   8
#     4  12  22  41  66  94 129 165 211 261 306 368
#     4  11  24  41  62  92 127 167 208 254 313 376
#     4  11  23  39  63  94 126 162 206 256 316 365
#     4  11  23  39  62  92 125 164 207 257 312 370
#     4  10  23  44  67  92 124 163 207 259 320 378
#     4  10  23  41  64  93 124 162 207 257 315 373
#     4  10  21  39  61  85 121 168 209 251 308 370
#     4  11  22  38  60  92 125 161 209 260 304 369
#
# _framework density 19.600771999999999
#
# number of rings (size 3 to 8) (size 9 to 14) (size 15 to 20)
#    0.000    1.250    5.000    0.750    1.750    3.750 
#    0.000    0.000    0.000    1.500    0.000    0.000 
#    0.000    0.000    0.000    0.000    0.000    0.000 
#
# Total GULP energy -396983.574879 kJ/mol
# GULP energy per Si atom -12405.736715 kJ/mol
# Density = 1.955616 g / cm^3
# Si number density = 19.600772 Si / 1000 Ang^3
#
#
#
# Elastic Constant Matrix: (Units=GPa)
#
#
# Indices 1 2 3 4 5 6 
#
# 1 62.3847 17.8684 25.4985 0.0000 0.0000 0.0000
# 2 17.8684 71.4105 6.6285 0.0000 0.0000 0.0000
# 3 25.4985 6.6285 81.7411 0.0000 0.0000 0.0000
# 4 0.0000 0.0000 0.0000 30.4230 0.0000 0.0000
# 5 0.0000 0.0000 0.0000 0.0000 37.8329 0.0000
# 6 0.0000 0.0000 0.0000 0.0000 0.0000 28.8965
#
#
#
# Elastic Compliance Matrix: (Units=1/GPa)
#
#
# Indices 1 2 3 4 5 6 
#
# 1 0.019643 -0.004379 -0.005772 0.000000 0.000000 0.000000
# 2 -0.004379 0.015086 0.000143 0.000000 0.000000 0.000000
# 3 -0.005772 0.000143 0.014023 0.000000 0.000000 0.000000
# 4 0.000000 0.000000 0.000000 0.032870 0.000000 0.000000
# 5 0.000000 0.000000 0.000000 0.000000 0.026432 0.000000
# 6 0.000000 0.000000 0.000000 0.000000 0.000000 0.034606
#
#
# Mechanical properties :
#
#
# Convention : Reuss Voigt Hill
#
# Bulk Modulus (GPa) = 34.80181 35.05858 34.93020
# Shear Modulus (GPa) = 29.02649 30.46655 29.74652
#
# Velocity S-wave (km/s) = 3.85240 3.94681 3.89989
# Velocity P-wave (km/s) = 6.13041 6.22052 6.17563
#
# Compressibility (1/GPa) = 0.02873413
#
# Stress axis : x y z
#
# Youngs Moduli (GPa) = 50.90794 66.28621 71.31222
#
# Poissons Ratio (x) = 0.29029 0.41165
# Poissons Ratio (y) = 0.22294 -0.01018
# Poissons Ratio (z) = 0.29386 -0.00946
#
# Static dielectric constant tensor:
#      x y z
#    x 3.529800 0.000000 0.000000 
#    y 0.000000 3.614130 0.000000 
#    z 0.000000 0.000000 3.494340 
# 
# 
# High freq. dielectric constant tensor:
#      x y z
#    x 1.766200 0.000000 0.000000 
#    y 0.000000 1.763010 0.000000 
#    z 0.000000 0.000000 1.765230 
# 
# From -- ./inp_files/8744.got.cif
#   From: 2010.03.12/outbox.cif.g09.slc.cpg/sg35_5_cif.got.tgz:8744.got - 2010.04.14 02:02:04.
