data_PCOD8173498
_publ_section_title
;
Structure prediction by ZEFSAII (Michael W. Deem and Ramdas Pophale) SiO2 
 PCOD8173498
Probable space group: C M M 2
;
_chemical_formula_sum "Si O2"
_cell_formula_units_Z 64
_cell_length_a 24.669980
_cell_length_b 14.011634
_cell_length_c 8.876039
_cell_angle_alpha 90.000000
_cell_angle_beta 90.000000
_cell_angle_gamma 90.000000
_cell_volume 3068.151381
_symmetry_space_group_name_H-M "C M M 2"
_symmetry_group_IT_number 35
_symmetry_cell_setting 'orthorhombic'
loop_
_space_group_symop_operation_xyz
x,y,z
-x,-y,z
-x,y,z
x,-y,z
1/2+x,1/2+y,z
1/2-x,1/2-y,z
1/2-x,1/2+y,z
1/2+x,1/2-y,z
loop_
_atom_site_type_symbol
_atom_site_label
_atom_site_fract_x
_atom_site_fract_y
_atom_site_fract_z
Si Si1 0.936244 0.720344 0.708000
Si Si2 0.135393 0.892453 0.803676
Si Si3 0.147658 0.103029 0.159280
Si Si4 0.152070 0.612566 0.872085
Si Si5 0.438385 0.106347 0.414317
Si Si6 0.246451 0.111077 0.676274
Si Si7 0.742251 0.107589 0.332778
Si Si8 0.358733 0.807848 0.198417
O O1 0.913142 0.825834 0.742455
O O2 0.906685 0.641111 0.809144
O O3 0.925207 0.688109 0.536133
O O4 0.000000 0.719137 0.745788
O O5 0.191794 0.846329 0.747922
O O6 0.125142 0.000000 0.740673
O O7 0.140162 0.896295 0.981850
O O8 0.209941 0.111905 0.210545
O O9 0.118370 0.198955 0.217964
O O10 0.124711 0.000000 0.221084
O O11 0.155029 0.500000 0.898953
O O12 0.199301 0.650368 0.758472
O O13 0.157835 0.667092 0.029104
O O14 0.500000 0.112387 0.362470
O O15 0.404097 0.122360 0.263262
O O16 0.425259 0.000000 0.478972
O O17 0.241435 0.137286 0.501269
O O18 0.246259 0.000000 0.706340
O O19 0.696373 0.183289 0.292171
O O20 0.718085 0.000000 0.334063
#
# Coordination Sequence:
#
# PCOD8173498 Si02
#       8
#     8   8   8   8   8   8   8   8
#     4  11  24  42  63  91 122 162 212 262 318 380
#     4  10  21  42  66  90 124 167 209 263 316 367
#     4  10  22  40  58  85 126 166 206 252 306 363
#     4  11  22  38  62  93 127 162 205 261 315 380
#     4  10  23  43  65  89 123 162 202 257 320 380
#     4   9  20  37  61  93 128 163 206 255 310 373
#     4  10  20  35  58  92 130 166 204 248 305 380
#     4  12  22  38  61  92 122 166 209 248 310 376
#
# _framework density 20.859466000000001
#
# number of rings (size 3 to 8) (size 9 to 14) (size 15 to 20)
#    0.000    1.625    1.250    3.375    1.750    5.000 
#    2.250    0.000    0.000    1.125    0.000    0.000 
#    0.000    0.000    0.000    0.000    0.000    0.000 
#
# Total GULP energy -396576.585551 kJ/mol
# GULP energy per Si atom -12393.018298 kJ/mol
# Density = 2.081199 g / cm^3
# Si number density = 20.859466 Si / 1000 Ang^3
#
#
#
# Elastic Constant Matrix: (Units=GPa)
#
#
# Indices 1 2 3 4 5 6 
#
# 1 96.0710 15.7554 24.4342 0.0000 0.0000 0.0000
# 2 15.7554 106.7628 2.3923 0.0000 0.0000 0.0000
# 3 24.4342 2.3923 52.7705 0.0000 0.0000 0.0000
# 4 0.0000 0.0000 0.0000 27.0205 0.0000 0.0000
# 5 0.0000 0.0000 0.0000 0.0000 30.4077 0.0000
# 6 0.0000 0.0000 0.0000 0.0000 0.0000 29.9031
#
#
#
# Elastic Compliance Matrix: (Units=1/GPa)
#
#
# Indices 1 2 3 4 5 6 
#
# 1 0.012085 -0.001660 -0.005521 0.000000 0.000000 0.000000
# 2 -0.001660 0.009604 0.000333 0.000000 0.000000 0.000000
# 3 -0.005521 0.000333 0.021491 0.000000 0.000000 0.000000
# 4 0.000000 0.000000 0.000000 0.037009 0.000000 0.000000
# 5 0.000000 0.000000 0.000000 0.000000 0.032886 0.000000
# 6 0.000000 0.000000 0.000000 0.000000 0.000000 0.033441
#
#
# Mechanical properties :
#
#
# Convention : Reuss Voigt Hill
#
# Bulk Modulus (GPa) = 33.91448 37.86314 35.88881
# Shear Modulus (GPa) = 29.40483 31.66775 30.53629
#
# Velocity S-wave (km/s) = 3.75862 3.90057 3.83025
# Velocity P-wave (km/s) = 5.92707 6.20297 6.06659
#
# Compressibility (1/GPa) = 0.02948593
#
# Stress axis : x y z
#
# Youngs Moduli (GPa) = 82.74561 104.12296 46.53097
#
# Poissons Ratio (x) = 0.17282 0.25688
# Poissons Ratio (y) = 0.13734 -0.01550
# Poissons Ratio (z) = 0.45680 -0.03469
#
# Static dielectric constant tensor:
#      x y z
#    x 3.618490 0.000000 0.000000 
#    y 0.000000 4.228130 0.000000 
#    z 0.000000 0.000000 3.775890 
# 
# 
# High freq. dielectric constant tensor:
#      x y z
#    x 1.790540 0.000000 0.000000 
#    y 0.000000 1.839150 0.000000 
#    z 0.000000 0.000000 1.816910 
# 
# From -- ./inp_files/7886.got.cif
#   From: 2010.03.12/outbox.cif.g09.slc.cpg/sg35_4_cif.got.tgz:7886.got - 2010.04.14 02:02:04.
