data_PCOD8173816
_publ_section_title
;
Structure prediction by ZEFSAII (Michael W. Deem and Ramdas Pophale) SiO2 
 PCOD8173816
Probable space group: C M M 2
;
_chemical_formula_sum "Si O2"
_cell_formula_units_Z 48
_cell_length_a 22.722837
_cell_length_b 13.946732
_cell_length_c 7.615802
_cell_angle_alpha 90.000000
_cell_angle_beta 90.000000
_cell_angle_gamma 90.000000
_cell_volume 2413.518617
_symmetry_space_group_name_H-M "C M M 2"
_symmetry_group_IT_number 35
_symmetry_cell_setting 'orthorhombic'
loop_
_space_group_symop_operation_xyz
x,y,z
-x,-y,z
-x,y,z
x,-y,z
1/2+x,1/2+y,z
1/2-x,1/2-y,z
1/2-x,1/2+y,z
1/2+x,1/2-y,z
loop_
_atom_site_type_symbol
_atom_site_label
_atom_site_fract_x
_atom_site_fract_y
_atom_site_fract_z
Si Si1 0.357651 0.888181 0.217580
Si Si2 0.068938 0.714416 0.921095
Si Si3 0.363949 0.888225 0.621988
Si Si4 0.644748 0.612436 0.934523
Si Si5 0.772699 0.886896 0.249058
Si Si6 0.232163 0.113511 0.633770
O O1 0.401057 0.834826 0.087367
O O2 0.378672 0.871603 0.417407
O O3 0.291290 0.845037 0.192810
O O4 0.358999 0.000000 0.168854
O O5 0.000000 0.702410 0.940904
O O6 0.088914 0.667647 0.738425
O O7 0.084794 0.827586 0.920403
O O8 0.298379 0.848164 0.667403
O O9 0.367974 0.000000 0.669492
O O10 0.629782 0.500000 0.920507
O O11 0.687852 0.649673 0.781511
O O12 0.675687 0.640405 0.117113
O O13 0.790403 0.849676 0.443345
O O14 0.763111 0.000000 0.256285
O O15 0.235050 0.000000 0.637219
#
# Coordination Sequence:
#
# PCOD8173816 Si02
#       6
#     8   8   8   8   8   8
#     4   9  19  37  60  86 115 140 164 209 275 337
#     4  12  26  38  51  76 108 147 197 233 250 295
#     4   9  19  37  60  86 115 140 164 209 275 337
#     4  10  21  37  56  77 106 144 182 226 276 314
#     4   8  15  31  57  86 110 132 165 214 275 338
#     4   8  15  31  57  86 110 132 165 214 275 338
#
# _framework density 19.887975999999998
#
# number of rings (size 3 to 8) (size 9 to 14) (size 15 to 20)
#    0.000    2.667    0.000    3.500    0.000    9.000 
#    0.000    5.000    0.000    0.000    0.000    7.000 
#    0.000    0.000    0.000    0.000    0.000    0.000 
#
# Total GULP energy -297548.627538 kJ/mol
# GULP energy per Si atom -12397.859481 kJ/mol
# Density = 1.984271 g / cm^3
# Si number density = 19.887976 Si / 1000 Ang^3
#
#
#
# Elastic Constant Matrix: (Units=GPa)
#
#
# Indices 1 2 3 4 5 6 
#
# 1 59.6983 8.0791 18.5115 0.0000 0.0000 0.0000
# 2 8.0791 46.5693 26.9658 0.0000 0.0000 0.0000
# 3 18.5115 26.9658 79.4320 0.0000 0.0000 0.0000
# 4 0.0000 0.0000 0.0000 9.2705 0.0000 0.0000
# 5 0.0000 0.0000 0.0000 0.0000 5.6199 0.0000
# 6 0.0000 0.0000 0.0000 0.0000 0.0000 25.3898
#
#
#
# Elastic Compliance Matrix: (Units=1/GPa)
#
#
# Indices 1 2 3 4 5 6 
#
# 1 0.018084 -0.000867 -0.003920 0.000000 0.000000 0.000000
# 2 -0.000867 0.026769 -0.008885 0.000000 0.000000 0.000000
# 3 -0.003920 -0.008885 0.016519 0.000000 0.000000 0.000000
# 4 0.000000 0.000000 0.000000 0.107869 0.000000 0.000000
# 5 0.000000 0.000000 0.000000 0.000000 0.177938 0.000000
# 6 0.000000 0.000000 0.000000 0.000000 0.000000 0.039386
#
#
# Mechanical properties :
#
#
# Convention : Reuss Voigt Hill
#
# Bulk Modulus (GPa) = 29.38889 32.53473 30.96181
# Shear Modulus (GPa) = 11.75773 16.86560 14.31166
#
# Velocity S-wave (km/s) = 2.43409 2.91525 2.68547
# Velocity P-wave (km/s) = 4.76540 5.26556 5.02171
#
# Compressibility (1/GPa) = 0.03402646
#
# Stress axis : x y z
#
# Youngs Moduli (GPa) = 55.29816 37.35671 60.53502
#
# Poissons Ratio (x) = 0.03241 0.23729
# Poissons Ratio (y) = 0.04797 0.53788
# Poissons Ratio (z) = 0.21676 0.33193
#
# Static dielectric constant tensor:
#      x y z
#    x 3.260390 0.000000 0.000000 
#    y 0.000000 3.541740 0.000000 
#    z 0.000000 0.000000 4.125260 
# 
# 
# High freq. dielectric constant tensor:
#      x y z
#    x 1.731920 0.000000 0.000000 
#    y 0.000000 1.782920 0.000000 
#    z 0.000000 0.000000 1.790600 
# 
# From -- ./inp_files/9184.got.cif
#   From: 2010.03.12/outbox.cif.g09.slc.cpg/sg35_5_cif.got.tgz:9184.got - 2010.04.14 02:02:04.
