data_PCOD8173080
_publ_section_title
;
Structure prediction by ZEFSAII (Michael W. Deem and Ramdas Pophale) SiO2 
 PCOD8173080
Probable space group: C M M 2
;
_chemical_formula_sum "Si O2"
_cell_formula_units_Z 64
_cell_length_a 9.071798
_cell_length_b 18.647399
_cell_length_c 20.439430
_cell_angle_alpha 90.000000
_cell_angle_beta 90.000000
_cell_angle_gamma 90.000000
_cell_volume 3457.645107
_symmetry_space_group_name_H-M "C M M 2"
_symmetry_group_IT_number 35
_symmetry_cell_setting 'orthorhombic'
loop_
_space_group_symop_operation_xyz
x,y,z
-x,-y,z
-x,y,z
x,-y,z
1/2+x,1/2+y,z
1/2-x,1/2-y,z
1/2-x,1/2+y,z
1/2+x,1/2-y,z
loop_
_atom_site_type_symbol
_atom_site_label
_atom_site_fract_x
_atom_site_fract_y
_atom_site_fract_z
Si Si1 0.825204 0.579781 0.744070
Si Si2 0.164838 0.414491 0.241432
Si Si3 0.672769 0.583160 0.511978
Si Si4 0.675277 0.173172 0.621667
Si Si5 0.673512 0.823947 0.009519
Si Si6 0.327792 0.822756 0.860410
Si Si7 0.832711 0.085011 0.113793
Si Si8 0.837202 0.915011 0.365199
O O1 0.756566 0.500000 0.738691
O O2 0.768902 0.627760 0.683962
O O3 0.772249 0.614227 0.812606
O O4 0.000000 0.574881 0.742075
O O5 0.164859 0.500000 0.242522
O O6 0.263746 0.386096 0.181517
O O7 0.228444 0.383804 0.309847
O O8 0.000000 0.384522 0.232649
O O9 0.500000 0.597721 0.524368
O O10 0.709861 0.500000 0.525332
O O11 0.773450 0.632088 0.557140
O O12 0.716966 0.605191 0.437923
O O13 0.500000 0.182265 0.620411
O O14 0.750000 0.250000 0.625439
O O15 0.500000 0.816753 0.020757
O O16 0.750000 0.750000 0.030214
O O17 0.737570 0.887249 0.053249
O O18 0.712248 0.843834 0.934633
O O19 0.500000 0.809199 0.852008
O O20 0.250000 0.750000 0.838575
O O21 0.000000 0.113097 0.109021
O O22 0.826287 0.000000 0.111263
O O23 0.000000 0.883005 0.352646
O O24 0.845911 0.000000 0.359428
#
# Coordination Sequence:
#
# PCOD8173080 Si02
#       8
#     8   8   8   8   8   8   8   8
#     4   9  18  33  53  78 105 132 166 209 256 304
#     4   9  16  26  43  70 102 133 168 211 255 302
#     4   9  18  33  53  77 105 135 169 212 259 307
#     4  11  22  35  53  75 102 138 177 215 255 304
#     4  10  20  34  53  76 102 135 174 213 255 306
#     4   9  18  33  54  76 100 132 167 206 251 303
#     4  10  20  33  50  73 103 138 174 215 261 306
#     4   8  14  26  45  69  98 132 166 202 251 308
#
# _framework density 18.509706999999999
#
# number of rings (size 3 to 8) (size 9 to 14) (size 15 to 20)
#    0.000    2.625    0.000    3.000    0.000    4.500 
#    0.000    3.125    0.000    2.625    0.000    1.750 
#    0.000    0.000    0.000    0.000    0.000    0.000 
#
# Total GULP energy -396769.937857 kJ/mol
# GULP energy per Si atom -12399.060558 kJ/mol
# Density = 1.846758 g / cm^3
# Si number density = 18.509707 Si / 1000 Ang^3
#
#
#
# Elastic Constant Matrix: (Units=GPa)
#
#
# Indices 1 2 3 4 5 6 
#
# 1 87.9691 40.0907 55.7972 0.0000 0.0000 0.0000
# 2 40.0907 81.4583 59.6592 0.0000 0.0000 0.0000
# 3 55.7972 59.6592 138.6498 0.0000 0.0000 0.0000
# 4 0.0000 0.0000 0.0000 9.6106 0.0000 0.0000
# 5 0.0000 0.0000 0.0000 0.0000 25.6298 0.0000
# 6 0.0000 0.0000 0.0000 0.0000 0.0000 22.7850
#
#
#
# Elastic Compliance Matrix: (Units=1/GPa)
#
#
# Indices 1 2 3 4 5 6 
#
# 1 0.016426 -0.004735 -0.004573 0.000000 0.000000 0.000000
# 2 -0.004735 0.019290 -0.006395 0.000000 0.000000 0.000000
# 3 -0.004573 -0.006395 0.011804 0.000000 0.000000 0.000000
# 4 0.000000 0.000000 0.000000 0.104052 0.000000 0.000000
# 5 0.000000 0.000000 0.000000 0.000000 0.039017 0.000000
# 6 0.000000 0.000000 0.000000 0.000000 0.000000 0.043889
#
#
# Mechanical properties :
#
#
# Convention : Reuss Voigt Hill
#
# Bulk Modulus (GPa) = 62.05425 68.79679 65.42552
# Shear Modulus (GPa) = 18.43280 21.77373 20.10326
#
# Velocity S-wave (km/s) = 3.15912 3.43350 3.29917
# Velocity P-wave (km/s) = 6.84871 7.27786 7.06654
#
# Compressibility (1/GPa) = 0.01611493
#
# Stress axis : x y z
#
# Youngs Moduli (GPa) = 60.87855 51.84006 84.71510
#
# Poissons Ratio (x) = 0.24547 0.38740
# Poissons Ratio (y) = 0.28827 0.54173
# Poissons Ratio (z) = 0.27839 0.33150
#
# Static dielectric constant tensor:
#      x y z
#    x 3.427720 0.000000 0.000000 
#    y 0.000000 3.186310 0.000000 
#    z 0.000000 0.000000 3.633580 
# 
# 
# High freq. dielectric constant tensor:
#      x y z
#    x 1.712590 0.000000 0.000000 
#    y 0.000000 1.685870 0.000000 
#    z 0.000000 0.000000 1.733520 
# 
# From -- ./inp_files/18327.got.cif
#   From: 2010.03.12/outbox.cif.g09.slc.cpg/sg35_10_cif.got.tgz:18327.got - 2010.04.14 02:02:04.
