data_PCOD8173993
_publ_section_title
;
Structure prediction by ZEFSAII (Michael W. Deem and Ramdas Pophale) SiO2 
 PCOD8173993
Probable space group: C M M 2
;
_chemical_formula_sum "Si O2"
_cell_formula_units_Z 56
_cell_length_a 20.653934
_cell_length_b 9.229050
_cell_length_c 14.517906
_cell_angle_alpha 90.000000
_cell_angle_beta 90.000000
_cell_angle_gamma 90.000000
_cell_volume 2767.347922
_symmetry_space_group_name_H-M "C M M 2"
_symmetry_group_IT_number 35
_symmetry_cell_setting 'orthorhombic'
loop_
_space_group_symop_operation_xyz
x,y,z
-x,-y,z
-x,y,z
x,-y,z
1/2+x,1/2+y,z
1/2-x,1/2-y,z
1/2-x,1/2+y,z
1/2+x,1/2-y,z
loop_
_atom_site_type_symbol
_atom_site_label
_atom_site_fract_x
_atom_site_fract_y
_atom_site_fract_z
Si Si1 0.574462 0.169842 0.081420
Si Si2 0.376774 0.335489 0.372394
Si Si3 0.624426 0.332565 0.578642
Si Si4 0.311955 0.666286 0.761472
Si Si5 0.185671 0.167711 0.188349
Si Si6 0.000000 0.660433 0.583397
Si Si7 0.572964 0.332893 0.893298
Si Si8 0.500000 0.839846 0.365207
O O1 0.500000 0.196706 0.113067
O O2 0.622015 0.257722 0.147662
O O3 0.591583 0.000000 0.083835
O O4 0.585447 0.228542 0.979018
O O5 0.401934 0.500000 0.377731
O O6 0.353942 0.285466 0.475009
O O7 0.318195 0.320755 0.299923
O O8 0.435631 0.241007 0.332446
O O9 0.604135 0.500000 0.580876
O O10 0.681215 0.301961 0.651899
O O11 0.563416 0.243813 0.616002
O O12 0.297764 0.500000 0.780618
O O13 0.250000 0.750000 0.800544
O O14 0.377110 0.714444 0.813939
O O15 0.250000 0.250000 0.154283
O O16 0.189129 0.000000 0.156900
O O17 0.000000 0.500000 0.626755
O O18 0.000000 0.652923 0.474131
O O19 0.500000 0.311128 0.855057
O O20 0.583567 0.500000 0.923516
O O21 0.500000 0.000000 0.320528
#
# Coordination Sequence:
#
# PCOD8173993 Si02
#       8
#     8   8   8   8   8   4   8   4
#     4  10  22  41  65  92 119 149 189 237 294 352
#     4   9  19  35  54  79 112 153 198 239 282 337
#     4   9  18  34  55  78 111 155 198 236 279 337
#     4  10  22  37  57  85 117 155 195 236 286 340
#     4  11  24  40  59  85 119 157 199 242 291 346
#     4   9  17  29  47  77 108 139 184 239 291 330
#     4   9  19  38  63  88 114 148 193 238 286 345
#     4   9  17  29  49  77 108 141 184 237 289 334
#
# _framework density 20.235982
#
# number of rings (size 3 to 8) (size 9 to 14) (size 15 to 20)
#    0.000    2.429    0.000    1.286    2.000    6.000 
#    0.000    1.429    0.000    0.000    0.000    0.000 
#    0.000    0.000    0.000    0.000    0.000    0.000 
#
# Total GULP energy -347124.745657 kJ/mol
# GULP energy per Si atom -12397.312345 kJ/mol
# Density = 2.018992 g / cm^3
# Si number density = 20.235982 Si / 1000 Ang^3
#
#
#
# Elastic Constant Matrix: (Units=GPa)
#
#
# Indices 1 2 3 4 5 6 
#
# 1 119.5841 62.1270 54.0818 0.0000 0.0000 0.0000
# 2 62.1270 105.8903 40.6035 0.0000 0.0000 0.0000
# 3 54.0818 40.6035 80.3344 0.0000 0.0000 0.0000
# 4 0.0000 0.0000 0.0000 21.7881 0.0000 0.0000
# 5 0.0000 0.0000 0.0000 0.0000 21.5968 0.0000
# 6 0.0000 0.0000 0.0000 0.0000 0.0000 31.0524
#
#
#
# Elastic Compliance Matrix: (Units=1/GPa)
#
#
# Indices 1 2 3 4 5 6 
#
# 1 0.014494 -0.005907 -0.006772 0.000000 0.000000 0.000000
# 2 -0.005907 0.014121 -0.003161 0.000000 0.000000 0.000000
# 3 -0.006772 -0.003161 0.018604 0.000000 0.000000 0.000000
# 4 0.000000 0.000000 0.000000 0.045897 0.000000 0.000000
# 5 0.000000 0.000000 0.000000 0.000000 0.046303 0.000000
# 6 0.000000 0.000000 0.000000 0.000000 0.000000 0.032204
#
#
# Mechanical properties :
#
#
# Convention : Reuss Voigt Hill
#
# Bulk Modulus (GPa) = 64.34810 68.82594 66.58702
# Shear Modulus (GPa) = 23.98292 24.82055 24.40174
#
# Velocity S-wave (km/s) = 3.44635 3.50602 3.47631
# Velocity P-wave (km/s) = 6.90683 7.10458 7.00641
#
# Compressibility (1/GPa) = 0.01554047
#
# Stress axis : x y z
#
# Youngs Moduli (GPa) = 68.99581 70.81442 53.75112
#
# Poissons Ratio (x) = 0.41830 0.36398
# Poissons Ratio (y) = 0.40756 0.16989
# Poissons Ratio (z) = 0.46722 0.22383
#
# Static dielectric constant tensor:
#      x y z
#    x 3.482930 0.000000 0.000000 
#    y 0.000000 3.786920 0.000000 
#    z 0.000000 0.000000 3.603590 
# 
# 
# High freq. dielectric constant tensor:
#      x y z
#    x 1.777450 0.000000 0.000000 
#    y 0.000000 1.790700 0.000000 
#    z 0.000000 0.000000 1.784990 
# 
# From -- ./inp_files/17430.got.cif
#   From: 2010.03.12/outbox.cif.g09.slc.cpg/sg35_9_cif.got.tgz:17430.got - 2010.04.14 02:02:04.
