data_PCOD8173985
_publ_section_title
;
Structure prediction by ZEFSAII (Michael W. Deem and Ramdas Pophale) SiO2 
 PCOD8173985
Probable space group: C M M 2
;
_chemical_formula_sum "Si O2"
_cell_formula_units_Z 56
_cell_length_a 17.666660
_cell_length_b 18.933604
_cell_length_c 7.715958
_cell_angle_alpha 90.000000
_cell_angle_beta 90.000000
_cell_angle_gamma 90.000000
_cell_volume 2580.938140
_symmetry_space_group_name_H-M "C M M 2"
_symmetry_group_IT_number 35
_symmetry_cell_setting 'orthorhombic'
loop_
_space_group_symop_operation_xyz
x,y,z
-x,-y,z
-x,y,z
x,-y,z
1/2+x,1/2+y,z
1/2-x,1/2-y,z
1/2-x,1/2+y,z
1/2+x,1/2-y,z
loop_
_atom_site_type_symbol
_atom_site_label
_atom_site_fract_x
_atom_site_fract_y
_atom_site_fract_z
Si Si1 0.418365 0.668057 0.471790
Si Si2 0.183362 0.580129 0.867531
Si Si3 0.847302 0.143744 0.809457
Si Si4 0.113123 0.921048 0.164077
Si Si5 0.284553 0.074539 0.262350
Si Si6 0.168929 0.720114 0.277342
Si Si7 0.909807 0.289274 0.913575
O O1 0.500000 0.697032 0.534383
O O2 0.382376 0.619870 0.624654
O O3 0.435967 0.623561 0.298035
O O4 0.363556 0.733646 0.432383
O O5 0.174163 0.500000 0.786612
O O6 0.260880 0.617856 0.807417
O O7 0.115036 0.635154 0.828231
O O8 0.181605 0.571167 0.071942
O O9 0.861833 0.228165 0.816351
O O10 0.891957 0.109616 0.970464
O O11 0.195690 0.915690 0.245639
O O12 0.081871 0.000000 0.154485
O O13 0.319655 0.141777 0.360852
O O14 0.303528 0.000000 0.358809
O O15 0.250000 0.750000 0.210422
O O16 0.111784 0.716735 0.116380
O O17 0.000000 0.280113 0.892691
#
# Coordination Sequence:
#
# PCOD8173985 Si02
#       7
#     8   8   8   8   8   8   8
#     4  12  26  40  61  95 132 168 216 271 325 386
#     4   9  19  37  63  94 126 167 217 269 319 380
#     4  11  22  41  66  92 126 172 222 266 318 386
#     4  10  21  41  66  90 125 166 208 264 325 381
#     4   8  15  32  60  90 119 157 209 261 308 370
#     4  11  19  36  62  91 124 173 224 266 317 382
#     4  11  21  36  63  97 134 172 211 268 335 390
#
# _framework density 21.697534999999998
#
# number of rings (size 3 to 8) (size 9 to 14) (size 15 to 20)
#    0.000    1.714    2.857    4.286    0.000    3.429 
#    0.000    0.000    0.000    5.143    0.000    0.000 
#    0.000    0.000    0.000    0.000    0.000    0.000 
#
# Total GULP energy -346883.842295 kJ/mol
# GULP energy per Si atom -12388.708653 kJ/mol
# Density = 2.164815 g / cm^3
# Si number density = 21.697535 Si / 1000 Ang^3
#
#
#
# Elastic Constant Matrix: (Units=GPa)
#
#
# Indices 1 2 3 4 5 6 
#
# 1 94.5617 60.9380 26.5868 0.0000 0.0000 0.0000
# 2 60.9380 177.0906 30.7736 0.0000 0.0000 0.0000
# 3 26.5868 30.7736 93.2869 0.0000 0.0000 0.0000
# 4 0.0000 0.0000 0.0000 18.3335 0.0000 0.0000
# 5 0.0000 0.0000 0.0000 0.0000 15.3460 0.0000
# 6 0.0000 0.0000 0.0000 0.0000 0.0000 8.9956
#
#
#
# Elastic Compliance Matrix: (Units=1/GPa)
#
#
# Indices 1 2 3 4 5 6 
#
# 1 0.014148 -0.004421 -0.002574 0.000000 0.000000 0.000000
# 2 -0.004421 0.007372 -0.001172 0.000000 0.000000 0.000000
# 3 -0.002574 -0.001172 0.011840 0.000000 0.000000 0.000000
# 4 0.000000 0.000000 0.000000 0.054545 0.000000 0.000000
# 5 0.000000 0.000000 0.000000 0.000000 0.065163 0.000000
# 6 0.000000 0.000000 0.000000 0.000000 0.000000 0.111165
#
#
# Mechanical properties :
#
#
# Convention : Reuss Voigt Hill
#
# Bulk Modulus (GPa) = 58.73347 66.83735 62.78541
# Shear Modulus (GPa) = 17.46777 24.97774 21.22276
#
# Velocity S-wave (km/s) = 2.84043 3.39658 3.13088
# Velocity P-wave (km/s) = 6.15511 6.80098 6.48609
#
# Compressibility (1/GPa) = 0.01702607
#
# Stress axis : x y z
#
# Youngs Moduli (GPa) = 70.68233 135.65226 84.46174
#
# Poissons Ratio (x) = 0.59973 0.21738
# Poissons Ratio (y) = 0.31249 0.09897
# Poissons Ratio (z) = 0.18191 0.15896
#
# Static dielectric constant tensor:
#      x y z
#    x 3.707790 0.000000 0.000000 
#    y 0.000000 4.176570 0.000000 
#    z 0.000000 0.000000 3.676580 
# 
# 
# High freq. dielectric constant tensor:
#      x y z
#    x 1.835220 0.000000 0.000000 
#    y 0.000000 1.864330 0.000000 
#    z 0.000000 0.000000 1.828650 
# 
# From -- ./inp_files/7595.got.cif
#   From: 2010.03.12/outbox.cif.g09.slc.cpg/sg35_4_cif.got.tgz:7595.got - 2010.04.14 02:02:04.
