data_PCOD8173897
_publ_section_title
;
Structure prediction by ZEFSAII (Michael W. Deem and Ramdas Pophale) SiO2 
 PCOD8173897
Probable space group: C M M 2
;
_chemical_formula_sum "Si O2"
_cell_formula_units_Z 56
_cell_length_a 21.616789
_cell_length_b 9.122793
_cell_length_c 14.599669
_cell_angle_alpha 90.000000
_cell_angle_beta 90.000000
_cell_angle_gamma 90.000000
_cell_volume 2879.134899
_symmetry_space_group_name_H-M "C M M 2"
_symmetry_group_IT_number 35
_symmetry_cell_setting 'orthorhombic'
loop_
_space_group_symop_operation_xyz
x,y,z
-x,-y,z
-x,y,z
x,-y,z
1/2+x,1/2+y,z
1/2-x,1/2-y,z
1/2-x,1/2+y,z
1/2+x,1/2-y,z
loop_
_atom_site_type_symbol
_atom_site_label
_atom_site_fract_x
_atom_site_fract_y
_atom_site_fract_z
Si Si1 0.500000 0.326768 0.156750
Si Si2 0.879891 0.825983 0.263828
Si Si3 0.686694 0.829719 0.753195
Si Si4 0.689627 0.171898 0.112165
Si Si5 0.071234 0.669687 0.430830
Si Si6 0.000000 0.172744 0.950937
Si Si7 0.568931 0.826332 0.639362
Si Si8 0.881294 0.332839 0.931510
O O1 0.500000 0.500000 0.151847
O O2 0.440662 0.270772 0.211064
O O3 0.500000 0.263278 0.054377
O O4 0.824571 0.747970 0.209513
O O5 0.884001 0.768076 0.367614
O O6 0.870486 0.000000 0.263528
O O7 0.750000 0.750000 0.723193
O O8 0.625873 0.765578 0.700441
O O9 0.675037 0.803353 0.861328
O O10 0.695468 0.000000 0.729399
O O11 0.750000 0.250000 0.072574
O O12 0.700518 0.000000 0.126604
O O13 0.637960 0.203582 0.035383
O O14 0.088289 0.500000 0.416335
O O15 0.083038 0.719125 0.534873
O O16 0.000000 0.698749 0.404407
O O17 0.061190 0.232386 0.901407
O O18 0.000000 0.000000 0.946249
O O19 0.500000 0.765386 0.668147
O O20 0.566054 0.000000 0.647887
O O21 0.903178 0.500000 0.922204
#
# Coordination Sequence:
#
# PCOD8173897 Si02
#       8
#     4   8   8   8   8   4   8   8
#     4   9  18  31  49  76 107 140 174 213 265 315
#     4  11  20  34  54  79 111 146 183 223 272 328
#     4  10  21  38  61  85 112 149 190 236 285 341
#     4  11  23  38  54  76 107 147 191 234 277 325
#     4   9  17  31  53  82 111 140 182 231 279 332
#     4  11  21  35  55  82 115 150 184 229 283 329
#     4   8  16  33  58  85 111 145 188 235 287 342
#     4  10  22  37  56  83 113 147 188 230 276 333
#
# _framework density 19.450286999999999
#
# number of rings (size 3 to 8) (size 9 to 14) (size 15 to 20)
#    0.000    2.143    2.143    2.357    1.000    1.143 
#    0.000    1.429    0.000    2.571    0.000    0.000 
#    0.000    0.000    0.000    0.000    0.000    0.000 
#
# Total GULP energy -347126.148271 kJ/mol
# GULP energy per Si atom -12397.362438 kJ/mol
# Density = 1.940602 g / cm^3
# Si number density = 19.450287 Si / 1000 Ang^3
#
#
#
# Elastic Constant Matrix: (Units=GPa)
#
#
# Indices 1 2 3 4 5 6 
#
# 1 119.8438 51.5009 41.1661 0.0000 0.0000 0.0000
# 2 51.5009 81.4275 35.1406 0.0000 0.0000 0.0000
# 3 41.1661 35.1406 87.7658 0.0000 0.0000 0.0000
# 4 0.0000 0.0000 0.0000 20.5833 0.0000 0.0000
# 5 0.0000 0.0000 0.0000 0.0000 24.0333 0.0000
# 6 0.0000 0.0000 0.0000 0.0000 0.0000 33.9178
#
#
#
# Elastic Compliance Matrix: (Units=1/GPa)
#
#
# Indices 1 2 3 4 5 6 
#
# 1 0.012146 -0.006315 -0.003169 0.000000 0.000000 0.000000
# 2 -0.006315 0.018129 -0.004297 0.000000 0.000000 0.000000
# 3 -0.003169 -0.004297 0.014601 0.000000 0.000000 0.000000
# 4 0.000000 0.000000 0.000000 0.048583 0.000000 0.000000
# 5 0.000000 0.000000 0.000000 0.000000 0.041609 0.000000
# 6 0.000000 0.000000 0.000000 0.000000 0.000000 0.029483
#
#
# Mechanical properties :
#
#
# Convention : Reuss Voigt Hill
#
# Bulk Modulus (GPa) = 57.75216 60.51691 59.13454
# Shear Modulus (GPa) = 25.26737 26.45552 25.86145
#
# Velocity S-wave (km/s) = 3.60818 3.69204 3.65035
# Velocity P-wave (km/s) = 6.86405 7.02538 6.94519
#
# Compressibility (1/GPa) = 0.01731537
#
# Stress axis : x y z
#
# Youngs Moduli (GPa) = 82.32944 55.15990 68.48994
#
# Poissons Ratio (x) = 0.34832 0.21703
# Poissons Ratio (y) = 0.51989 0.29429
# Poissons Ratio (z) = 0.26089 0.23701
#
# Static dielectric constant tensor:
#      x y z
#    x 3.543890 0.000000 0.000000 
#    y 0.000000 3.212970 0.000000 
#    z 0.000000 0.000000 3.582030 
# 
# 
# High freq. dielectric constant tensor:
#      x y z
#    x 1.750260 0.000000 0.000000 
#    y 0.000000 1.733210 0.000000 
#    z 0.000000 0.000000 1.756430 
# 
# From -- ./inp_files/15734.got.cif
#   From: 2010.03.12/outbox.cif.g09.slc.cpg/sg35_8_cif.got.tgz:15734.got - 2010.04.14 02:02:04.
