data_PCOD8173639
_publ_section_title
;
Structure prediction by ZEFSAII (Michael W. Deem and Ramdas Pophale) SiO2 
 PCOD8173639
Probable space group: C M M 2
;
_chemical_formula_sum "Si O2"
_cell_formula_units_Z 40
_cell_length_a 14.457804
_cell_length_b 26.933383
_cell_length_c 5.227581
_cell_angle_alpha 90.000000
_cell_angle_beta 90.000000
_cell_angle_gamma 90.000000
_cell_volume 2035.607351
_symmetry_space_group_name_H-M "C M M 2"
_symmetry_group_IT_number 35
_symmetry_cell_setting 'orthorhombic'
loop_
_space_group_symop_operation_xyz
x,y,z
-x,-y,z
-x,y,z
x,-y,z
1/2+x,1/2+y,z
1/2-x,1/2-y,z
1/2-x,1/2+y,z
1/2+x,1/2-y,z
loop_
_atom_site_type_symbol
_atom_site_label
_atom_site_fract_x
_atom_site_fract_y
_atom_site_fract_z
Si Si1 0.608445 0.743966 0.222870
Si Si2 0.106345 0.862995 0.041865
Si Si3 0.272171 0.106153 0.755431
Si Si4 0.276773 0.442524 0.247073
Si Si5 0.389561 0.798867 0.722909
O O1 0.500000 0.751809 0.223530
O O2 0.649903 0.767509 0.481718
O O3 0.632867 0.685895 0.203985
O O4 0.649833 0.772939 0.978519
O O5 0.172470 0.865897 0.790672
O O6 0.000000 0.862203 0.950564
O O7 0.127735 0.910810 0.221215
O O8 0.271671 0.069160 0.515478
O O9 0.353680 0.145086 0.710445
O O10 0.291271 0.073709 0.013077
O O11 0.302277 0.500000 0.229957
O O12 0.500000 0.800134 0.719381
#
# Coordination Sequence:
#
# PCOD8173639 Si02
#       5
#     8   8   8   8   8
#     4   9  19  34  56  83 120 152 182 228 274 333
#     4   9  22  39  57  86 118 151 190 230 282 341
#     4  10  22  38  59  87 109 156 189 238 284 338
#     4  10  22  40  58  81 113 149 192 245 292 327
#     4  10  20  37  59  86 118 153 185 225 282 343
#
# _framework density 19.650154000000001
#
# number of rings (size 3 to 8) (size 9 to 14) (size 15 to 20)
#    1.200    1.200    0.000    1.800    2.800    2.000 
#    0.000    0.000    0.000    3.600    0.000    0.000 
#    0.000    0.000    0.000    0.000    0.000    0.000 
#
# Total GULP energy -247855.270483 kJ/mol
# GULP energy per Si atom -12392.763524 kJ/mol
# Density = 1.960543 g / cm^3
# Si number density = 19.650154 Si / 1000 Ang^3
#
#
#
# Elastic Constant Matrix: (Units=GPa)
#
#
# Indices 1 2 3 4 5 6 
#
# 1 34.7540 38.1600 24.0598 0.0000 0.0000 0.0000
# 2 38.1600 135.8095 56.1057 0.0000 0.0000 0.0000
# 3 24.0598 56.1057 157.3443 0.0000 0.0000 0.0000
# 4 0.0000 0.0000 0.0000 26.1589 0.0000 0.0000
# 5 0.0000 0.0000 0.0000 0.0000 8.8763 0.0000
# 6 0.0000 0.0000 0.0000 0.0000 0.0000 25.0930
#
#
#
# Elastic Compliance Matrix: (Units=1/GPa)
#
#
# Indices 1 2 3 4 5 6 
#
# 1 0.042519 -0.010861 -0.002629 0.000000 0.000000 0.000000
# 2 -0.010861 0.011410 -0.002408 0.000000 0.000000 0.000000
# 3 -0.002629 -0.002408 0.007616 0.000000 0.000000 0.000000
# 4 0.000000 0.000000 0.000000 0.038228 0.000000 0.000000
# 5 0.000000 0.000000 0.000000 0.000000 0.112660 0.000000
# 6 0.000000 0.000000 0.000000 0.000000 0.000000 0.039852
#
#
# Mechanical properties :
#
#
# Convention : Reuss Voigt Hill
#
# Bulk Modulus (GPa) = 33.61387 62.72873 48.17130
# Shear Modulus (GPa) = 17.00703 25.99779 21.50241
#
# Velocity S-wave (km/s) = 2.94511 3.64130 3.31155
# Velocity P-wave (km/s) = 5.35801 7.04775 6.26015
#
# Compressibility (1/GPa) = 0.02974963
#
# Stress axis : x y z
#
# Youngs Moduli (GPa) = 23.51885 87.64495 131.30259
#
# Poissons Ratio (x) = 0.95192 0.34517
# Poissons Ratio (y) = 0.25544 0.31613
# Poissons Ratio (z) = 0.06183 0.21102
#
# Static dielectric constant tensor:
#      x y z
#    x 3.161470 0.000000 0.000000 
#    y 0.000000 3.417670 0.000000 
#    z 0.000000 0.000000 3.807880 
# 
# 
# High freq. dielectric constant tensor:
#      x y z
#    x 1.732960 0.000000 0.000000 
#    y 0.000000 1.761300 0.000000 
#    z 0.000000 0.000000 1.776050 
# 
# From -- ./inp_files/2470.got.cif
#   From: 2010.03.12/outbox.cif.g09.slc.cpg/sg35_2_cif.got.tgz:2470.got - 2010.04.14 02:02:04.
