data_PCOD8173717
_publ_section_title
;
Structure prediction by ZEFSAII (Michael W. Deem and Ramdas Pophale) SiO2 
 PCOD8173717
Probable space group: C M M 2
;
_chemical_formula_sum "Si O2"
_cell_formula_units_Z 56
_cell_length_a 26.147432
_cell_length_b 19.679532
_cell_length_c 5.126632
_cell_angle_alpha 90.000000
_cell_angle_beta 90.000000
_cell_angle_gamma 90.000000
_cell_volume 2638.007054
_symmetry_space_group_name_H-M "C M M 2"
_symmetry_group_IT_number 35
_symmetry_cell_setting 'orthorhombic'
loop_
_space_group_symop_operation_xyz
x,y,z
-x,-y,z
-x,y,z
x,-y,z
1/2+x,1/2+y,z
1/2-x,1/2-y,z
1/2-x,1/2+y,z
1/2+x,1/2-y,z
loop_
_atom_site_type_symbol
_atom_site_label
_atom_site_fract_x
_atom_site_fract_y
_atom_site_fract_z
Si Si1 0.557607 0.184157 0.164450
Si Si2 0.150348 0.810589 0.728887
Si Si3 0.133133 0.074331 0.348681
Si Si4 0.221925 0.887597 0.041347
Si Si5 0.557296 0.336919 0.069388
Si Si6 0.716917 0.077846 0.533382
Si Si7 0.120785 0.663822 0.647955
O O1 0.500000 0.158783 0.106471
O O2 0.558071 0.264931 0.217490
O O3 0.577523 0.151469 0.431255
O O4 0.594611 0.161321 0.930761
O O5 0.162804 0.870364 0.524713
O O6 0.151080 0.735248 0.608647
O O7 0.194198 0.815787 0.954914
O O8 0.092681 0.828221 0.817821
O O9 0.173724 0.063932 0.113618
O O10 0.078670 0.103644 0.254950
O O11 0.123800 0.000000 0.478724
O O12 0.260581 0.879203 0.287194
O O13 0.249448 0.919298 0.792716
O O14 0.500000 0.356469 0.980319
O O15 0.661248 0.104163 0.613968
O O16 0.713093 0.000000 0.439755
#
# Coordination Sequence:
#
# PCOD8173717 Si02
#       7
#     8   8   8   8   8   8   8
#     4  10  20  39  68  94 123 164 204 246 312 388
#     4  10  22  40  59  90 122 161 213 262 311 365
#     4  11  21  37  59  82 120 164 208 255 301 365
#     4  11  24  42  63  88 123 169 215 250 310 382
#     4   9  20  36  56  84 120 159 204 255 306 362
#     4  12  25  43  66  92 126 168 210 260 321 385
#     4  11  23  41  64  97 129 157 208 266 312 367
#
# _framework density 21.228148000000001
#
# number of rings (size 3 to 8) (size 9 to 14) (size 15 to 20)
#    0.000    1.429    2.857    2.571    0.000    4.857 
#    2.571    0.000    0.000    2.571    0.000    0.000 
#    0.000    0.000    0.000    0.000    0.000    0.000 
#
# Total GULP energy -347004.308458 kJ/mol
# GULP energy per Si atom -12393.011016 kJ/mol
# Density = 2.117983 g / cm^3
# Si number density = 21.228148 Si / 1000 Ang^3
#
#
#
# Elastic Constant Matrix: (Units=GPa)
#
#
# Indices 1 2 3 4 5 6 
#
# 1 130.7560 43.5149 37.6620 0.0000 0.0000 0.0000
# 2 43.5149 36.3106 23.5802 0.0000 0.0000 0.0000
# 3 37.6620 23.5802 102.4973 0.0000 0.0000 0.0000
# 4 0.0000 0.0000 0.0000 17.3658 0.0000 0.0000
# 5 0.0000 0.0000 0.0000 0.0000 36.8994 0.0000
# 6 0.0000 0.0000 0.0000 0.0000 0.0000 7.6945
#
#
#
# Elastic Compliance Matrix: (Units=1/GPa)
#
#
# Indices 1 2 3 4 5 6 
#
# 1 0.012888 -0.014542 -0.001390 0.000000 0.000000 0.000000
# 2 -0.014542 0.048786 -0.005880 0.000000 0.000000 0.000000
# 3 -0.001390 -0.005880 0.011620 0.000000 0.000000 0.000000
# 4 0.000000 0.000000 0.000000 0.057584 0.000000 0.000000
# 5 0.000000 0.000000 0.000000 0.000000 0.027101 0.000000
# 6 0.000000 0.000000 0.000000 0.000000 0.000000 0.129964
#
#
# Mechanical properties :
#
#
# Convention : Reuss Voigt Hill
#
# Bulk Modulus (GPa) = 33.70498 53.23087 43.46793
# Shear Modulus (GPa) = 14.64314 23.37905 19.01109
#
# Velocity S-wave (km/s) = 2.62925 3.32222 2.99584
# Velocity P-wave (km/s) = 5.01291 6.31239 5.69980
#
# Compressibility (1/GPa) = 0.02966921
#
# Stress axis : x y z
#
# Youngs Moduli (GPa) = 77.59320 20.49761 86.05934
#
# Poissons Ratio (x) = 0.29808 0.11962
# Poissons Ratio (y) = 1.12837 0.50605
# Poissons Ratio (z) = 0.10785 0.12053
#
# Static dielectric constant tensor:
#      x y z
#    x 3.890430 0.000000 0.000000 
#    y 0.000000 3.526910 0.000000 
#    z 0.000000 0.000000 3.863990 
# 
# 
# High freq. dielectric constant tensor:
#      x y z
#    x 1.837670 0.000000 0.000000 
#    y 0.000000 1.793100 0.000000 
#    z 0.000000 0.000000 1.836290 
# 
# From -- ./inp_files/3776.got.cif
#   From: 2010.03.12/outbox.cif.g09.slc.cpg/sg35_2_cif.got.tgz:3776.got - 2010.04.14 02:02:04.
