data_PCOD8173226
_publ_section_title
;
Structure prediction by ZEFSAII (Michael W. Deem and Ramdas Pophale) SiO2 
 PCOD8173226
Probable space group: C M M 2
;
_chemical_formula_sum "Si O2"
_cell_formula_units_Z 56
_cell_length_a 8.946945
_cell_length_b 18.109191
_cell_length_c 18.170033
_cell_angle_alpha 90.000000
_cell_angle_beta 90.000000
_cell_angle_gamma 90.000000
_cell_volume 2943.943922
_symmetry_space_group_name_H-M "C M M 2"
_symmetry_group_IT_number 35
_symmetry_cell_setting 'orthorhombic'
loop_
_space_group_symop_operation_xyz
x,y,z
-x,-y,z
-x,y,z
x,-y,z
1/2+x,1/2+y,z
1/2-x,1/2-y,z
1/2-x,1/2+y,z
1/2+x,1/2-y,z
loop_
_atom_site_type_symbol
_atom_site_label
_atom_site_fract_x
_atom_site_fract_y
_atom_site_fract_z
Si Si1 0.168542 0.412005 0.150720
Si Si2 0.677355 0.670370 0.574330
Si Si3 0.824940 0.084927 0.003694
Si Si4 0.828274 0.587341 0.442389
Si Si5 0.331827 0.412146 0.295041
Si Si6 0.177150 0.829188 0.859147
Si Si7 0.322426 0.582796 0.717271
O O1 0.173219 0.500000 0.152107
O O2 0.259236 0.380108 0.220369
O O3 0.000000 0.382268 0.155163
O O4 0.242175 0.383024 0.075400
O O5 0.500000 0.678281 0.573432
O O6 0.750000 0.750000 0.573270
O O7 0.728004 0.624468 0.504087
O O8 0.735143 0.627962 0.646786
O O9 0.770052 0.131416 0.933833
O O10 0.000000 0.093406 0.017506
O O11 0.782059 0.000000 0.988914
O O12 0.811275 0.500000 0.450465
O O13 0.767029 0.614836 0.363724
O O14 0.000000 0.612341 0.449806
O O15 0.500000 0.381231 0.302690
O O16 0.333577 0.500000 0.291889
O O17 0.250000 0.750000 0.853774
O O18 0.236260 0.877672 0.790914
O O19 0.000000 0.820969 0.856442
O O20 0.500000 0.579251 0.717598
O O21 0.255922 0.500000 0.714204
#
# Coordination Sequence:
#
# PCOD8173226 Si02
#       7
#     8   8   8   8   8   8   8
#     4   9  16  26  43  70 103 135 168 212 265 312
#     4  11  22  36  55  78 107 142 179 218 263 317
#     4   9  17  30  49  72  98 132 175 217 256 304
#     4  10  20  34  53  78 108 140 177 222 269 316
#     4   9  16  27  46  73 104 137 174 215 260 312
#     4  10  20  34  53  76 104 137 172 212 258 309
#     4   9  18  34  57  82 105 133 173 218 261 308
#
# _framework density 19.022100999999999
#
# number of rings (size 3 to 8) (size 9 to 14) (size 15 to 20)
#    0.000    2.429    0.000    3.000    0.000    7.143 
#    0.000    0.714    0.000    3.857    0.000    4.000 
#    0.000    0.000    0.000    0.000    0.000    0.000 
#
# Total GULP energy -347238.203131 kJ/mol
# GULP energy per Si atom -12401.364398 kJ/mol
# Density = 1.897881 g / cm^3
# Si number density = 19.022101 Si / 1000 Ang^3
#
#
#
# Elastic Constant Matrix: (Units=GPa)
#
#
# Indices 1 2 3 4 5 6 
#
# 1 77.8734 28.1466 51.4946 0.0000 0.0000 0.0000
# 2 28.1466 49.3923 45.5762 0.0000 0.0000 0.0000
# 3 51.4946 45.5762 176.3963 0.0000 0.0000 0.0000
# 4 0.0000 0.0000 0.0000 2.8749 0.0000 0.0000
# 5 0.0000 0.0000 0.0000 0.0000 21.5630 0.0000
# 6 0.0000 0.0000 0.0000 0.0000 0.0000 23.1938
#
#
#
# Elastic Compliance Matrix: (Units=1/GPa)
#
#
# Indices 1 2 3 4 5 6 
#
# 1 0.017548 -0.006924 -0.003334 0.000000 0.000000 0.000000
# 2 -0.006924 0.029316 -0.005553 0.000000 0.000000 0.000000
# 3 -0.003334 -0.005553 0.008077 0.000000 0.000000 0.000000
# 4 0.000000 0.000000 0.000000 0.347834 0.000000 0.000000
# 5 0.000000 0.000000 0.000000 0.000000 0.046376 0.000000
# 6 0.000000 0.000000 0.000000 0.000000 0.000000 0.043115
#
#
# Mechanical properties :
#
#
# Convention : Reuss Voigt Hill
#
# Bulk Modulus (GPa) = 42.88250 61.56632 52.22441
# Shear Modulus (GPa) = 9.40448 21.42265 15.41357
#
# Velocity S-wave (km/s) = 2.22592 3.35953 2.84966
# Velocity P-wave (km/s) = 5.40359 6.89090 6.19206
#
# Compressibility (1/GPa) = 0.02331954
#
# Stress axis : x y z
#
# Youngs Moduli (GPa) = 56.98493 34.11129 123.80661
#
# Poissons Ratio (x) = 0.23618 0.41276
# Poissons Ratio (y) = 0.39455 0.68752
# Poissons Ratio (z) = 0.18998 0.18943
#
# Static dielectric constant tensor:
#      x y z
#    x 3.417590 0.000000 0.000000 
#    y 0.000000 3.205880 0.000000 
#    z 0.000000 0.000000 3.768130 
# 
# 
# High freq. dielectric constant tensor:
#      x y z
#    x 1.730930 0.000000 0.000000 
#    y 0.000000 1.706890 0.000000 
#    z 0.000000 0.000000 1.760350 
# 
# From -- ./inp_files/15622.got.cif
#   From: 2010.03.12/outbox.cif.g09.slc.cpg/sg35_8_cif.got.tgz:15622.got - 2010.04.14 02:02:04.
