data_PCOD8173576
_publ_section_title
;
Structure prediction by ZEFSAII (Michael W. Deem and Ramdas Pophale) SiO2 
 PCOD8173576
Probable space group: C M M 2
;
_chemical_formula_sum "Si O2"
_cell_formula_units_Z 48
_cell_length_a 15.285593
_cell_length_b 17.657165
_cell_length_c 9.322468
_cell_angle_alpha 90.000000
_cell_angle_beta 90.000000
_cell_angle_gamma 90.000000
_cell_volume 2516.136329
_symmetry_space_group_name_H-M "C M M 2"
_symmetry_group_IT_number 35
_symmetry_cell_setting 'orthorhombic'
loop_
_space_group_symop_operation_xyz
x,y,z
-x,-y,z
-x,y,z
x,-y,z
1/2+x,1/2+y,z
1/2-x,1/2-y,z
1/2-x,1/2+y,z
1/2+x,1/2-y,z
loop_
_atom_site_type_symbol
_atom_site_label
_atom_site_fract_x
_atom_site_fract_y
_atom_site_fract_z
Si Si1 0.761006 0.586360 0.745650
Si Si2 0.099348 0.682656 0.575829
Si Si3 0.259292 0.914114 0.075140
Si Si4 0.596589 0.363275 0.243259
Si Si5 0.339267 0.793068 0.271046
Si Si6 0.599220 0.359405 0.575140
O O1 0.791487 0.500000 0.730529
O O2 0.835464 0.637645 0.676994
O O3 0.666671 0.594728 0.671924
O O4 0.751279 0.610353 0.910597
O O5 0.121820 0.665482 0.410194
O O6 0.111464 0.771021 0.607261
O O7 0.000000 0.656671 0.606919
O O8 0.163687 0.908799 0.145514
O O9 0.326803 0.857124 0.150859
O O10 0.293758 0.000000 0.091412
O O11 0.500000 0.393984 0.207733
O O12 0.596851 0.272594 0.211902
O O13 0.620368 0.377263 0.409555
O O14 0.250000 0.750000 0.313194
O O15 0.500000 0.384678 0.612120
#
# Coordination Sequence:
#
# PCOD8173576 Si02
#       6
#     8   8   8   8   8   8
#     4  11  23  37  52  75 113 149 177 215 260 313
#     4  10  20  36  59  82 104 134 177 226 269 313
#     4  10  22  36  50  74 108 145 177 210 259 311
#     4   9  18  34  56  81 106 131 168 219 267 313
#     4   9  17  33  57  80 104 134 172 218 265 314
#     4   9  19  36  59  85 108 134 173 221 269 315
#
# _framework density 19.076868000000001
#
# number of rings (size 3 to 8) (size 9 to 14) (size 15 to 20)
#    0.000    2.333    0.000    5.000    0.000    8.333 
#    0.000    6.667    0.000    3.500    0.000    0.000 
#    0.000    0.000    0.000    0.000    0.000    0.000 
#
# Total GULP energy -297597.935107 kJ/mol
# GULP energy per Si atom -12399.913963 kJ/mol
# Density = 1.903345 g / cm^3
# Si number density = 19.076868 Si / 1000 Ang^3
#
#
#
# Elastic Constant Matrix: (Units=GPa)
#
#
# Indices 1 2 3 4 5 6 
#
# 1 81.6227 18.5292 41.1231 0.0000 0.0000 0.0000
# 2 18.5292 56.0573 43.6074 0.0000 0.0000 0.0000
# 3 41.1231 43.6074 102.4037 0.0000 0.0000 0.0000
# 4 0.0000 0.0000 0.0000 40.3970 0.0000 0.0000
# 5 0.0000 0.0000 0.0000 0.0000 9.2624 0.0000
# 6 0.0000 0.0000 0.0000 0.0000 0.0000 17.6437
#
#
#
# Elastic Compliance Matrix: (Units=1/GPa)
#
#
# Indices 1 2 3 4 5 6 
#
# 1 0.015365 -0.000417 -0.005993 0.000000 0.000000 0.000000
# 2 -0.000417 0.026687 -0.011197 0.000000 0.000000 0.000000
# 3 -0.005993 -0.011197 0.016940 0.000000 0.000000 0.000000
# 4 0.000000 0.000000 0.000000 0.024754 0.000000 0.000000
# 5 0.000000 0.000000 0.000000 0.000000 0.107964 0.000000
# 6 0.000000 0.000000 0.000000 0.000000 0.000000 0.056677
#
#
# Mechanical properties :
#
#
# Convention : Reuss Voigt Hill
#
# Bulk Modulus (GPa) = 42.05416 49.62253 45.83835
# Shear Modulus (GPa) = 17.15107 22.58223 19.86665
#
# Velocity S-wave (km/s) = 3.00167 3.44430 3.23057
# Velocity P-wave (km/s) = 5.84002 6.47193 6.16408
#
# Compressibility (1/GPa) = 0.02377886
#
# Stress axis : x y z
#
# Youngs Moduli (GPa) = 65.08093 37.47170 59.03223
#
# Poissons Ratio (x) = 0.01563 0.35377
# Poissons Ratio (y) = 0.02714 0.66097
# Poissons Ratio (z) = 0.39002 0.41956
#
# Static dielectric constant tensor:
#      x y z
#    x 3.608780 0.000000 0.000000 
#    y 0.000000 3.402260 0.000000 
#    z 0.000000 0.000000 3.406560 
# 
# 
# High freq. dielectric constant tensor:
#      x y z
#    x 1.742610 0.000000 0.000000 
#    y 0.000000 1.734960 0.000000 
#    z 0.000000 0.000000 1.733710 
# 
# From -- ./inp_files/7291.got.cif
#   From: 2010.03.12/outbox.cif.g09.slc.cpg/sg35_4_cif.got.tgz:7291.got - 2010.04.14 02:02:04.
