data_PCOD8173446
_publ_section_title
;
Structure prediction by ZEFSAII (Michael W. Deem and Ramdas Pophale) SiO2 
 PCOD8173446
Probable space group: C M M 2
;
_chemical_formula_sum "Si O2"
_cell_formula_units_Z 56
_cell_length_a 20.819222
_cell_length_b 8.788018
_cell_length_c 14.579667
_cell_angle_alpha 90.000000
_cell_angle_beta 90.000000
_cell_angle_gamma 90.000000
_cell_volume 2667.491467
_symmetry_space_group_name_H-M "C M M 2"
_symmetry_group_IT_number 35
_symmetry_cell_setting 'orthorhombic'
loop_
_space_group_symop_operation_xyz
x,y,z
-x,-y,z
-x,y,z
x,-y,z
1/2+x,1/2+y,z
1/2-x,1/2-y,z
1/2-x,1/2+y,z
1/2+x,1/2-y,z
loop_
_atom_site_type_symbol
_atom_site_label
_atom_site_fract_x
_atom_site_fract_y
_atom_site_fract_z
Si Si1 0.573453 0.177551 0.081420
Si Si2 0.361626 0.182703 0.373021
Si Si3 0.629907 0.323037 0.565901
Si Si4 0.315005 0.675839 0.756583
Si Si5 0.185787 0.179828 0.197075
Si Si6 0.000000 0.666958 0.579465
Si Si7 0.572333 0.322250 0.886392
Si Si8 0.500000 0.835974 0.364567
O O1 0.500000 0.214631 0.111552
O O2 0.621617 0.268349 0.146231
O O3 0.588245 0.000000 0.090975
O O4 0.585372 0.227247 0.977656
O O5 0.344901 0.234642 0.476157
O O6 0.313195 0.258046 0.301681
O O7 0.432729 0.246864 0.341905
O O8 0.359149 0.000000 0.369099
O O9 0.622976 0.500000 0.541403
O O10 0.679836 0.293099 0.647834
O O11 0.562510 0.263185 0.605826
O O12 0.309656 0.500000 0.778000
O O13 0.250000 0.750000 0.794584
O O14 0.377436 0.738421 0.810571
O O15 0.250000 0.250000 0.149985
O O16 0.190583 0.000000 0.195910
O O17 0.000000 0.500000 0.628089
O O18 0.000000 0.637042 0.472299
O O19 0.500000 0.291752 0.849550
O O20 0.581706 0.500000 0.909008
O O21 0.500000 0.000000 0.313863
#
# Coordination Sequence:
#
# PCOD8173446 Si02
#       8
#     8   8   8   8   8   4   8   4
#     4  10  22  42  68  97 128 160 198 248 308 369
#     4  10  20  37  59  86 122 163 205 254 310 362
#     4  10  20  35  56  84 119 162 210 254 303 364
#     4  10  23  39  59  87 122 164 205 252 305 361
#     4  12  26  43  63  91 125 164 211 255 308 368
#     4   9  17  31  51  79 110 147 194 251 309 354
#     4   9  19  39  66  92 120 157 203 251 305 365
#     4   7  14  29  51  77 108 145 188 235 293 350
#
# _framework density 20.993504999999999
#
# number of rings (size 3 to 8) (size 9 to 14) (size 15 to 20)
#    0.000    2.143    0.000    3.643    2.000    3.714 
#    0.000    3.571    0.000    0.000    0.000    0.000 
#    0.000    0.000    0.000    0.000    0.000    0.000 
#
# Total GULP energy -347089.958859 kJ/mol
# GULP energy per Si atom -12396.069959 kJ/mol
# Density = 2.094572 g / cm^3
# Si number density = 20.993505 Si / 1000 Ang^3
#
#
#
# Elastic Constant Matrix: (Units=GPa)
#
#
# Indices 1 2 3 4 5 6 
#
# 1 131.1576 55.3845 59.6718 0.0000 0.0000 0.0000
# 2 55.3845 116.0590 46.5745 0.0000 0.0000 0.0000
# 3 59.6718 46.5745 82.8823 0.0000 0.0000 0.0000
# 4 0.0000 0.0000 0.0000 26.0199 0.0000 0.0000
# 5 0.0000 0.0000 0.0000 0.0000 24.0758 0.0000
# 6 0.0000 0.0000 0.0000 0.0000 0.0000 32.8700
#
#
#
# Elastic Compliance Matrix: (Units=1/GPa)
#
#
# Indices 1 2 3 4 5 6 
#
# 1 0.012065 -0.002933 -0.007038 0.000000 0.000000 0.000000
# 2 -0.002933 0.011838 -0.004541 0.000000 0.000000 0.000000
# 3 -0.007038 -0.004541 0.019684 0.000000 0.000000 0.000000
# 4 0.000000 0.000000 0.000000 0.038432 0.000000 0.000000
# 5 0.000000 0.000000 0.000000 0.000000 0.041536 0.000000
# 6 0.000000 0.000000 0.000000 0.000000 0.000000 0.030423
#
#
# Mechanical properties :
#
#
# Convention : Reuss Voigt Hill
#
# Bulk Modulus (GPa) = 68.66447 72.59560 70.63004
# Shear Modulus (GPa) = 26.61616 27.82435 27.22025
#
# Velocity S-wave (km/s) = 3.56452 3.64453 3.60474
# Velocity P-wave (km/s) = 7.05121 7.23638 7.14439
#
# Compressibility (1/GPa) = 0.01456357
#
# Stress axis : x y z
#
# Youngs Moduli (GPa) = 82.88368 84.47259 50.80288
#
# Poissons Ratio (x) = 0.24777 0.35756
# Poissons Ratio (y) = 0.24311 0.23067
# Poissons Ratio (z) = 0.58334 0.38355
#
# Static dielectric constant tensor:
#      x y z
#    x 4.107110 0.000000 0.000000 
#    y 0.000000 3.696750 0.000000 
#    z 0.000000 0.000000 3.645480 
# 
# 
# High freq. dielectric constant tensor:
#      x y z
#    x 1.830420 0.000000 0.000000 
#    y 0.000000 1.815630 0.000000 
#    z 0.000000 0.000000 1.810890 
# 
# From -- ./inp_files/17429.got.cif
#   From: 2010.03.12/outbox.cif.g09.slc.cpg/sg35_9_cif.got.tgz:17429.got - 2010.04.14 02:02:04.
