data_PCOD8173090
_publ_section_title
;
Structure prediction by ZEFSAII (Michael W. Deem and Ramdas Pophale) SiO2 
 PCOD8173090
Probable space group: C M M 2
;
_chemical_formula_sum "Si O2"
_cell_formula_units_Z 64
_cell_length_a 9.075527
_cell_length_b 18.450463
_cell_length_c 20.490289
_cell_angle_alpha 90.000000
_cell_angle_beta 90.000000
_cell_angle_gamma 90.000000
_cell_volume 3431.051256
_symmetry_space_group_name_H-M "C M M 2"
_symmetry_group_IT_number 35
_symmetry_cell_setting 'orthorhombic'
loop_
_space_group_symop_operation_xyz
x,y,z
-x,-y,z
-x,y,z
x,-y,z
1/2+x,1/2+y,z
1/2-x,1/2-y,z
1/2-x,1/2+y,z
1/2+x,1/2-y,z
loop_
_atom_site_type_symbol
_atom_site_label
_atom_site_fract_x
_atom_site_fract_y
_atom_site_fract_z
Si Si1 0.326460 0.172390 0.146850
Si Si2 0.674817 0.579988 0.644425
Si Si3 0.674805 0.418263 0.787962
Si Si4 0.327868 0.326177 0.381243
Si Si5 0.169997 0.915621 0.035634
Si Si6 0.671669 0.675742 0.528460
Si Si7 0.171627 0.825547 0.907208
Si Si8 0.171207 0.416418 0.275097
O O1 0.500000 0.184145 0.140415
O O2 0.250000 0.250000 0.146273
O O3 0.273085 0.123739 0.087312
O O4 0.283373 0.130735 0.212738
O O5 0.500000 0.577397 0.638652
O O6 0.741298 0.500000 0.638635
O O7 0.719550 0.611470 0.715793
O O8 0.741023 0.623563 0.583346
O O9 0.500000 0.421838 0.795167
O O10 0.736870 0.500000 0.798419
O O11 0.738389 0.363151 0.842033
O O12 0.500000 0.315145 0.367626
O O13 0.250000 0.250000 0.365737
O O14 0.297249 0.352626 0.455271
O O15 0.265500 0.389481 0.336192
O O16 0.000000 0.905005 0.055967
O O17 0.212289 0.000000 0.032353
O O18 0.201952 0.880972 0.965612
O O19 0.500000 0.687358 0.539830
O O20 0.750000 0.750000 0.540578
O O21 0.250000 0.750000 0.921540
O O22 0.000000 0.808928 0.899147
O O23 0.210335 0.500000 0.260898
O O24 0.000000 0.406869 0.291905
#
# Coordination Sequence:
#
# PCOD8173090 Si02
#       8
#     8   8   8   8   8   8   8   8
#     4  11  23  39  59  82 108 138 172 210 253 302
#     4   8  14  26  46  71  97 127 166 210 252 295
#     4   8  14  27  48  71  95 128 170 211 250 295
#     4  10  20  34  53  76 103 137 175 214 257 306
#     4  10  21  37  57  80 106 137 173 214 258 304
#     4   9  18  31  48  72 101 131 165 207 252 299
#     4  10  20  33  50  75 105 134 168 210 254 301
#     4  10  22  39  57  79 107 136 168 210 258 306
#
# _framework density 18.653175000000001
#
# number of rings (size 3 to 8) (size 9 to 14) (size 15 to 20)
#    0.000    2.500    0.000    3.000    0.000    7.500 
#    0.000    1.250    0.000    1.500    0.000    1.750 
#    0.000    0.000    0.000    0.000    0.000    0.000 
#
# Total GULP energy -396733.864149 kJ/mol
# GULP energy per Si atom -12397.933255 kJ/mol
# Density = 1.861072 g / cm^3
# Si number density = 18.653175 Si / 1000 Ang^3
#
#
#
# Elastic Constant Matrix: (Units=GPa)
#
#
# Indices 1 2 3 4 5 6 
#
# 1 47.0419 48.6746 50.1281 0.0000 0.0000 0.0000
# 2 48.6746 134.4315 83.3800 0.0000 0.0000 0.0000
# 3 50.1281 83.3800 146.5001 0.0000 0.0000 0.0000
# 4 0.0000 0.0000 0.0000 42.4556 0.0000 0.0000
# 5 0.0000 0.0000 0.0000 0.0000 13.4641 0.0000
# 6 0.0000 0.0000 0.0000 0.0000 0.0000 22.6735
#
#
#
# Elastic Compliance Matrix: (Units=1/GPa)
#
#
# Indices 1 2 3 4 5 6 
#
# 1 0.039645 -0.009182 -0.008339 0.000000 0.000000 0.000000
# 2 -0.009182 0.013624 -0.004612 0.000000 0.000000 0.000000
# 3 -0.008339 -0.004612 0.012304 0.000000 0.000000 0.000000
# 4 0.000000 0.000000 0.000000 0.023554 0.000000 0.000000
# 5 0.000000 0.000000 0.000000 0.000000 0.074271 0.000000
# 6 0.000000 0.000000 0.000000 0.000000 0.000000 0.044104
#
#
# Mechanical properties :
#
#
# Convention : Reuss Voigt Hill
#
# Bulk Modulus (GPa) = 46.93515 76.92654 61.93084
# Shear Modulus (GPa) = 19.31452 25.43805 22.37628
#
# Velocity S-wave (km/s) = 3.22134 3.69689 3.46728
# Velocity P-wave (km/s) = 6.24921 7.71704 7.02158
#
# Compressibility (1/GPa) = 0.02130600
#
# Stress axis : x y z
#
# Youngs Moduli (GPa) = 25.22394 73.39961 81.27128
#
# Poissons Ratio (x) = 0.67396 0.67775
# Poissons Ratio (y) = 0.23161 0.37484
# Poissons Ratio (z) = 0.21035 0.33854
#
# Static dielectric constant tensor:
#      x y z
#    x 3.168560 0.000000 0.000000 
#    y 0.000000 3.279950 0.000000 
#    z 0.000000 0.000000 3.762100 
# 
# 
# High freq. dielectric constant tensor:
#      x y z
#    x 1.694460 0.000000 0.000000 
#    y 0.000000 1.726480 0.000000 
#    z 0.000000 0.000000 1.741910 
# 
# From -- ./inp_files/18444.got.cif
#   From: 2010.03.12/outbox.cif.g09.slc.cpg/sg35_10_cif.got.tgz:18444.got - 2010.04.14 02:02:04.
