data_PCOD8173406
_publ_section_title
;
Structure prediction by ZEFSAII (Michael W. Deem and Ramdas Pophale) SiO2 
 PCOD8173406
Probable space group: C M M 2
;
_chemical_formula_sum "Si O2"
_cell_formula_units_Z 64
_cell_length_a 8.739985
_cell_length_b 28.169335
_cell_length_c 13.026648
_cell_angle_alpha 90.000000
_cell_angle_beta 90.000000
_cell_angle_gamma 90.000000
_cell_volume 3207.155076
_symmetry_space_group_name_H-M "C M M 2"
_symmetry_group_IT_number 35
_symmetry_cell_setting 'orthorhombic'
loop_
_space_group_symop_operation_xyz
x,y,z
-x,-y,z
-x,y,z
x,-y,z
1/2+x,1/2+y,z
1/2-x,1/2-y,z
1/2-x,1/2+y,z
1/2+x,1/2-y,z
loop_
_atom_site_type_symbol
_atom_site_label
_atom_site_fract_x
_atom_site_fract_y
_atom_site_fract_z
Si Si1 0.179996 0.446035 0.490650
Si Si2 0.819600 0.142831 0.792475
Si Si3 0.181150 0.698062 0.380819
Si Si4 0.318297 0.054227 0.712480
Si Si5 0.681785 0.301912 0.590219
Si Si6 0.820957 0.143263 0.193670
Si Si7 0.319944 0.698451 0.989707
Si Si8 0.181328 0.554911 0.267844
O O1 0.231486 0.500000 0.485440
O O2 0.243633 0.426753 0.599925
O O3 0.233432 0.424510 0.381227
O O4 0.000000 0.441815 0.495407
O O5 0.752824 0.089377 0.796790
O O6 0.765073 0.167855 0.687976
O O7 0.753926 0.172502 0.888518
O O8 0.000000 0.139275 0.800300
O O9 0.250000 0.750000 0.364492
O O10 0.248516 0.675032 0.486019
O O11 0.223890 0.666777 0.283767
O O12 0.000000 0.701462 0.391104
O O13 0.500000 0.056577 0.717877
O O14 0.264259 0.000000 0.732985
O O15 0.500000 0.299029 0.580474
O O16 0.750000 0.250000 0.605236
O O17 0.772329 0.087722 0.187085
O O18 0.000000 0.148995 0.215403
O O19 0.772679 0.167227 0.087310
O O20 0.500000 0.704362 0.981012
O O21 0.250000 0.750000 0.001374
O O22 0.229083 0.500000 0.251996
O O23 0.000000 0.560279 0.253214
#
# Coordination Sequence:
#
# PCOD8173406 Si02
#       8
#     8   8   8   8   8   8   8   8
#     4   7  12  26  48  74 106 143 182 224 269 319
#     4  10  22  38  57  83 114 147 188 235 286 340
#     4  11  22  37  57  82 115 150 185 229 286 348
#     4   9  18  33  54  82 115 151 193 235 276 329
#     4  10  20  35  55  82 115 146 182 229 282 346
#     4  11  23  38  58  84 115 150 193 238 287 343
#     4  10  23  43  64  85 111 146 189 240 291 341
#     4   9  18  34  56  83 116 154 195 238 284 335
#
# _framework density 19.955380000000002
#
# number of rings (size 3 to 8) (size 9 to 14) (size 15 to 20)
#    0.000    2.375    0.000    4.875    1.750    4.000 
#    0.000    0.625    0.000    6.000    0.000    0.000 
#    0.000    0.000    0.000    0.000    0.000    0.000 
#
# Total GULP energy -396576.514827 kJ/mol
# GULP energy per Si atom -12393.016088 kJ/mol
# Density = 1.990996 g / cm^3
# Si number density = 19.955380 Si / 1000 Ang^3
#
#
#
# Elastic Constant Matrix: (Units=GPa)
#
#
# Indices 1 2 3 4 5 6 
#
# 1 55.2685 34.7962 42.5979 0.0000 0.0000 0.0000
# 2 34.7962 109.3085 76.8153 0.0000 0.0000 0.0000
# 3 42.5979 76.8153 128.4674 0.0000 0.0000 0.0000
# 4 0.0000 0.0000 0.0000 35.2742 0.0000 0.0000
# 5 0.0000 0.0000 0.0000 0.0000 19.9195 0.0000
# 6 0.0000 0.0000 0.0000 0.0000 0.0000 31.0528
#
#
#
# Elastic Compliance Matrix: (Units=1/GPa)
#
#
# Indices 1 2 3 4 5 6 
#
# 1 0.025144 -0.003700 -0.006125 0.000000 0.000000 0.000000
# 2 -0.003700 0.016323 -0.008533 0.000000 0.000000 0.000000
# 3 -0.006125 -0.008533 0.014917 0.000000 0.000000 0.000000
# 4 0.000000 0.000000 0.000000 0.028349 0.000000 0.000000
# 5 0.000000 0.000000 0.000000 0.000000 0.050202 0.000000
# 6 0.000000 0.000000 0.000000 0.000000 0.000000 0.032203
#
#
# Mechanical properties :
#
#
# Convention : Reuss Voigt Hill
#
# Bulk Modulus (GPa) = 50.84440 66.82926 58.83683
# Shear Modulus (GPa) = 23.76312 26.50498 25.13405
#
# Velocity S-wave (km/s) = 3.45456 3.64842 3.55281
# Velocity P-wave (km/s) = 6.43788 7.16310 6.81015
#
# Compressibility (1/GPa) = 0.01966785
#
# Stress axis : x y z
#
# Youngs Moduli (GPa) = 39.77146 61.26424 67.03583
#
# Poissons Ratio (x) = 0.22665 0.41060
# Poissons Ratio (y) = 0.14714 0.57203
# Poissons Ratio (z) = 0.24361 0.52278
#
# Static dielectric constant tensor:
#      x y z
#    x 3.367350 0.000000 0.000000 
#    y 0.000000 3.720320 0.000000 
#    z 0.000000 0.000000 3.911400 
# 
# 
# High freq. dielectric constant tensor:
#      x y z
#    x 1.758870 0.000000 0.000000 
#    y 0.000000 1.786460 0.000000 
#    z 0.000000 0.000000 1.772570 
# 
# From -- ./inp_files/11915.got.cif
#   From: 2010.03.12/outbox.cif.g09.slc.cpg/sg35_6_cif.got.tgz:11915.got - 2010.04.14 02:02:04.
