data_PCOD8173956
_publ_section_title
;
Structure prediction by ZEFSAII (Michael W. Deem and Ramdas Pophale) SiO2 
 PCOD8173956
Probable space group: C M M 2
;
_chemical_formula_sum "Si O2"
_cell_formula_units_Z 48
_cell_length_a 17.838831
_cell_length_b 13.602312
_cell_length_c 9.413649
_cell_angle_alpha 90.000000
_cell_angle_beta 90.000000
_cell_angle_gamma 90.000000
_cell_volume 2284.215764
_symmetry_space_group_name_H-M "C M M 2"
_symmetry_group_IT_number 35
_symmetry_cell_setting 'orthorhombic'
loop_
_space_group_symop_operation_xyz
x,y,z
-x,-y,z
-x,y,z
x,-y,z
1/2+x,1/2+y,z
1/2-x,1/2-y,z
1/2-x,1/2+y,z
1/2+x,1/2-y,z
loop_
_atom_site_type_symbol
_atom_site_label
_atom_site_fract_x
_atom_site_fract_y
_atom_site_fract_z
Si Si1 0.361835 0.769887 0.144240
Si Si2 0.614475 0.607835 0.935150
Si Si3 0.286884 0.109145 0.910299
Si Si4 0.000000 0.697455 0.531821
Si Si5 0.750000 0.250000 0.392229
Si Si6 0.000000 0.113721 0.700297
Si Si7 0.161429 0.615965 0.604937
Si Si8 0.000000 0.384251 0.234303
O O1 0.322013 0.730852 0.289138
O O2 0.423363 0.856511 0.155437
O O3 0.401463 0.677621 0.069174
O O4 0.300477 0.817671 0.040439
O O5 0.585747 0.500000 0.981451
O O6 0.699241 0.604983 0.886870
O O7 0.571612 0.641842 0.794451
O O8 0.321292 0.151233 0.764773
O O9 0.318734 0.000000 0.943202
O O10 0.000000 0.813560 0.566235
O O11 0.074957 0.644035 0.584920
O O12 0.000000 0.690056 0.364665
O O13 0.778369 0.338292 0.493367
O O14 0.000000 0.000000 0.648383
O O15 0.171626 0.500000 0.586566
O O16 0.000000 0.500000 0.271939
#
# Coordination Sequence:
#
# PCOD8173956 Si02
#       8
#     8   8   8   4   4   4   8   4
#     4  12  23  42  66  99 131 176 222 273 333 398
#     4  10  21  39  64  95 129 171 220 278 334 386
#     4  10  22  39  66  96 128 170 226 284 332 389
#     4  12  24  42  68  92 134 184 216 270 338 408
#     4  12  26  38  66  98 134 174 220 268 334 402
#     4  10  23  41  63  96 132 174 228 281 333 398
#     4  11  26  45  67  98 135 177 227 278 334 402
#     4  12  27  45  67  96 136 176 220 275 337 402
#
# _framework density 21.013777000000001
#
# number of rings (size 3 to 8) (size 9 to 14) (size 15 to 20)
#    0.000    1.000    3.333    2.750    4.667    2.000 
#    0.000    1.667    0.000    0.000    0.000    0.000 
#    0.000    0.000    0.000    0.000    0.000    0.000 
#
# Total GULP energy -297461.749024 kJ/mol
# GULP energy per Si atom -12394.239543 kJ/mol
# Density = 2.096595 g / cm^3
# Si number density = 21.013777 Si / 1000 Ang^3
#
#
#
# Elastic Constant Matrix: (Units=GPa)
#
#
# Indices 1 2 3 4 5 6 
#
# 1 105.9776 34.4001 32.1993 0.0000 0.0000 0.0000
# 2 34.4001 125.2156 56.6315 0.0000 0.0000 0.0000
# 3 32.1993 56.6315 102.8490 0.0000 0.0000 0.0000
# 4 0.0000 0.0000 0.0000 36.6966 0.0000 0.0000
# 5 0.0000 0.0000 0.0000 0.0000 24.3335 0.0000
# 6 0.0000 0.0000 0.0000 0.0000 0.0000 30.3167
#
#
#
# Elastic Compliance Matrix: (Units=1/GPa)
#
#
# Indices 1 2 3 4 5 6 
#
# 1 0.010759 -0.001907 -0.002318 0.000000 0.000000 0.000000
# 2 -0.001907 0.010973 -0.005445 0.000000 0.000000 0.000000
# 3 -0.002318 -0.005445 0.013447 0.000000 0.000000 0.000000
# 4 0.000000 0.000000 0.000000 0.027251 0.000000 0.000000
# 5 0.000000 0.000000 0.000000 0.000000 0.041096 0.000000
# 6 0.000000 0.000000 0.000000 0.000000 0.000000 0.032985
#
#
# Mechanical properties :
#
#
# Convention : Reuss Voigt Hill
#
# Bulk Modulus (GPa) = 63.13843 64.50044 63.81944
# Shear Modulus (GPa) = 31.03078 32.32345 31.67711
#
# Velocity S-wave (km/s) = 3.84694 3.92625 3.88680
# Velocity P-wave (km/s) = 7.05998 7.16344 7.11190
#
# Compressibility (1/GPa) = 0.01583821
#
# Stress axis : x y z
#
# Youngs Moduli (GPa) = 92.94155 91.13491 74.36726
#
# Poissons Ratio (x) = 0.17384 0.17240
# Poissons Ratio (y) = 0.17728 0.40491
# Poissons Ratio (z) = 0.21546 0.49620
#
# Static dielectric constant tensor:
#      x y z
#    x 3.813380 0.000000 0.000000 
#    y 0.000000 4.030140 0.000000 
#    z 0.000000 0.000000 3.800560 
# 
# 
# High freq. dielectric constant tensor:
#      x y z
#    x 1.838690 0.000000 0.000000 
#    y 0.000000 1.828990 0.000000 
#    z 0.000000 0.000000 1.818550 
# 
# From -- ./inp_files/8425.got.cif
#   From: 2010.03.12/outbox.cif.g09.slc.cpg/sg35_5_cif.got.tgz:8425.got - 2010.04.14 02:02:04.
