data_PCOD8173906
_publ_section_title
;
Structure prediction by ZEFSAII (Michael W. Deem and Ramdas Pophale) SiO2 
 PCOD8173906
Probable space group: C M M 2
;
_chemical_formula_sum "Si O2"
_cell_formula_units_Z 40
_cell_length_a 18.156904
_cell_length_b 8.750708
_cell_length_c 12.696879
_cell_angle_alpha 90.000000
_cell_angle_beta 90.000000
_cell_angle_gamma 90.000000
_cell_volume 2017.353334
_symmetry_space_group_name_H-M "C M M 2"
_symmetry_group_IT_number 35
_symmetry_cell_setting 'orthorhombic'
loop_
_space_group_symop_operation_xyz
x,y,z
-x,-y,z
-x,y,z
x,-y,z
1/2+x,1/2+y,z
1/2-x,1/2-y,z
1/2-x,1/2+y,z
1/2+x,1/2-y,z
loop_
_atom_site_type_symbol
_atom_site_label
_atom_site_fract_x
_atom_site_fract_y
_atom_site_fract_z
Si Si1 0.415680 0.820924 0.654030
Si Si2 0.084267 0.820051 0.432193
Si Si3 0.671060 0.820970 0.242043
Si Si4 0.414263 0.324702 0.056219
Si Si5 0.671244 0.679192 0.844820
O O1 0.500000 0.781546 0.683186
O O2 0.392398 0.737895 0.546836
O O3 0.363087 0.759850 0.744145
O O4 0.403754 0.000000 0.638906
O O5 0.137970 0.743546 0.349199
O O6 0.000000 0.773119 0.406984
O O7 0.094803 0.000000 0.426818
O O8 0.750000 0.750000 0.218304
O O9 0.617974 0.784349 0.145087
O O10 0.679988 0.000000 0.253937
O O11 0.500000 0.291028 0.046534
O O12 0.398462 0.500000 0.088118
O O13 0.379395 0.284261 0.944385
O O14 0.677931 0.500000 0.822802
O O15 0.750000 0.750000 0.869373
#
# Coordination Sequence:
#
# PCOD8173906 Si02
#       5
#     8   8   8   8   8
#     4  10  21  38  61  89 120 154 196 244 291 344
#     4  10  21  39  63  89 119 155 195 240 291 348
#     4  12  25  40  60  87 120 156 196 242 293 348
#     4  10  22  41  64  89 118 153 194 240 291 349
#     4  11  23  39  60  87 120 157 197 241 292 348
#
# _framework density 19.827957999999999
#
# number of rings (size 3 to 8) (size 9 to 14) (size 15 to 20)
#    0.000    1.400    0.000    5.400    0.000   10.000 
#    0.000    4.000    0.000    0.000    0.000    0.000 
#    0.000    0.000    0.000    0.000    0.000    0.000 
#
# Total GULP energy -248140.834892 kJ/mol
# GULP energy per Si atom -12407.041745 kJ/mol
# Density = 1.978283 g / cm^3
# Si number density = 19.827958 Si / 1000 Ang^3
#
#
#
# Elastic Constant Matrix: (Units=GPa)
#
#
# Indices 1 2 3 4 5 6 
#
# 1 117.9436 42.2731 62.1487 0.0000 0.0000 0.0000
# 2 42.2731 93.1293 44.3960 0.0000 0.0000 0.0000
# 3 62.1487 44.3960 107.4571 0.0000 0.0000 0.0000
# 4 0.0000 0.0000 0.0000 46.9856 0.0000 0.0000
# 5 0.0000 0.0000 0.0000 0.0000 326.2239 0.0000
# 6 0.0000 0.0000 0.0000 0.0000 0.0000 34.3359
#
#
#
# Elastic Compliance Matrix: (Units=1/GPa)
#
#
# Indices 1 2 3 4 5 6 
#
# 1 0.012769 -0.002834 -0.006214 0.000000 0.000000 0.000000
# 2 -0.002834 0.014000 -0.004145 0.000000 0.000000 0.000000
# 3 -0.006214 -0.004145 0.014613 0.000000 0.000000 0.000000
# 4 0.000000 0.000000 0.000000 0.021283 0.000000 0.000000
# 5 0.000000 0.000000 0.000000 0.000000 0.003065 0.000000
# 6 0.000000 0.000000 0.000000 0.000000 0.000000 0.029124
#
#
# Mechanical properties :
#
#
# Convention : Reuss Voigt Hill
#
# Bulk Modulus (GPa) = 66.68742 68.46285 67.57513
# Shear Modulus (GPa) = 39.60749 92.82321 66.21535
#
# Velocity S-wave (km/s) = 4.47425 6.84952 5.78510
# Velocity P-wave (km/s) = 7.77161 9.85687 8.87570
#
# Compressibility (1/GPa) = 0.01499533
#
# Stress axis : x y z
#
# Youngs Moduli (GPa) = 78.31646 71.42805 68.43352
#
# Poissons Ratio (x) = 0.20240 0.42526
# Poissons Ratio (y) = 0.22191 0.28368
# Poissons Ratio (z) = 0.48667 0.29609
#
# Static dielectric constant tensor:
#      x y z
#    x 3.741330 0.000000 0.000000 
#    y 0.000000 3.723500 0.000000 
#    z 0.000000 0.000000 3.707230 
# 
# 
# High freq. dielectric constant tensor:
#      x y z
#    x 1.781710 0.000000 0.000000 
#    y 0.000000 1.784660 0.000000 
#    z 0.000000 0.000000 1.787640 
# 
# From -- ./inp_files/11002.got.cif
#   From: 2010.03.12/outbox.cif.g09.slc.cpg/sg35_6_cif.got.tgz:11002.got - 2010.04.14 02:02:04.
