data_PCOD8173939
_publ_section_title
;
Structure prediction by ZEFSAII (Michael W. Deem and Ramdas Pophale) SiO2 
 PCOD8173939
Probable space group: C M M 2
;
_chemical_formula_sum "Si O2"
_cell_formula_units_Z 40
_cell_length_a 26.293901
_cell_length_b 14.426170
_cell_length_c 5.218710
_cell_angle_alpha 90.000000
_cell_angle_beta 90.000000
_cell_angle_gamma 90.000000
_cell_volume 1979.562569
_symmetry_space_group_name_H-M "C M M 2"
_symmetry_group_IT_number 35
_symmetry_cell_setting 'orthorhombic'
loop_
_space_group_symop_operation_xyz
x,y,z
-x,-y,z
-x,y,z
x,-y,z
1/2+x,1/2+y,z
1/2-x,1/2-y,z
1/2-x,1/2+y,z
1/2+x,1/2-y,z
loop_
_atom_site_type_symbol
_atom_site_label
_atom_site_fract_x
_atom_site_fract_y
_atom_site_fract_z
Si Si1 0.059391 0.897223 0.372890
Si Si2 0.305211 0.207967 0.848705
Si Si3 0.557770 0.894788 0.090032
Si Si4 0.907676 0.789213 0.872089
Si Si5 0.161247 0.605609 0.341901
O O1 0.072806 0.838979 0.621363
O O2 0.000000 0.908965 0.358155
O O3 0.084458 0.000000 0.385681
O O4 0.076845 0.844435 0.122309
O O5 0.250000 0.250000 0.819055
O O6 0.346494 0.289870 0.871327
O O7 0.319114 0.151452 0.597542
O O8 0.308195 0.144545 0.099133
O O9 0.500000 0.882015 0.196924
O O10 0.599915 0.880173 0.313344
O O11 0.563911 0.000000 0.975067
O O12 0.569559 0.816269 0.876492
O O13 0.176340 0.500000 0.361819
#
# Coordination Sequence:
#
# PCOD8173939 Si02
#       5
#     8   8   8   8   8
#     4  11  23  40  62  88 120 158 200 246 298 355
#     4  11  23  41  61  85 117 155 199 250 303 348
#     4   9  18  34  59  92 126 158 192 234 291 365
#     4  11  22  39  61  87 120 158 199 246 298 354
#     4  10  21  39  62  88 120 156 196 239 291 359
#
# _framework density 20.206484
#
# number of rings (size 3 to 8) (size 9 to 14) (size 15 to 20)
#    0.000    1.600    0.000    6.000    0.000    2.400 
#    0.000   12.000    0.000   27.600    0.000    0.000 
#    0.000    0.000    0.000    0.000    0.000    0.000 
#
# Total GULP energy -247919.736404 kJ/mol
# GULP energy per Si atom -12395.986820 kJ/mol
# Density = 2.016049 g / cm^3
# Si number density = 20.206484 Si / 1000 Ang^3
#
#
#
# Elastic Constant Matrix: (Units=GPa)
#
#
# Indices 1 2 3 4 5 6 
#
# 1 156.0162 74.5493 55.6528 0.0000 0.0000 0.0000
# 2 74.5493 162.1194 92.3260 0.0000 0.0000 0.0000
# 3 55.6528 92.3260 187.9297 0.0000 0.0000 0.0000
# 4 0.0000 0.0000 0.0000 -0.0062 0.0000 0.0000
# 5 0.0000 0.0000 0.0000 0.0000 24.9129 0.0000
# 6 0.0000 0.0000 0.0000 0.0000 0.0000 31.5720
#
#
#
# Elastic Compliance Matrix: (Units=1/GPa)
#
#
# Indices 1 2 3 4 5 6 
#
# 1 0.008302 -0.003357 -0.000810 0.000000 0.000000 0.000000
# 2 -0.003357 0.009922 -0.003880 0.000000 0.000000 0.000000
# 3 -0.000810 -0.003880 0.007467 0.000000 0.000000 0.000000
# 4 0.000000 0.000000 0.000000********** 0.000000 0.000000
# 5 0.000000 0.000000 0.000000 0.000000 0.040140 0.000000
# 6 0.000000 0.000000 0.000000 0.000000 0.000000 0.031674
#
#
# Mechanical properties :
#
#
# Convention : Reuss Voigt Hill
#
# Bulk Modulus (GPa) = 104.18733 105.68018 104.93376
# Shear Modulus (GPa) = -0.03121 30.19823 15.08351
#
# Velocity S-wave (km/s) = -0.12442 3.87005 2.73512
# Velocity P-wave (km/s) = 7.18698 8.50784 7.87515
#
# Compressibility (1/GPa) = 0.00959810
#
# Stress axis : x y z
#
# Youngs Moduli (GPa) = 120.44852 100.78980 133.91985
#
# Poissons Ratio (x) = 0.33832 0.10841
# Poissons Ratio (y) = 0.40431 0.51964
# Poissons Ratio (z) = 0.09751 0.39109
#
# Static dielectric constant tensor:
#      x y z
#    x 3.864490 0.000000 0.000000 
#    y 0.000000 4.157280 0.000000 
#    z 0.000000 0.000000 3.827220 
# 
# 
# High freq. dielectric constant tensor:
#      x y z
#    x 1.784150 0.000000 0.000000 
#    y 0.000000 1.802230 0.000000 
#    z 0.000000 0.000000 1.791770 
# 
# From -- ./inp_files/3325.got.cif
#   From: 2010.03.12/outbox.cif.g09.slc.cpg/sg35_2_cif.got.tgz:3325.got - 2010.04.14 02:02:04.
