data_PCOD8173419
_publ_section_title
;
Structure prediction by ZEFSAII (Michael W. Deem and Ramdas Pophale) SiO2 
 PCOD8173419
Probable space group: C M M 2
;
_chemical_formula_sum "Si O2"
_cell_formula_units_Z 56
_cell_length_a 8.981955
_cell_length_b 18.638311
_cell_length_c 17.839506
_cell_angle_alpha 90.000000
_cell_angle_beta 90.000000
_cell_angle_gamma 90.000000
_cell_volume 2986.484417
_symmetry_space_group_name_H-M "C M M 2"
_symmetry_group_IT_number 35
_symmetry_cell_setting 'orthorhombic'
loop_
_space_group_symop_operation_xyz
x,y,z
-x,-y,z
-x,y,z
x,-y,z
1/2+x,1/2+y,z
1/2-x,1/2-y,z
1/2-x,1/2+y,z
1/2+x,1/2-y,z
loop_
_atom_site_type_symbol
_atom_site_label
_atom_site_fract_x
_atom_site_fract_y
_atom_site_fract_z
Si Si1 0.674297 0.177455 0.127590
Si Si2 0.332717 0.585206 0.844511
Si Si3 0.175527 0.324467 0.297068
Si Si4 0.327017 0.417262 0.417452
Si Si5 0.827591 0.416784 0.991107
Si Si6 0.824140 0.172719 0.563473
Si Si7 0.174404 0.583827 0.693959
O O1 0.500000 0.189786 0.124698
O O2 0.750000 0.250000 0.100925
O O3 0.722817 0.156450 0.211893
O O4 0.726441 0.116924 0.069430
O O5 0.500000 0.614986 0.834442
O O6 0.332324 0.500000 0.849043
O O7 0.231514 0.609900 0.775028
O O8 0.263734 0.616468 0.921407
O O9 0.250000 0.250000 0.323199
O O10 0.232356 0.389657 0.347371
O O11 0.000000 0.315938 0.306484
O O12 0.500000 0.407525 0.398539
O O13 0.286464 0.500000 0.432289
O O14 0.281052 0.372369 0.490236
O O15 0.794476 0.500000 0.999463
O O16 0.000000 0.401025 0.975351
O O17 0.750000 0.250000 0.556997
O O18 0.762155 0.130015 0.633923
O O19 0.000000 0.181783 0.572520
O O20 0.209923 0.500000 0.680829
O O21 0.000000 0.599698 0.688150
#
# Coordination Sequence:
#
# PCOD8173419 Si02
#       7
#     8   8   8   8   8   8   8
#     4   9  19  34  52  75 104 139 176 216 263 314
#     4   9  17  30  50  77 107 138 174 217 266 317
#     4  10  20  35  56  80 107 142 182 222 267 319
#     4  10  22  39  58  82 111 141 175 218 267 316
#     4   9  17  31  51  74 102 136 175 219 265 313
#     4  11  23  39  58  80 109 143 178 217 264 317
#     4  10  20  35  57  83 109 139 178 222 267 316
#
# _framework density 18.751144
#
# number of rings (size 3 to 8) (size 9 to 14) (size 15 to 20)
#    0.000    2.286    0.000    2.571    0.000    7.429 
#    0.000    2.143    0.000    3.429    0.000    0.000 
#    0.000    0.000    0.000    0.000    0.000    0.000 
#
# Total GULP energy -347249.835596 kJ/mol
# GULP energy per Si atom -12401.779843 kJ/mol
# Density = 1.870847 g / cm^3
# Si number density = 18.751144 Si / 1000 Ang^3
#
#
#
# Elastic Constant Matrix: (Units=GPa)
#
#
# Indices 1 2 3 4 5 6 
#
# 1 78.4291 49.8464 58.1916 0.0000 0.0000 0.0000
# 2 49.8464 93.1011 69.2877 0.0000 0.0000 0.0000
# 3 58.1916 69.2877 140.0695 0.0000 0.0000 0.0000
# 4 0.0000 0.0000 0.0000 264.9791 0.0000 0.0000
# 5 0.0000 0.0000 0.0000 0.0000 33.7759 0.0000
# 6 0.0000 0.0000 0.0000 0.0000 0.0000 27.9960
#
#
#
# Elastic Compliance Matrix: (Units=1/GPa)
#
#
# Indices 1 2 3 4 5 6 
#
# 1 0.021407 -0.007664 -0.005102 0.000000 0.000000 0.000000
# 2 -0.007664 0.019743 -0.006582 0.000000 0.000000 0.000000
# 3 -0.005102 -0.006582 0.012515 0.000000 0.000000 0.000000
# 4 0.000000 0.000000 0.000000 0.003774 0.000000 0.000000
# 5 0.000000 0.000000 0.000000 0.000000 0.029607 0.000000
# 6 0.000000 0.000000 0.000000 0.000000 0.000000 0.035719
#
#
# Mechanical properties :
#
#
# Convention : Reuss Voigt Hill
#
# Bulk Modulus (GPa) = 66.80968 74.02791 70.41880
# Shear Modulus (GPa) = 30.03872 74.30181 52.17026
#
# Velocity S-wave (km/s) = 4.00680 6.30169 5.28042
# Velocity P-wave (km/s) = 7.55731 9.61838 8.64945
#
# Compressibility (1/GPa) = 0.01496789
#
# Stress axis : x y z
#
# Youngs Moduli (GPa) = 46.71335 50.65104 79.90381
#
# Poissons Ratio (x) = 0.38820 0.40770
# Poissons Ratio (y) = 0.35802 0.52594
# Poissons Ratio (z) = 0.23835 0.33339
#
# Static dielectric constant tensor:
#      x y z
#    x 3.500130 0.000000 0.000000 
#    y 0.000000 1.428710 0.000000 
#    z 0.000000 0.000000 3.712770 
# 
# 
# High freq. dielectric constant tensor:
#      x y z
#    x 1.733830 0.000000 0.000000 
#    y 0.000000 1.708870 0.000000 
#    z 0.000000 0.000000 1.742660 
# 
# From -- ./inp_files/15592.got.cif
#   From: 2010.03.12/outbox.cif.g09.slc.cpg/sg35_8_cif.got.tgz:15592.got - 2010.04.14 02:02:04.
