data_PCOD8173313
_publ_section_title
;
Structure prediction by ZEFSAII (Michael W. Deem and Ramdas Pophale) SiO2 
 PCOD8173313
Probable space group: C M M 2
;
_chemical_formula_sum "Si O2"
_cell_formula_units_Z 56
_cell_length_a 23.353436
_cell_length_b 8.690568
_cell_length_c 15.387930
_cell_angle_alpha 90.000000
_cell_angle_beta 90.000000
_cell_angle_gamma 90.000000
_cell_volume 3123.051541
_symmetry_space_group_name_H-M "C M M 2"
_symmetry_group_IT_number 35
_symmetry_cell_setting 'orthorhombic'
loop_
_space_group_symop_operation_xyz
x,y,z
-x,-y,z
-x,y,z
x,-y,z
1/2+x,1/2+y,z
1/2-x,1/2-y,z
1/2-x,1/2+y,z
1/2+x,1/2-y,z
loop_
_atom_site_type_symbol
_atom_site_label
_atom_site_fract_x
_atom_site_fract_y
_atom_site_fract_z
Si Si1 0.812798 0.821305 0.059690
Si Si2 0.688649 0.819405 0.742666
Si Si3 0.500000 0.682573 0.653683
Si Si4 0.378625 0.317845 0.583926
Si Si5 0.000000 0.180803 0.848913
Si Si6 0.186374 0.681344 0.424466
Si Si7 0.113801 0.678859 0.910095
Si Si8 0.811489 0.822368 0.251532
O O1 0.750000 0.750000 0.051978
O O2 0.840419 0.802342 0.156733
O O3 0.808210 0.000000 0.034235
O O4 0.854987 0.733744 0.996343
O O5 0.750000 0.750000 0.763134
O O6 0.662754 0.732138 0.660968
O O7 0.651179 0.781512 0.826321
O O8 0.692514 0.000000 0.722553
O O9 0.500000 0.500000 0.659725
O O10 0.556665 0.739862 0.603272
O O11 0.500000 0.752857 0.751369
O O12 0.375856 0.500000 0.573599
O O13 0.357653 0.239855 0.496103
O O14 0.054505 0.232764 0.903225
O O15 0.000000 0.000000 0.840992
O O16 0.191420 0.500000 0.430020
O O17 0.250000 0.750000 0.437830
O O18 0.158624 0.732854 0.331630
O O19 0.100949 0.500000 0.917544
O O20 0.750000 0.750000 0.240262
O O21 0.806536 0.000000 0.278197
#
# Coordination Sequence:
#
# PCOD8173313 Si02
#       8
#     8   8   4   8   4   8   8   8
#     4  10  20  34  55  83 114 146 182 224 273 328
#     4  11  23  36  51  76 108 142 176 216 266 320
#     4   9  20  37  59  80  99 136 183 225 268 316
#     4  11  21  37  57  78 105 138 179 224 269 320
#     4  11  21  39  61  80 103 140 189 231 274 324
#     4  11  21  34  53  81 112 145 179 218 270 323
#     4  11  23  37  55  80 110 144 183 227 274 322
#     4   9  17  31  52  79 109 143 179 219 266 320
#
# _framework density 17.931180000000001
#
# number of rings (size 3 to 8) (size 9 to 14) (size 15 to 20)
#    0.000    1.571    1.429    5.357    0.000    4.571 
#    0.000    1.429    0.000    0.857    0.000    2.000 
#    0.000    0.000    0.000    0.000    0.000    0.000 
#
# Total GULP energy -347181.345408 kJ/mol
# GULP energy per Si atom -12399.333765 kJ/mol
# Density = 1.789037 g / cm^3
# Si number density = 17.931180 Si / 1000 Ang^3
#
#
#
# Elastic Constant Matrix: (Units=GPa)
#
#
# Indices 1 2 3 4 5 6 
#
# 1 101.7806 34.8958 47.1767 0.0000 0.0000 0.0000
# 2 34.8958 88.5140 41.0294 0.0000 0.0000 0.0000
# 3 47.1767 41.0294 127.7708 0.0000 0.0000 0.0000
# 4 0.0000 0.0000 0.0000 32.5712 0.0000 0.0000
# 5 0.0000 0.0000 0.0000 0.0000 -62.9578 0.0000
# 6 0.0000 0.0000 0.0000 0.0000 0.0000 21.7743
#
#
#
# Elastic Compliance Matrix: (Units=1/GPa)
#
#
# Indices 1 2 3 4 5 6 
#
# 1 0.012628 -0.003310 -0.003600 0.000000 0.000000 0.000000
# 2 -0.003310 0.014141 -0.003319 0.000000 0.000000 0.000000
# 3 -0.003600 -0.003319 0.010221 0.000000 0.000000 0.000000
# 4 0.000000 0.000000 0.000000 0.030702 0.000000 0.000000
# 5 0.000000 0.000000 0.000000 0.000000 -0.015884 0.000000
# 6 0.000000 0.000000 0.000000 0.000000 0.000000 0.045926
#
#
# Mechanical properties :
#
#
# Convention : Reuss Voigt Hill
#
# Bulk Modulus (GPa) = 60.48307 62.69658 61.58983
# Shear Modulus (GPa) = 40.41929 11.27512 25.84720
#
# Velocity S-wave (km/s) = 4.75292 2.51031 3.80078
# Velocity P-wave (km/s) = 7.99527 6.59115 7.32692
#
# Compressibility (1/GPa) = 0.01653355
#
# Stress axis : x y z
#
# Youngs Moduli (GPa) = 79.18597 70.71664 97.83375
#
# Poissons Ratio (x) = 0.23407 0.35219
# Poissons Ratio (y) = 0.26210 0.32469
# Poissons Ratio (z) = 0.28506 0.23469
#
# Static dielectric constant tensor:
#      x y z
#    x 3.199200 0.000000 0.000000 
#    y 0.000000 3.428570 0.000000 
#    z 0.000000 0.000000 3.857730 
# 
# 
# High freq. dielectric constant tensor:
#      x y z
#    x 1.669010 0.000000 0.000000 
#    y 0.000000 1.708610 0.000000 
#    z 0.000000 0.000000 1.707110 
# 
# From -- ./inp_files/15670.got.cif
#   From: 2010.03.12/outbox.cif.g09.slc.cpg/sg35_8_cif.got.tgz:15670.got - 2010.04.14 02:02:04.
