data_PCOD8173123
_publ_section_title
;
Structure prediction by ZEFSAII (Michael W. Deem and Ramdas Pophale) SiO2 
 PCOD8173123
Probable space group: C M M 2
;
_chemical_formula_sum "Si O2"
_cell_formula_units_Z 64
_cell_length_a 9.073830
_cell_length_b 19.055368
_cell_length_c 20.152625
_cell_angle_alpha 90.000000
_cell_angle_beta 90.000000
_cell_angle_gamma 90.000000
_cell_volume 3484.493048
_symmetry_space_group_name_H-M "C M M 2"
_symmetry_group_IT_number 35
_symmetry_cell_setting 'orthorhombic'
loop_
_space_group_symop_operation_xyz
x,y,z
-x,-y,z
-x,y,z
x,-y,z
1/2+x,1/2+y,z
1/2-x,1/2-y,z
1/2-x,1/2+y,z
1/2+x,1/2-y,z
loop_
_atom_site_type_symbol
_atom_site_label
_atom_site_fract_x
_atom_site_fract_y
_atom_site_fract_z
Si Si1 0.673421 0.821516 0.977320
Si Si2 0.664725 0.582008 0.224862
Si Si3 0.667863 0.416804 0.876163
Si Si4 0.829063 0.081021 0.376962
Si Si5 0.328624 0.179939 0.129286
Si Si6 0.663856 0.083348 0.748156
Si Si7 0.175291 0.674633 0.482917
Si Si8 0.175201 0.421722 0.602495
O O1 0.500000 0.814496 0.966323
O O2 0.750000 0.750000 0.953154
O O3 0.735031 0.885912 0.935201
O O4 0.714601 0.837393 0.053561
O O5 0.500000 0.609314 0.208890
O O6 0.673661 0.500000 0.212317
O O7 0.704756 0.599368 0.300682
O O8 0.780939 0.616484 0.175769
O O9 0.500000 0.391741 0.883432
O O10 0.682040 0.500000 0.880687
O O11 0.727935 0.388579 0.805417
O O12 0.723825 0.131005 0.418880
O O13 0.000000 0.095596 0.393633
O O14 0.790226 0.000000 0.392005
O O15 0.500000 0.192484 0.136829
O O16 0.250000 0.250000 0.154450
O O17 0.500000 0.114572 0.760339
O O18 0.725693 0.105470 0.675485
O O19 0.654713 0.000000 0.749860
O O20 0.250000 0.750000 0.482613
O O21 0.232807 0.632702 0.547673
O O22 0.000000 0.683408 0.482278
O O23 0.239005 0.500000 0.587741
O O24 0.000000 0.426019 0.601495
#
# Coordination Sequence:
#
# PCOD8173123 Si02
#       8
#     8   8   8   8   8   8   8   8
#     4  10  21  37  55  75 102 137 176 215 258 308
#     4   9  19  36  57  80 107 137 168 208 258 308
#     4  10  20  33  51  78 109 138 172 214 256 302
#     4   9  19  37  58  79 104 135 172 212 256 308
#     4  10  21  36  55  78 104 136 174 215 256 305
#     4   8  14  28  51  75  99 130 169 213 260 308
#     4  11  22  35  52  76 107 140 175 215 258 304
#     4   8  15  30  53  77  98 127 171 217 260 309
#
# _framework density 18.367090999999999
#
# number of rings (size 3 to 8) (size 9 to 14) (size 15 to 20)
#    0.000    2.625    0.000    3.375    0.000    4.750 
#    0.000    5.625    0.000    4.500    0.000    0.000 
#    0.000    0.000    0.000    0.000    0.000    0.000 
#
# Total GULP energy -396784.709023 kJ/mol
# GULP energy per Si atom -12399.522157 kJ/mol
# Density = 1.832529 g / cm^3
# Si number density = 18.367091 Si / 1000 Ang^3
#
#
#
# Elastic Constant Matrix: (Units=GPa)
#
#
# Indices 1 2 3 4 5 6 
#
# 1 80.4494 41.7569 51.6217 0.0000 0.0000 0.0000
# 2 41.7569 74.8003 58.9512 0.0000 0.0000 0.0000
# 3 51.6217 58.9512 113.9371 0.0000 0.0000 0.0000
# 4 0.0000 0.0000 0.0000 7.3712 0.0000 0.0000
# 5 0.0000 0.0000 0.0000 0.0000 27.2542 0.0000
# 6 0.0000 0.0000 0.0000 0.0000 0.0000 25.9944
#
#
#
# Elastic Compliance Matrix: (Units=1/GPa)
#
#
# Indices 1 2 3 4 5 6 
#
# 1 0.019249 -0.006539 -0.005338 0.000000 0.000000 0.000000
# 2 -0.006539 0.024795 -0.009866 0.000000 0.000000 0.000000
# 3 -0.005338 -0.009866 0.016300 0.000000 0.000000 0.000000
# 4 0.000000 0.000000 0.000000 0.135664 0.000000 0.000000
# 5 0.000000 0.000000 0.000000 0.000000 0.036692 0.000000
# 6 0.000000 0.000000 0.000000 0.000000 0.000000 0.038470
#
#
# Mechanical properties :
#
#
# Convention : Reuss Voigt Hill
#
# Bulk Modulus (GPa) = 59.31938 63.76070 61.54004
# Shear Modulus (GPa) = 15.61153 19.91442 17.76297
#
# Velocity S-wave (km/s) = 2.91859 3.29636 3.11321
# Velocity P-wave (km/s) = 6.61243 7.01983 6.81917
#
# Compressibility (1/GPa) = 0.01685790
#
# Stress axis : x y z
#
# Youngs Moduli (GPa) = 51.94956 40.33067 61.34869
#
# Poissons Ratio (x) = 0.26371 0.32749
# Poissons Ratio (y) = 0.33969 0.60529
# Poissons Ratio (z) = 0.27732 0.39792
#
# Static dielectric constant tensor:
#      x y z
#    x 3.355780 0.000000 0.000000 
#    y 0.000000 3.213810 0.000000 
#    z 0.000000 0.000000 3.603400 
# 
# 
# High freq. dielectric constant tensor:
#      x y z
#    x 1.705770 0.000000 0.000000 
#    y 0.000000 1.694630 0.000000 
#    z 0.000000 0.000000 1.722310 
# 
# From -- ./inp_files/18297.got.cif
#   From: 2010.03.12/outbox.cif.g09.slc.cpg/sg35_10_cif.got.tgz:18297.got - 2010.04.14 02:02:04.
