data_PCOD8173031
_publ_section_title
;
Structure prediction by ZEFSAII (Michael W. Deem and Ramdas Pophale) SiO2 
 PCOD8173031
Probable space group: C M M 2
;
_chemical_formula_sum "Si O2"
_cell_formula_units_Z 44
_cell_length_a 9.259811
_cell_length_b 20.858094
_cell_length_c 12.894877
_cell_angle_alpha 90.000000
_cell_angle_beta 90.000000
_cell_angle_gamma 90.000000
_cell_volume 2490.542440
_symmetry_space_group_name_H-M "C M M 2"
_symmetry_group_IT_number 35
_symmetry_cell_setting 'orthorhombic'
loop_
_space_group_symop_operation_xyz
x,y,z
-x,-y,z
-x,y,z
x,-y,z
1/2+x,1/2+y,z
1/2-x,1/2-y,z
1/2-x,1/2+y,z
1/2+x,1/2-y,z
loop_
_atom_site_type_symbol
_atom_site_label
_atom_site_fract_x
_atom_site_fract_y
_atom_site_fract_z
Si Si1 0.250000 0.250000 0.527180
Si Si2 0.663179 0.076196 0.038186
Si Si3 0.666771 0.575081 0.838865
Si Si4 0.338682 0.872924 0.432999
Si Si5 0.831461 0.924680 0.240812
Si Si6 0.339032 0.373322 0.621177
O O1 0.346496 0.204051 0.452909
O O2 0.345187 0.296294 0.601623
O O3 0.500000 0.102975 0.045549
O O4 0.755290 0.100245 0.136227
O O5 0.663547 0.000000 0.036167
O O6 0.738084 0.102094 0.933639
O O7 0.500000 0.589932 0.863900
O O8 0.692038 0.500000 0.821669
O O9 0.720424 0.611519 0.735629
O O10 0.500000 0.900212 0.416352
O O11 0.240073 0.886759 0.334651
O O12 0.264932 0.906044 0.534568
O O13 0.000000 0.907694 0.234772
O O14 0.806214 0.000000 0.257252
O O15 0.500000 0.402263 0.609898
#
# Coordination Sequence:
#
# PCOD8173031 Si02
#       6
#     4   8   8   8   8   8
#     4   8  20  34  52  70  98 130 170 208 246 294
#     4   9  17  30  48  71 101 132 161 196 241 294
#     4   9  17  30  49  73 100 130 163 198 239 290
#     4  10  20  32  51  74  99 131 166 208 251 293
#     4  10  20  33  51  74 101 133 166 201 245 299
#     4   9  18  32  50  71  98 132 168 203 241 293
#
# _framework density 17.666834999999999
#
# number of rings (size 3 to 8) (size 9 to 14) (size 15 to 20)
#    1.091    1.636    0.000    2.182    0.000    4.727 
#    0.000    1.818    0.000    1.091    0.000    2.545 
#    0.000    0.000    0.000    0.000    0.000    0.000 
#
# Total GULP energy -272613.057172 kJ/mol
# GULP energy per Si atom -12391.502599 kJ/mol
# Density = 1.762662 g / cm^3
# Si number density = 17.666835 Si / 1000 Ang^3
#
#
#
# Elastic Constant Matrix: (Units=GPa)
#
#
# Indices 1 2 3 4 5 6 
#
# 1 132.8575 21.5283 86.5720 0.0000 0.0000 0.0000
# 2 21.5283 34.6482 38.5756 0.0000 0.0000 0.0000
# 3 86.5720 38.5756 181.6837 0.0000 0.0000 0.0000
# 4 0.0000 0.0000 0.0000 1.5783 0.0000 0.0000
# 5 0.0000 0.0000 0.0000 0.0000 32.0455 0.0000
# 6 0.0000 0.0000 0.0000 0.0000 0.0000 14.9408
#
#
#
# Elastic Compliance Matrix: (Units=1/GPa)
#
#
# Indices 1 2 3 4 5 6 
#
# 1 0.010961 -0.001304 -0.004946 0.000000 0.000000 0.000000
# 2 -0.001304 0.037951 -0.007437 0.000000 0.000000 0.000000
# 3 -0.004946 -0.007437 0.009440 0.000000 0.000000 0.000000
# 4 0.000000 0.000000 0.000000 0.633587 0.000000 0.000000
# 5 0.000000 0.000000 0.000000 0.000000 0.031206 0.000000
# 6 0.000000 0.000000 0.000000 0.000000 0.000000 0.066931
#
#
# Mechanical properties :
#
#
# Convention : Reuss Voigt Hill
#
# Bulk Modulus (GPa) = 32.27990 71.39348 51.83669
# Shear Modulus (GPa) = 6.04029 23.21382 14.62705
#
# Velocity S-wave (km/s) = 1.85106 3.62881 2.88051
# Velocity P-wave (km/s) = 4.78327 7.61948 6.36145
#
# Compressibility (1/GPa) = 0.03097903
#
# Stress axis : x y z
#
# Youngs Moduli (GPa) = 91.23174 26.34962 105.93374
#
# Poissons Ratio (x) = 0.03435 0.52396
# Poissons Ratio (y) = 0.11895 0.78779
# Poissons Ratio (z) = 0.45124 0.19595
#
# Static dielectric constant tensor:
#      x y z
#    x 3.302010 0.000000 0.000000 
#    y 0.000000 2.820830 0.000000 
#    z 0.000000 0.000000 3.356190 
# 
# 
# High freq. dielectric constant tensor:
#      x y z
#    x 1.689550 0.000000 0.000000 
#    y 0.000000 1.631770 0.000000 
#    z 0.000000 0.000000 1.691060 
# 
# From -- ./inp_files/11406.got.cif
#   From: 2010.03.12/outbox.cif.g09.slc.cpg/sg35_6_cif.got.tgz:11406.got - 2010.04.14 02:02:04.
