data_PCOD8173062
_publ_section_title
;
Structure prediction by ZEFSAII (Michael W. Deem and Ramdas Pophale) SiO2 
 PCOD8173062
Probable space group: C M M 2
;
_chemical_formula_sum "Si O2"
_cell_formula_units_Z 64
_cell_length_a 9.133936
_cell_length_b 20.244912
_cell_length_c 19.611211
_cell_angle_alpha 90.000000
_cell_angle_beta 90.000000
_cell_angle_gamma 90.000000
_cell_volume 3626.421409
_symmetry_space_group_name_H-M "C M M 2"
_symmetry_group_IT_number 35
_symmetry_cell_setting 'orthorhombic'
loop_
_space_group_symop_operation_xyz
x,y,z
-x,-y,z
-x,y,z
x,-y,z
1/2+x,1/2+y,z
1/2-x,1/2-y,z
1/2-x,1/2+y,z
1/2+x,1/2-y,z
loop_
_atom_site_type_symbol
_atom_site_label
_atom_site_fract_x
_atom_site_fract_y
_atom_site_fract_z
Si Si1 0.671384 0.316849 0.325900
Si Si2 0.667707 0.924085 0.239405
Si Si3 0.673940 0.426667 0.584103
Si Si4 0.826060 0.926667 0.736327
Si Si5 0.328168 0.316278 0.837819
Si Si6 0.671833 0.316278 0.482611
Si Si7 0.167708 0.424085 0.081026
Si Si8 0.828616 0.183152 0.994531
O O1 0.500000 0.307142 0.314353
O O2 0.750000 0.250000 0.301036
O O3 0.725002 0.378655 0.282522
O O4 0.710098 0.332025 0.404360
O O5 0.500000 0.908508 0.258760
O O6 0.694933 0.909502 0.160215
O O7 0.705006 0.000000 0.256226
O O8 0.500000 0.427485 0.580580
O O9 0.733796 0.500000 0.566774
O O10 0.724879 0.405853 0.660215
O O11 0.736380 0.375508 0.528671
O O12 0.763620 0.875508 0.791759
O O13 0.000000 0.927485 0.739851
O O14 0.766204 0.000000 0.753657
O O15 0.500000 0.306873 0.826891
O O16 0.250000 0.250000 0.813033
O O17 0.289903 0.332024 0.916071
O O18 0.500000 0.306874 0.493539
O O19 0.750000 0.250000 0.507397
O O20 0.205008 0.500000 0.064204
O O21 0.274997 0.378655 0.037908
O O22 0.000000 0.408508 0.061670
O O23 0.750000 0.250000 0.019395
O O24 0.000000 0.192858 0.006079
#
# Coordination Sequence:
#
# PCOD8173062 Si02
#       8
#     8   8   8   8   8   8   8   8
#     4  10  20  33  50  72  99 130 163 201 242 285
#     4   9  19  36  55  74  98 127 158 195 240 289
#     4   8  14  26  45  68  93 122 157 195 233 275
#     4   8  14  26  45  68  93 122 157 195 233 275
#     4   9  18  31  47  69  96 124 156 195 236 278
#     4   9  18  31  47  69  96 124 156 195 236 278
#     4   9  19  36  55  74  98 127 158 195 240 289
#     4  10  20  33  50  72  99 130 163 201 242 285
#
# _framework density 17.648253
#
# number of rings (size 3 to 8) (size 9 to 14) (size 15 to 20)
#    0.000    3.000    0.000    2.250    0.000    4.000 
#    0.000    3.750    0.000    0.750    0.000    1.750 
#    0.000    0.000    0.000    0.000    0.000    0.000 
#
# Total GULP energy -396764.158751 kJ/mol
# GULP energy per Si atom -12398.879961 kJ/mol
# Density = 1.760808 g / cm^3
# Si number density = 17.648253 Si / 1000 Ang^3
#
#
#
# Elastic Constant Matrix: (Units=GPa)
#
#
# Indices 1 2 3 4 5 6 
#
# 1 51.4060 49.5764 37.6375 0.0000 0.0000 0.0000
# 2 49.5764 141.9373 82.7289 0.0000 0.0000 0.0000
# 3 37.6375 82.7289 86.6402 0.0000 0.0000 0.0000
# 4 0.0000 0.0000 0.0000 39.9244 0.0000 0.0000
# 5 0.0000 0.0000 0.0000 0.0000 16.2662 0.0000
# 6 0.0000 0.0000 0.0000 0.0000 0.0000 32.0248
#
#
#
# Elastic Compliance Matrix: (Units=1/GPa)
#
#
# Indices 1 2 3 4 5 6 
#
# 1 0.031152 -0.006750 -0.007088 0.000000 0.000000 0.000000
# 2 -0.006750 0.017350 -0.013634 0.000000 0.000000 0.000000
# 3 -0.007088 -0.013634 0.027640 0.000000 0.000000 0.000000
# 4 0.000000 0.000000 0.000000 0.025047 0.000000 0.000000
# 5 0.000000 0.000000 0.000000 0.000000 0.061477 0.000000
# 6 0.000000 0.000000 0.000000 0.000000 0.000000 0.031226
#
#
# Mechanical properties :
#
#
# Convention : Reuss Voigt Hill
#
# Bulk Modulus (GPa) = 47.17461 68.87433 58.02447
# Shear Modulus (GPa) = 19.53875 24.97912 22.25893
#
# Velocity S-wave (km/s) = 3.33095 3.76625 3.55527
# Velocity P-wave (km/s) = 6.44842 7.61733 7.05712
#
# Compressibility (1/GPa) = 0.02119784
#
# Stress axis : x y z
#
# Youngs Moduli (GPa) = 32.10082 57.63746 36.17959
#
# Poissons Ratio (x) = 0.38904 0.25643
# Poissons Ratio (y) = 0.21667 0.49329
# Poissons Ratio (z) = 0.22752 0.78585
#
# Static dielectric constant tensor:
#      x y z
#    x 2.993460 0.000000 0.000000 
#    y 0.000000 3.462660 0.000000 
#    z 0.000000 0.000000 3.341580 
# 
# 
# High freq. dielectric constant tensor:
#      x y z
#    x 1.656830 0.000000 0.000000 
#    y 0.000000 1.689950 0.000000 
#    z 0.000000 0.000000 1.682040 
# 
# From -- ./inp_files/18453.got.cif
#   From: 2010.03.12/outbox.cif.g09.slc.cpg/sg35_10_cif.got.tgz:18453.got - 2010.04.14 02:02:04.
