data_PCOD8173891
_publ_section_title
;
Structure prediction by ZEFSAII (Michael W. Deem and Ramdas Pophale) SiO2 
 PCOD8173891
Probable space group: C M M 2
;
_chemical_formula_sum "Si O2"
_cell_formula_units_Z 48
_cell_length_a 8.556898
_cell_length_b 18.364995
_cell_length_c 15.258264
_cell_angle_alpha 90.000000
_cell_angle_beta 90.000000
_cell_angle_gamma 90.000000
_cell_volume 2397.796348
_symmetry_space_group_name_H-M "C M M 2"
_symmetry_group_IT_number 35
_symmetry_cell_setting 'orthorhombic'
loop_
_space_group_symop_operation_xyz
x,y,z
-x,-y,z
-x,y,z
x,-y,z
1/2+x,1/2+y,z
1/2-x,1/2-y,z
1/2-x,1/2+y,z
1/2+x,1/2-y,z
loop_
_atom_site_type_symbol
_atom_site_label
_atom_site_fract_x
_atom_site_fract_y
_atom_site_fract_z
Si Si1 0.683908 0.671990 0.599670
Si Si2 0.317077 0.169756 0.103014
Si Si3 0.323797 0.086016 0.443498
Si Si4 0.318116 0.415986 0.940977
Si Si5 0.680504 0.585589 0.261229
Si Si6 0.816979 0.672321 0.786618
O O1 0.500000 0.676694 0.604550
O O2 0.750000 0.750000 0.571759
O O3 0.735205 0.613354 0.528890
O O4 0.746431 0.647270 0.694179
O O5 0.500000 0.172359 0.081544
O O6 0.250000 0.250000 0.112101
O O7 0.289017 0.127374 0.193053
O O8 0.227379 0.128702 0.026290
O O9 0.500000 0.117059 0.440047
O O10 0.230510 0.112123 0.357643
O O11 0.325465 0.000000 0.448697
O O12 0.500000 0.404694 0.921407
O O13 0.276465 0.500000 0.957660
O O14 0.221503 0.388685 0.857694
O O15 0.500000 0.605792 0.245434
O O16 0.709776 0.500000 0.249448
O O17 0.750000 0.750000 0.817837
O O18 0.000000 0.680870 0.775204
#
# Coordination Sequence:
#
# PCOD8173891 Si02
#       6
#     8   8   8   8   8   8
#     4  11  22  38  60  86 118 155 197 242 292 347
#     4  12  25  41  62  88 119 154 195 240 289 345
#     4  10  21  38  60  87 119 155 196 241 290 345
#     4  11  24  42  63  88 119 154 193 238 289 345
#     4  10  21  39  62  88 119 154 193 239 292 347
#     4  11  22  39  62  87 118 154 195 241 291 346
#
# _framework density 20.018381000000002
#
# number of rings (size 3 to 8) (size 9 to 14) (size 15 to 20)
#    0.000    1.167    0.000    8.000    0.000    6.667 
#    0.000    3.333    0.000    0.000    0.000    0.000 
#    0.000    0.000    0.000    0.000    0.000    0.000 
#
# Total GULP energy -297761.527602 kJ/mol
# GULP energy per Si atom -12406.730317 kJ/mol
# Density = 1.997282 g / cm^3
# Si number density = 20.018381 Si / 1000 Ang^3
#
#
#
# Elastic Constant Matrix: (Units=GPa)
#
#
# Indices 1 2 3 4 5 6 
#
# 1 122.8914 36.0640 23.0604 0.0000 0.0000 0.0000
# 2 36.0640 51.1126 42.5690 0.0000 0.0000 0.0000
# 3 23.0604 42.5690 114.2335 0.0000 0.0000 0.0000
# 4 0.0000 0.0000 0.0000 36.6521 0.0000 0.0000
# 5 0.0000 0.0000 0.0000 0.0000 37.1874 0.0000
# 6 0.0000 0.0000 0.0000 0.0000 0.0000 29.7741
#
#
#
# Elastic Compliance Matrix: (Units=1/GPa)
#
#
# Indices 1 2 3 4 5 6 
#
# 1 0.010328 -0.008049 0.000914 0.000000 0.000000 0.000000
# 2 -0.008049 0.034642 -0.011284 0.000000 0.000000 0.000000
# 3 0.000914 -0.011284 0.012775 0.000000 0.000000 0.000000
# 4 0.000000 0.000000 0.000000 0.027284 0.000000 0.000000
# 5 0.000000 0.000000 0.000000 0.000000 0.026891 0.000000
# 6 0.000000 0.000000 0.000000 0.000000 0.000000 0.033586
#
#
# Mechanical properties :
#
#
# Convention : Reuss Voigt Hill
#
# Bulk Modulus (GPa) = 47.83129 54.62492 51.22810
# Shear Modulus (GPa) = 26.41164 33.15899 29.78531
#
# Velocity S-wave (km/s) = 3.63625 4.07434 3.86151
# Velocity P-wave (km/s) = 6.44789 7.03422 6.74743
#
# Compressibility (1/GPa) = 0.02090681
#
# Stress axis : x y z
#
# Youngs Moduli (GPa) = 96.82782 28.86692 78.28079
#
# Poissons Ratio (x) = 0.23234 -0.07158
# Poissons Ratio (y) = 0.77932 0.88335
# Poissons Ratio (z) = -0.08854 0.32575
#
# Static dielectric constant tensor:
#      x y z
#    x 3.899450 0.000000 0.000000 
#    y 0.000000 3.355640 0.000000 
#    z 0.000000 0.000000 3.772840 
# 
# 
# High freq. dielectric constant tensor:
#      x y z
#    x 1.802080 0.000000 0.000000 
#    y 0.000000 1.777300 0.000000 
#    z 0.000000 0.000000 1.795590 
# 
# From -- ./inp_files/15116.got.cif
#   From: 2010.03.12/outbox.cif.g09.slc.cpg/sg35_8_cif.got.tgz:15116.got - 2010.04.14 02:02:04.
