data_PCOD8173763
_publ_section_title
;
Structure prediction by ZEFSAII (Michael W. Deem and Ramdas Pophale) SiO2 
 PCOD8173763
Probable space group: C M M 2
;
_chemical_formula_sum "Si O2"
_cell_formula_units_Z 48
_cell_length_a 22.549273
_cell_length_b 14.804694
_cell_length_c 7.262291
_cell_angle_alpha 90.000000
_cell_angle_beta 90.000000
_cell_angle_gamma 90.000000
_cell_volume 2424.407546
_symmetry_space_group_name_H-M "C M M 2"
_symmetry_group_IT_number 35
_symmetry_cell_setting 'orthorhombic'
loop_
_space_group_symop_operation_xyz
x,y,z
-x,-y,z
-x,y,z
x,-y,z
1/2+x,1/2+y,z
1/2-x,1/2-y,z
1/2-x,1/2+y,z
1/2+x,1/2-y,z
loop_
_atom_site_type_symbol
_atom_site_label
_atom_site_fract_x
_atom_site_fract_y
_atom_site_fract_z
Si Si1 0.262997 0.398820 0.200100
Si Si2 0.875675 0.194864 0.063752
Si Si3 0.202615 0.327118 0.861955
Si Si4 0.664388 0.895698 0.480829
Si Si5 0.069245 0.102532 0.724492
Si Si6 0.932080 0.752510 0.421054
O O1 0.281774 0.500000 0.251801
O O2 0.321261 0.337752 0.191490
O O3 0.217666 0.359568 0.351777
O O4 0.231426 0.397404 0.002579
O O5 0.927743 0.215108 0.209020
O O6 0.856424 0.284019 0.952023
O O7 0.896581 0.121066 0.915372
O O8 0.250000 0.250000 0.807643
O O9 0.184945 0.386494 0.689221
O O10 0.605760 0.837680 0.447053
O O11 0.649727 0.000000 0.435861
O O12 0.090518 0.169281 0.561392
O O13 0.000000 0.115712 0.762754
O O14 0.083721 0.000000 0.663133
O O15 0.000000 0.728502 0.463513
#
# Coordination Sequence:
#
# PCOD8173763 Si02
#       6
#     8   8   8   8   8   8
#     4  10  22  37  58  92 123 153 197 247 306 371
#     4  11  21  38  63  89 123 161 202 250 307 373
#     4  10  21  35  61  87 120 158 194 246 304 369
#     4  11  23  40  63  90 124 162 205 253 303 363
#     4  10  22  40  62  91 125 161 206 256 307 369
#     4  11  24  41  63  89 122 165 212 257 306 357
#
# _framework density 19.798652000000001
#
# number of rings (size 3 to 8) (size 9 to 14) (size 15 to 20)
#    0.000    1.500    3.333    1.500    2.333    1.667 
#    0.000    5.000    0.000    0.000    0.000    0.000 
#    0.000    0.000    0.000    0.000    0.000    0.000 
#
# Total GULP energy -297653.736539 kJ/mol
# GULP energy per Si atom -12402.239022 kJ/mol
# Density = 1.975359 g / cm^3
# Si number density = 19.798652 Si / 1000 Ang^3
#
#
#
# Elastic Constant Matrix: (Units=GPa)
#
#
# Indices 1 2 3 4 5 6 
#
# 1 75.3462 35.8559 41.0343 0.0000 0.0000 0.0000
# 2 35.8559 92.5212 31.9429 0.0000 0.0000 0.0000
# 3 41.0343 31.9429 107.7887 0.0000 0.0000 0.0000
# 4 0.0000 0.0000 0.0000 28.0377 0.0000 0.0000
# 5 0.0000 0.0000 0.0000 0.0000 30.6043 0.0000
# 6 0.0000 0.0000 0.0000 0.0000 0.0000 25.3350
#
#
#
# Elastic Compliance Matrix: (Units=1/GPa)
#
#
# Indices 1 2 3 4 5 6 
#
# 1 0.018881 -0.005387 -0.005591 0.000000 0.000000 0.000000
# 2 -0.005387 0.013577 -0.001973 0.000000 0.000000 0.000000
# 3 -0.005591 -0.001973 0.011991 0.000000 0.000000 0.000000
# 4 0.000000 0.000000 0.000000 0.035666 0.000000 0.000000
# 5 0.000000 0.000000 0.000000 0.000000 0.032675 0.000000
# 6 0.000000 0.000000 0.000000 0.000000 0.000000 0.039471
#
#
# Mechanical properties :
#
#
# Convention : Reuss Voigt Hill
#
# Bulk Modulus (GPa) = 53.91846 54.81360 54.36603
# Shear Modulus (GPa) = 27.12309 27.91692 27.52001
#
# Velocity S-wave (km/s) = 3.70529 3.75913 3.73231
# Velocity P-wave (km/s) = 6.75264 6.82547 6.78915
#
# Compressibility (1/GPa) = 0.01854652
#
# Stress axis : x y z
#
# Youngs Moduli (GPa) = 52.96449 73.65395 83.39827
#
# Poissons Ratio (x) = 0.39675 0.46631
# Poissons Ratio (y) = 0.28530 0.16453
# Poissons Ratio (z) = 0.29614 0.14531
#
# Static dielectric constant tensor:
#      x y z
#    x 3.533270 0.000000 0.000000 
#    y 0.000000 3.527040 0.000000 
#    z 0.000000 0.000000 3.685680 
# 
# 
# High freq. dielectric constant tensor:
#      x y z
#    x 1.763810 0.000000 0.000000 
#    y 0.000000 1.767150 0.000000 
#    z 0.000000 0.000000 1.783090 
# 
# From -- ./inp_files/1925.got.cif
#   From: 2010.03.12/outbox.cif.g09.slc.cpg/sg35_1_cif.got.tgz:1925.got - 2010.04.14 02:02:04.
