data_PCOD8173254
_publ_section_title
;
Structure prediction by ZEFSAII (Michael W. Deem and Ramdas Pophale) SiO2 
 PCOD8173254
Probable space group: C M M 2
;
_chemical_formula_sum "Si O2"
_cell_formula_units_Z 64
_cell_length_a 28.687266
_cell_length_b 9.229240
_cell_length_c 12.579809
_cell_angle_alpha 90.000000
_cell_angle_beta 90.000000
_cell_angle_gamma 90.000000
_cell_volume 3330.651149
_symmetry_space_group_name_H-M "C M M 2"
_symmetry_group_IT_number 35
_symmetry_cell_setting 'orthorhombic'
loop_
_space_group_symop_operation_xyz
x,y,z
-x,-y,z
-x,y,z
x,-y,z
1/2+x,1/2+y,z
1/2-x,1/2-y,z
1/2-x,1/2+y,z
1/2+x,1/2-y,z
loop_
_atom_site_type_symbol
_atom_site_label
_atom_site_fract_x
_atom_site_fract_y
_atom_site_fract_z
Si Si1 0.052345 0.168376 0.264460
Si Si2 0.204899 0.834895 0.353668
Si Si3 0.299441 0.828595 0.981697
Si Si4 0.147873 0.330966 0.767388
Si Si5 0.945191 0.658979 0.466360
Si Si6 0.449298 0.170404 0.698876
Si Si7 0.797392 0.828837 0.593399
Si Si8 0.357101 0.334151 0.154998
O O1 0.073094 0.242267 0.370349
O O2 0.087556 0.199996 0.166035
O O3 0.000000 0.221656 0.233428
O O4 0.052109 0.000000 0.291195
O O5 0.250000 0.750000 0.313005
O O6 0.189227 0.787278 0.472184
O O7 0.163324 0.807684 0.272289
O O8 0.220850 0.000000 0.356653
O O9 0.250000 0.750000 0.990691
O O10 0.323918 0.785106 0.871613
O O11 0.291822 0.000000 0.992339
O O12 0.333848 0.776122 0.073710
O O13 0.155771 0.500000 0.741335
O O14 0.092326 0.296560 0.782528
O O15 0.162910 0.233339 0.668856
O O16 0.921610 0.500000 0.456127
O O17 0.934737 0.731066 0.581908
O O18 0.000000 0.643723 0.453696
O O19 0.500000 0.234118 0.736746
O O20 0.455338 0.000000 0.683336
O O21 0.750000 0.750000 0.627377
O O22 0.791985 0.000000 0.611155
O O23 0.348391 0.500000 0.117579
#
# Coordination Sequence:
#
# PCOD8173254 Si02
#       8
#     8   8   8   8   8   8   8   8
#     4   9  18  32  51  77 111 149 184 219 265 320
#     4   9  19  34  51  75 106 137 171 216 269 325
#     4  11  24  41  60  82 107 137 181 232 280 329
#     4  10  21  36  56  82 110 142 183 225 271 325
#     4   8  14  26  46  73 105 142 182 221 259 304
#     4   8  15  30  52  78 110 147 185 222 262 313
#     4  10  20  34  53  78 110 142 175 218 271 331
#     4  10  21  37  57  79 108 144 185 226 271 324
#
# _framework density 19.215461999999999
#
# number of rings (size 3 to 8) (size 9 to 14) (size 15 to 20)
#    0.000    2.625    0.000    2.250    1.750    4.500 
#    0.000    0.625    0.000    1.125    0.000    0.000 
#    0.000    0.000    0.000    0.000    0.000    0.000 
#
# Total GULP energy -396603.294185 kJ/mol
# GULP energy per Si atom -12393.852943 kJ/mol
# Density = 1.917173 g / cm^3
# Si number density = 19.215462 Si / 1000 Ang^3
#
#
#
# Elastic Constant Matrix: (Units=GPa)
#
#
# Indices 1 2 3 4 5 6 
#
# 1 109.5149 36.1025 45.8866 0.0000 0.0000 0.0000
# 2 36.1025 57.6665 33.6373 0.0000 0.0000 0.0000
# 3 45.8866 33.6373 71.0195 0.0000 0.0000 0.0000
# 4 0.0000 0.0000 0.0000 25.6643 0.0000 0.0000
# 5 0.0000 0.0000 0.0000 0.0000 30.0688 0.0000
# 6 0.0000 0.0000 0.0000 0.0000 0.0000 18.1426
#
#
#
# Elastic Compliance Matrix: (Units=1/GPa)
#
#
# Indices 1 2 3 4 5 6 
#
# 1 0.013348 -0.004596 -0.006447 0.000000 0.000000 0.000000
# 2 -0.004596 0.025543 -0.009129 0.000000 0.000000 0.000000
# 3 -0.006447 -0.009129 0.022570 0.000000 0.000000 0.000000
# 4 0.000000 0.000000 0.000000 0.038965 0.000000 0.000000
# 5 0.000000 0.000000 0.000000 0.000000 0.033257 0.000000
# 6 0.000000 0.000000 0.000000 0.000000 0.000000 0.055119
#
#
# Mechanical properties :
#
#
# Convention : Reuss Voigt Hill
#
# Bulk Modulus (GPa) = 47.35482 52.16153 49.75818
# Shear Modulus (GPa) = 21.16990 22.94675 22.05833
#
# Velocity S-wave (km/s) = 3.32281 3.45944 3.39181
# Velocity P-wave (km/s) = 6.27846 6.56974 6.42575
#
# Compressibility (1/GPa) = 0.02111718
#
# Stress axis : x y z
#
# Youngs Moduli (GPa) = 74.91974 39.14954 44.30624
#
# Poissons Ratio (x) = 0.17991 0.28566
# Poissons Ratio (y) = 0.34429 0.40447
# Poissons Ratio (z) = 0.48304 0.35739
#
# Static dielectric constant tensor:
#      x y z
#    x 3.702190 0.000000 0.000000 
#    y 0.000000 3.476250 0.000000 
#    z 0.000000 0.000000 3.423320 
# 
# 
# High freq. dielectric constant tensor:
#      x y z
#    x 1.754540 0.000000 0.000000 
#    y 0.000000 1.730900 0.000000 
#    z 0.000000 0.000000 1.727880 
# 
# From -- ./inp_files/14554.got.cif
#   From: 2010.03.12/outbox.cif.g09.slc.cpg/sg35_8_cif.got.tgz:14554.got - 2010.04.14 02:02:04.
