data_PCOD8173675
_publ_section_title
;
Structure prediction by ZEFSAII (Michael W. Deem and Ramdas Pophale) SiO2 
 PCOD8173675
Probable space group: C M M 2
;
_chemical_formula_sum "Si O2"
_cell_formula_units_Z 38
_cell_length_a 24.769618
_cell_length_b 7.397025
_cell_length_c 10.802282
_cell_angle_alpha 90.000000
_cell_angle_beta 90.000000
_cell_angle_gamma 90.000000
_cell_volume 1979.210134
_symmetry_space_group_name_H-M "C M M 2"
_symmetry_group_IT_number 35
_symmetry_cell_setting 'orthorhombic'
loop_
_space_group_symop_operation_xyz
x,y,z
-x,-y,z
-x,y,z
x,-y,z
1/2+x,1/2+y,z
1/2-x,1/2-y,z
1/2-x,1/2+y,z
1/2+x,1/2-y,z
loop_
_atom_site_type_symbol
_atom_site_label
_atom_site_fract_x
_atom_site_fract_y
_atom_site_fract_z
Si Si1 0.408558 0.211025 0.958600
Si Si2 0.000000 0.000000 0.357392
Si Si3 0.387808 0.500000 0.500327
Si Si4 0.437854 0.500000 0.761086
Si Si5 0.810746 0.287775 0.386095
Si Si6 0.690962 0.209408 0.107343
Si Si7 0.500000 0.205379 0.153006
O O1 0.426610 0.319574 0.838809
O O2 0.407979 0.000000 0.921812
O O3 0.351186 0.287395 0.007810
O O4 0.448131 0.250598 0.071785
O O5 0.053800 0.000000 0.438081
O O6 0.000000 0.178854 0.275861
O O7 0.397106 0.500000 0.646774
O O8 0.354038 0.679502 0.467149
O O9 0.500000 0.500000 0.717398
O O10 0.824244 0.500000 0.395978
O O11 0.750000 0.250000 0.434683
O O12 0.815259 0.209607 0.245526
O O13 0.750000 0.250000 0.053501
O O14 0.679185 0.000000 0.120187
O O15 0.500000 0.000000 0.198414
#
# Coordination Sequence:
#
# PCOD8173675 Si02
#       7
#     8   2   4   4   8   8   4
#     4  10  21  39  62  88 120 158 204 251 310 373
#     4  12  24  38  58  94 138 160 204 272 318 368
#     4  12  26  41  62  91 126 173 225 258 303 373
#     4  12  25  44  62  84 117 173 221 254 301 356
#     4  10  20  40  67  95 126 164 203 258 324 382
#     4   9  19  33  58  94 126 151 187 242 317 383
#     4  10  20  37  63  93 121 158 199 258 328 386
#
# _framework density 19.199580000000001
#
# number of rings (size 3 to 8) (size 9 to 14) (size 15 to 20)
#    0.000    1.684    2.632    1.895    2.947    3.368 
#    0.000    1.053    0.000    0.000    0.000    0.000 
#    0.000    0.000    0.000    0.000    0.000    0.000 
#
# Total GULP energy -235607.910048 kJ/mol
# GULP energy per Si atom -12400.416318 kJ/mol
# Density = 1.915588 g / cm^3
# Si number density = 19.199580 Si / 1000 Ang^3
#
#
#
# Elastic Constant Matrix: (Units=GPa)
#
#
# Indices 1 2 3 4 5 6 
#
# 1 146.0627 41.7336 45.4848 0.0000 0.0000 0.0000
# 2 41.7336 101.0698 41.8985 0.0000 0.0000 0.0000
# 3 45.4848 41.8985 77.7439 0.0000 0.0000 0.0000
# 4 0.0000 0.0000 0.0000 -16.6801 0.0000 0.0000
# 5 0.0000 0.0000 0.0000 0.0000 59.5830 0.0000
# 6 0.0000 0.0000 0.0000 0.0000 0.0000 20.4706
#
#
#
# Elastic Compliance Matrix: (Units=1/GPa)
#
#
# Indices 1 2 3 4 5 6 
#
# 1 0.008645 -0.001897 -0.004036 0.000000 0.000000 0.000000
# 2 -0.001897 0.013157 -0.005981 0.000000 0.000000 0.000000
# 3 -0.004036 -0.005981 0.018447 0.000000 0.000000 0.000000
# 4 0.000000 0.000000 0.000000 -0.059952 0.000000 0.000000
# 5 0.000000 0.000000 0.000000 0.000000 0.016783 0.000000
# 6 0.000000 0.000000 0.000000 0.000000 0.000000 0.048850
#
#
# Mechanical properties :
#
#
# Convention : Reuss Voigt Hill
#
# Bulk Modulus (GPa) = 60.89249 64.79004 62.84127
# Shear Modulus (GPa) = 66.46142 25.72534 46.09338
#
# Velocity S-wave (km/s) = 5.88993 3.66442 4.90506
# Velocity P-wave (km/s) = 8.83399 7.19186 8.05488
#
# Compressibility (1/GPa) = 0.01642239
#
# Stress axis : x y z
#
# Youngs Moduli (GPa) = 115.67326 76.00692 54.20905
#
# Poissons Ratio (x) = 0.14416 0.21877
# Poissons Ratio (y) = 0.21940 0.32422
# Poissons Ratio (z) = 0.46682 0.45459
#
# Static dielectric constant tensor:
#      x y z
#    x 3.364210 0.000000 0.000000 
#    y 0.000000 3.517510 0.000000 
#    z 0.000000 0.000000 3.258460 
# 
# 
# High freq. dielectric constant tensor:
#      x y z
#    x 1.764740 0.000000 0.000000 
#    y 0.000000 1.756740 0.000000 
#    z 0.000000 0.000000 1.714260 
# 
# From -- ./inp_files/9670.got.cif
#   From: 2010.03.12/outbox.cif.g09.slc.cpg/sg35_5_cif.got.tgz:9670.got - 2010.04.14 02:02:04.
