data_PCOD8173957
_publ_section_title
;
Structure prediction by ZEFSAII (Michael W. Deem and Ramdas Pophale) SiO2 
 PCOD8173957
Probable space group: C M M 2
;
_chemical_formula_sum "Si O2"
_cell_formula_units_Z 56
_cell_length_a 13.949303
_cell_length_b 14.175613
_cell_length_c 13.399063
_cell_angle_alpha 90.000000
_cell_angle_beta 90.000000
_cell_angle_gamma 90.000000
_cell_volume 2649.529658
_symmetry_space_group_name_H-M "C M M 2"
_symmetry_group_IT_number 35
_symmetry_cell_setting 'orthorhombic'
loop_
_space_group_symop_operation_xyz
x,y,z
-x,-y,z
-x,y,z
x,-y,z
1/2+x,1/2+y,z
1/2-x,1/2-y,z
1/2-x,1/2+y,z
1/2+x,1/2-y,z
loop_
_atom_site_type_symbol
_atom_site_label
_atom_site_fract_x
_atom_site_fract_y
_atom_site_fract_z
Si Si1 0.223193 0.649863 0.621230
Si Si2 0.281836 0.387689 0.158933
Si Si3 0.387904 0.782946 0.244182
Si Si4 0.103358 0.893465 0.751353
Si Si5 0.107223 0.397205 0.435898
Si Si6 0.892015 0.388551 0.810493
Si Si7 0.782444 0.111166 0.934163
O O1 0.250000 0.750000 0.576575
O O2 0.321711 0.604169 0.660271
O O3 0.178825 0.594172 0.529000
O O4 0.146486 0.662439 0.710724
O O5 0.295460 0.500000 0.178879
O O6 0.351430 0.325285 0.230115
O O7 0.171781 0.356028 0.175537
O O8 0.308452 0.357451 0.045805
O O9 0.500000 0.790992 0.217108
O O10 0.367447 0.814315 0.358194
O O11 0.146543 0.842515 0.851017
O O12 0.000000 0.846362 0.723168
O O13 0.083649 0.000000 0.781526
O O14 0.112968 0.500000 0.381814
O O15 0.000000 0.379592 0.477348
O O16 0.884600 0.500000 0.789044
O O17 0.826414 0.359271 0.905161
O O18 0.000000 0.356477 0.833566
O O19 0.790258 0.000000 0.927437
#
# Coordination Sequence:
#
# PCOD8173957 Si02
#       7
#     8   8   8   8   8   8   8
#     4  11  22  33  53  83 121 154 188 238 296 364
#     4  10  21  39  65  91 125 166 208 256 314 369
#     4  10  23  41  62  92 124 155 206 265 314 370
#     4   9  18  35  57  80 112 155 200 237 276 342
#     4  10  21  40  66  89 111 148 197 253 316 373
#     4   9  17  33  57  83 113 152 199 246 290 347
#     4   8  16  32  55  85 115 152 198 243 291 353
#
# _framework density 21.135826999999999
#
# number of rings (size 3 to 8) (size 9 to 14) (size 15 to 20)
#    0.000    2.429    0.000    3.000    2.000    4.571 
#   10.286    2.857    0.000    0.000    0.000    0.000 
#    0.000    0.000    0.000    0.000    0.000    0.000 
#
# Total GULP energy -346925.644361 kJ/mol
# GULP energy per Si atom -12390.201584 kJ/mol
# Density = 2.108772 g / cm^3
# Si number density = 21.135827 Si / 1000 Ang^3
#
#
#
# Elastic Constant Matrix: (Units=GPa)
#
#
# Indices 1 2 3 4 5 6 
#
# 1 172.5388 27.0094 71.2902 0.0000 0.0000 0.0000
# 2 27.0094 88.5857 36.8773 0.0000 0.0000 0.0000
# 3 71.2902 36.8773 123.3657 0.0000 0.0000 0.0000
# 4 0.0000 0.0000 0.0000 17.7867 0.0000 0.0000
# 5 0.0000 0.0000 0.0000 0.0000 25.4734 0.0000
# 6 0.0000 0.0000 0.0000 0.0000 0.0000 20.1417
#
#
#
# Elastic Compliance Matrix: (Units=1/GPa)
#
#
# Indices 1 2 3 4 5 6 
#
# 1 0.007638 -0.000561 -0.004246 0.000000 0.000000 0.000000
# 2 -0.000561 0.012934 -0.003542 0.000000 0.000000 0.000000
# 3 -0.004246 -0.003542 0.011619 0.000000 0.000000 0.000000
# 4 0.000000 0.000000 0.000000 0.056222 0.000000 0.000000
# 5 0.000000 0.000000 0.000000 0.000000 0.039257 0.000000
# 6 0.000000 0.000000 0.000000 0.000000 0.000000 0.049648
#
#
# Mechanical properties :
#
#
# Convention : Reuss Voigt Hill
#
# Bulk Modulus (GPa) = 64.54945 72.76045 68.65495
# Shear Modulus (GPa) = 25.10294 29.30126 27.20210
#
# Velocity S-wave (km/s) = 3.45004 3.72739 3.59139
# Velocity P-wave (km/s) = 6.81740 7.28179 7.05342
#
# Compressibility (1/GPa) = 0.01549200
#
# Stress axis : x y z
#
# Youngs Moduli (GPa) = 130.92307 77.31487 86.06949
#
# Poissons Ratio (x) = 0.04339 0.36546
# Poissons Ratio (y) = 0.07348 0.30486
# Poissons Ratio (z) = 0.55591 0.27385
#
# Static dielectric constant tensor:
#      x y z
#    x 4.100090 0.000000 0.000000 
#    y 0.000000 3.821620 0.000000 
#    z 0.000000 0.000000 3.717790 
# 
# 
# High freq. dielectric constant tensor:
#      x y z
#    x 1.830480 0.000000 0.000000 
#    y 0.000000 1.830130 0.000000 
#    z 0.000000 0.000000 1.806980 
# 
# From -- ./inp_files/13008.got.cif
#   From: 2010.03.12/outbox.cif.g09.slc.cpg/sg35_7_cif.got.tgz:13008.got - 2010.04.14 02:02:04.
