data_PCOD8173361
_publ_section_title
;
Structure prediction by ZEFSAII (Michael W. Deem and Ramdas Pophale) SiO2 
 PCOD8173361
Probable space group: C M M 2
;
_chemical_formula_sum "Si O2"
_cell_formula_units_Z 64
_cell_length_a 19.730206
_cell_length_b 18.674282
_cell_length_c 9.782913
_cell_angle_alpha 90.000000
_cell_angle_beta 90.000000
_cell_angle_gamma 90.000000
_cell_volume 3604.489160
_symmetry_space_group_name_H-M "C M M 2"
_symmetry_group_IT_number 35
_symmetry_cell_setting 'orthorhombic'
loop_
_space_group_symop_operation_xyz
x,y,z
-x,-y,z
-x,y,z
x,-y,z
1/2+x,1/2+y,z
1/2-x,1/2-y,z
1/2-x,1/2+y,z
1/2+x,1/2-y,z
loop_
_atom_site_type_symbol
_atom_site_label
_atom_site_fract_x
_atom_site_fract_y
_atom_site_fract_z
Si Si1 0.215417 0.826378 0.632650
Si Si2 0.425119 0.270444 0.605765
Si Si3 0.576694 0.684493 0.307851
Si Si4 0.697822 0.415679 0.369795
Si Si5 0.710601 0.920859 0.842739
Si Si6 0.310721 0.081247 0.150844
Si Si7 0.574875 0.852785 0.810427
Si Si8 0.922794 0.307262 0.108309
O O1 0.250000 0.750000 0.599794
O O2 0.134995 0.820165 0.663213
O O3 0.226592 0.879731 0.506815
O O4 0.247912 0.859564 0.767330
O O5 0.500000 0.302116 0.643566
O O6 0.417265 0.264581 0.441841
O O7 0.416935 0.192449 0.671991
O O8 0.500000 0.655017 0.292663
O O9 0.626027 0.616774 0.322251
O O10 0.597602 0.731380 0.175809
O O11 0.687891 0.500000 0.392875
O O12 0.752961 0.397189 0.256363
O O13 0.630379 0.915138 0.809522
O O14 0.734416 0.000000 0.797178
O O15 0.723017 0.908898 0.002608
O O16 0.375879 0.131009 0.171442
O O17 0.335584 0.000000 0.172650
O O18 0.500000 0.887928 0.816794
O O19 0.585966 0.801962 0.943954
O O20 0.000000 0.326102 0.148668
#
# Coordination Sequence:
#
# PCOD8173361 Si02
#       8
#     8   8   8   8   8   8   8   8
#     4  11  21  34  54  81 104 133 177 213 257 311
#     4   9  18  33  51  72 103 132 164 211 255 298
#     4   9  19  34  53  76  99 131 172 218 261 302
#     4  10  22  37  53  76 105 138 171 212 262 311
#     4  10  20  35  52  75 108 140 171 214 258 306
#     4   9  20  35  51  74 107 142 174 208 257 312
#     4   9  17  31  50  75 105 136 170 209 253 307
#     4   9  18  31  50  76 104 134 174 214 253 300
#
# _framework density 17.755637
#
# number of rings (size 3 to 8) (size 9 to 14) (size 15 to 20)
#    0.000    2.500    1.250    0.375    3.500    1.750 
#    0.000    2.500    0.000    1.125    0.000    7.000 
#    0.000    5.000    0.000    0.000    0.000    0.000 
#
# Total GULP energy -396698.591554 kJ/mol
# GULP energy per Si atom -12396.830986 kJ/mol
# Density = 1.771522 g / cm^3
# Si number density = 17.755637 Si / 1000 Ang^3
#
#
#
# Elastic Constant Matrix: (Units=GPa)
#
#
# Indices 1 2 3 4 5 6 
#
# 1 92.1591 41.9809 34.8948 0.0000 0.0000 0.0000
# 2 41.9809 89.7900 38.3948 0.0000 0.0000 0.0000
# 3 34.8948 38.3948 59.5994 0.0000 0.0000 0.0000
# 4 0.0000 0.0000 0.0000 27.6490 0.0000 0.0000
# 5 0.0000 0.0000 0.0000 0.0000 26.4854 0.0000
# 6 0.0000 0.0000 0.0000 0.0000 0.0000 25.5697
#
#
#
# Elastic Compliance Matrix: (Units=1/GPa)
#
#
# Indices 1 2 3 4 5 6 
#
# 1 0.015178 -0.004550 -0.005956 0.000000 0.000000 0.000000
# 2 -0.004550 0.016735 -0.008117 0.000000 0.000000 0.000000
# 3 -0.005956 -0.008117 0.025495 0.000000 0.000000 0.000000
# 4 0.000000 0.000000 0.000000 0.036168 0.000000 0.000000
# 5 0.000000 0.000000 0.000000 0.000000 0.037757 0.000000
# 6 0.000000 0.000000 0.000000 0.000000 0.000000 0.039109
#
#
# Mechanical properties :
#
#
# Convention : Reuss Voigt Hill
#
# Bulk Modulus (GPa) = 49.59567 52.45439 51.02503
# Shear Modulus (GPa) = 23.31994 24.35933 23.83964
#
# Velocity S-wave (km/s) = 3.62799 3.70796 3.66820
# Velocity P-wave (km/s) = 6.74854 6.92376 6.83671
#
# Compressibility (1/GPa) = 0.02016305
#
# Stress axis : x y z
#
# Youngs Moduli (GPa) = 65.88285 59.75365 39.22347
#
# Poissons Ratio (x) = 0.27188 0.23360
# Poissons Ratio (y) = 0.29976 0.31839
# Poissons Ratio (z) = 0.39238 0.48503
#
# Static dielectric constant tensor:
#      x y z
#    x 3.484900 0.000000 0.000000 
#    y 0.000000 3.056750 0.000000 
#    z 0.000000 0.000000 3.363810 
# 
# 
# High freq. dielectric constant tensor:
#      x y z
#    x 1.697020 0.000000 0.000000 
#    y 0.000000 1.662720 0.000000 
#    z 0.000000 0.000000 1.690310 
# 
# From -- ./inp_files/8768.got.cif
#   From: 2010.03.12/outbox.cif.g09.slc.cpg/sg35_5_cif.got.tgz:8768.got - 2010.04.14 02:02:04.
