data_PCOD8173637
_publ_section_title
;
Structure prediction by ZEFSAII (Michael W. Deem and Ramdas Pophale) SiO2 
 PCOD8173637
Probable space group: C M M 2
;
_chemical_formula_sum "Si O2"
_cell_formula_units_Z 64
_cell_length_a 8.684785
_cell_length_b 29.320789
_cell_length_c 12.286564
_cell_angle_alpha 90.000000
_cell_angle_beta 90.000000
_cell_angle_gamma 90.000000
_cell_volume 3128.709000
_symmetry_space_group_name_H-M "C M M 2"
_symmetry_group_IT_number 35
_symmetry_cell_setting 'orthorhombic'
loop_
_space_group_symop_operation_xyz
x,y,z
-x,-y,z
-x,y,z
x,-y,z
1/2+x,1/2+y,z
1/2-x,1/2-y,z
1/2-x,1/2+y,z
1/2+x,1/2-y,z
loop_
_atom_site_type_symbol
_atom_site_label
_atom_site_fract_x
_atom_site_fract_y
_atom_site_fract_z
Si Si1 0.823860 0.330270 0.805370
Si Si2 0.821035 0.076824 0.750819
Si Si3 0.823836 0.550047 0.532979
Si Si4 0.321629 0.853893 0.047372
Si Si5 0.179038 0.356826 0.437833
Si Si6 0.179054 0.795460 0.608395
Si Si7 0.179723 0.800372 0.243391
Si Si8 0.177411 0.549691 0.963031
O O1 0.789390 0.379995 0.759442
O O2 0.715207 0.295633 0.737998
O O3 0.000000 0.317366 0.781359
O O4 0.788270 0.328411 0.933483
O O5 0.784973 0.051287 0.638606
O O6 0.782085 0.045794 0.855243
O O7 0.000000 0.091138 0.752617
O O8 0.801273 0.500000 0.478657
O O9 0.783693 0.588884 0.443086
O O10 0.000000 0.557079 0.571363
O O11 0.500000 0.850152 0.080901
O O12 0.220906 0.827476 0.134432
O O13 0.271925 0.907584 0.039448
O O14 0.234979 0.338028 0.554042
O O15 0.270972 0.331945 0.343242
O O16 0.000000 0.347208 0.418950
O O17 0.250000 0.750000 0.555027
O O18 0.000000 0.797763 0.583850
O O19 0.250000 0.750000 0.247357
O O20 0.000000 0.793079 0.248961
O O21 0.193691 0.500000 0.022637
O O22 0.000000 0.558624 0.928612
#
# Coordination Sequence:
#
# PCOD8173637 Si02
#       8
#     8   8   8   8   8   8   8   8
#     4  10  20  37  59  85 121 163 202 248 301 359
#     4  11  20  30  50  83 123 165 205 250 298 353
#     4  10  21  37  59  86 119 162 206 246 295 358
#     4   9  20  39  63  90 121 156 202 252 301 356
#     4  11  23  42  66  89 121 158 202 254 303 356
#     4  12  24  38  59  89 124 160 200 244 303 370
#     4  12  26  45  69  92 117 151 200 254 311 369
#     4   9  18  34  57  85 121 166 210 249 293 354
#
# _framework density 20.455721
#
# number of rings (size 3 to 8) (size 9 to 14) (size 15 to 20)
#    0.000    1.500    1.250    5.625    0.000    5.500 
#    0.000    0.625    0.000    3.750    0.000    0.000 
#    0.000    0.000    0.000    0.000    0.000    0.000 
#
# Total GULP energy -396702.062852 kJ/mol
# GULP energy per Si atom -12396.939464 kJ/mol
# Density = 2.040916 g / cm^3
# Si number density = 20.455721 Si / 1000 Ang^3
#
#
#
# Elastic Constant Matrix: (Units=GPa)
#
#
# Indices 1 2 3 4 5 6 
#
# 1 99.8847 47.7091 43.6701 0.0000 0.0000 0.0000
# 2 47.7091 142.6225 57.0926 0.0000 0.0000 0.0000
# 3 43.6701 57.0926 96.6353 0.0000 0.0000 0.0000
# 4 0.0000 0.0000 0.0000 24.4230 0.0000 0.0000
# 5 0.0000 0.0000 0.0000 0.0000 32.8381 0.0000
# 6 0.0000 0.0000 0.0000 0.0000 0.0000 24.6666
#
#
#
# Elastic Compliance Matrix: (Units=1/GPa)
#
#
# Indices 1 2 3 4 5 6 
#
# 1 0.013203 -0.002656 -0.004397 0.000000 0.000000 0.000000
# 2 -0.002656 0.009718 -0.004541 0.000000 0.000000 0.000000
# 3 -0.004397 -0.004541 0.015018 0.000000 0.000000 0.000000
# 4 0.000000 0.000000 0.000000 0.040945 0.000000 0.000000
# 5 0.000000 0.000000 0.000000 0.000000 0.030452 0.000000
# 6 0.000000 0.000000 0.000000 0.000000 0.000000 0.040541
#
#
# Mechanical properties :
#
#
# Convention : Reuss Voigt Hill
#
# Bulk Modulus (GPa) = 67.79648 70.67623 69.23635
# Shear Modulus (GPa) = 28.09276 29.09694 28.59485
#
# Velocity S-wave (km/s) = 3.70989 3.77561 3.74289
# Velocity P-wave (km/s) = 7.18095 7.32344 7.25255
#
# Compressibility (1/GPa) = 0.01475003
#
# Stress axis : x y z
#
# Youngs Moduli (GPa) = 75.74202 102.90335 66.58662
#
# Poissons Ratio (x) = 0.27335 0.29278
# Poissons Ratio (y) = 0.20120 0.30237
# Poissons Ratio (z) = 0.33304 0.46728
#
# Static dielectric constant tensor:
#      x y z
#    x 3.629140 0.000000 0.000000 
#    y 0.000000 3.938720 0.000000 
#    z 0.000000 0.000000 3.576680 
# 
# 
# High freq. dielectric constant tensor:
#      x y z
#    x 1.797400 0.000000 0.000000 
#    y 0.000000 1.813810 0.000000 
#    z 0.000000 0.000000 1.772520 
# 
# From -- ./inp_files/11896.got.cif
#   From: 2010.03.12/outbox.cif.g09.slc.cpg/sg35_6_cif.got.tgz:11896.got - 2010.04.14 02:02:04.
