data_PCOD8173091
_publ_section_title
;
Structure prediction by ZEFSAII (Michael W. Deem and Ramdas Pophale) SiO2 
 PCOD8173091
Probable space group: C M M 2
;
_chemical_formula_sum "Si O2"
_cell_formula_units_Z 48
_cell_length_a 7.933455
_cell_length_b 18.459637
_cell_length_c 17.050023
_cell_angle_alpha 90.000000
_cell_angle_beta 90.000000
_cell_angle_gamma 90.000000
_cell_volume 2496.953694
_symmetry_space_group_name_H-M "C M M 2"
_symmetry_group_IT_number 35
_symmetry_cell_setting 'orthorhombic'
loop_
_space_group_symop_operation_xyz
x,y,z
-x,-y,z
-x,y,z
x,-y,z
1/2+x,1/2+y,z
1/2-x,1/2-y,z
1/2-x,1/2+y,z
1/2+x,1/2-y,z
loop_
_atom_site_type_symbol
_atom_site_label
_atom_site_fract_x
_atom_site_fract_y
_atom_site_fract_z
Si Si1 0.688575 0.083779 0.683980
Si Si2 0.690312 0.668728 0.827717
Si Si3 0.806399 0.582973 0.971316
Si Si4 0.813726 0.586211 0.303620
Si Si5 0.500000 0.586573 0.404237
Si Si6 0.189674 0.913928 0.138443
Si Si7 0.500000 0.585944 0.580337
O O1 0.500000 0.093566 0.648021
O O2 0.694774 0.127745 0.764718
O O3 0.829642 0.113288 0.623508
O O4 0.724245 0.000000 0.703905
O O5 0.500000 0.666581 0.796687
O O6 0.750000 0.750000 0.838367
O O7 0.697661 0.630052 0.911702
O O8 0.744098 0.500000 0.966168
O O9 0.000000 0.590056 0.947346
O O10 0.780892 0.613287 0.059428
O O11 0.803706 0.500000 0.303214
O O12 0.668125 0.616463 0.361114
O O13 0.784485 0.616167 0.215447
O O14 0.000000 0.611704 0.332033
O O15 0.500000 0.500000 0.403684
O O16 0.500000 0.617704 0.492496
O O17 0.000000 0.884144 0.139126
O O18 0.192248 0.000000 0.141128
O O19 0.500000 0.500000 0.576640
#
# Coordination Sequence:
#
# PCOD8173091 Si02
#       7
#     8   8   8   8   4   8   4
#     4  10  20  36  57  79 105 139 179 218 261 319
#     4  12  24  38  55  76 104 138 174 222 268 317
#     4  10  20  33  50  75 105 139 180 219 259 310
#     4   9  15  23  37  59  92 134 171 205 251 302
#     4   9  16  26  40  63  97 131 167 209 254 309
#     4   9  15  25  41  63  94 134 176 214 250 296
#     4   9  18  32  50  73 101 137 174 213 262 313
#
# _framework density 19.223424999999999
#
# number of rings (size 3 to 8) (size 9 to 14) (size 15 to 20)
#    0.000    2.167    1.667    3.000    0.000    5.667 
#    0.000    3.333    0.000    0.000    0.000    0.000 
#    0.000    1.333    1.333    0.000    0.000    0.000 
#
# Total GULP energy -297554.369082 kJ/mol
# GULP energy per Si atom -12398.098712 kJ/mol
# Density = 1.917967 g / cm^3
# Si number density = 19.223425 Si / 1000 Ang^3
#
#
#
# Elastic Constant Matrix: (Units=GPa)
#
#
# Indices 1 2 3 4 5 6 
#
# 1 145.4930 22.6697 60.5315 0.0000 0.0000 0.0000
# 2 22.6697 38.8502 30.0277 0.0000 0.0000 0.0000
# 3 60.5315 30.0277 147.1101 0.0000 0.0000 0.0000
# 4 0.0000 0.0000 0.0000 0.3317 0.0000 0.0000
# 5 0.0000 0.0000 0.0000 0.0000 27.4849 0.0000
# 6 0.0000 0.0000 0.0000 0.0000 0.0000 12.0545
#
#
#
# Elastic Compliance Matrix: (Units=1/GPa)
#
#
# Indices 1 2 3 4 5 6 
#
# 1 0.008523 -0.002686 -0.002958 0.000000 0.000000 0.000000
# 2 -0.002686 0.031408 -0.005306 0.000000 0.000000 0.000000
# 3 -0.002958 -0.005306 0.009098 0.000000 0.000000 0.000000
# 4 0.000000 0.000000 0.000000 3.014440 0.000000 0.000000
# 5 0.000000 0.000000 0.000000 0.000000 0.036384 0.000000
# 6 0.000000 0.000000 0.000000 0.000000 0.000000 0.082956
#
#
# Mechanical properties :
#
#
# Convention : Reuss Voigt Hill
#
# Bulk Modulus (GPa) = 36.86262 61.99013 49.42637
# Shear Modulus (GPa) = 1.55581 22.52253 12.03917
#
# Velocity S-wave (km/s) = 0.90060 3.42661 2.50527
# Velocity P-wave (km/s) = 4.50544 6.92623 5.84259
#
# Compressibility (1/GPa) = 0.02712775
#
# Stress axis : x y z
#
# Youngs Moduli (GPa) = 117.33485 31.83887 109.91549
#
# Poissons Ratio (x) = 0.08553 0.32518
# Poissons Ratio (y) = 0.31522 0.58316
# Poissons Ratio (z) = 0.34713 0.16892
#
# Static dielectric constant tensor:
#      x y z
#    x 3.741150 0.000000 0.000000 
#    y 0.000000 2.873400 0.000000 
#    z 0.000000 0.000000 3.626020 
# 
# 
# High freq. dielectric constant tensor:
#      x y z
#    x 1.767590 0.000000 0.000000 
#    y 0.000000 1.673210 0.000000 
#    z 0.000000 0.000000 1.748900 
# 
# From -- ./inp_files/15176.got.cif
#   From: 2010.03.12/outbox.cif.g09.slc.cpg/sg35_8_cif.got.tgz:15176.got - 2010.04.14 02:02:04.
