data_PCOD8173158
_publ_section_title
;
Structure prediction by ZEFSAII (Michael W. Deem and Ramdas Pophale) SiO2 
 PCOD8173158
Probable space group: C M M 2
;
_chemical_formula_sum "Si O2"
_cell_formula_units_Z 56
_cell_length_a 13.627150
_cell_length_b 13.627149
_cell_length_c 16.227090
_cell_angle_alpha 90.000000
_cell_angle_beta 90.000000
_cell_angle_gamma 90.000000
_cell_volume 3013.357688
_symmetry_space_group_name_H-M "C M M 2"
_symmetry_group_IT_number 35
_symmetry_cell_setting 'orthorhombic'
loop_
_space_group_symop_operation_xyz
x,y,z
-x,-y,z
-x,y,z
x,-y,z
1/2+x,1/2+y,z
1/2-x,1/2-y,z
1/2-x,1/2+y,z
1/2+x,1/2-y,z
loop_
_atom_site_type_symbol
_atom_site_label
_atom_site_fract_x
_atom_site_fract_y
_atom_site_fract_z
Si Si1 0.614017 0.791120 0.328600
Si Si2 0.891087 0.616114 0.672904
Si Si3 0.383886 0.108913 0.494480
Si Si4 0.791157 0.887101 0.253463
Si Si5 0.887101 0.791157 0.913921
Si Si6 0.791120 0.614017 0.838784
Si Si7 0.388322 0.611677 0.083692
O O1 0.500000 0.812877 0.312148
O O2 0.646669 0.817331 0.421741
O O3 0.677112 0.858662 0.266077
O O4 0.640016 0.677211 0.313955
O O5 0.900281 0.500000 0.668110
O O6 0.848767 0.651233 0.583692
O O7 0.817330 0.646669 0.745643
O O8 0.000000 0.660294 0.690938
O O9 0.500000 0.099719 0.499274
O O10 0.339706 0.000000 0.476446
O O11 0.816898 0.863008 0.159011
O O12 0.811253 0.000000 0.274863
O O13 0.858662 0.677112 0.901307
O O14 0.822789 0.859984 0.853430
O O15 0.000000 0.811253 0.892520
O O16 0.863009 0.816897 0.008373
O O17 0.812878 0.500000 0.855236
O O18 0.500000 0.627371 0.113949
O O19 0.372623 0.500000 0.053435
#
# Coordination Sequence:
#
# PCOD8173158 Si02
#       7
#     8   8   8   8   8   8   8
#     4  10  20  33  53  82 109 134 170 217 263 304
#     4   8  14  27  49  76 106 140 175 209 249 304
#     4   8  14  27  49  76 106 140 175 209 249 304
#     4  10  21  36  54  77 105 138 174 213 259 311
#     4  10  21  36  54  77 105 138 174 213 259 311
#     4  10  20  33  53  82 109 134 170 217 263 304
#     4   9  18  35  58  78 100 138 182 214 248 310
#
# _framework density 18.583921
#
# number of rings (size 3 to 8) (size 9 to 14) (size 15 to 20)
#    0.000    2.714    0.000    2.571    0.000    5.714 
#    0.000    2.857    0.000    1.714    0.000   14.000 
#    0.000   25.143    0.000    0.000    0.000    0.000 
#
# Total GULP energy -347054.684834 kJ/mol
# GULP energy per Si atom -12394.810173 kJ/mol
# Density = 1.854162 g / cm^3
# Si number density = 18.583921 Si / 1000 Ang^3
#
#
#
# Elastic Constant Matrix: (Units=GPa)
#
#
# Indices 1 2 3 4 5 6 
#
# 1 110.0053 31.0151 77.2387 0.0000 0.0000 0.0000
# 2 31.0151 110.0054 77.2386 0.0000 0.0000 0.0000
# 3 77.2387 77.2386 151.7385 0.0000 0.0000 0.0000
# 4 0.0000 0.0000 0.0000 29.8878 0.0000 0.0000
# 5 0.0000 0.0000 0.0000 0.0000 29.8878 0.0000
# 6 0.0000 0.0000 0.0000 0.0000 0.0000 21.5727
#
#
#
# Elastic Compliance Matrix: (Units=1/GPa)
#
#
# Indices 1 2 3 4 5 6 
#
# 1 0.014344 0.001685 -0.008159 0.000000 0.000000 0.000000
# 2 0.001685 0.014344 -0.008159 0.000000 0.000000 0.000000
# 3 -0.008159 -0.008159 0.014897 0.000000 0.000000 0.000000
# 4 0.000000 0.000000 0.000000 0.033459 0.000000 0.000000
# 5 0.000000 0.000000 0.000000 0.000000 0.033458 0.000000
# 6 0.000000 0.000000 0.000000 0.000000 0.000000 0.046355
#
#
# Mechanical properties :
#
#
# Convention : Reuss Voigt Hill
#
# Bulk Modulus (GPa) = 69.84222 82.52601 76.18412
# Shear Modulus (GPa) = 26.19212 28.68675 27.43943
#
# Velocity S-wave (km/s) = 3.75827 3.93317 3.84671
# Velocity P-wave (km/s) = 7.51641 8.07032 7.79828
#
# Compressibility (1/GPa) = 0.01431799
#
# Stress axis : x y z
#
# Youngs Moduli (GPa) = 69.71396 69.71419 67.12929
#
# Poissons Ratio (x) = -0.11743 0.54771
# Poissons Ratio (y) = -0.11743 0.54771
# Poissons Ratio (z) = 0.56880 0.56880
#
# Static dielectric constant tensor:
#      x y z
#    x 3.347370 0.000000 0.000000 
#    y 0.000000 3.347360 0.000000 
#    z 0.000000 0.000000 3.693220 
# 
# 
# High freq. dielectric constant tensor:
#      x y z
#    x 1.707490 0.000000 0.000000 
#    y 0.000000 1.707490 0.000000 
#    z 0.000000 0.000000 1.724900 
# 
# From -- ./inp_files/16808.got.cif
#   From: 2010.03.12/outbox.cif.g09.slc.cpg/sg35_9_cif.got.tgz:16808.got - 2010.04.14 02:02:04.
