data_PCOD8173197
_publ_section_title
;
Structure prediction by ZEFSAII (Michael W. Deem and Ramdas Pophale) SiO2 
 PCOD8173197
Probable space group: C M M 2
;
_chemical_formula_sum "Si O2"
_cell_formula_units_Z 48
_cell_length_a 18.195286
_cell_length_b 9.176630
_cell_length_c 15.526288
_cell_angle_alpha 90.000000
_cell_angle_beta 90.000000
_cell_angle_gamma 90.000000
_cell_volume 2592.446159
_symmetry_space_group_name_H-M "C M M 2"
_symmetry_group_IT_number 35
_symmetry_cell_setting 'orthorhombic'
loop_
_space_group_symop_operation_xyz
x,y,z
-x,-y,z
-x,y,z
x,-y,z
1/2+x,1/2+y,z
1/2-x,1/2-y,z
1/2-x,1/2+y,z
1/2+x,1/2-y,z
loop_
_atom_site_type_symbol
_atom_site_label
_atom_site_fract_x
_atom_site_fract_y
_atom_site_fract_z
Si Si1 0.082103 0.327355 0.419460
Si Si2 0.912711 0.160958 0.924539
Si Si3 0.416455 0.171418 0.088551
Si Si4 0.327670 0.173360 0.585721
Si Si5 0.827500 0.326887 0.254816
Si Si6 0.085682 0.829666 0.732596
O O1 0.077229 0.500000 0.417061
O O2 0.124225 0.275005 0.504506
O O3 0.124490 0.271048 0.335211
O O4 0.000000 0.260358 0.420157
O O5 0.888193 0.212292 0.829402
O O6 0.000000 0.158050 0.925122
O O7 0.881477 0.000000 0.943158
O O8 0.882682 0.265395 0.999836
O O9 0.500000 0.225629 0.103288
O O10 0.368101 0.225851 0.168346
O O11 0.413986 0.000000 0.080386
O O12 0.250000 0.250000 0.576599
O O13 0.367606 0.226593 0.671432
O O14 0.317489 0.000000 0.589102
O O15 0.816823 0.500000 0.256809
O O16 0.750000 0.250000 0.260193
O O17 0.000000 0.794846 0.718972
O O18 0.101292 0.000000 0.714309
#
# Coordination Sequence:
#
# PCOD8173197 Si02
#       6
#     8   8   8   8   8   8
#     4   9  18  34  56  79 101 129 168 211 253 301
#     4   8  15  29  50  75 102 132 165 206 257 304
#     4   9  17  30  50  75 100 130 171 213 249 290
#     4  11  22  35  53  77 106 139 174 212 257 308
#     4  10  20  34  52  74 103 136 167 203 250 302
#     4   9  18  34  55  78 105 137 173 214 261 310
#
# _framework density 18.515332000000001
#
# number of rings (size 3 to 8) (size 9 to 14) (size 15 to 20)
#    0.000    2.667    0.000    3.000    0.000    4.333 
#    0.000    3.333    0.000    5.500    0.000    0.000 
#    0.000    0.000    0.000    0.000    0.000    0.000 
#
# Total GULP energy -297557.716444 kJ/mol
# GULP energy per Si atom -12398.238185 kJ/mol
# Density = 1.847319 g / cm^3
# Si number density = 18.515332 Si / 1000 Ang^3
#
#
#
# Elastic Constant Matrix: (Units=GPa)
#
#
# Indices 1 2 3 4 5 6 
#
# 1 123.4715 43.2677 81.7960 0.0000 0.0000 0.0000
# 2 43.2677 44.3002 49.5560 0.0000 0.0000 0.0000
# 3 81.7960 49.5560 181.2910 0.0000 0.0000 0.0000
# 4 0.0000 0.0000 0.0000 23.7748 0.0000 0.0000
# 5 0.0000 0.0000 0.0000 0.0000 7.0244 0.0000
# 6 0.0000 0.0000 0.0000 0.0000 0.0000 25.3819
#
#
#
# Elastic Compliance Matrix: (Units=1/GPa)
#
#
# Indices 1 2 3 4 5 6 
#
# 1 0.013821 -0.009397 -0.003667 0.000000 0.000000 0.000000
# 2 -0.009397 0.038905 -0.006395 0.000000 0.000000 0.000000
# 3 -0.003667 -0.006395 0.008919 0.000000 0.000000 0.000000
# 4 0.000000 0.000000 0.000000 0.042061 0.000000 0.000000
# 5 0.000000 0.000000 0.000000 0.000000 0.142360 0.000000
# 6 0.000000 0.000000 0.000000 0.000000 0.000000 0.039398
#
#
# Mechanical properties :
#
#
# Convention : Reuss Voigt Hill
#
# Bulk Modulus (GPa) = 44.00134 77.58913 60.79524
# Shear Modulus (GPa) = 15.06212 22.86576 18.96394
#
# Velocity S-wave (km/s) = 2.85528 3.51802 3.20383
# Velocity P-wave (km/s) = 5.88953 7.64841 6.82586
#
# Compressibility (1/GPa) = 0.02272658
#
# Stress axis : x y z
#
# Youngs Moduli (GPa) = 72.35108 25.70388 112.12348
#
# Poissons Ratio (x) = 0.24153 0.41121
# Poissons Ratio (y) = 0.67987 0.71702
# Poissons Ratio (z) = 0.26534 0.16437
#
# Static dielectric constant tensor:
#      x y z
#    x 3.335430 0.000000 0.000000 
#    y 0.000000 3.228100 0.000000 
#    z 0.000000 0.000000 3.750790 
# 
# 
# High freq. dielectric constant tensor:
#      x y z
#    x 1.704720 0.000000 0.000000 
#    y 0.000000 1.695870 0.000000 
#    z 0.000000 0.000000 1.737970 
# 
# From -- ./inp_files/15097.got.cif
#   From: 2010.03.12/outbox.cif.g09.slc.cpg/sg35_8_cif.got.tgz:15097.got - 2010.04.14 02:02:04.
