data_PCOD8173287
_publ_section_title
;
Structure prediction by ZEFSAII (Michael W. Deem and Ramdas Pophale) SiO2 
 PCOD8173287
Probable space group: C M M 2
;
_chemical_formula_sum "Si O2"
_cell_formula_units_Z 64
_cell_length_a 9.226321
_cell_length_b 27.994250
_cell_length_c 12.904638
_cell_angle_alpha 90.000000
_cell_angle_beta 90.000000
_cell_angle_gamma 90.000000
_cell_volume 3333.060704
_symmetry_space_group_name_H-M "C M M 2"
_symmetry_group_IT_number 35
_symmetry_cell_setting 'orthorhombic'
loop_
_space_group_symop_operation_xyz
x,y,z
-x,-y,z
-x,y,z
x,-y,z
1/2+x,1/2+y,z
1/2-x,1/2-y,z
1/2-x,1/2+y,z
1/2+x,1/2-y,z
loop_
_atom_site_type_symbol
_atom_site_label
_atom_site_fract_x
_atom_site_fract_y
_atom_site_fract_z
Si Si1 0.837364 0.056869 0.272030
Si Si2 0.831822 0.944962 0.901586
Si Si3 0.329073 0.103665 0.088056
Si Si4 0.171294 0.699410 0.631500
Si Si5 0.667451 0.799275 0.180520
Si Si6 0.669336 0.388114 0.694601
Si Si7 0.328097 0.552928 0.500099
Si Si8 0.834745 0.702269 0.404926
O O1 0.726633 0.074690 0.186631
O O2 0.785901 0.074228 0.386862
O O3 0.000000 0.075958 0.247996
O O4 0.839233 0.000000 0.271850
O O5 0.799804 0.923198 0.789538
O O6 0.000000 0.940753 0.931300
O O7 0.782100 0.000000 0.901307
O O8 0.740874 0.915478 0.983908
O O9 0.500000 0.096344 0.082527
O O10 0.287741 0.159828 0.098749
O O11 0.250000 0.750000 0.648274
O O12 0.240816 0.660967 0.709885
O O13 0.206811 0.678295 0.515053
O O14 0.000000 0.704980 0.652868
O O15 0.500000 0.785926 0.169586
O O16 0.750000 0.750000 0.158179
O O17 0.696530 0.824097 0.294987
O O18 0.500000 0.375468 0.685509
O O19 0.730882 0.413747 0.591651
O O20 0.500000 0.549129 0.508184
O O21 0.260826 0.500000 0.514289
O O22 0.750000 0.750000 0.391293
O O23 0.000000 0.717403 0.413450
#
# Coordination Sequence:
#
# PCOD8173287 Si02
#       8
#     8   8   8   8   8   8   8   8
#     4   9  18  33  53  79 111 145 181 222 272 336
#     4  10  22  41  63  84 108 143 189 237 280 330
#     4  11  23  36  55  82 113 146 185 232 283 333
#     4  10  20  34  54  80 114 152 188 229 275 327
#     4   9  19  35  53  77 109 145 184 226 271 324
#     4  10  20  35  58  85 110 141 186 234 284 334
#     4   8  15  30  53  81 111 141 177 224 277 336
#     4   8  15  29  48  71 103 142 179 216 260 312
#
# _framework density 19.20157
#
# number of rings (size 3 to 8) (size 9 to 14) (size 15 to 20)
#    0.000    2.625    0.000    2.250    1.750    5.500 
#    0.000    0.625    0.000    3.375    0.000    0.000 
#    0.000    0.000    0.000    0.000    0.000    0.000 
#
# Total GULP energy -396508.214099 kJ/mol
# GULP energy per Si atom -12390.881691 kJ/mol
# Density = 1.915787 g / cm^3
# Si number density = 19.201570 Si / 1000 Ang^3
#
#
#
# Elastic Constant Matrix: (Units=GPa)
#
#
# Indices 1 2 3 4 5 6 
#
# 1 60.4240 42.2401 41.9624 0.0000 0.0000 0.0000
# 2 42.2401 91.6165 48.0866 0.0000 0.0000 0.0000
# 3 41.9624 48.0866 89.8367 0.0000 0.0000 0.0000
# 4 0.0000 0.0000 0.0000 31.1452 0.0000 0.0000
# 5 0.0000 0.0000 0.0000 0.0000 18.2164 0.0000
# 6 0.0000 0.0000 0.0000 0.0000 0.0000 27.3311
#
#
#
# Elastic Compliance Matrix: (Units=1/GPa)
#
#
# Indices 1 2 3 4 5 6 
#
# 1 0.028666 -0.008607 -0.008783 0.000000 0.000000 0.000000
# 2 -0.008607 0.017764 -0.005488 0.000000 0.000000 0.000000
# 3 -0.008783 -0.005488 0.018171 0.000000 0.000000 0.000000
# 4 0.000000 0.000000 0.000000 0.032108 0.000000 0.000000
# 5 0.000000 0.000000 0.000000 0.000000 0.054895 0.000000
# 6 0.000000 0.000000 0.000000 0.000000 0.000000 0.036588
#
#
# Mechanical properties :
#
#
# Convention : Reuss Voigt Hill
#
# Bulk Modulus (GPa) = 53.06299 56.27284 54.66791
# Shear Modulus (GPa) = 20.81346 22.64443 21.72895
#
# Velocity S-wave (km/s) = 3.29590 3.43782 3.36761
# Velocity P-wave (km/s) = 6.49451 6.71775 6.60707
#
# Compressibility (1/GPa) = 0.01884553
#
# Stress axis : x y z
#
# Youngs Moduli (GPa) = 34.88508 56.29440 55.03153
#
# Poissons Ratio (x) = 0.48450 0.48333
# Poissons Ratio (y) = 0.30024 0.30203
# Poissons Ratio (z) = 0.30639 0.30896
#
# Static dielectric constant tensor:
#      x y z
#    x 3.321820 0.000000 0.000000 
#    y 0.000000 3.415810 0.000000 
#    z 0.000000 0.000000 3.713920 
# 
# 
# High freq. dielectric constant tensor:
#      x y z
#    x 1.732030 0.000000 0.000000 
#    y 0.000000 1.742930 0.000000 
#    z 0.000000 0.000000 1.743260 
# 
# From -- ./inp_files/11902.got.cif
#   From: 2010.03.12/outbox.cif.g09.slc.cpg/sg35_6_cif.got.tgz:11902.got - 2010.04.14 02:02:04.
