data_PCOD8173273
_publ_section_title
;
Structure prediction by ZEFSAII (Michael W. Deem and Ramdas Pophale) SiO2 
 PCOD8173273
Probable space group: C M M 2
;
_chemical_formula_sum "Si O2"
_cell_formula_units_Z 48
_cell_length_a 15.538020
_cell_length_b 8.871645
_cell_length_c 17.167985
_cell_angle_alpha 90.000000
_cell_angle_beta 90.000000
_cell_angle_gamma 90.000000
_cell_volume 2366.568919
_symmetry_space_group_name_H-M "C M M 2"
_symmetry_group_IT_number 35
_symmetry_cell_setting 'orthorhombic'
loop_
_space_group_symop_operation_xyz
x,y,z
-x,-y,z
-x,y,z
x,-y,z
1/2+x,1/2+y,z
1/2-x,1/2-y,z
1/2-x,1/2+y,z
1/2+x,1/2-y,z
loop_
_atom_site_type_symbol
_atom_site_label
_atom_site_fract_x
_atom_site_fract_y
_atom_site_fract_z
Si Si1 0.000000 0.321570 0.405110
Si Si2 0.661991 0.822031 0.502439
Si Si3 0.158069 0.320988 0.969836
Si Si4 0.500000 0.675485 0.238827
Si Si5 0.098599 0.664691 0.804684
Si Si6 0.656942 0.321833 0.127590
Si Si7 0.602334 0.329627 0.655000
O O1 0.915458 0.259010 0.448948
O O2 0.000000 0.269807 0.316924
O O3 0.000000 0.500000 0.408323
O O4 0.750000 0.750000 0.470539
O O5 0.646251 0.776450 0.591530
O O6 0.669462 0.000000 0.497026
O O7 0.161428 0.500000 0.981907
O O8 0.250000 0.250000 0.956439
O O9 0.105472 0.273416 0.892844
O O10 0.118359 0.245933 0.047275
O O11 0.500000 0.500000 0.259076
O O12 0.413221 0.719030 0.192702
O O13 0.144126 0.500000 0.799111
O O14 0.137366 0.777517 0.740084
O O15 0.000000 0.645258 0.783466
O O16 0.669151 0.500000 0.118518
O O17 0.750000 0.250000 0.148527
O O18 0.500000 0.316672 0.648303
O O19 0.633356 0.500000 0.641407
#
# Coordination Sequence:
#
# PCOD8173273 Si02
#       7
#     4   8   8   4   8   8   8
#     4  10  24  44  66  91 122 155 192 239 294 355
#     4  11  23  41  64  92 122 158 199 243 296 355
#     4  10  20  34  54  79 110 151 194 241 293 344
#     4  10  24  42  64  91 120 155 192 235 296 355
#     4   9  19  34  52  77 111 153 199 244 291 341
#     4  10  21  39  60  87 120 156 195 241 293 348
#     4  10  20  35  57  85 117 157 202 247 297 349
#
# _framework density 20.282529
#
# number of rings (size 3 to 8) (size 9 to 14) (size 15 to 20)
#    0.000    2.000    0.833    3.000    1.167    6.000 
#    0.000    5.000    0.000    0.000    0.000    0.000 
#    0.000    0.000    0.000    0.000    0.000    0.000 
#
# Total GULP energy -297540.514557 kJ/mol
# GULP energy per Si atom -12397.521440 kJ/mol
# Density = 2.023636 g / cm^3
# Si number density = 20.282529 Si / 1000 Ang^3
#
#
#
# Elastic Constant Matrix: (Units=GPa)
#
#
# Indices 1 2 3 4 5 6 
#
# 1 96.5537 41.2207 59.7070 0.0000 0.0000 0.0000
# 2 41.2207 85.2513 44.8936 0.0000 0.0000 0.0000
# 3 59.7070 44.8936 139.1674 0.0000 0.0000 0.0000
# 4 0.0000 0.0000 0.0000 35.1938 0.0000 0.0000
# 5 0.0000 0.0000 0.0000 0.0000 15.6602 0.0000
# 6 0.0000 0.0000 0.0000 0.0000 0.0000 28.0190
#
#
#
# Elastic Compliance Matrix: (Units=1/GPa)
#
#
# Indices 1 2 3 4 5 6 
#
# 1 0.015595 -0.004839 -0.005130 0.000000 0.000000 0.000000
# 2 -0.004839 0.015632 -0.002967 0.000000 0.000000 0.000000
# 3 -0.005130 -0.002967 0.010343 0.000000 0.000000 0.000000
# 4 0.000000 0.000000 0.000000 0.028414 0.000000 0.000000
# 5 0.000000 0.000000 0.000000 0.000000 0.063856 0.000000
# 6 0.000000 0.000000 0.000000 0.000000 0.000000 0.035690
#
#
# Mechanical properties :
#
#
# Convention : Reuss Voigt Hill
#
# Bulk Modulus (GPa) = 63.69591 68.06833 65.88212
# Shear Modulus (GPa) = 24.92092 27.45133 26.18612
#
# Velocity S-wave (km/s) = 3.50907 3.68291 3.59704
# Velocity P-wave (km/s) = 6.92030 7.19153 7.05722
#
# Compressibility (1/GPa) = 0.01569960
#
# Stress axis : x y z
#
# Youngs Moduli (GPa) = 64.12333 63.97107 96.68070
#
# Poissons Ratio (x) = 0.30957 0.49594
# Poissons Ratio (y) = 0.31031 0.28681
# Poissons Ratio (z) = 0.32893 0.18977
#
# Static dielectric constant tensor:
#      x y z
#    x 3.738540 0.000000 0.000000 
#    y 0.000000 3.771960 0.000000 
#    z 0.000000 0.000000 3.831160 
# 
# 
# High freq. dielectric constant tensor:
#      x y z
#    x 1.786890 0.000000 0.000000 
#    y 0.000000 1.795260 0.000000 
#    z 0.000000 0.000000 1.794920 
# 
# From -- ./inp_files/17092.got.cif
#   From: 2010.03.12/outbox.cif.g09.slc.cpg/sg35_9_cif.got.tgz:17092.got - 2010.04.14 02:02:04.
