data_PCOD8173104
_publ_section_title
;
Structure prediction by ZEFSAII (Michael W. Deem and Ramdas Pophale) SiO2 
 PCOD8173104
Probable space group: C M M 2
;
_chemical_formula_sum "Si O2"
_cell_formula_units_Z 64
_cell_length_a 8.785507
_cell_length_b 20.058404
_cell_length_c 19.772882
_cell_angle_alpha 90.000000
_cell_angle_beta 90.000000
_cell_angle_gamma 90.000000
_cell_volume 3484.441503
_symmetry_space_group_name_H-M "C M M 2"
_symmetry_group_IT_number 35
_symmetry_cell_setting 'orthorhombic'
loop_
_space_group_symop_operation_xyz
x,y,z
-x,-y,z
-x,y,z
x,-y,z
1/2+x,1/2+y,z
1/2-x,1/2-y,z
1/2-x,1/2+y,z
1/2+x,1/2-y,z
loop_
_atom_site_type_symbol
_atom_site_label
_atom_site_fract_x
_atom_site_fract_y
_atom_site_fract_z
Si Si1 0.677781 0.318364 0.330920
Si Si2 0.674795 0.923489 0.236189
Si Si3 0.680486 0.426679 0.587876
Si Si4 0.823896 0.922190 0.740442
Si Si5 0.179714 0.319607 0.839481
Si Si6 0.680499 0.319005 0.483653
Si Si7 0.175314 0.423090 0.080209
Si Si8 0.820578 0.180721 0.983664
O O1 0.500000 0.307612 0.330065
O O2 0.750000 0.250000 0.303524
O O3 0.719087 0.379069 0.282799
O O4 0.734572 0.334284 0.407085
O O5 0.500000 0.907233 0.252421
O O6 0.710843 0.908029 0.158301
O O7 0.711935 0.000000 0.252721
O O8 0.500000 0.429820 0.582261
O O9 0.748088 0.500000 0.572255
O O10 0.724648 0.404700 0.663710
O O11 0.748077 0.375819 0.532811
O O12 0.717495 0.878817 0.788386
O O13 0.000000 0.904018 0.753281
O O14 0.795498 0.000000 0.755513
O O15 0.250000 0.250000 0.813029
O O16 0.000000 0.311434 0.846264
O O17 0.248761 0.338721 0.911932
O O18 0.500000 0.315065 0.488964
O O19 0.750000 0.250000 0.509404
O O20 0.210107 0.500000 0.063388
O O21 0.285852 0.377681 0.036239
O O22 0.000000 0.406491 0.063636
O O23 0.750000 0.250000 0.010645
O O24 0.000000 0.189238 0.975500
#
# Coordination Sequence:
#
# PCOD8173104 Si02
#       8
#     8   8   8   8   8   8   8   8
#     4  10  20  33  51  75 104 138 175 217 259 305
#     4   9  19  36  56  77 104 137 171 211 259 309
#     4   8  15  30  52  75 100 132 169 209 253 302
#     4   9  18  34  55  78 105 137 173 212 255 306
#     4  11  22  37  56  77 105 138 173 214 258 305
#     4   9  18  32  50  73 101 133 170 211 256 304
#     4   9  19  37  58  79 105 137 172 210 255 307
#     4  11  22  37  57  80 107 137 172 213 256 304
#
# _framework density 18.367363000000001
#
# number of rings (size 3 to 8) (size 9 to 14) (size 15 to 20)
#    0.000    2.500    0.000    4.875    0.000    3.750 
#    0.000    4.375    0.000    1.125    0.000    0.000 
#    0.000    0.000    0.000    0.000    0.000    0.000 
#
# Total GULP energy -396822.757386 kJ/mol
# GULP energy per Si atom -12400.711168 kJ/mol
# Density = 1.832556 g / cm^3
# Si number density = 18.367363 Si / 1000 Ang^3
#
#
#
# Elastic Constant Matrix: (Units=GPa)
#
#
# Indices 1 2 3 4 5 6 
#
# 1 84.7742 45.2557 41.0224 0.0000 0.0000 0.0000
# 2 45.2557 115.1030 77.1048 0.0000 0.0000 0.0000
# 3 41.0224 77.1048 95.3179 0.0000 0.0000 0.0000
# 4 0.0000 0.0000 0.0000 46.2330 0.0000 0.0000
# 5 0.0000 0.0000 0.0000 0.0000 22.6357 0.0000
# 6 0.0000 0.0000 0.0000 0.0000 0.0000 31.4234
#
#
#
# Elastic Compliance Matrix: (Units=1/GPa)
#
#
# Indices 1 2 3 4 5 6 
#
# 1 0.015539 -0.003557 -0.003810 0.000000 0.000000 0.000000
# 2 -0.003557 0.019778 -0.014468 0.000000 0.000000 0.000000
# 3 -0.003810 -0.014468 0.023835 0.000000 0.000000 0.000000
# 4 0.000000 0.000000 0.000000 0.021630 0.000000 0.000000
# 5 0.000000 0.000000 0.000000 0.000000 0.044178 0.000000
# 6 0.000000 0.000000 0.000000 0.000000 0.000000 0.031823
#
#
# Mechanical properties :
#
#
# Convention : Reuss Voigt Hill
#
# Bulk Modulus (GPa) = 64.59596 69.10678 66.85137
# Shear Modulus (GPa) = 24.31741 28.84589 26.58165
#
# Velocity S-wave (km/s) = 3.64256 3.96725 3.80836
# Velocity P-wave (km/s) = 7.27573 7.66106 7.47088
#
# Compressibility (1/GPa) = 0.01548084
#
# Stress axis : x y z
#
# Youngs Moduli (GPa) = 64.35562 50.56000 41.95578
#
# Poissons Ratio (x) = 0.17986 0.15985
# Poissons Ratio (y) = 0.22893 0.60703
# Poissons Ratio (z) = 0.24519 0.73152
#
# Static dielectric constant tensor:
#      x y z
#    x 3.187860 0.000000 0.000000 
#    y 0.000000 3.260940 0.000000 
#    z 0.000000 0.000000 3.424620 
# 
# 
# High freq. dielectric constant tensor:
#      x y z
#    x 1.700420 0.000000 0.000000 
#    y 0.000000 1.717240 0.000000 
#    z 0.000000 0.000000 1.712960 
# 
# From -- ./inp_files/18430.got.cif
#   From: 2010.03.12/outbox.cif.g09.slc.cpg/sg35_10_cif.got.tgz:18430.got - 2010.04.14 02:02:04.
