data_PCOD8173850
_publ_section_title
;
Structure prediction by ZEFSAII (Michael W. Deem and Ramdas Pophale) SiO2 
 PCOD8173850
Probable space group: C M M 2
;
_chemical_formula_sum "Si O2"
_cell_formula_units_Z 48
_cell_length_a 8.686646
_cell_length_b 29.934631
_cell_length_c 9.436072
_cell_angle_alpha 90.000000
_cell_angle_beta 90.000000
_cell_angle_gamma 90.000000
_cell_volume 2453.676359
_symmetry_space_group_name_H-M "C M M 2"
_symmetry_group_IT_number 35
_symmetry_cell_setting 'orthorhombic'
loop_
_space_group_symop_operation_xyz
x,y,z
-x,-y,z
-x,y,z
x,-y,z
1/2+x,1/2+y,z
1/2-x,1/2-y,z
1/2-x,1/2+y,z
1/2+x,1/2-y,z
loop_
_atom_site_type_symbol
_atom_site_label
_atom_site_fract_x
_atom_site_fract_y
_atom_site_fract_z
Si Si1 0.320447 0.620438 0.236490
Si Si2 0.321926 0.447861 0.732852
Si Si3 0.681086 0.296838 0.427318
Si Si4 0.677970 0.948656 0.438687
Si Si5 0.320541 0.877521 0.932564
Si Si6 0.818952 0.703135 0.728899
O O1 0.500000 0.610651 0.254954
O O2 0.271671 0.666157 0.313178
O O3 0.227048 0.579435 0.302545
O O4 0.279807 0.624599 0.073009
O O5 0.500000 0.436173 0.756075
O O6 0.287393 0.500000 0.754313
O O7 0.274983 0.432868 0.574876
O O8 0.219693 0.422134 0.846873
O O9 0.500000 0.291588 0.443343
O O10 0.750000 0.250000 0.374260
O O11 0.749183 0.311161 0.578438
O O12 0.500000 0.940637 0.474043
O O13 0.712192 0.000000 0.401706
O O14 0.500000 0.877890 0.971078
O O15 0.274017 0.834380 0.841580
O O16 0.750000 0.750000 0.782429
O O17 0.000000 0.708267 0.710691
#
# Coordination Sequence:
#
# PCOD8173850 Si02
#       6
#     8   8   8   8   8   8
#     4  11  24  39  57  83 115 152 190 231 282 337
#     4  10  21  38  61  87 114 147 188 233 280 332
#     4  10  21  37  59  85 111 144 186 231 279 331
#     4  10  21  38  61  87 114 147 188 233 280 332
#     4  11  24  39  57  83 115 152 190 231 282 337
#     4  10  21  37  59  85 111 144 186 231 279 331
#
# _framework density 19.562483
#
# number of rings (size 3 to 8) (size 9 to 14) (size 15 to 20)
#    0.000    1.667    0.000    5.000    0.000   11.333 
#    0.000    3.333    0.000    0.000    0.000    0.000 
#    0.000    0.000    0.000    0.000    0.000    0.000 
#
# Total GULP energy -297758.510071 kJ/mol
# GULP energy per Si atom -12406.604586 kJ/mol
# Density = 1.951796 g / cm^3
# Si number density = 19.562483 Si / 1000 Ang^3
#
#
#
# Elastic Constant Matrix: (Units=GPa)
#
#
# Indices 1 2 3 4 5 6 
#
# 1 67.7970 43.9678 25.9479 0.0000 0.0000 0.0000
# 2 43.9678 104.8778 66.6841 0.0000 0.0000 0.0000
# 3 25.9479 66.6841 111.2597 0.0000 0.0000 0.0000
# 4 0.0000 0.0000 0.0000 16.3189 0.0000 0.0000
# 5 0.0000 0.0000 0.0000 0.0000 36.1701 0.0000
# 6 0.0000 0.0000 0.0000 0.0000 0.0000 28.1127
#
#
#
# Elastic Compliance Matrix: (Units=1/GPa)
#
#
# Indices 1 2 3 4 5 6 
#
# 1 0.020282 -0.008879 0.000591 0.000000 0.000000 0.000000
# 2 -0.008879 0.019293 -0.009492 0.000000 0.000000 0.000000
# 3 0.000591 -0.009492 0.014539 0.000000 0.000000 0.000000
# 4 0.000000 0.000000 0.000000 0.061279 0.000000 0.000000
# 5 0.000000 0.000000 0.000000 0.000000 0.027647 0.000000
# 6 0.000000 0.000000 0.000000 0.000000 0.000000 0.035571
#
#
# Mechanical properties :
#
#
# Convention : Reuss Voigt Hill
#
# Bulk Modulus (GPa) = 53.89615 61.90380 57.89997
# Shear Modulus (GPa) = 22.69067 25.94265 24.31666
#
# Velocity S-wave (km/s) = 3.40944 3.64558 3.52948
# Velocity P-wave (km/s) = 6.56579 7.03087 6.80231
#
# Compressibility (1/GPa) = 0.01855420
#
# Stress axis : x y z
#
# Youngs Moduli (GPa) = 49.30583 51.83314 68.77847
#
# Poissons Ratio (x) = 0.46021 -0.04068
# Poissons Ratio (y) = 0.43777 0.65288
# Poissons Ratio (z) = -0.02916 0.49203
#
# Static dielectric constant tensor:
#      x y z
#    x 3.637120 0.000000 0.000000 
#    y 0.000000 3.707610 0.000000 
#    z 0.000000 0.000000 3.458390 
# 
# 
# High freq. dielectric constant tensor:
#      x y z
#    x 1.777380 0.000000 0.000000 
#    y 0.000000 1.773530 0.000000 
#    z 0.000000 0.000000 1.757370 
# 
# From -- ./inp_files/5277.got.cif
#   From: 2010.03.12/outbox.cif.g09.slc.cpg/sg35_3_cif.got.tgz:5277.got - 2010.04.14 02:02:04.
