data_PCOD8173457
_publ_section_title
;
Structure prediction by ZEFSAII (Michael W. Deem and Ramdas Pophale) SiO2 
 PCOD8173457
Probable space group: C M M 2
;
_chemical_formula_sum "Si O2"
_cell_formula_units_Z 48
_cell_length_a 15.802532
_cell_length_b 8.640036
_cell_length_c 17.246971
_cell_angle_alpha 90.000000
_cell_angle_beta 90.000000
_cell_angle_gamma 90.000000
_cell_volume 2354.805620
_symmetry_space_group_name_H-M "C M M 2"
_symmetry_group_IT_number 35
_symmetry_cell_setting 'orthorhombic'
loop_
_space_group_symop_operation_xyz
x,y,z
-x,-y,z
-x,y,z
x,-y,z
1/2+x,1/2+y,z
1/2-x,1/2-y,z
1/2-x,1/2+y,z
1/2+x,1/2-y,z
loop_
_atom_site_type_symbol
_atom_site_label
_atom_site_fract_x
_atom_site_fract_y
_atom_site_fract_z
Si Si1 0.656371 0.817673 0.450170
Si Si2 0.342037 0.683396 0.075406
Si Si3 0.340555 0.316334 0.604767
Si Si4 0.839004 0.681106 0.911661
Si Si5 0.000000 0.181882 0.173708
Si Si6 0.500000 0.180059 0.341130
Si Si7 0.095675 0.169851 0.765903
O O1 0.750000 0.750000 0.428711
O O2 0.611789 0.747866 0.528585
O O3 0.587026 0.776013 0.384906
O O4 0.667222 0.000000 0.460411
O O5 0.334844 0.500000 0.076915
O O6 0.250000 0.750000 0.098357
O O7 0.414319 0.747289 0.133327
O O8 0.370436 0.736330 0.989650
O O9 0.346591 0.500000 0.607798
O O10 0.250000 0.250000 0.585713
O O11 0.366829 0.249095 0.688649
O O12 0.833655 0.500000 0.927813
O O13 0.750000 0.750000 0.885083
O O14 0.899766 0.717380 0.839647
O O15 0.000000 0.223100 0.262855
O O16 0.000000 0.000000 0.161844
O O17 0.500000 0.000000 0.320622
O O18 0.000000 0.141392 0.744558
O O19 0.137696 0.000000 0.783024
#
# Coordination Sequence:
#
# PCOD8173457 Si02
#       7
#     8   8   8   8   4   4   8
#     4  10  21  39  61  88 119 156 196 241 293 348
#     4  10  21  40  63  90 120 157 197 242 295 351
#     4  10  20  35  57  82 110 150 194 238 287 340
#     4  11  22  37  58  84 112 151 197 240 289 344
#     4  10  24  42  64  91 120 155 194 235 294 357
#     4  10  24  42  62  89 122 155 190 237 296 351
#     4  10  22  37  53  79 116 154 193 240 291 340
#
# _framework density 20.383848
#
# number of rings (size 3 to 8) (size 9 to 14) (size 15 to 20)
#    0.000    1.833    0.000    5.500    2.333    6.333 
#    0.000    3.333    0.000    0.000    0.000    0.000 
#    0.000    0.000    0.000    0.000    0.000    0.000 
#
# Total GULP energy -297430.962040 kJ/mol
# GULP energy per Si atom -12392.956752 kJ/mol
# Density = 2.033745 g / cm^3
# Si number density = 20.383848 Si / 1000 Ang^3
#
#
#
# Elastic Constant Matrix: (Units=GPa)
#
#
# Indices 1 2 3 4 5 6 
#
# 1 99.0930 31.6969 64.6403 0.0000 0.0000 0.0000
# 2 31.6969 80.5991 34.4190 0.0000 0.0000 0.0000
# 3 64.6403 34.4190 144.4118 0.0000 0.0000 0.0000
# 4 0.0000 0.0000 0.0000 29.3522 0.0000 0.0000
# 5 0.0000 0.0000 0.0000 0.0000 39.2814 0.0000
# 6 0.0000 0.0000 0.0000 0.0000 0.0000 23.4425
#
#
#
# Elastic Compliance Matrix: (Units=1/GPa)
#
#
# Indices 1 2 3 4 5 6 
#
# 1 0.015039 -0.003384 -0.005925 0.000000 0.000000 0.000000
# 2 -0.003384 0.014574 -0.001959 0.000000 0.000000 0.000000
# 3 -0.005925 -0.001959 0.010044 0.000000 0.000000 0.000000
# 4 0.000000 0.000000 0.000000 0.034069 0.000000 0.000000
# 5 0.000000 0.000000 0.000000 0.000000 0.025457 0.000000
# 6 0.000000 0.000000 0.000000 0.000000 0.000000 0.042658
#
#
# Mechanical properties :
#
#
# Convention : Reuss Voigt Hill
#
# Bulk Modulus (GPa) = 58.40781 65.06846 61.73814
# Shear Modulus (GPa) = 29.39720 31.30507 30.35113
#
# Velocity S-wave (km/s) = 3.80173 3.92315 3.86292
# Velocity P-wave (km/s) = 6.92726 7.24654 7.08870
#
# Compressibility (1/GPa) = 0.01712100
#
# Stress axis : x y z
#
# Youngs Moduli (GPa) = 66.49360 68.61319 99.56542
#
# Poissons Ratio (x) = 0.23219 0.58993
# Poissons Ratio (y) = 0.22502 0.19504
# Poissons Ratio (z) = 0.39398 0.13441
#
# Static dielectric constant tensor:
#      x y z
#    x 3.790890 0.000000 0.000000 
#    y 0.000000 3.653210 0.000000 
#    z 0.000000 0.000000 3.767750 
# 
# 
# High freq. dielectric constant tensor:
#      x y z
#    x 1.794100 0.000000 0.000000 
#    y 0.000000 1.794890 0.000000 
#    z 0.000000 0.000000 1.804010 
# 
# From -- ./inp_files/17123.got.cif
#   From: 2010.03.12/outbox.cif.g09.slc.cpg/sg35_9_cif.got.tgz:17123.got - 2010.04.14 02:02:04.
