data_PCOD8173656
_publ_section_title
;
Structure prediction by ZEFSAII (Michael W. Deem and Ramdas Pophale) SiO2 
 PCOD8173656
Probable space group: C M M 2
;
_chemical_formula_sum "Si O2"
_cell_formula_units_Z 48
_cell_length_a 15.466153
_cell_length_b 8.670596
_cell_length_c 18.479048
_cell_angle_alpha 90.000000
_cell_angle_beta 90.000000
_cell_angle_gamma 90.000000
_cell_volume 2478.054461
_symmetry_space_group_name_H-M "C M M 2"
_symmetry_group_IT_number 35
_symmetry_cell_setting 'orthorhombic'
loop_
_space_group_symop_operation_xyz
x,y,z
-x,-y,z
-x,y,z
x,-y,z
1/2+x,1/2+y,z
1/2-x,1/2-y,z
1/2-x,1/2+y,z
1/2+x,1/2-y,z
loop_
_atom_site_type_symbol
_atom_site_label
_atom_site_fract_x
_atom_site_fract_y
_atom_site_fract_z
Si Si1 0.500000 0.817846 0.952131
Si Si2 0.000000 0.318498 0.289603
Si Si3 0.840511 0.821536 0.035554
Si Si4 0.500000 0.183823 0.788655
Si Si5 0.340766 0.182382 0.531914
Si Si6 0.658420 0.680076 0.204858
Si Si7 0.160213 0.682057 0.696938
Si Si8 0.500000 0.318499 0.446592
O O1 0.500000 0.753420 0.870313
O O2 0.500000 0.000000 0.952204
O O3 0.584713 0.760847 0.992028
O O4 0.084692 0.274173 0.245039
O O5 0.000000 0.223107 0.362904
O O6 0.000000 0.500000 0.305607
O O7 0.750000 0.750000 0.010565
O O8 0.856585 0.793883 0.120061
O O9 0.840422 0.000000 0.015672
O O10 0.584295 0.248352 0.747400
O O11 0.500000 0.000000 0.786106
O O12 0.250000 0.250000 0.504135
O O13 0.357812 0.234383 0.614555
O O14 0.415205 0.249192 0.482440
O O15 0.339212 0.000000 0.523987
O O16 0.654423 0.500000 0.225376
O O17 0.750000 0.750000 0.229342
O O18 0.165608 0.500000 0.701945
O O19 0.250000 0.750000 0.725930
O O20 0.500000 0.500000 0.456961
#
# Coordination Sequence:
#
# PCOD8173656 Si02
#       8
#     4   4   8   4   8   8   8   4
#     4  11  22  35  54  81 116 153 190 231 280 336
#     4  12  25  40  59  85 117 152 187 226 276 334
#     4  10  21  38  60  84 112 146 188 234 281 332
#     4   9  19  35  53  77 111 151 186 223 276 334
#     4  10  20  37  61  87 113 145 186 233 282 334
#     4  10  21  39  62  87 113 145 186 233 281 332
#     4   9  18  35  58  81 108 142 183 229 278 330
#     4  12  25  40  58  83 116 152 189 230 276 330
#
# _framework density 19.370032999999999
#
# number of rings (size 3 to 8) (size 9 to 14) (size 15 to 20)
#    0.000    1.833    0.000    4.250    0.000    7.333 
#    0.000    7.083    0.000    0.000    0.000    0.000 
#    0.000    0.000    0.000    0.000    0.000    0.000 
#
# Total GULP energy -297699.418347 kJ/mol
# GULP energy per Si atom -12404.142431 kJ/mol
# Density = 1.932595 g / cm^3
# Si number density = 19.370033 Si / 1000 Ang^3
#
#
#
# Elastic Constant Matrix: (Units=GPa)
#
#
# Indices 1 2 3 4 5 6 
#
# 1 176.5718 40.9869 70.9101 0.0000 0.0000 0.0000
# 2 40.9869 71.0611 27.4311 0.0000 0.0000 0.0000
# 3 70.9101 27.4311 74.9753 0.0000 0.0000 0.0000
# 4 0.0000 0.0000 0.0000 24.8757 0.0000 0.0000
# 5 0.0000 0.0000 0.0000 0.0000 -178.3333 0.0000
# 6 0.0000 0.0000 0.0000 0.0000 0.0000 39.9245
#
#
#
# Elastic Compliance Matrix: (Units=1/GPa)
#
#
# Indices 1 2 3 4 5 6 
#
# 1 0.009452 -0.002330 -0.008087 0.000000 0.000000 0.000000
# 2 -0.002330 0.016961 -0.004002 0.000000 0.000000 0.000000
# 3 -0.008087 -0.004002 0.022450 0.000000 0.000000 0.000000
# 4 0.000000 0.000000 0.000000 0.040200 0.000000 0.000000
# 5 0.000000 0.000000 0.000000 0.000000 -0.005607 0.000000
# 6 0.000000 0.000000 0.000000 0.000000 0.000000 0.025047
#
#
# Mechanical properties :
#
#
# Convention : Reuss Voigt Hill
#
# Bulk Modulus (GPa) = 49.93575 66.80716 58.37145
# Shear Modulus (GPa) = 34.71833 -10.48795 12.11519
#
# Velocity S-wave (km/s) = 4.23824 -2.32944 2.50363
# Velocity P-wave (km/s) = 7.05592 5.22779 6.20950
#
# Compressibility (1/GPa) = 0.02002573
#
# Stress axis : x y z
#
# Youngs Moduli (GPa) = 105.79818 58.95839 44.54262
#
# Poissons Ratio (x) = 0.13737 0.36022
# Poissons Ratio (y) = 0.24651 0.17825
# Poissons Ratio (z) = 0.85559 0.23595
#
# Static dielectric constant tensor:
#      x y z
#    x 3.932760 0.000000 0.000000 
#    y 0.000000 3.567940 0.000000 
#    z 0.000000 0.000000 3.613600 
# 
# 
# High freq. dielectric constant tensor:
#      x y z
#    x 1.773060 0.000000 0.000000 
#    y 0.000000 1.757290 0.000000 
#    z 0.000000 0.000000 1.750580 
# 
# From -- ./inp_files/17982.got.cif
#   From: 2010.03.12/outbox.cif.g09.slc.cpg/sg35_9_cif.got.tgz:17982.got - 2010.04.14 02:02:04.
