data_PCOD8173645
_publ_section_title
;
Structure prediction by ZEFSAII (Michael W. Deem and Ramdas Pophale) SiO2 
 PCOD8173645
Probable space group: C M M 2
;
_chemical_formula_sum "Si O2"
_cell_formula_units_Z 48
_cell_length_a 14.924376
_cell_length_b 8.763474
_cell_length_c 18.865578
_cell_angle_alpha 90.000000
_cell_angle_beta 90.000000
_cell_angle_gamma 90.000000
_cell_volume 2467.417270
_symmetry_space_group_name_H-M "C M M 2"
_symmetry_group_IT_number 35
_symmetry_cell_setting 'orthorhombic'
loop_
_space_group_symop_operation_xyz
x,y,z
-x,-y,z
-x,y,z
x,-y,z
1/2+x,1/2+y,z
1/2-x,1/2-y,z
1/2-x,1/2+y,z
1/2+x,1/2-y,z
loop_
_atom_site_type_symbol
_atom_site_label
_atom_site_fract_x
_atom_site_fract_y
_atom_site_fract_z
Si Si1 0.500000 0.821232 0.670531
Si Si2 0.605574 0.327189 0.915215
Si Si3 0.343286 0.318835 0.759274
Si Si4 0.150061 0.179001 0.407703
Si Si5 0.839789 0.320883 0.056925
Si Si6 0.000000 0.681614 0.311954
Si Si7 0.500000 0.818617 0.150501
Si Si8 0.500000 0.325352 0.522070
O O1 0.586341 0.745942 0.704485
O O2 0.500000 0.790302 0.587002
O O3 0.500000 0.000000 0.685112
O O4 0.500000 0.317732 0.920188
O O5 0.639498 0.500000 0.926431
O O6 0.635632 0.263452 0.838990
O O7 0.648189 0.221778 0.974832
O O8 0.344038 0.500000 0.754675
O O9 0.250000 0.250000 0.734261
O O10 0.250000 0.250000 0.414473
O O11 0.092272 0.254110 0.344694
O O12 0.091156 0.207299 0.478233
O O13 0.160510 0.000000 0.392160
O O14 0.836050 0.500000 0.062661
O O15 0.750000 0.250000 0.087788
O O16 0.915696 0.252038 0.107728
O O17 0.000000 0.500000 0.319824
O O18 0.000000 0.738202 0.230891
O O19 0.500000 0.000000 0.147748
O O20 0.500000 0.500000 0.548588
#
# Coordination Sequence:
#
# PCOD8173645 Si02
#       8
#     4   8   8   8   8   4   4   4
#     4  12  25  40  61  89 121 158 197 238 290 350
#     4  10  20  37  60  85 111 146 193 245 298 349
#     4  11  23  41  61  85 117 154 197 247 298 353
#     4  10  21  39  64  94 123 155 195 236 284 342
#     4  11  22  38  57  82 113 151 195 243 294 349
#     4  10  20  38  62  88 122 158 194 242 290 342
#     4   9  21  39  57  81 117 155 194 237 290 346
#     4   9  21  41  62  86 122 159 193 239 286 338
#
# _framework density 19.45354
#
# number of rings (size 3 to 8) (size 9 to 14) (size 15 to 20)
#    0.000    1.667    1.667    3.500    0.000    6.000 
#    0.000    6.667    0.000    0.000    0.000    0.000 
#    0.000    0.000    0.000    0.000    0.000    0.000 
#
# Total GULP energy -297622.355807 kJ/mol
# GULP energy per Si atom -12400.931492 kJ/mol
# Density = 1.940926 g / cm^3
# Si number density = 19.453540 Si / 1000 Ang^3
#
#
#
# Elastic Constant Matrix: (Units=GPa)
#
#
# Indices 1 2 3 4 5 6 
#
# 1 170.0262 52.5293 68.8221 0.0000 0.0000 0.0000
# 2 52.5293 91.8715 46.9065 0.0000 0.0000 0.0000
# 3 68.8221 46.9065 129.7148 0.0000 0.0000 0.0000
# 4 0.0000 0.0000 0.0000 48.2249 0.0000 0.0000
# 5 0.0000 0.0000 0.0000 0.0000 31.4067 0.0000
# 6 0.0000 0.0000 0.0000 0.0000 0.0000 28.4339
#
#
#
# Elastic Compliance Matrix: (Units=1/GPa)
#
#
# Indices 1 2 3 4 5 6 
#
# 1 0.008110 -0.002993 -0.003221 0.000000 0.000000 0.000000
# 2 -0.002993 0.014454 -0.003639 0.000000 0.000000 0.000000
# 3 -0.003221 -0.003639 0.010734 0.000000 0.000000 0.000000
# 4 0.000000 0.000000 0.000000 0.020736 0.000000 0.000000
# 5 0.000000 0.000000 0.000000 0.000000 0.031840 0.000000
# 6 0.000000 0.000000 0.000000 0.000000 0.000000 0.035169
#
#
# Mechanical properties :
#
#
# Convention : Reuss Voigt Hill
#
# Bulk Modulus (GPa) = 73.56642 80.90317 77.23480
# Shear Modulus (GPa) = 34.41682 36.50341 35.46012
#
# Velocity S-wave (km/s) = 4.21073 4.33649 4.27407
# Velocity P-wave (km/s) = 7.84467 8.17017 8.00907
#
# Compressibility (1/GPa) = 0.01359316
#
# Stress axis : x y z
#
# Youngs Moduli (GPa) = 123.31130 69.18640 93.16374
#
# Poissons Ratio (x) = 0.20704 0.30004
# Poissons Ratio (y) = 0.36901 0.33902
# Poissons Ratio (z) = 0.39713 0.25176
#
# Static dielectric constant tensor:
#      x y z
#    x 3.812800 0.000000 0.000000 
#    y 0.000000 3.520270 0.000000 
#    z 0.000000 0.000000 3.582570 
# 
# 
# High freq. dielectric constant tensor:
#      x y z
#    x 1.774360 0.000000 0.000000 
#    y 0.000000 1.757420 0.000000 
#    z 0.000000 0.000000 1.754830 
# 
# From -- ./inp_files/17960.got.cif
#   From: 2010.03.12/outbox.cif.g09.slc.cpg/sg35_9_cif.got.tgz:17960.got - 2010.04.14 02:02:04.
