data_PCOD8173354
_publ_section_title
;
Structure prediction by ZEFSAII (Michael W. Deem and Ramdas Pophale) SiO2 
 PCOD8173354
Probable space group: C M M 2
;
_chemical_formula_sum "Si O2"
_cell_formula_units_Z 48
_cell_length_a 8.731474
_cell_length_b 27.789154
_cell_length_c 10.122623
_cell_angle_alpha 90.000000
_cell_angle_beta 90.000000
_cell_angle_gamma 90.000000
_cell_volume 2456.156035
_symmetry_space_group_name_H-M "C M M 2"
_symmetry_group_IT_number 35
_symmetry_cell_setting 'orthorhombic'
loop_
_space_group_symop_operation_xyz
x,y,z
-x,-y,z
-x,y,z
x,-y,z
1/2+x,1/2+y,z
1/2-x,1/2-y,z
1/2-x,1/2+y,z
1/2+x,1/2-y,z
loop_
_atom_site_type_symbol
_atom_site_label
_atom_site_fract_x
_atom_site_fract_y
_atom_site_fract_z
Si Si1 0.821799 0.802166 0.945760
Si Si2 0.175436 0.445653 0.064953
Si Si3 0.821267 0.054417 0.785638
Si Si4 0.676634 0.638457 0.205161
Si Si5 0.179722 0.353557 0.702666
Si Si6 0.180866 0.801684 0.455760
O O1 0.750000 0.750000 0.936488
O O2 0.732596 0.836834 0.846620
O O3 0.000000 0.800148 0.907034
O O4 0.795755 0.822185 0.091980
O O5 0.198007 0.500000 0.117425
O O6 0.225126 0.409618 0.180978
O O7 0.000000 0.436270 0.024088
O O8 0.280117 0.435999 0.937878
O O9 0.729322 0.090484 0.689376
O O10 0.000000 0.064439 0.767960
O O11 0.777187 0.000000 0.745022
O O12 0.500000 0.623237 0.212944
O O13 0.733873 0.661475 0.341981
O O14 0.261424 0.320665 0.595355
O O15 0.000000 0.348135 0.684830
O O16 0.250000 0.750000 0.423929
O O17 0.000000 0.796395 0.459166
#
# Coordination Sequence:
#
# PCOD8173354 Si02
#       6
#     8   8   8   8   8   8
#     4  11  22  37  58  86 117 150 194 247 298 352
#     4  10  20  34  57  90 124 157 195 241 294 352
#     4  10  20  36  60  89 121 156 195 243 298 355
#     4  10  22  39  61  87 117 156 200 244 297 354
#     4  12  24  39  60  88 119 157 199 246 299 353
#     4  11  24  43  63  86 118 160 204 247 299 359
#
# _framework density 19.542731
#
# number of rings (size 3 to 8) (size 9 to 14) (size 15 to 20)
#    0.000    1.333    1.667    4.500    0.000    4.000 
#    0.000    0.833    0.000    1.000    0.000    0.000 
#    0.000    0.000    0.000    0.000    0.000    0.000 
#
# Total GULP energy -297729.739371 kJ/mol
# GULP energy per Si atom -12405.405807 kJ/mol
# Density = 1.949825 g / cm^3
# Si number density = 19.542731 Si / 1000 Ang^3
#
#
#
# Elastic Constant Matrix: (Units=GPa)
#
#
# Indices 1 2 3 4 5 6 
#
# 1 78.0737 46.9493 24.2506 0.0000 0.0000 0.0000
# 2 46.9493 117.6491 14.8615 0.0000 0.0000 0.0000
# 3 24.2506 14.8615 50.7576 0.0000 0.0000 0.0000
# 4 0.0000 0.0000 0.0000 32.5799 0.0000 0.0000
# 5 0.0000 0.0000 0.0000 0.0000 21.8343 0.0000
# 6 0.0000 0.0000 0.0000 0.0000 0.0000 38.0361
#
#
#
# Elastic Compliance Matrix: (Units=1/GPa)
#
#
# Indices 1 2 3 4 5 6 
#
# 1 0.019058 -0.006703 -0.007143 0.000000 0.000000 0.000000
# 2 -0.006703 0.011184 -0.000072 0.000000 0.000000 0.000000
# 3 -0.007143 -0.000072 0.023135 0.000000 0.000000 0.000000
# 4 0.000000 0.000000 0.000000 0.030694 0.000000 0.000000
# 5 0.000000 0.000000 0.000000 0.000000 0.045799 0.000000
# 6 0.000000 0.000000 0.000000 0.000000 0.000000 0.026291
#
#
# Mechanical properties :
#
#
# Convention : Reuss Voigt Hill
#
# Bulk Modulus (GPa) = 39.15221 46.51146 42.83184
# Shear Modulus (GPa) = 25.97264 29.18466 27.57865
#
# Velocity S-wave (km/s) = 3.64952 3.86862 3.76067
# Velocity P-wave (km/s) = 6.15113 6.61865 6.38916
#
# Compressibility (1/GPa) = 0.02554134
#
# Stress axis : x y z
#
# Youngs Moduli (GPa) = 52.47184 89.41447 43.22426
#
# Poissons Ratio (x) = 0.59935 0.30874
# Poissons Ratio (y) = 0.35172 0.00311
# Poissons Ratio (z) = 0.37479 0.00644
#
# Static dielectric constant tensor:
#      x y z
#    x 3.630540 0.000000 0.000000 
#    y 0.000000 3.793050 0.000000 
#    z 0.000000 0.000000 3.398620 
# 
# 
# High freq. dielectric constant tensor:
#      x y z
#    x 1.772190 0.000000 0.000000 
#    y 0.000000 1.779820 0.000000 
#    z 0.000000 0.000000 1.739190 
# 
# From -- ./inp_files/5327.got.cif
#   From: 2010.03.12/outbox.cif.g09.slc.cpg/sg35_3_cif.got.tgz:5327.got - 2010.04.14 02:02:04.
