data_PCOD8173184
_publ_section_title
;
Structure prediction by ZEFSAII (Michael W. Deem and Ramdas Pophale) SiO2 
 PCOD8173184
Probable space group: C M M 2
;
_chemical_formula_sum "Si O2"
_cell_formula_units_Z 64
_cell_length_a 8.868203
_cell_length_b 19.838894
_cell_length_c 20.073257
_cell_angle_alpha 90.000000
_cell_angle_beta 90.000000
_cell_angle_gamma 90.000000
_cell_volume 3531.595281
_symmetry_space_group_name_H-M "C M M 2"
_symmetry_group_IT_number 35
_symmetry_cell_setting 'orthorhombic'
loop_
_space_group_symop_operation_xyz
x,y,z
-x,-y,z
-x,y,z
x,-y,z
1/2+x,1/2+y,z
1/2-x,1/2-y,z
1/2-x,1/2+y,z
1/2+x,1/2-y,z
loop_
_atom_site_type_symbol
_atom_site_label
_atom_site_fract_x
_atom_site_fract_y
_atom_site_fract_z
Si Si1 0.822402 0.319594 0.631740
Si Si2 0.322297 0.181014 0.783284
Si Si3 0.674919 0.578421 0.533031
Si Si4 0.323218 0.576680 0.027373
Si Si5 0.320595 0.679222 0.141302
Si Si6 0.678697 0.179614 0.281320
Si Si7 0.825497 0.422871 0.396544
Si Si8 0.321669 0.075979 0.891270
O O1 0.750000 0.250000 0.605986
O O2 0.772094 0.334350 0.707651
O O3 0.766375 0.381576 0.588317
O O4 0.000000 0.312799 0.624805
O O5 0.500000 0.188561 0.788500
O O6 0.250000 0.250000 0.809212
O O7 0.261942 0.121141 0.830229
O O8 0.500000 0.595528 0.540053
O O9 0.709642 0.500000 0.544653
O O10 0.728636 0.600505 0.459825
O O11 0.500000 0.581930 0.015881
O O12 0.273310 0.500000 0.043086
O O13 0.271011 0.622873 0.088509
O O14 0.244361 0.603680 0.960505
O O15 0.500000 0.686194 0.147454
O O16 0.250000 0.750000 0.118130
O O17 0.251768 0.656857 0.211812
O O18 0.500000 0.187945 0.272715
O O19 0.750000 0.250000 0.305503
O O20 0.722033 0.122874 0.334542
O O21 0.789955 0.500000 0.377109
O O22 0.000000 0.413105 0.415053
O O23 0.500000 0.078965 0.896236
O O24 0.264412 0.000000 0.878131
#
# Coordination Sequence:
#
# PCOD8173184 Si02
#       8
#     8   8   8   8   8   8   8   8
#     4  10  20  35  55  77 104 138 173 213 259 307
#     4   9  19  34  52  75 102 132 167 207 251 300
#     4  10  21  36  54  78 107 137 172 214 256 303
#     4   9  19  35  52  72  99 131 167 205 247 295
#     4  10  20  34  52  73 100 132 165 204 247 295
#     4  10  20  34  53  76 102 131 165 206 249 297
#     4   9  19  36  55  75 101 134 171 209 251 300
#     4   9  18  33  52  74 100 130 166 207 248 293
#
# _framework density 18.122121
#
# number of rings (size 3 to 8) (size 9 to 14) (size 15 to 20)
#    0.000    2.500    0.000    2.250    0.000    5.750 
#    0.000    5.000    0.000    1.500    0.000    0.000 
#    0.000    0.000    0.000    0.000    0.000    0.000 
#
# Total GULP energy -396873.194864 kJ/mol
# GULP energy per Si atom -12402.287339 kJ/mol
# Density = 1.808087 g / cm^3
# Si number density = 18.122121 Si / 1000 Ang^3
#
#
#
# Elastic Constant Matrix: (Units=GPa)
#
#
# Indices 1 2 3 4 5 6 
#
# 1 60.9472 41.5256 46.0466 0.0000 0.0000 0.0000
# 2 41.5256 107.8853 89.9697 0.0000 0.0000 0.0000
# 3 46.0466 89.9697 127.9906 0.0000 0.0000 0.0000
# 4 0.0000 0.0000 0.0000 38.2078 0.0000 0.0000
# 5 0.0000 0.0000 0.0000 0.0000 30.6879 0.0000
# 6 0.0000 0.0000 0.0000 0.0000 0.0000 29.0500
#
#
#
# Elastic Compliance Matrix: (Units=1/GPa)
#
#
# Indices 1 2 3 4 5 6 
#
# 1 0.023528 -0.004826 -0.005072 0.000000 0.000000 0.000000
# 2 -0.004826 0.023390 -0.014706 0.000000 0.000000 0.000000
# 3 -0.005072 -0.014706 0.019975 0.000000 0.000000 0.000000
# 4 0.000000 0.000000 0.000000 0.026173 0.000000 0.000000
# 5 0.000000 0.000000 0.000000 0.000000 0.032586 0.000000
# 6 0.000000 0.000000 0.000000 0.000000 0.000000 0.034423
#
#
# Mechanical properties :
#
#
# Convention : Reuss Voigt Hill
#
# Bulk Modulus (GPa) = 56.54375 72.43410 64.48892
# Shear Modulus (GPa) = 23.23650 27.54122 25.38886
#
# Velocity S-wave (km/s) = 3.58469 3.90264 3.74704
# Velocity P-wave (km/s) = 6.95720 7.76944 7.37451
#
# Compressibility (1/GPa) = 0.01768542
#
# Stress axis : x y z
#
# Youngs Moduli (GPa) = 42.50267 42.75249 50.06263
#
# Poissons Ratio (x) = 0.20634 0.25391
# Poissons Ratio (y) = 0.20513 0.73621
# Poissons Ratio (z) = 0.21557 0.62871
#
# Static dielectric constant tensor:
#      x y z
#    x 3.336580 0.000000 0.000000 
#    y 0.000000 3.456290 0.000000 
#    z 0.000000 0.000000 3.432200 
# 
# 
# High freq. dielectric constant tensor:
#      x y z
#    x 1.705590 0.000000 0.000000 
#    y 0.000000 1.702940 0.000000 
#    z 0.000000 0.000000 1.704940 
# 
# From -- ./inp_files/18383.got.cif
#   From: 2010.03.12/outbox.cif.g09.slc.cpg/sg35_10_cif.got.tgz:18383.got - 2010.04.14 02:02:04.
