data_PCOD8173148
_publ_section_title
;
Structure prediction by ZEFSAII (Michael W. Deem and Ramdas Pophale) SiO2 
 PCOD8173148
Probable space group: C M M 2
;
_chemical_formula_sum "Si O2"
_cell_formula_units_Z 48
_cell_length_a 15.883147
_cell_length_b 8.532807
_cell_length_c 16.797295
_cell_angle_alpha 90.000000
_cell_angle_beta 90.000000
_cell_angle_gamma 90.000000
_cell_volume 2276.500906
_symmetry_space_group_name_H-M "C M M 2"
_symmetry_group_IT_number 35
_symmetry_cell_setting 'orthorhombic'
loop_
_space_group_symop_operation_xyz
x,y,z
-x,-y,z
-x,y,z
x,-y,z
1/2+x,1/2+y,z
1/2-x,1/2-y,z
1/2-x,1/2+y,z
1/2+x,1/2-y,z
loop_
_atom_site_type_symbol
_atom_site_label
_atom_site_fract_x
_atom_site_fract_y
_atom_site_fract_z
Si Si1 0.661190 0.814912 0.324670
Si Si2 0.595667 0.179187 0.822804
Si Si3 0.660712 0.682899 0.973688
Si Si4 0.000000 0.182985 0.235619
Si Si5 0.339587 0.815860 0.656169
Si Si6 0.000000 0.683918 0.062605
Si Si7 0.593715 0.186327 0.490618
O O1 0.750000 0.750000 0.292113
O O2 0.584336 0.754723 0.272298
O O3 0.650152 0.757910 0.416237
O O4 0.661806 0.000000 0.318336
O O5 0.500000 0.197454 0.850950
O O6 0.653189 0.288504 0.878593
O O7 0.601062 0.230402 0.730294
O O8 0.626644 0.000000 0.832744
O O9 0.655108 0.500000 0.993678
O O10 0.750000 0.750000 0.004628
O O11 0.584493 0.774785 0.014867
O O12 0.000000 0.216317 0.142557
O O13 0.000000 0.000000 0.252219
O O14 0.250000 0.750000 0.678715
O O15 0.372017 0.740497 0.573302
O O16 0.335452 0.000000 0.644597
O O17 0.000000 0.500000 0.081585
O O18 0.500000 0.251322 0.476496
O O19 0.591917 0.000000 0.495785
#
# Coordination Sequence:
#
# PCOD8173148 Si02
#       7
#     8   8   8   4   8   4   8
#     4  11  22  40  66  97 131 172 217 265 322 383
#     4  10  20  36  59  87 122 167 218 268 321 378
#     4  12  25  43  68  99 133 173 216 262 318 381
#     4  12  26  46  70  99 132 167 210 261 318 385
#     4  10  20  33  52  81 118 163 215 267 318 374
#     4  12  26  48  74 101 132 165 206 261 322 387
#     4   9  17  33  58  85 118 163 215 266 319 377
#
# _framework density 21.084990999999999
#
# number of rings (size 3 to 8) (size 9 to 14) (size 15 to 20)
#    0.000    1.333    1.667    5.000    0.000    4.667 
#    0.000    4.167    0.000    1.000    0.000    0.000 
#    0.000    0.000    0.000    0.000    0.000    0.000 
#
# Total GULP energy -297625.784453 kJ/mol
# GULP energy per Si atom -12401.074352 kJ/mol
# Density = 2.103700 g / cm^3
# Si number density = 21.084991 Si / 1000 Ang^3
#
#
#
# Elastic Constant Matrix: (Units=GPa)
#
#
# Indices 1 2 3 4 5 6 
#
# 1 150.9037 29.5625 40.2168 0.0000 0.0000 0.0000
# 2 29.5625 60.9165 17.1916 0.0000 0.0000 0.0000
# 3 40.2168 17.1916 103.2947 0.0000 0.0000 0.0000
# 4 0.0000 0.0000 0.0000 26.3364 0.0000 0.0000
# 5 0.0000 0.0000 0.0000 0.0000 21.2709 0.0000
# 6 0.0000 0.0000 0.0000 0.0000 0.0000 30.2907
#
#
#
# Elastic Compliance Matrix: (Units=1/GPa)
#
#
# Indices 1 2 3 4 5 6 
#
# 1 0.007922 -0.003120 -0.002565 0.000000 0.000000 0.000000
# 2 -0.003120 0.018454 -0.001856 0.000000 0.000000 0.000000
# 3 -0.002565 -0.001856 0.010989 0.000000 0.000000 0.000000
# 4 0.000000 0.000000 0.000000 0.037970 0.000000 0.000000
# 5 0.000000 0.000000 0.000000 0.000000 0.047013 0.000000
# 6 0.000000 0.000000 0.000000 0.000000 0.000000 0.033013
#
#
# Mechanical properties :
#
#
# Convention : Reuss Voigt Hill
#
# Bulk Modulus (GPa) = 44.88160 54.33962 49.61061
# Shear Modulus (GPa) = 28.11024 30.78921 29.44972
#
# Velocity S-wave (km/s) = 3.65524 3.82546 3.74132
# Velocity P-wave (km/s) = 6.25673 6.73349 6.49948
#
# Compressibility (1/GPa) = 0.02228085
#
# Stress axis : x y z
#
# Youngs Moduli (GPa) = 126.23708 54.18830 91.00333
#
# Poissons Ratio (x) = 0.16909 0.23341
# Poissons Ratio (y) = 0.39392 0.16894
# Poissons Ratio (z) = 0.32378 0.10060
#
# Static dielectric constant tensor:
#      x y z
#    x 3.897570 0.000000 0.000000 
#    y 0.000000 3.554700 0.000000 
#    z 0.000000 0.000000 3.986150 
# 
# 
# High freq. dielectric constant tensor:
#      x y z
#    x 1.838440 0.000000 0.000000 
#    y 0.000000 1.805180 0.000000 
#    z 0.000000 0.000000 1.833290 
# 
# From -- ./inp_files/18797.got.cif
#   From: 2010.03.12/outbox.cif.g09.slc.cpg/sg35_10_cif.got.tgz:18797.got - 2010.04.14 02:02:04.
