data_PCOD8173113
_publ_section_title
;
Structure prediction by ZEFSAII (Michael W. Deem and Ramdas Pophale) SiO2 
 PCOD8173113
Probable space group: C M M 2
;
_chemical_formula_sum "Si O2"
_cell_formula_units_Z 40
_cell_length_a 7.824031
_cell_length_b 19.495959
_cell_length_c 14.289011
_cell_angle_alpha 90.000000
_cell_angle_beta 90.000000
_cell_angle_gamma 90.000000
_cell_volume 2179.602694
_symmetry_space_group_name_H-M "C M M 2"
_symmetry_group_IT_number 35
_symmetry_cell_setting 'orthorhombic'
loop_
_space_group_symop_operation_xyz
x,y,z
-x,-y,z
-x,y,z
x,-y,z
1/2+x,1/2+y,z
1/2-x,1/2-y,z
1/2-x,1/2+y,z
1/2+x,1/2-y,z
loop_
_atom_site_type_symbol
_atom_site_label
_atom_site_fract_x
_atom_site_fract_y
_atom_site_fract_z
Si Si1 0.500000 0.918787 0.286801
Si Si2 0.695332 0.419784 0.418623
Si Si3 0.192669 0.672885 0.795516
Si Si4 0.697770 0.324980 0.591228
Si Si5 0.500000 0.081484 0.078233
Si Si6 0.309709 0.421347 0.951618
O O1 0.327071 0.894345 0.339136
O O2 0.500000 0.886731 0.182712
O O3 0.500000 0.000000 0.280680
O O4 0.500000 0.403199 0.387213
O O5 0.718166 0.500000 0.439403
O O6 0.744311 0.380493 0.513193
O O7 0.250000 0.750000 0.815210
O O8 0.203704 0.655297 0.685769
O O9 0.306877 0.621126 0.855552
O O10 0.000000 0.662991 0.829436
O O11 0.500000 0.325021 0.616969
O O12 0.750000 0.250000 0.553721
O O13 0.500000 0.000000 0.084795
O O14 0.328876 0.107330 0.025626
O O15 0.500000 0.414650 0.995485
O O16 0.267555 0.500000 0.926489
#
# Coordination Sequence:
#
# PCOD8173113 Si02
#       6
#     4   8   8   8   4   8
#     4   9  18  32  55  79 105 135 171 220 266 312
#     4   9  19  34  52  78 106 136 175 216 262 309
#     4  11  21  34  53  78 108 142 182 217 258 320
#     4  10  20  33  51  76 105 140 178 212 255 313
#     4   9  18  34  53  81 107 133 175 218 268 320
#     4  10  20  35  55  80 109 140 176 219 267 313
#
# _framework density 18.351969
#
# number of rings (size 3 to 8) (size 9 to 14) (size 15 to 20)
#    0.000    2.200    1.000    3.600    2.800    1.600 
#    0.000    6.000    0.000    1.200    0.000    0.000 
#    0.000    0.000    0.000    0.000    0.000    0.000 
#
# Total GULP energy -247998.328674 kJ/mol
# GULP energy per Si atom -12399.916434 kJ/mol
# Density = 1.831020 g / cm^3
# Si number density = 18.351969 Si / 1000 Ang^3
#
#
#
# Elastic Constant Matrix: (Units=GPa)
#
#
# Indices 1 2 3 4 5 6 
#
# 1 124.6068 32.7895 61.2193 0.0000 0.0000 0.0000
# 2 32.7895 53.9659 54.1602 0.0000 0.0000 0.0000
# 3 61.2193 54.1602 123.7899 0.0000 0.0000 0.0000
# 4 0.0000 0.0000 0.0000 9.0656 0.0000 0.0000
# 5 0.0000 0.0000 0.0000 0.0000 27.7641 0.0000
# 6 0.0000 0.0000 0.0000 0.0000 0.0000 22.2518
#
#
#
# Elastic Compliance Matrix: (Units=1/GPa)
#
#
# Indices 1 2 3 4 5 6 
#
# 1 0.010737 -0.002130 -0.004378 0.000000 0.000000 0.000000
# 2 -0.002130 0.033459 -0.013585 0.000000 0.000000 0.000000
# 3 -0.004378 -0.013585 0.016187 0.000000 0.000000 0.000000
# 4 0.000000 0.000000 0.000000 0.110307 0.000000 0.000000
# 5 0.000000 0.000000 0.000000 0.000000 0.036018 0.000000
# 6 0.000000 0.000000 0.000000 0.000000 0.000000 0.044940
#
#
# Mechanical properties :
#
#
# Convention : Reuss Voigt Hill
#
# Bulk Modulus (GPa) = 49.51471 66.52228 58.01849
# Shear Modulus (GPa) = 16.74676 22.09588 19.42132
#
# Velocity S-wave (km/s) = 3.02409 3.47364 3.25663
# Velocity P-wave (km/s) = 6.26360 7.23982 6.76933
#
# Compressibility (1/GPa) = 0.02019602
#
# Stress axis : x y z
#
# Youngs Moduli (GPa) = 93.14004 29.88763 61.77789
#
# Poissons Ratio (x) = 0.06366 0.27045
# Poissons Ratio (y) = 0.19838 0.83928
# Poissons Ratio (z) = 0.40775 0.40603
#
# Static dielectric constant tensor:
#      x y z
#    x 3.625850 0.000000 0.000000 
#    y 0.000000 3.141150 0.000000 
#    z 0.000000 0.000000 3.381960 
# 
# 
# High freq. dielectric constant tensor:
#      x y z
#    x 1.733680 0.000000 0.000000 
#    y 0.000000 1.684220 0.000000 
#    z 0.000000 0.000000 1.698860 
# 
# From -- ./inp_files/11237.got.cif
#   From: 2010.03.12/outbox.cif.g09.slc.cpg/sg35_6_cif.got.tgz:11237.got - 2010.04.14 02:02:04.
