data_PCOD8173196
_publ_section_title
;
Structure prediction by ZEFSAII (Michael W. Deem and Ramdas Pophale) SiO2 
 PCOD8173196
Probable space group: C M M 2
;
_chemical_formula_sum "Si O2"
_cell_formula_units_Z 64
_cell_length_a 28.254053
_cell_length_b 8.699762
_cell_length_c 15.479019
_cell_angle_alpha 90.000000
_cell_angle_beta 90.000000
_cell_angle_gamma 90.000000
_cell_volume 3804.797614
_symmetry_space_group_name_H-M "C M M 2"
_symmetry_group_IT_number 35
_symmetry_cell_setting 'orthorhombic'
loop_
_space_group_symop_operation_xyz
x,y,z
-x,-y,z
-x,y,z
x,-y,z
1/2+x,1/2+y,z
1/2-x,1/2-y,z
1/2-x,1/2+y,z
1/2+x,1/2-y,z
loop_
_atom_site_type_symbol
_atom_site_label
_atom_site_fract_x
_atom_site_fract_y
_atom_site_fract_z
Si Si1 0.858238 0.181606 0.902720
Si Si2 0.801932 0.179908 0.417164
Si Si3 0.553670 0.678337 0.640989
Si Si4 0.553446 0.822311 0.826225
Si Si5 0.197923 0.679579 0.056212
Si Si6 0.198893 0.319758 0.745082
Si Si7 0.198920 0.677502 0.247353
Si Si8 0.857599 0.322420 0.571542
O O1 0.910249 0.257191 0.896678
O O2 0.824103 0.239374 0.827287
O O3 0.862854 0.000000 0.897979
O O4 0.837421 0.231254 0.994201
O O5 0.750000 0.250000 0.429924
O O6 0.827078 0.239816 0.328151
O O7 0.834495 0.222366 0.497120
O O8 0.796357 0.000000 0.412268
O O9 0.500000 0.711237 0.611503
O O10 0.566702 0.500000 0.633649
O O11 0.561337 0.728183 0.739222
O O12 0.587442 0.775698 0.578398
O O13 0.500000 0.801608 0.861499
O O14 0.564797 0.000000 0.806485
O O15 0.200911 0.500000 0.031868
O O16 0.250000 0.750000 0.047301
O O17 0.175809 0.701750 0.152787
O O18 0.203043 0.500000 0.763655
O O19 0.250000 0.250000 0.727429
O O20 0.167307 0.283856 0.661917
O O21 0.203166 0.500000 0.270862
O O22 0.250000 0.750000 0.240963
O O23 0.852874 0.500000 0.546967
#
# Coordination Sequence:
#
# PCOD8173196 Si02
#       8
#     8   8   8   8   8   8   8   8
#     4  12  23  34  51  73 101 134 170 210 250 300
#     4  11  21  33  51  74 104 136 170 212 252 300
#     4  10  20  34  53  76 101 129 165 210 256 300
#     4  10  20  35  54  74  98 129 167 211 255 298
#     4  10  20  34  52  74 103 135 171 211 251 299
#     4  11  23  36  49  67  97 136 174 209 245 292
#     4   9  17  31  51  73  98 130 167 209 253 298
#     4  11  22  35  52  73 100 135 173 211 249 298
#
# _framework density 16.820868000000001
#
# number of rings (size 3 to 8) (size 9 to 14) (size 15 to 20)
#    0.000    1.500    1.250    6.000    0.000    5.500 
#    0.000    0.000    0.000    0.000    0.000    0.875 
#    0.000    1.000    0.000    0.000    0.000    0.000 
#
# Total GULP energy -396807.276212 kJ/mol
# GULP energy per Si atom -12400.227382 kJ/mol
# Density = 1.678258 g / cm^3
# Si number density = 16.820868 Si / 1000 Ang^3
#
#
#
# Elastic Constant Matrix: (Units=GPa)
#
#
# Indices 1 2 3 4 5 6 
#
# 1 87.0724 35.5467 32.2286 0.0000 0.0000 0.0000
# 2 35.5467 93.3854 35.4895 0.0000 0.0000 0.0000
# 3 32.2286 35.4895 86.7905 0.0000 0.0000 0.0000
# 4 0.0000 0.0000 0.0000 23.0626 0.0000 0.0000
# 5 0.0000 0.0000 0.0000 0.0000 2.2034 0.0000
# 6 0.0000 0.0000 0.0000 0.0000 0.0000 26.6596
#
#
#
# Elastic Compliance Matrix: (Units=1/GPa)
#
#
# Indices 1 2 3 4 5 6 
#
# 1 0.014543 -0.004124 -0.003714 0.000000 0.000000 0.000000
# 2 -0.004124 0.013848 -0.004131 0.000000 0.000000 0.000000
# 3 -0.003714 -0.004131 0.014590 0.000000 0.000000 0.000000
# 4 0.000000 0.000000 0.000000 0.043360 0.000000 0.000000
# 5 0.000000 0.000000 0.000000 0.000000 0.453838 0.000000
# 6 0.000000 0.000000 0.000000 0.000000 0.000000 0.037510
#
#
# Mechanical properties :
#
#
# Convention : Reuss Voigt Hill
#
# Bulk Modulus (GPa) = 52.51310 52.64198 52.57754
# Shear Modulus (GPa) = 8.22401 21.31737 14.77069
#
# Velocity S-wave (km/s) = 2.21355 3.56380 2.96652
# Velocity P-wave (km/s) = 6.14978 6.94966 6.56192
#
# Compressibility (1/GPa) = 0.01904287
#
# Stress axis : x y z
#
# Youngs Moduli (GPa) = 68.76120 72.21158 68.53834
#
# Poissons Ratio (x) = 0.29783 0.25454
# Poissons Ratio (y) = 0.28360 0.28314
# Poissons Ratio (z) = 0.25537 0.29832
#
# Static dielectric constant tensor:
#      x y z
#    x 3.119430 0.000000 0.000000 
#    y 0.000000 3.367890 0.000000 
#    z 0.000000 0.000000 3.480710 
# 
# 
# High freq. dielectric constant tensor:
#      x y z
#    x 1.626690 0.000000 0.000000 
#    y 0.000000 1.672750 0.000000 
#    z 0.000000 0.000000 1.640340 
# 
# From -- ./inp_files/17743.got.cif
#   From: 2010.03.12/outbox.cif.g09.slc.cpg/sg35_9_cif.got.tgz:17743.got - 2010.04.14 02:02:04.
