data_PCOD8173063
_publ_section_title
;
Structure prediction by ZEFSAII (Michael W. Deem and Ramdas Pophale) SiO2 
 PCOD8173063
Probable space group: C M M 2
;
_chemical_formula_sum "Si O2"
_cell_formula_units_Z 64
_cell_length_a 9.091230
_cell_length_b 20.194133
_cell_length_c 19.728735
_cell_angle_alpha 90.000000
_cell_angle_beta 90.000000
_cell_angle_gamma 90.000000
_cell_volume 3621.988747
_symmetry_space_group_name_H-M "C M M 2"
_symmetry_group_IT_number 35
_symmetry_cell_setting 'orthorhombic'
loop_
_space_group_symop_operation_xyz
x,y,z
-x,-y,z
-x,y,z
x,-y,z
1/2+x,1/2+y,z
1/2-x,1/2-y,z
1/2-x,1/2+y,z
1/2+x,1/2-y,z
loop_
_atom_site_type_symbol
_atom_site_label
_atom_site_fract_x
_atom_site_fract_y
_atom_site_fract_z
Si Si1 0.829874 0.577160 0.329770
Si Si2 0.325671 0.072793 0.176736
Si Si3 0.670126 0.577160 0.829770
Si Si4 0.672457 0.682596 0.420202
Si Si5 0.327394 0.816529 0.076078
Si Si6 0.827394 0.816529 0.576078
Si Si7 0.172457 0.682596 0.920202
Si Si8 0.674329 0.427207 0.676736
O O1 0.801812 0.500000 0.345204
O O2 0.782575 0.594167 0.252834
O O3 0.728898 0.620068 0.378643
O O4 0.000000 0.595194 0.342139
O O5 0.500000 0.069098 0.171162
O O6 0.262197 0.124455 0.122227
O O7 0.259945 0.000000 0.160422
O O8 0.500000 0.595192 0.842141
O O9 0.698190 0.500000 0.845203
O O10 0.771102 0.620068 0.878643
O O11 0.717421 0.594168 0.752834
O O12 0.500000 0.691270 0.408663
O O13 0.750000 0.750000 0.395331
O O14 0.711529 0.668055 0.498344
O O15 0.500000 0.807719 0.087114
O O16 0.250000 0.750000 0.101108
O O17 0.288471 0.831945 0.998344
O O18 0.750000 0.750000 0.601108
O O19 0.762197 0.875545 0.622227
O O20 0.000000 0.807719 0.587114
O O21 0.250000 0.750000 0.895331
O O22 0.000000 0.691270 0.908663
O O23 0.500000 0.430903 0.671160
O O24 0.740056 0.500000 0.660424
#
# Coordination Sequence:
#
# PCOD8173063 Si02
#       8
#     8   8   8   8   8   8   8   8
#     4   9  18  33  52  73  99 130 161 196 240 289
#     4   8  15  30  51  72  94 123 159 195 233 281
#     4   9  18  33  52  73  99 130 161 196 240 289
#     4  10  20  33  50  72  99 130 163 201 242 285
#     4   9  18  32  50  71  95 124 158 197 238 281
#     4   9  18  32  50  71  95 124 158 197 238 281
#     4  10  20  33  50  72  99 130 163 201 242 285
#     4   8  15  30  51  72  94 123 159 195 233 281
#
# _framework density 17.669851000000001
#
# number of rings (size 3 to 8) (size 9 to 14) (size 15 to 20)
#    0.000    3.000    0.000    2.250    0.000    3.500 
#    0.000    6.250    0.000    2.250    0.000    0.000 
#    0.000    0.000    0.000    0.000    0.000    0.000 
#
# Total GULP energy -396761.565858 kJ/mol
# GULP energy per Si atom -12398.798933 kJ/mol
# Density = 1.762963 g / cm^3
# Si number density = 17.669851 Si / 1000 Ang^3
#
#
#
# Elastic Constant Matrix: (Units=GPa)
#
#
# Indices 1 2 3 4 5 6 
#
# 1 48.2014 45.8566 36.7224 0.0000 0.0000 0.0000
# 2 45.8566 133.4740 86.4962 0.0000 0.0000 0.0000
# 3 36.7224 86.4962 98.9172 0.0000 0.0000 0.0000
# 4 0.0000 0.0000 0.0000 36.8997 0.0000 0.0000
# 5 0.0000 0.0000 0.0000 0.0000 19.8913 0.0000
# 6 0.0000 0.0000 0.0000 0.0000 0.0000 31.3491
#
#
#
# Elastic Compliance Matrix: (Units=1/GPa)
#
#
# Indices 1 2 3 4 5 6 
#
# 1 0.031947 -0.007592 -0.005221 0.000000 0.000000 0.000000
# 2 -0.007592 0.019094 -0.013877 0.000000 0.000000 0.000000
# 3 -0.005221 -0.013877 0.024183 0.000000 0.000000 0.000000
# 4 0.000000 0.000000 0.000000 0.027100 0.000000 0.000000
# 5 0.000000 0.000000 0.000000 0.000000 0.050273 0.000000
# 6 0.000000 0.000000 0.000000 0.000000 0.000000 0.031899
#
#
# Mechanical properties :
#
#
# Convention : Reuss Voigt Hill
#
# Bulk Modulus (GPa) = 45.78456 68.74921 57.26688
# Shear Modulus (GPa) = 20.39499 25.06252 22.72876
#
# Velocity S-wave (km/s) = 3.40108 3.77022 3.59040
# Velocity P-wave (km/s) = 6.43354 7.61215 7.04753
#
# Compressibility (1/GPa) = 0.02184143
#
# Stress axis : x y z
#
# Youngs Moduli (GPa) = 31.30185 52.37353 41.35182
#
# Poissons Ratio (x) = 0.39763 0.21591
# Poissons Ratio (y) = 0.23765 0.57386
# Poissons Ratio (z) = 0.16344 0.72681
#
# Static dielectric constant tensor:
#      x y z
#    x 3.005930 0.000000 0.000000 
#    y 0.000000 3.567710 0.000000 
#    z 0.000000 0.000000 3.363120 
# 
# 
# High freq. dielectric constant tensor:
#      x y z
#    x 1.658110 0.000000 0.000000 
#    y 0.000000 1.690480 0.000000 
#    z 0.000000 0.000000 1.683970 
# 
# From -- ./inp_files/18395.got.cif
#   From: 2010.03.12/outbox.cif.g09.slc.cpg/sg35_10_cif.got.tgz:18395.got - 2010.04.14 02:02:04.
