data_PCOD8173391
_publ_section_title
;
Structure prediction by ZEFSAII (Michael W. Deem and Ramdas Pophale) SiO2 
 PCOD8173391
Probable space group: C M M 2
;
_chemical_formula_sum "Si O2"
_cell_formula_units_Z 48
_cell_length_a 17.659220
_cell_length_b 8.875234
_cell_length_c 15.566546
_cell_angle_alpha 90.000000
_cell_angle_beta 90.000000
_cell_angle_gamma 90.000000
_cell_volume 2439.740237
_symmetry_space_group_name_H-M "C M M 2"
_symmetry_group_IT_number 35
_symmetry_cell_setting 'orthorhombic'
loop_
_space_group_symop_operation_xyz
x,y,z
-x,-y,z
-x,y,z
x,-y,z
1/2+x,1/2+y,z
1/2-x,1/2-y,z
1/2-x,1/2+y,z
1/2+x,1/2-y,z
loop_
_atom_site_type_symbol
_atom_site_label
_atom_site_fract_x
_atom_site_fract_y
_atom_site_fract_z
Si Si1 0.089934 0.330775 0.304330
Si Si2 0.090287 0.669985 0.645505
Si Si3 0.411377 0.675586 0.130158
Si Si4 0.669064 0.178106 0.971227
Si Si5 0.590371 0.329914 0.474371
Si Si6 0.410216 0.330432 0.816088
O O1 0.122210 0.500000 0.295639
O O2 0.116010 0.231654 0.223307
O O3 0.122721 0.255614 0.390778
O O4 0.000000 0.334368 0.309395
O O5 0.121276 0.500000 0.649652
O O6 0.121703 0.747749 0.559286
O O7 0.121729 0.760959 0.727562
O O8 0.000000 0.671232 0.645153
O O9 0.500000 0.707751 0.116119
O O10 0.392749 0.500000 0.121115
O O11 0.364478 0.767477 0.060968
O O12 0.750000 0.250000 0.954356
O O13 0.614045 0.227301 0.894981
O O14 0.676261 0.000000 0.972936
O O15 0.500000 0.328234 0.473754
O O16 0.621061 0.500000 0.473516
O O17 0.500000 0.333016 0.813909
O O18 0.378262 0.500000 0.826711
#
# Coordination Sequence:
#
# PCOD8173391 Si02
#       6
#     8   8   8   8   8   8
#     4   9  16  26  42  67  99 134 171 210 253 302
#     4   9  16  26  42  67  99 134 171 210 253 302
#     4  10  20  35  55  79 107 138 173 214 260 310
#     4  12  25  40  57  77 103 135 173 216 263 314
#     4   9  15  23  37  61  96 135 170 207 254 303
#     4  10  20  35  55  79 107 138 173 214 260 310
#
# _framework density 19.674225
#
# number of rings (size 3 to 8) (size 9 to 14) (size 15 to 20)
#    0.000    2.167    0.000    4.500    0.000   10.000 
#    0.000    0.000    0.000    0.000    0.000    1.167 
#    0.000    0.000    0.000    0.000    0.000    0.000 
#
# Total GULP energy -297641.370755 kJ/mol
# GULP energy per Si atom -12401.723781 kJ/mol
# Density = 1.962945 g / cm^3
# Si number density = 19.674225 Si / 1000 Ang^3
#
#
#
# Elastic Constant Matrix: (Units=GPa)
#
#
# Indices 1 2 3 4 5 6 
#
# 1 11.6532 18.0447 10.7907 0.0000 0.0000 0.0000
# 2 18.0447 170.4365 61.3053 0.0000 0.0000 0.0000
# 3 10.7907 61.3053 151.8987 0.0000 0.0000 0.0000
# 4 0.0000 0.0000 0.0000 41.4096 0.0000 0.0000
# 5 0.0000 0.0000 0.0000 0.0000 -2.5819 0.0000
# 6 0.0000 0.0000 0.0000 0.0000 0.0000 18.5585
#
#
#
# Elastic Compliance Matrix: (Units=1/GPa)
#
#
# Indices 1 2 3 4 5 6 
#
# 1 0.104163 -0.009787 -0.003450 0.000000 0.000000 0.000000
# 2 -0.009787 0.007783 -0.002446 0.000000 0.000000 0.000000
# 3 -0.003450 -0.002446 0.007816 0.000000 0.000000 0.000000
# 4 0.000000 0.000000 0.000000 0.024149 0.000000 0.000000
# 5 0.000000 0.000000 0.000000 0.000000 -0.387311 0.000000
# 6 0.000000 0.000000 0.000000 0.000000 0.000000 0.053884
#
#
# Mechanical properties :
#
#
# Convention : Reuss Voigt Hill
#
# Bulk Modulus (GPa) = 11.31267 57.14108 34.22688
# Shear Modulus (GPa) = -38.85461 27.73376 -5.56043
#
# Velocity S-wave (km/s) = -4.44880 3.75860 -1.68297
# Velocity P-wave (km/s) = 4.54166 6.92407 3.69568
#
# Compressibility (1/GPa) = 0.08839643
#
# Stress axis : x y z
#
# Youngs Moduli (GPa) = 9.60031 128.47985 127.94946
#
# Poissons Ratio (x) = 1.25747 0.44137
# Poissons Ratio (y) = 0.09396 0.31297
# Poissons Ratio (z) = 0.03312 0.31426
#
# Static dielectric constant tensor:
#      x y z
#    x 3.008870 0.000000 0.000000 
#    y 0.000000 3.876180 0.000000 
#    z 0.000000 0.000000 3.824820 
# 
# 
# High freq. dielectric constant tensor:
#      x y z
#    x 1.698020 0.000000 0.000000 
#    y 0.000000 1.787880 0.000000 
#    z 0.000000 0.000000 1.787880 
# 
# From -- ./inp_files/15137.got.cif
#   From: 2010.03.12/outbox.cif.g09.slc.cpg/sg35_8_cif.got.tgz:15137.got - 2010.04.14 02:02:04.
