data_PCOD8173285
_publ_section_title
;
Structure prediction by ZEFSAII (Michael W. Deem and Ramdas Pophale) SiO2 
 PCOD8173285
Probable space group: C M M 2
;
_chemical_formula_sum "Si O2"
_cell_formula_units_Z 40
_cell_length_a 9.324237
_cell_length_b 15.691736
_cell_length_c 14.165853
_cell_angle_alpha 90.000000
_cell_angle_beta 90.000000
_cell_angle_gamma 90.000000
_cell_volume 2072.655043
_symmetry_space_group_name_H-M "C M M 2"
_symmetry_group_IT_number 35
_symmetry_cell_setting 'orthorhombic'
loop_
_space_group_symop_operation_xyz
x,y,z
-x,-y,z
-x,y,z
x,-y,z
1/2+x,1/2+y,z
1/2-x,1/2-y,z
1/2-x,1/2+y,z
1/2+x,1/2-y,z
loop_
_atom_site_type_symbol
_atom_site_label
_atom_site_fract_x
_atom_site_fract_y
_atom_site_fract_z
Si Si1 0.332699 0.165167 0.086010
Si Si2 0.331624 0.333254 0.441488
Si Si3 0.333190 0.164552 0.870020
Si Si4 0.340416 0.595222 0.244855
Si Si5 0.669741 0.000000 0.751792
Si Si6 0.330460 0.500000 0.555545
O O1 0.500000 0.177070 0.104034
O O2 0.250000 0.250000 0.114658
O O3 0.269952 0.095400 0.157428
O O4 0.300027 0.139511 0.978349
O O5 0.500000 0.318853 0.454397
O O6 0.250000 0.250000 0.480380
O O7 0.291113 0.345279 0.331381
O O8 0.280773 0.415642 0.499994
O O9 0.500000 0.184206 0.855715
O O10 0.250000 0.250000 0.839228
O O11 0.282180 0.084419 0.808546
O O12 0.500000 0.621593 0.209921
O O13 0.344380 0.500000 0.286106
O O14 0.751030 0.000000 0.654383
O O15 0.500000 0.000000 0.735839
O O16 0.500000 0.500000 0.572192
#
# Coordination Sequence:
#
# PCOD8173285 Si02
#       6
#     8   8   8   8   4   4
#     4  10  20  34  54  80 113 151 190 231 275 329
#     4  10  21  39  61  83 113 151 187 228 281 335
#     4   9  20  38  59  82 115 151 187 230 280 333
#     4  10  20  35  55  81 116 154 189 229 277 332
#     4  10  22  40  61  84 112 146 183 234 289 336
#     4  10  22  42  61  82 112 146 185 232 285 342
#
# _framework density 19.298919000000001
#
# number of rings (size 3 to 8) (size 9 to 14) (size 15 to 20)
#    0.000    2.200    1.000    1.200    1.400    6.000 
#    0.000    4.000    0.000    0.000    0.000    0.000 
#    0.000    0.000    0.000    0.000    0.000    0.000 
#
# Total GULP energy -248002.976521 kJ/mol
# GULP energy per Si atom -12400.148826 kJ/mol
# Density = 1.925499 g / cm^3
# Si number density = 19.298919 Si / 1000 Ang^3
#
#
#
# Elastic Constant Matrix: (Units=GPa)
#
#
# Indices 1 2 3 4 5 6 
#
# 1 71.6305 55.7257 58.3004 0.0000 0.0000 0.0000
# 2 55.7257 149.9497 71.6925 0.0000 0.0000 0.0000
# 3 58.3004 71.6925 115.7472 0.0000 0.0000 0.0000
# 4 0.0000 0.0000 0.0000 25.1814 0.0000 0.0000
# 5 0.0000 0.0000 0.0000 0.0000 35.0358 0.0000
# 6 0.0000 0.0000 0.0000 0.0000 0.0000 33.7118
#
#
#
# Elastic Compliance Matrix: (Units=1/GPa)
#
#
# Indices 1 2 3 4 5 6 
#
# 1 0.025893 -0.004812 -0.010062 0.000000 0.000000 0.000000
# 2 -0.004812 0.010369 -0.003999 0.000000 0.000000 0.000000
# 3 -0.010062 -0.003999 0.016184 0.000000 0.000000 0.000000
# 4 0.000000 0.000000 0.000000 0.039712 0.000000 0.000000
# 5 0.000000 0.000000 0.000000 0.000000 0.028542 0.000000
# 6 0.000000 0.000000 0.000000 0.000000 0.000000 0.029663
#
#
# Mechanical properties :
#
#
# Convention : Reuss Voigt Hill
#
# Bulk Modulus (GPa) = 68.01900 78.75160 73.38530
# Shear Modulus (GPa) = 25.90552 28.89306 27.39929
#
# Velocity S-wave (km/s) = 3.66776 3.87348 3.77202
# Velocity P-wave (km/s) = 7.29781 7.80384 7.55506
#
# Compressibility (1/GPa) = 0.01470178
#
# Stress axis : x y z
#
# Youngs Moduli (GPa) = 38.61996 96.44096 61.78913
#
# Poissons Ratio (x) = 0.46409 0.62169
# Poissons Ratio (y) = 0.18585 0.24707
# Poissons Ratio (z) = 0.38858 0.38563
#
# Static dielectric constant tensor:
#      x y z
#    x 3.426380 0.000000 0.000000 
#    y 0.000000 3.551440 0.000000 
#    z 0.000000 0.000000 3.415240 
# 
# 
# High freq. dielectric constant tensor:
#      x y z
#    x 1.743640 0.000000 0.000000 
#    y 0.000000 1.757800 0.000000 
#    z 0.000000 0.000000 1.747340 
# 
# From -- ./inp_files/14728.got.cif
#   From: 2010.03.12/outbox.cif.g09.slc.cpg/sg35_8_cif.got.tgz:14728.got - 2010.04.14 02:02:04.
