data_PCOD8173472
_publ_section_title
;
Structure prediction by ZEFSAII (Michael W. Deem and Ramdas Pophale) SiO2 
 PCOD8173472
Probable space group: C M M 2
;
_chemical_formula_sum "Si O2"
_cell_formula_units_Z 56
_cell_length_a 8.656407
_cell_length_b 18.457987
_cell_length_c 17.877658
_cell_angle_alpha 90.000000
_cell_angle_beta 90.000000
_cell_angle_gamma 90.000000
_cell_volume 2856.489476
_symmetry_space_group_name_H-M "C M M 2"
_symmetry_group_IT_number 35
_symmetry_cell_setting 'orthorhombic'
loop_
_space_group_symop_operation_xyz
x,y,z
-x,-y,z
-x,y,z
x,-y,z
1/2+x,1/2+y,z
1/2-x,1/2-y,z
1/2-x,1/2+y,z
1/2+x,1/2-y,z
loop_
_atom_site_type_symbol
_atom_site_label
_atom_site_fract_x
_atom_site_fract_y
_atom_site_fract_z
Si Si1 0.682113 0.671959 0.175570
Si Si2 0.828560 0.914135 0.726375
Si Si3 0.323037 0.914930 0.576448
Si Si4 0.319184 0.083894 0.307403
Si Si5 0.323159 0.414821 0.891350
Si Si6 0.179936 0.673906 0.018398
Si Si7 0.818700 0.170394 0.444785
O O1 0.500000 0.679013 0.174302
O O2 0.750000 0.750000 0.198471
O O3 0.731751 0.611391 0.234245
O O4 0.740768 0.646342 0.094527
O O5 0.711903 0.888936 0.661326
O O6 0.774776 0.886335 0.808349
O O7 0.000000 0.884181 0.708160
O O8 0.835385 0.000000 0.730133
O O9 0.500000 0.896707 0.557473
O O10 0.211247 0.871451 0.521839
O O11 0.288860 0.000000 0.566979
O O12 0.500000 0.096124 0.295937
O O13 0.264433 0.127768 0.378963
O O14 0.278307 0.000000 0.319918
O O15 0.500000 0.392319 0.908200
O O16 0.303132 0.500000 0.896345
O O17 0.208439 0.381881 0.951934
O O18 0.250000 0.750000 0.992998
O O19 0.000000 0.682503 0.034192
O O20 0.750000 0.250000 0.450508
O O21 0.000000 0.174468 0.428663
#
# Coordination Sequence:
#
# PCOD8173472 Si02
#       7
#     8   8   8   8   8   8   8
#     4  11  22  39  62  85 113 148 188 230 277 334
#     4   8  15  30  53  80 110 146 187 230 278 332
#     4  10  20  35  57  85 116 148 185 231 281 332
#     4  11  24  42  63  88 118 148 183 228 275 325
#     4   9  18  34  56  82 113 148 187 232 281 333
#     4  11  22  37  57  81 112 149 190 233 280 334
#     4  12  25  41  61  84 114 150 189 230 276 332
#
# _framework density 19.604482999999998
#
# number of rings (size 3 to 8) (size 9 to 14) (size 15 to 20)
#    0.000    1.714    0.000    7.286    0.000    5.143 
#    0.000    2.143    0.000    3.429    0.000    0.000 
#    0.000    0.000    0.000    0.000    0.000    0.000 
#
# Total GULP energy -347249.376638 kJ/mol
# GULP energy per Si atom -12401.763451 kJ/mol
# Density = 1.955986 g / cm^3
# Si number density = 19.604483 Si / 1000 Ang^3
#
#
#
# Elastic Constant Matrix: (Units=GPa)
#
#
# Indices 1 2 3 4 5 6 
#
# 1 115.6833 36.1103 37.5956 0.0000 0.0000 0.0000
# 2 36.1103 63.2728 47.5756 0.0000 0.0000 0.0000
# 3 37.5956 47.5756 125.0772 0.0000 0.0000 0.0000
# 4 0.0000 0.0000 0.0000 -119.6718 0.0000 0.0000
# 5 0.0000 0.0000 0.0000 0.0000 37.0884 0.0000
# 6 0.0000 0.0000 0.0000 0.0000 0.0000 28.3094
#
#
#
# Elastic Compliance Matrix: (Units=1/GPa)
#
#
# Indices 1 2 3 4 5 6 
#
# 1 0.010655 -0.005144 -0.001246 0.000000 0.000000 0.000000
# 2 -0.005144 0.024619 -0.007818 0.000000 0.000000 0.000000
# 3 -0.001246 -0.007818 0.011343 0.000000 0.000000 0.000000
# 4 0.000000 0.000000 0.000000 -0.008356 0.000000 0.000000
# 5 0.000000 0.000000 0.000000 0.000000 0.026963 0.000000
# 6 0.000000 0.000000 0.000000 0.000000 0.000000 0.035324
#
#
# Mechanical properties :
#
#
# Convention : Reuss Voigt Hill
#
# Bulk Modulus (GPa) = 54.94224 60.73292 57.83758
# Shear Modulus (GPa) = 37.02865 1.32864 19.17864
#
# Velocity S-wave (km/s) = 4.35073 0.82413 3.13114
# Velocity P-wave (km/s) = 7.30237 5.65260 6.52980
#
# Compressibility (1/GPa) = 0.01820093
#
# Stress axis : x y z
#
# Youngs Moduli (GPa) = 93.85346 40.61939 88.15732
#
# Poissons Ratio (x) = 0.20894 0.10985
# Poissons Ratio (y) = 0.48278 0.68922
# Poissons Ratio (z) = 0.11695 0.31757
#
# Static dielectric constant tensor:
#      x y z
#    x 3.665240 0.000000 0.000000 
#    y 0.000000 3.808910 0.000000 
#    z 0.000000 0.000000 3.869730 
# 
# 
# High freq. dielectric constant tensor:
#      x y z
#    x 1.772140 0.000000 0.000000 
#    y 0.000000 1.743630 0.000000 
#    z 0.000000 0.000000 1.781040 
# 
# From -- ./inp_files/15633.got.cif
#   From: 2010.03.12/outbox.cif.g09.slc.cpg/sg35_8_cif.got.tgz:15633.got - 2010.04.14 02:02:04.
