data_PCOD8173473
_publ_section_title
;
Structure prediction by ZEFSAII (Michael W. Deem and Ramdas Pophale) SiO2 
 PCOD8173473
Probable space group: C M M 2
;
_chemical_formula_sum "Si O2"
_cell_formula_units_Z 48
_cell_length_a 8.991165
_cell_length_b 17.760402
_cell_length_c 15.284190
_cell_angle_alpha 90.000000
_cell_angle_beta 90.000000
_cell_angle_gamma 90.000000
_cell_volume 2440.681937
_symmetry_space_group_name_H-M "C M M 2"
_symmetry_group_IT_number 35
_symmetry_cell_setting 'orthorhombic'
loop_
_space_group_symop_operation_xyz
x,y,z
-x,-y,z
-x,y,z
x,-y,z
1/2+x,1/2+y,z
1/2-x,1/2-y,z
1/2-x,1/2+y,z
1/2+x,1/2-y,z
loop_
_atom_site_type_symbol
_atom_site_label
_atom_site_fract_x
_atom_site_fract_y
_atom_site_fract_z
Si Si1 0.335394 0.910602 0.530270
Si Si2 0.328505 0.413167 0.006607
Si Si3 0.675659 0.914037 0.335396
Si Si4 0.675731 0.170052 0.852128
Si Si5 0.672360 0.672663 0.181905
Si Si6 0.666575 0.589408 0.698020
O O1 0.500000 0.877342 0.547941
O O2 0.279929 0.887553 0.433475
O O3 0.224493 0.879269 0.604545
O O4 0.344168 0.000000 0.534454
O O5 0.500000 0.401020 0.979109
O O6 0.282466 0.500000 0.998526
O O7 0.300725 0.387841 0.105749
O O8 0.225012 0.364133 0.944382
O O9 0.500000 0.906798 0.321261
O O10 0.760382 0.858929 0.270899
O O11 0.726886 0.000000 0.318980
O O12 0.500000 0.179200 0.852013
O O13 0.750000 0.250000 0.836879
O O14 0.724864 0.115390 0.774474
O O15 0.500000 0.688976 0.197065
O O16 0.750000 0.750000 0.154345
O O17 0.500000 0.620620 0.713143
O O18 0.666739 0.500000 0.698257
#
# Coordination Sequence:
#
# PCOD8173473 Si02
#       6
#     8   8   8   8   8   8
#     4   8  15  30  53  81 112 146 186 232 279 326
#     4  10  22  41  63  87 114 143 180 228 278 329
#     4   9  18  34  57  84 114 148 187 233 281 329
#     4  12  25  40  59  83 113 149 187 228 277 332
#     4  11  23  38  57  82 114 151 188 229 278 331
#     4  10  20  35  57  85 116 149 186 230 278 329
#
# _framework density 19.666633999999998
#
# number of rings (size 3 to 8) (size 9 to 14) (size 15 to 20)
#    0.000    2.000    0.000    5.000    0.000    7.667 
#    0.000    2.500    0.000    4.000    0.000    0.000 
#    0.000    0.000    0.000    0.000    0.000    0.000 
#
# Total GULP energy -297651.051144 kJ/mol
# GULP energy per Si atom -12402.127131 kJ/mol
# Density = 1.962187 g / cm^3
# Si number density = 19.666634 Si / 1000 Ang^3
#
#
#
# Elastic Constant Matrix: (Units=GPa)
#
#
# Indices 1 2 3 4 5 6 
#
# 1 113.9766 26.6624 51.0363 0.0000 0.0000 0.0000
# 2 26.6624 41.2936 12.9069 0.0000 0.0000 0.0000
# 3 51.0363 12.9069 110.7976 0.0000 0.0000 0.0000
# 4 0.0000 0.0000 0.0000 11.2200 0.0000 0.0000
# 5 0.0000 0.0000 0.0000 0.0000 30.9081 0.0000
# 6 0.0000 0.0000 0.0000 0.0000 0.0000 27.6074
#
#
#
# Elastic Compliance Matrix: (Units=1/GPa)
#
#
# Indices 1 2 3 4 5 6 
#
# 1 0.012550 -0.006534 -0.005020 0.000000 0.000000 0.000000
# 2 -0.006534 0.028534 -0.000314 0.000000 0.000000 0.000000
# 3 -0.005020 -0.000314 0.011374 0.000000 0.000000 0.000000
# 4 0.000000 0.000000 0.000000 0.089127 0.000000 0.000000
# 5 0.000000 0.000000 0.000000 0.000000 0.032354 0.000000
# 6 0.000000 0.000000 0.000000 0.000000 0.000000 0.036222
#
#
# Mechanical properties :
#
#
# Convention : Reuss Voigt Hill
#
# Bulk Modulus (GPa) = 34.81631 49.69769 42.25700
# Shear Modulus (GPa) = 20.53629 25.64458 23.09044
#
# Velocity S-wave (km/s) = 3.23494 3.61496 3.43022
# Velocity P-wave (km/s) = 5.62982 6.53826 6.10097
#
# Compressibility (1/GPa) = 0.02872217
#
# Stress axis : x y z
#
# Youngs Moduli (GPa) = 79.68130 35.04586 87.91790
#
# Poissons Ratio (x) = 0.22900 0.44132
# Poissons Ratio (y) = 0.52066 0.02761
# Poissons Ratio (z) = 0.39997 0.01101
#
# Static dielectric constant tensor:
#      x y z
#    x 3.898050 0.000000 0.000000 
#    y 0.000000 3.445420 0.000000 
#    z 0.000000 0.000000 3.758420 
# 
# 
# High freq. dielectric constant tensor:
#      x y z
#    x 1.768410 0.000000 0.000000 
#    y 0.000000 1.748460 0.000000 
#    z 0.000000 0.000000 1.781640 
# 
# From -- ./inp_files/15088.got.cif
#   From: 2010.03.12/outbox.cif.g09.slc.cpg/sg35_8_cif.got.tgz:15088.got - 2010.04.14 02:02:04.
