data_PCOD8173920
_publ_section_title
;
Structure prediction by ZEFSAII (Michael W. Deem and Ramdas Pophale) SiO2 
 PCOD8173920
Probable space group: C M M 2
;
_chemical_formula_sum "Si O2"
_cell_formula_units_Z 64
_cell_length_a 14.515048
_cell_length_b 21.776205
_cell_length_c 9.721253
_cell_angle_alpha 90.000000
_cell_angle_beta 90.000000
_cell_angle_gamma 90.000000
_cell_volume 3072.719515
_symmetry_space_group_name_H-M "C M M 2"
_symmetry_group_IT_number 35
_symmetry_cell_setting 'orthorhombic'
loop_
_space_group_symop_operation_xyz
x,y,z
-x,-y,z
-x,y,z
x,-y,z
1/2+x,1/2+y,z
1/2-x,1/2-y,z
1/2-x,1/2+y,z
1/2+x,1/2-y,z
loop_
_atom_site_type_symbol
_atom_site_label
_atom_site_fract_x
_atom_site_fract_y
_atom_site_fract_z
Si Si1 0.102649 0.769215 0.017190
Si Si2 0.724976 0.372564 0.125884
Si Si3 0.602256 0.163507 0.810870
Si Si4 0.644907 0.758762 0.562830
Si Si5 0.742279 0.570565 0.851333
Si Si6 0.898052 0.312990 0.267408
Si Si7 0.397117 0.623343 0.638637
Si Si8 0.608250 0.569615 0.357125
O O1 0.183243 0.819360 0.027528
O O2 0.090983 0.744850 0.170133
O O3 0.000000 0.793353 0.967861
O O4 0.139230 0.715902 0.915154
O O5 0.822932 0.358762 0.199610
O O6 0.653339 0.386937 0.244932
O O7 0.733049 0.428299 0.017521
O O8 0.500000 0.144517 0.857180
O O9 0.600618 0.188983 0.656817
O O10 0.661128 0.101752 0.814621
O O11 0.750000 0.750000 0.602738
O O12 0.635672 0.783316 0.408892
O O13 0.595749 0.694619 0.595895
O O14 0.740778 0.500000 0.802165
O O15 0.662785 0.609179 0.773319
O O16 0.000000 0.344835 0.283213
O O17 0.500000 0.599917 0.671528
O O18 0.354762 0.586724 0.508682
O O19 0.500000 0.581139 0.349793
O O20 0.635655 0.500000 0.324933
#
# Coordination Sequence:
#
# PCOD8173920 Si02
#       8
#     8   8   8   8   8   8   8   8
#     4  10  21  38  62  94 129 162 202 260 329 394
#     4  12  23  38  65  94 130 173 217 269 326 382
#     4  11  24  43  65  93 128 165 210 268 331 389
#     4  12  22  38  67 101 132 164 202 265 334 399
#     4  12  27  44  64  91 127 177 232 272 317 384
#     4  11  23  38  59  95 136 167 203 253 321 395
#     4  11  23  42  67  97 135 174 214 266 332 397
#     4  10  22  41  63  91 130 174 219 267 320 385
#
# _framework density 20.828454000000001
#
# number of rings (size 3 to 8) (size 9 to 14) (size 15 to 20)
#    0.000    0.875    2.500    5.625    0.000    5.000 
#    0.000    0.000    0.000    1.125    0.000    0.000 
#    0.000    0.000    0.000    0.000    0.000    0.000 
#
# Total GULP energy -396723.839404 kJ/mol
# GULP energy per Si atom -12397.619981 kJ/mol
# Density = 2.078105 g / cm^3
# Si number density = 20.828454 Si / 1000 Ang^3
#
#
#
# Elastic Constant Matrix: (Units=GPa)
#
#
# Indices 1 2 3 4 5 6 
#
# 1 95.3163 30.5996 39.2920 0.0000 0.0000 0.0000
# 2 30.5996 69.4588 40.2268 0.0000 0.0000 0.0000
# 3 39.2920 40.2268 120.6646 0.0000 0.0000 0.0000
# 4 0.0000 0.0000 0.0000 31.4146 0.0000 0.0000
# 5 0.0000 0.0000 0.0000 0.0000 4.6702 0.0000
# 6 0.0000 0.0000 0.0000 0.0000 0.0000 22.4877
#
#
#
# Elastic Compliance Matrix: (Units=1/GPa)
#
#
# Indices 1 2 3 4 5 6 
#
# 1 0.012977 -0.004052 -0.002875 0.000000 0.000000 0.000000
# 2 -0.004052 0.019107 -0.005050 0.000000 0.000000 0.000000
# 3 -0.002875 -0.005050 0.010907 0.000000 0.000000 0.000000
# 4 0.000000 0.000000 0.000000 0.031832 0.000000 0.000000
# 5 0.000000 0.000000 0.000000 0.000000 0.214124 0.000000
# 6 0.000000 0.000000 0.000000 0.000000 0.000000 0.044469
#
#
# Mechanical properties :
#
#
# Convention : Reuss Voigt Hill
#
# Bulk Modulus (GPa) = 52.52955 56.18627 54.35791
# Shear Modulus (GPa) = 13.74694 23.40258 18.57476
#
# Velocity S-wave (km/s) = 2.57185 3.35563 2.98954
# Velocity P-wave (km/s) = 5.83901 6.48444 6.17017
#
# Compressibility (1/GPa) = 0.01903690
#
# Stress axis : x y z
#
# Youngs Moduli (GPa) = 77.05719 52.33671 91.68180
#
# Poissons Ratio (x) = 0.21207 0.26358
# Poissons Ratio (y) = 0.31224 0.46303
# Poissons Ratio (z) = 0.22154 0.26432
#
# Static dielectric constant tensor:
#      x y z
#    x 4.305070 0.000000 0.000000 
#    y 0.000000 3.462180 0.000000 
#    z 0.000000 0.000000 3.911310 
# 
# 
# High freq. dielectric constant tensor:
#      x y z
#    x 1.826430 0.000000 0.000000 
#    y 0.000000 1.783640 0.000000 
#    z 0.000000 0.000000 1.834620 
# 
# From -- ./inp_files/7832.got.cif
#   From: 2010.03.12/outbox.cif.g09.slc.cpg/sg35_4_cif.got.tgz:7832.got - 2010.04.14 02:02:04.
