data_PCOD8173704
_publ_section_title
;
Structure prediction by ZEFSAII (Michael W. Deem and Ramdas Pophale) SiO2 
 PCOD8173704
Probable space group: C M M 2
;
_chemical_formula_sum "Si O2"
_cell_formula_units_Z 56
_cell_length_a 22.283927
_cell_length_b 8.442867
_cell_length_c 14.701755
_cell_angle_alpha 90.000000
_cell_angle_beta 90.000000
_cell_angle_gamma 90.000000
_cell_volume 2765.991595
_symmetry_space_group_name_H-M "C M M 2"
_symmetry_group_IT_number 35
_symmetry_cell_setting 'orthorhombic'
loop_
_space_group_symop_operation_xyz
x,y,z
-x,-y,z
-x,y,z
x,-y,z
1/2+x,1/2+y,z
1/2-x,1/2-y,z
1/2-x,1/2+y,z
1/2+x,1/2-y,z
loop_
_atom_site_type_symbol
_atom_site_label
_atom_site_fract_x
_atom_site_fract_y
_atom_site_fract_z
Si Si1 0.500000 0.675301 0.186741
Si Si2 0.890658 0.684163 0.280906
Si Si3 0.687792 0.682471 0.791072
Si Si4 0.684886 0.314118 0.131932
Si Si5 0.069436 0.688555 0.478396
Si Si6 0.000000 0.176779 0.975752
Si Si7 0.682857 0.814944 0.597560
Si Si8 0.877100 0.317707 0.956957
O O1 0.500000 0.500000 0.234073
O O2 0.556280 0.781496 0.211837
O O3 0.500000 0.645211 0.081540
O O4 0.875686 0.500000 0.287043
O O5 0.833156 0.770264 0.235942
O O6 0.910106 0.750760 0.379161
O O7 0.692232 0.500000 0.762617
O O8 0.750000 0.750000 0.825990
O O9 0.667240 0.778260 0.701880
O O10 0.646648 0.704968 0.877675
O O11 0.681565 0.500000 0.118272
O O12 0.750000 0.250000 0.111324
O O13 0.642411 0.234349 0.057370
O O14 0.067006 0.500000 0.480540
O O15 0.123780 0.752169 0.543339
O O16 0.000000 0.749147 0.500414
O O17 0.053245 0.289524 0.945868
O O18 0.000000 0.000000 0.929703
O O19 0.750000 0.750000 0.569868
O O20 0.686724 0.000000 0.579633
O O21 0.859585 0.500000 0.939878
#
# Coordination Sequence:
#
# PCOD8173704 Si02
#       8
#     4   8   8   8   8   4   8   8
#     4  11  21  35  57  84 116 155 198 244 289 341
#     4  11  21  37  62  87 116 157 202 245 296 355
#     4  11  22  40  64  89 120 155 198 247 299 360
#     4  12  25  41  58  85 122 159 201 250 300 351
#     4   9  19  37  62  92 121 157 203 255 307 365
#     4  11  23  39  59  86 122 159 200 248 297 347
#     4  10  20  38  64  90 121 156 201 252 308 371
#     4  12  24  40  62  89 119 158 202 243 298 358
#
# _framework density 20.245905
#
# number of rings (size 3 to 8) (size 9 to 14) (size 15 to 20)
#    0.000    1.143    2.143    6.429    0.000    1.143 
#    1.286    4.286    0.000    0.000    0.000    0.000 
#    0.000    0.000    0.000    0.000    0.000    0.000 
#
# Total GULP energy -346957.409995 kJ/mol
# GULP energy per Si atom -12391.336071 kJ/mol
# Density = 2.019982 g / cm^3
# Si number density = 20.245905 Si / 1000 Ang^3
#
#
#
# Elastic Constant Matrix: (Units=GPa)
#
#
# Indices 1 2 3 4 5 6 
#
# 1 137.2032 20.4288 57.6829 0.0000 0.0000 0.0000
# 2 20.4288 77.7058 8.5312 0.0000 0.0000 0.0000
# 3 57.6829 8.5312 91.4358 0.0000 0.0000 0.0000
# 4 0.0000 0.0000 0.0000 8.7278 0.0000 0.0000
# 5 0.0000 0.0000 0.0000 0.0000 32.1738 0.0000
# 6 0.0000 0.0000 0.0000 0.0000 0.0000 29.4677
#
#
#
# Elastic Compliance Matrix: (Units=1/GPa)
#
#
# Indices 1 2 3 4 5 6 
#
# 1 0.010218 -0.001999 -0.006259 0.000000 0.000000 0.000000
# 2 -0.001999 0.013393 0.000011 0.000000 0.000000 0.000000
# 3 -0.006259 0.000011 0.014884 0.000000 0.000000 0.000000
# 4 0.000000 0.000000 0.000000 0.114577 0.000000 0.000000
# 5 0.000000 0.000000 0.000000 0.000000 0.031081 0.000000
# 6 0.000000 0.000000 0.000000 0.000000 0.000000 0.033935
#
#
# Mechanical properties :
#
#
# Convention : Reuss Voigt Hill
#
# Bulk Modulus (GPa) = 45.45147 53.29228 49.37188
# Shear Modulus (GPa) = 20.66831 28.72064 24.69448
#
# Velocity S-wave (km/s) = 3.19856 3.77050 3.49625
# Velocity P-wave (km/s) = 6.01161 6.73315 6.38258
#
# Compressibility (1/GPa) = 0.02200149
#
# Stress axis : x y z
#
# Youngs Moduli (GPa) = 97.86966 74.66400 67.18469
#
# Poissons Ratio (x) = 0.14925 0.42053
# Poissons Ratio (y) = 0.19564 -0.00077
# Poissons Ratio (z) = 0.61260 -0.00086
#
# Static dielectric constant tensor:
#      x y z
#    x 4.149710 0.000000 0.000000 
#    y 0.000000 3.596780 0.000000 
#    z 0.000000 0.000000 3.649040 
# 
# 
# High freq. dielectric constant tensor:
#      x y z
#    x 1.801630 0.000000 0.000000 
#    y 0.000000 1.788410 0.000000 
#    z 0.000000 0.000000 1.782580 
# 
# From -- ./inp_files/17423.got.cif
#   From: 2010.03.12/outbox.cif.g09.slc.cpg/sg35_9_cif.got.tgz:17423.got - 2010.04.14 02:02:04.
