data_PCOD8173202
_publ_section_title
;
Structure prediction by ZEFSAII (Michael W. Deem and Ramdas Pophale) SiO2 
 PCOD8173202
Probable space group: C M M 2
;
_chemical_formula_sum "Si O2"
_cell_formula_units_Z 56
_cell_length_a 19.293351
_cell_length_b 8.849213
_cell_length_c 18.042227
_cell_angle_alpha 90.000000
_cell_angle_beta 90.000000
_cell_angle_gamma 90.000000
_cell_volume 3080.366961
_symmetry_space_group_name_H-M "C M M 2"
_symmetry_group_IT_number 35
_symmetry_cell_setting 'orthorhombic'
loop_
_space_group_symop_operation_xyz
x,y,z
-x,-y,z
-x,y,z
x,-y,z
1/2+x,1/2+y,z
1/2-x,1/2-y,z
1/2-x,1/2+y,z
1/2+x,1/2-y,z
loop_
_atom_site_type_symbol
_atom_site_label
_atom_site_fract_x
_atom_site_fract_y
_atom_site_fract_z
Si Si1 0.582337 0.169373 0.798720
Si Si2 0.582723 0.670161 0.652082
Si Si3 0.918271 0.174174 0.948316
Si Si4 0.822755 0.179525 0.223394
Si Si5 0.921164 0.823163 0.356754
Si Si6 0.582544 0.829721 0.505167
Si Si7 0.323484 0.820488 0.067961
O O1 0.500000 0.166566 0.794750
O O2 0.612246 0.239002 0.722718
O O3 0.606730 0.271955 0.867362
O O4 0.611684 0.000000 0.808421
O O5 0.500000 0.674720 0.651947
O O6 0.610301 0.500000 0.657267
O O7 0.612377 0.742799 0.576665
O O8 0.000000 0.197542 0.958049
O O9 0.897020 0.000000 0.958637
O O10 0.881316 0.277784 0.008626
O O11 0.750000 0.250000 0.248226
O O12 0.878261 0.226088 0.285060
O O13 0.847619 0.252017 0.146373
O O14 0.815918 0.000000 0.213955
O O15 0.889279 0.743988 0.429486
O O16 0.000000 0.771278 0.342674
O O17 0.916497 0.000000 0.371312
O O18 0.500000 0.820876 0.505710
O O19 0.609694 0.000000 0.509211
O O20 0.250000 0.750000 0.043907
O O21 0.316326 0.000000 0.074113
#
# Coordination Sequence:
#
# PCOD8173202 Si02
#       7
#     8   8   8   8   8   8   8
#     4   9  16  26  41  64  95 128 163 203 245 288
#     4   9  15  23  37  58  88 127 165 198 237 286
#     4  10  20  34  52  75 104 135 167 205 251 300
#     4  10  20  35  54  74  97 127 163 202 245 294
#     4   9  18  32  49  70  97 128 161 198 242 291
#     4   9  16  25  39  62  92 124 158 198 242 285
#     4  11  22  37  56  76 100 130 167 208 250 298
#
# _framework density 18.179651
#
# number of rings (size 3 to 8) (size 9 to 14) (size 15 to 20)
#    0.000    2.429    0.000    4.286    0.000    7.714 
#    0.000    1.429    0.000    0.000    0.000    1.000 
#    0.000    2.286    0.000    0.000    0.000    0.000 
#
# Total GULP energy -347206.044207 kJ/mol
# GULP energy per Si atom -12400.215865 kJ/mol
# Density = 1.813827 g / cm^3
# Si number density = 18.179651 Si / 1000 Ang^3
#
#
#
# Elastic Constant Matrix: (Units=GPa)
#
#
# Indices 1 2 3 4 5 6 
#
# 1 34.9729 28.3832 48.9455 0.0000 0.0000 0.0000
# 2 28.3832 121.0442 68.4379 0.0000 0.0000 0.0000
# 3 48.9455 68.4379 155.9896 0.0000 0.0000 0.0000
# 4 0.0000 0.0000 0.0000 37.9640 0.0000 0.0000
# 5 0.0000 0.0000 0.0000 0.0000 -0.4341 0.0000
# 6 0.0000 0.0000 0.0000 0.0000 0.0000 19.5033
#
#
#
# Elastic Compliance Matrix: (Units=1/GPa)
#
#
# Indices 1 2 3 4 5 6 
#
# 1 0.052382 -0.003976 -0.014692 0.000000 0.000000 0.000000
# 2 -0.003976 0.011289 -0.003705 0.000000 0.000000 0.000000
# 3 -0.014692 -0.003705 0.012646 0.000000 0.000000 0.000000
# 4 0.000000 0.000000 0.000000 0.026341 0.000000 0.000000
# 5 0.000000 0.000000 0.000000 0.000000 -2.303837 0.000000
# 6 0.000000 0.000000 0.000000 0.000000 0.000000 0.051273
#
#
# Mechanical properties :
#
#
# Convention : Reuss Voigt Hill
#
# Bulk Modulus (GPa) = 31.67488 67.05997 49.36743
# Shear Modulus (GPa) = -2.38705 22.48933 10.05114
#
# Velocity S-wave (km/s) = -1.14712 3.52100 2.35389
# Velocity P-wave (km/s) = 3.96315 7.31419 5.88235
#
# Compressibility (1/GPa) = 0.03157076
#
# Stress axis : x y z
#
# Youngs Moduli (GPa) = 19.09060 88.58450 79.07624
#
# Poissons Ratio (x) = 0.35224 1.16175
# Poissons Ratio (y) = 0.07591 0.29298
# Poissons Ratio (z) = 0.28047 0.32821
#
# Static dielectric constant tensor:
#      x y z
#    x 2.876520 0.000000 0.000000 
#    y 0.000000 3.514290 0.000000 
#    z 0.000000 0.000000 3.554320 
# 
# 
# High freq. dielectric constant tensor:
#      x y z
#    x 1.643230 0.000000 0.000000 
#    y 0.000000 1.721400 0.000000 
#    z 0.000000 0.000000 1.721530 
# 
# From -- ./inp_files/17413.got.cif
#   From: 2010.03.12/outbox.cif.g09.slc.cpg/sg35_9_cif.got.tgz:17413.got - 2010.04.14 02:02:04.
