data_PCOD8173983
_publ_section_title
;
Structure prediction by ZEFSAII (Michael W. Deem and Ramdas Pophale) SiO2 
 PCOD8173983
Probable space group: C M M 2
;
_chemical_formula_sum "Si O2"
_cell_formula_units_Z 56
_cell_length_a 19.859764
_cell_length_b 14.609439
_cell_length_c 9.159206
_cell_angle_alpha 90.000000
_cell_angle_beta 90.000000
_cell_angle_gamma 90.000000
_cell_volume 2657.452127
_symmetry_space_group_name_H-M "C M M 2"
_symmetry_group_IT_number 35
_symmetry_cell_setting 'orthorhombic'
loop_
_space_group_symop_operation_xyz
x,y,z
-x,-y,z
-x,y,z
x,-y,z
1/2+x,1/2+y,z
1/2-x,1/2-y,z
1/2-x,1/2+y,z
1/2+x,1/2-y,z
loop_
_atom_site_type_symbol
_atom_site_label
_atom_site_fract_x
_atom_site_fract_y
_atom_site_fract_z
Si Si1 0.922132 0.106281 0.517930
Si Si2 0.772750 0.653198 0.231181
Si Si3 0.622820 0.224308 0.004869
Si Si4 0.139936 0.601092 0.497146
Si Si5 0.874885 0.898139 0.190191
Si Si6 0.000000 0.394032 0.550289
Si Si7 0.172350 0.243024 0.694861
Si Si8 0.500000 0.110816 0.882358
O O1 0.902486 0.122595 0.350774
O O2 0.868890 0.162467 0.614497
O O3 0.000000 0.138396 0.543741
O O4 0.914449 0.000000 0.560574
O O5 0.750000 0.750000 0.296306
O O6 0.809968 0.604005 0.362931
O O7 0.706626 0.597559 0.185014
O O8 0.822561 0.666091 0.095338
O O9 0.660633 0.266427 0.865900
O O10 0.563995 0.154566 0.964397
O O11 0.596891 0.315267 0.090798
O O12 0.141118 0.500000 0.561053
O O13 0.064199 0.631933 0.449668
O O14 0.150092 0.658321 0.641815
O O15 0.899766 0.000000 0.139144
O O16 0.000000 0.500000 0.585393
O O17 0.000000 0.351621 0.715172
O O18 0.250000 0.250000 0.653417
O O19 0.500000 0.000000 0.899989
#
# Coordination Sequence:
#
# PCOD8173983 Si02
#       8
#     8   8   8   8   8   4   8   4
#     4  10  24  45  70  98 131 174 222 272 328 390
#     4  10  21  41  61  92 131 169 213 263 322 382
#     4  11  25  42  64  94 131 174 215 266 327 388
#     4  11  22  38  63  92 125 167 213 261 319 380
#     4  10  21  42  68  94 130 169 213 267 326 386
#     4   9  20  39  59  88 123 161 208 258 311 370
#     4  12  24  40  66  97 131 171 217 271 328 387
#     4  11  24  45  64  90 129 173 215 260 324 390
#
# _framework density 21.072814999999999
#
# number of rings (size 3 to 8) (size 9 to 14) (size 15 to 20)
#    0.000    1.429    1.429    4.714    3.000    4.000 
#    0.000    2.143    0.000    0.000    0.000    0.000 
#    0.000    0.000    0.000    0.000    0.000    0.000 
#
# Total GULP energy -346918.524841 kJ/mol
# GULP energy per Si atom -12389.947316 kJ/mol
# Density = 2.102485 g / cm^3
# Si number density = 21.072815 Si / 1000 Ang^3
#
#
#
# Elastic Constant Matrix: (Units=GPa)
#
#
# Indices 1 2 3 4 5 6 
#
# 1 126.9827 39.6095 21.7931 0.0000 0.0000 0.0000
# 2 39.6095 93.8513 30.0802 0.0000 0.0000 0.0000
# 3 21.7931 30.0802 76.9476 0.0000 0.0000 0.0000
# 4 0.0000 0.0000 0.0000 25.7874 0.0000 0.0000
# 5 0.0000 0.0000 0.0000 0.0000 9.3975 0.0000
# 6 0.0000 0.0000 0.0000 0.0000 0.0000 29.0271
#
#
#
# Elastic Compliance Matrix: (Units=1/GPa)
#
#
# Indices 1 2 3 4 5 6 
#
# 1 0.009171 -0.003473 -0.001240 0.000000 0.000000 0.000000
# 2 -0.003473 0.013497 -0.004292 0.000000 0.000000 0.000000
# 3 -0.001240 -0.004292 0.015025 0.000000 0.000000 0.000000
# 4 0.000000 0.000000 0.000000 0.038779 0.000000 0.000000
# 5 0.000000 0.000000 0.000000 0.000000 0.106412 0.000000
# 6 0.000000 0.000000 0.000000 0.000000 0.000000 0.034451
#
#
# Mechanical properties :
#
#
# Convention : Reuss Voigt Hill
#
# Bulk Modulus (GPa) = 50.80758 53.41635 52.11197
# Shear Modulus (GPa) = 20.66921 26.59564 23.63243
#
# Velocity S-wave (km/s) = 3.13525 3.55643 3.35246
# Velocity P-wave (km/s) = 6.10485 6.50137 6.30623
#
# Compressibility (1/GPa) = 0.01968210
#
# Stress axis : x y z
#
# Youngs Moduli (GPa) = 109.03586 74.09146 66.55602
#
# Poissons Ratio (x) = 0.25735 0.08251
# Poissons Ratio (y) = 0.37872 0.28569
# Poissons Ratio (z) = 0.13517 0.31803
#
# Static dielectric constant tensor:
#      x y z
#    x 5.199910 0.000000 0.000000 
#    y 0.000000 3.872370 0.000000 
#    z 0.000000 0.000000 3.622670 
# 
# 
# High freq. dielectric constant tensor:
#      x y z
#    x 1.843800 0.000000 0.000000 
#    y 0.000000 1.833910 0.000000 
#    z 0.000000 0.000000 1.813140 
# 
# From -- ./inp_files/9312.got.cif
#   From: 2010.03.12/outbox.cif.g09.slc.cpg/sg35_5_cif.got.tgz:9312.got - 2010.04.14 02:02:04.
