data_PCOD8173042
_publ_section_title
;
Structure prediction by ZEFSAII (Michael W. Deem and Ramdas Pophale) SiO2 
 PCOD8173042
Probable space group: C M M 2
;
_chemical_formula_sum "Si O2"
_cell_formula_units_Z 64
_cell_length_a 8.832237
_cell_length_b 28.595698
_cell_length_c 15.439506
_cell_angle_alpha 90.000000
_cell_angle_beta 90.000000
_cell_angle_gamma 90.000000
_cell_volume 3899.463114
_symmetry_space_group_name_H-M "C M M 2"
_symmetry_group_IT_number 35
_symmetry_cell_setting 'orthorhombic'
loop_
_space_group_symop_operation_xyz
x,y,z
-x,-y,z
-x,y,z
x,-y,z
1/2+x,1/2+y,z
1/2-x,1/2-y,z
1/2-x,1/2+y,z
1/2+x,1/2-y,z
loop_
_atom_site_type_symbol
_atom_site_label
_atom_site_fract_x
_atom_site_fract_y
_atom_site_fract_z
Si Si1 0.321592 0.551116 0.920090
Si Si2 0.672831 0.145986 0.661018
Si Si3 0.323173 0.799299 0.835786
Si Si4 0.677580 0.699117 0.509404
Si Si5 0.824543 0.300158 0.341292
Si Si6 0.323307 0.800886 0.149476
Si Si7 0.672848 0.051817 0.739838
Si Si8 0.180063 0.147070 0.994587
O O1 0.500000 0.549455 0.924299
O O2 0.255745 0.500000 0.949394
O O3 0.277084 0.561892 0.821862
O O4 0.263421 0.593503 0.980387
O O5 0.500000 0.156643 0.633427
O O6 0.707377 0.166830 0.755303
O O7 0.785613 0.166897 0.590939
O O8 0.705338 0.090296 0.665919
O O9 0.500000 0.793031 0.854943
O O10 0.250000 0.750000 0.811849
O O11 0.244674 0.819485 0.920815
O O12 0.500000 0.705003 0.501074
O O13 0.750000 0.750000 0.523423
O O14 0.742329 0.673822 0.421825
O O15 0.750000 0.250000 0.336696
O O16 0.800216 0.322599 0.246276
O O17 0.000000 0.295648 0.364174
O O18 0.500000 0.795915 0.127202
O O19 0.250000 0.750000 0.138849
O O20 0.243652 0.837586 0.086910
O O21 0.500000 0.056646 0.772013
O O22 0.704193 0.000000 0.701146
O O23 0.000000 0.151051 0.993706
#
# Coordination Sequence:
#
# PCOD8173042 Si02
#       8
#     8   8   8   8   8   8   8   8
#     4   9  18  32  49  69  93 122 157 197 240 283
#     4  10  20  33  48  69  96 127 160 196 235 280
#     4  11  22  34  46  63  92 130 165 197 230 272
#     4  11  21  32  49  71  97 128 160 197 236 281
#     4   9  17  31  50  70  93 122 155 196 239 280
#     4  10  20  33  50  71  97 127 160 196 235 280
#     4   9  17  31  51  72  93 120 156 198 242 282
#     4  11  21  32  48  69  95 127 160 196 236 281
#
# _framework density 16.412516
#
# number of rings (size 3 to 8) (size 9 to 14) (size 15 to 20)
#    0.000    2.000    1.250    4.125    0.000    4.500 
#    0.000    0.000    0.000    0.000    0.000    0.875 
#    0.000    1.000    0.000    0.000    0.000    0.000 
#
# Total GULP energy -396664.785312 kJ/mol
# GULP energy per Si atom -12395.774541 kJ/mol
# Density = 1.637516 g / cm^3
# Si number density = 16.412516 Si / 1000 Ang^3
#
#
#
# Elastic Constant Matrix: (Units=GPa)
#
#
# Indices 1 2 3 4 5 6 
#
# 1 78.8256 34.5393 38.7855 0.0000 0.0000 0.0000
# 2 34.5393 95.2268 40.3007 0.0000 0.0000 0.0000
# 3 38.7855 40.3007 95.1599 0.0000 0.0000 0.0000
# 4 0.0000 0.0000 0.0000 10.0329 0.0000 0.0000
# 5 0.0000 0.0000 0.0000 0.0000 25.1050 0.0000
# 6 0.0000 0.0000 0.0000 0.0000 0.0000 16.1656
#
#
#
# Elastic Compliance Matrix: (Units=1/GPa)
#
#
# Indices 1 2 3 4 5 6 
#
# 1 0.017001 -0.003940 -0.005261 0.000000 0.000000 0.000000
# 2 -0.003940 0.013708 -0.004199 0.000000 0.000000 0.000000
# 3 -0.005261 -0.004199 0.014431 0.000000 0.000000 0.000000
# 4 0.000000 0.000000 0.000000 0.099673 0.000000 0.000000
# 5 0.000000 0.000000 0.000000 0.000000 0.039833 0.000000
# 6 0.000000 0.000000 0.000000 0.000000 0.000000 0.061860
#
#
# Mechanical properties :
#
#
# Convention : Reuss Voigt Hill
#
# Bulk Modulus (GPa) = 54.52645 55.16260 54.84452
# Shear Modulus (GPa) = 17.89431 20.63313 19.26372
#
# Velocity S-wave (km/s) = 3.30553 3.54949 3.42968
# Velocity P-wave (km/s) = 6.91833 7.10504 7.01230
#
# Compressibility (1/GPa) = 0.01833972
#
# Stress axis : x y z
#
# Youngs Moduli (GPa) = 58.81947 72.95275 69.29399
#
# Poissons Ratio (x) = 0.28744 0.36454
# Poissons Ratio (y) = 0.23175 0.29099
# Poissons Ratio (z) = 0.30944 0.30635
#
# Static dielectric constant tensor:
#      x y z
#    x 3.200290 0.000000 0.000000 
#    y 0.000000 3.238880 0.000000 
#    z 0.000000 0.000000 3.374420 
# 
# 
# High freq. dielectric constant tensor:
#      x y z
#    x 1.644220 0.000000 0.000000 
#    y 0.000000 1.612790 0.000000 
#    z 0.000000 0.000000 1.620850 
# 
# From -- ./inp_files/16173.got.cif
#   From: 2010.03.12/outbox.cif.g09.slc.cpg/sg35_9_cif.got.tgz:16173.got - 2010.04.14 02:02:04.
