data_PCOD8173087
_publ_section_title
;
Structure prediction by ZEFSAII (Michael W. Deem and Ramdas Pophale) SiO2 
 PCOD8173087
Probable space group: C M M 2
;
_chemical_formula_sum "Si O2"
_cell_formula_units_Z 56
_cell_length_a 8.897637
_cell_length_b 18.528120
_cell_length_c 18.016375
_cell_angle_alpha 90.000000
_cell_angle_beta 90.000000
_cell_angle_gamma 90.000000
_cell_volume 2970.116274
_symmetry_space_group_name_H-M "C M M 2"
_symmetry_group_IT_number 35
_symmetry_cell_setting 'orthorhombic'
loop_
_space_group_symop_operation_xyz
x,y,z
-x,-y,z
-x,y,z
x,-y,z
1/2+x,1/2+y,z
1/2-x,1/2-y,z
1/2-x,1/2+y,z
1/2+x,1/2-y,z
loop_
_atom_site_type_symbol
_atom_site_label
_atom_site_fract_x
_atom_site_fract_y
_atom_site_fract_z
Si Si1 0.673562 0.414763 0.761680
Si Si2 0.169142 0.585791 0.612913
Si Si3 0.822273 0.079686 0.187191
Si Si4 0.824552 0.083183 0.465016
Si Si5 0.325633 0.415712 0.020005
Si Si6 0.322669 0.171903 0.892499
Si Si7 0.178028 0.172808 0.322442
O O1 0.500000 0.393254 0.769861
O O2 0.697230 0.500000 0.770428
O O3 0.732150 0.386813 0.682080
O O4 0.769355 0.376445 0.824419
O O5 0.172641 0.500000 0.610823
O O6 0.238787 0.615572 0.536411
O O7 0.000000 0.615230 0.621481
O O8 0.781831 0.105562 0.104230
O O9 0.757466 0.135111 0.247887
O O10 0.000000 0.074234 0.195665
O O11 0.753800 0.000000 0.201722
O O12 0.770701 0.126043 0.392828
O O13 0.000000 0.092760 0.480290
O O14 0.782953 0.000000 0.451352
O O15 0.500000 0.398807 0.003559
O O16 0.293352 0.500000 0.005414
O O17 0.222387 0.366943 0.968574
O O18 0.500000 0.180485 0.889447
O O19 0.250000 0.250000 0.887712
O O20 0.250000 0.250000 0.330256
O O21 0.000000 0.180192 0.318858
#
# Coordination Sequence:
#
# PCOD8173087 Si02
#       7
#     8   8   8   8   8   8   8
#     4  10  20  36  59  84 110 140 176 218 264 316
#     4   9  17  30  51  80 109 135 169 216 267 314
#     4   8  15  31  56  81 103 133 175 218 258 305
#     4   9  17  31  52  75  99 132 176 221 262 308
#     4   9  18  35  59  84 109 138 175 219 267 319
#     4  12  25  39  55  77 109 145 181 220 264 316
#     4  10  20  33  50  74 105 139 175 215 260 311
#
# _framework density 18.854482000000001
#
# number of rings (size 3 to 8) (size 9 to 14) (size 15 to 20)
#    0.000    2.429    0.000    3.857    0.000    7.429 
#    0.000    2.857    0.000    3.857    0.000    0.000 
#    0.000    0.000    0.000    0.000    0.000    0.000 
#
# Total GULP energy -347207.961752 kJ/mol
# GULP energy per Si atom -12400.284348 kJ/mol
# Density = 1.881157 g / cm^3
# Si number density = 18.854482 Si / 1000 Ang^3
#
#
#
# Elastic Constant Matrix: (Units=GPa)
#
#
# Indices 1 2 3 4 5 6 
#
# 1 95.6445 44.0402 61.0215 0.0000 0.0000 0.0000
# 2 44.0402 75.4990 61.2605 0.0000 0.0000 0.0000
# 3 61.0215 61.2605 159.4020 0.0000 0.0000 0.0000
# 4 0.0000 0.0000 0.0000 -3.3166 0.0000 0.0000
# 5 0.0000 0.0000 0.0000 0.0000 22.5825 0.0000
# 6 0.0000 0.0000 0.0000 0.0000 0.0000 25.4755
#
#
#
# Elastic Compliance Matrix: (Units=1/GPa)
#
#
# Indices 1 2 3 4 5 6 
#
# 1 0.015594 -0.006180 -0.003595 0.000000 0.000000 0.000000
# 2 -0.006180 0.021696 -0.005972 0.000000 0.000000 0.000000
# 3 -0.003595 -0.005972 0.009945 0.000000 0.000000 0.000000
# 4 0.000000 0.000000 0.000000 -0.301516 0.000000 0.000000
# 5 0.000000 0.000000 0.000000 0.000000 0.044282 0.000000
# 6 0.000000 0.000000 0.000000 0.000000 0.000000 0.039253
#
#
# Mechanical properties :
#
#
# Convention : Reuss Voigt Hill
#
# Bulk Modulus (GPa) = 63.52659 73.68776 68.60717
# Shear Modulus (GPa) = -37.31215 19.89651 -8.70782
#
# Velocity S-wave (km/s) = -4.45337 3.25201 -2.15139
# Velocity P-wave (km/s) = 2.70609 7.29849 5.50413
#
# Compressibility (1/GPa) = 0.01574144
#
# Stress axis : x y z
#
# Youngs Moduli (GPa) = 64.12571 46.09145 100.55422
#
# Poissons Ratio (x) = 0.28483 0.36147
# Poissons Ratio (y) = 0.39628 0.60055
# Poissons Ratio (z) = 0.23052 0.27528
#
# Static dielectric constant tensor:
#      x y z
#    x 3.332060 0.000000 0.000000 
#    y 0.000000 3.336610 0.000000 
#    z 0.000000 0.000000 3.770740 
# 
# 
# High freq. dielectric constant tensor:
#      x y z
#    x 1.717340 0.000000 0.000000 
#    y 0.000000 1.711880 0.000000 
#    z 0.000000 0.000000 1.752180 
# 
# From -- ./inp_files/18258.got.cif
#   From: 2010.03.12/outbox.cif.g09.slc.cpg/sg35_10_cif.got.tgz:18258.got - 2010.04.14 02:02:04.
