data_PCOD8173913
_publ_section_title
;
Structure prediction by ZEFSAII (Michael W. Deem and Ramdas Pophale) SiO2 
 PCOD8173913
Probable space group: C M M 2
;
_chemical_formula_sum "Si O2"
_cell_formula_units_Z 48
_cell_length_a 15.408188
_cell_length_b 9.067882
_cell_length_c 16.964657
_cell_angle_alpha 90.000000
_cell_angle_beta 90.000000
_cell_angle_gamma 90.000000
_cell_volume 2370.295610
_symmetry_space_group_name_H-M "C M M 2"
_symmetry_group_IT_number 35
_symmetry_cell_setting 'orthorhombic'
loop_
_space_group_symop_operation_xyz
x,y,z
-x,-y,z
-x,y,z
x,-y,z
1/2+x,1/2+y,z
1/2-x,1/2-y,z
1/2-x,1/2+y,z
1/2+x,1/2-y,z
loop_
_atom_site_type_symbol
_atom_site_label
_atom_site_fract_x
_atom_site_fract_y
_atom_site_fract_z
Si Si1 0.664080 0.826996 0.283050
Si Si2 0.338249 0.173903 0.638052
Si Si3 0.901183 0.330549 0.809333
Si Si4 0.000000 0.823547 0.554287
Si Si5 0.500000 0.827046 0.388818
Si Si6 0.396646 0.333376 0.961634
Si Si7 0.101212 0.671354 0.114980
O O1 0.750000 0.750000 0.316986
O O2 0.584038 0.784924 0.338264
O O3 0.646956 0.770170 0.194164
O O4 0.678825 0.000000 0.282959
O O5 0.250000 0.250000 0.608350
O O6 0.345706 0.200112 0.731486
O O7 0.415807 0.254790 0.594348
O O8 0.339254 0.000000 0.617323
O O9 0.898601 0.500000 0.834387
O O10 0.859895 0.239993 0.881864
O O11 0.000000 0.280838 0.791839
O O12 0.000000 0.778133 0.463611
O O13 0.000000 0.000000 0.563361
O O14 0.500000 0.000000 0.412428
O O15 0.500000 0.317947 0.961340
O O16 0.364374 0.500000 0.962983
O O17 0.358858 0.255228 0.039575
O O18 0.118087 0.500000 0.101714
O O19 0.000000 0.705369 0.124634
#
# Coordination Sequence:
#
# PCOD8173913 Si02
#       7
#     8   8   8   4   4   8   8
#     4  10  21  38  62  90 119 155 198 244 298 356
#     4  11  23  42  66  95 127 163 206 254 308 367
#     4   9  17  33  56  81 114 158 203 246 299 358
#     4  12  26  44  68  97 126 161 202 247 306 371
#     4  10  22  44  68  89 120 159 196 241 300 367
#     4   9  17  27  45  79 116 151 196 249 300 343
#     4   9  16  31  54  78 109 153 201 241 289 354
#
# _framework density 20.250640000000001
#
# number of rings (size 3 to 8) (size 9 to 14) (size 15 to 20)
#    0.000    2.167    1.667    1.750    0.000    5.333 
#    0.000    2.500    0.000    0.000    0.000    0.000 
#    0.000    0.000    0.000    0.000    0.000    0.000 
#
# Total GULP energy -297634.207192 kJ/mol
# GULP energy per Si atom -12401.425300 kJ/mol
# Density = 2.020455 g / cm^3
# Si number density = 20.250640 Si / 1000 Ang^3
#
#
#
# Elastic Constant Matrix: (Units=GPa)
#
#
# Indices 1 2 3 4 5 6 
#
# 1 115.2129 62.8430 55.5764 0.0000 0.0000 0.0000
# 2 62.8430 111.2707 72.0985 0.0000 0.0000 0.0000
# 3 55.5764 72.0985 126.9498 0.0000 0.0000 0.0000
# 4 0.0000 0.0000 0.0000 30.2578 0.0000 0.0000
# 5 0.0000 0.0000 0.0000 0.0000 115.5683 0.0000
# 6 0.0000 0.0000 0.0000 0.0000 0.0000 28.1974
#
#
#
# Elastic Compliance Matrix: (Units=1/GPa)
#
#
# Indices 1 2 3 4 5 6 
#
# 1 0.012992 -0.005779 -0.002406 0.000000 0.000000 0.000000
# 2 -0.005779 0.016790 -0.007006 0.000000 0.000000 0.000000
# 3 -0.002406 -0.007006 0.012909 0.000000 0.000000 0.000000
# 4 0.000000 0.000000 0.000000 0.033049 0.000000 0.000000
# 5 0.000000 0.000000 0.000000 0.000000 0.008653 0.000000
# 6 0.000000 0.000000 0.000000 0.000000 0.000000 0.035464
#
#
# Mechanical properties :
#
#
# Convention : Reuss Voigt Hill
#
# Bulk Modulus (GPa) = 81.22987 81.60770 81.41878
# Shear Modulus (GPa) = 32.39547 45.66571 39.03059
#
# Velocity S-wave (km/s) = 4.00400 4.75386 4.39495
# Velocity P-wave (km/s) = 7.84699 8.39753 8.12693
#
# Compressibility (1/GPa) = 0.01231074
#
# Stress axis : x y z
#
# Youngs Moduli (GPa) = 76.96954 59.55820 77.46434
#
# Poissons Ratio (x) = 0.34418 0.18636
# Poissons Ratio (y) = 0.44479 0.54270
# Poissons Ratio (z) = 0.18517 0.41726
#
# Static dielectric constant tensor:
#      x y z
#    x 3.502530 0.000000 0.000000 
#    y 0.000000 3.587340 0.000000 
#    z 0.000000 0.000000 3.810510 
# 
# 
# High freq. dielectric constant tensor:
#      x y z
#    x 1.779780 0.000000 0.000000 
#    y 0.000000 1.785150 0.000000 
#    z 0.000000 0.000000 1.796020 
# 
# From -- ./inp_files/17923.got.cif
#   From: 2010.03.12/outbox.cif.g09.slc.cpg/sg35_9_cif.got.tgz:17923.got - 2010.04.14 02:02:04.
