data_PCOD8173799
_publ_section_title
;
Structure prediction by ZEFSAII (Michael W. Deem and Ramdas Pophale) SiO2 
 PCOD8173799
Probable space group: C M M 2
;
_chemical_formula_sum "Si O2"
_cell_formula_units_Z 40
_cell_length_a 26.577900
_cell_length_b 14.011318
_cell_length_c 5.085520
_cell_angle_alpha 90.000000
_cell_angle_beta 90.000000
_cell_angle_gamma 90.000000
_cell_volume 1893.803957
_symmetry_space_group_name_H-M "C M M 2"
_symmetry_group_IT_number 35
_symmetry_cell_setting 'orthorhombic'
loop_
_space_group_symop_operation_xyz
x,y,z
-x,-y,z
-x,y,z
x,-y,z
1/2+x,1/2+y,z
1/2-x,1/2-y,z
1/2-x,1/2+y,z
1/2+x,1/2-y,z
loop_
_atom_site_type_symbol
_atom_site_label
_atom_site_fract_x
_atom_site_fract_y
_atom_site_fract_z
Si Si1 0.919373 0.107343 0.115460
Si Si2 0.187070 0.892462 0.904158
Si Si3 0.295071 0.888707 0.122656
Si Si4 0.944915 0.779203 0.610618
Si Si5 0.660376 0.791852 0.626964
O O1 0.938473 0.135931 0.401827
O O2 0.937106 0.000000 0.058245
O O3 0.858724 0.115698 0.109592
O O4 0.943470 0.176256 0.900112
O O5 0.178042 0.817998 0.667346
O O6 0.190881 0.000000 0.784409
O O7 0.237298 0.864894 0.059518
O O8 0.308585 0.834324 0.387941
O O9 0.304247 0.000000 0.168013
O O10 0.330236 0.853198 0.887679
O O11 0.899765 0.703164 0.570701
O O12 0.000000 0.730262 0.574660
#
# Coordination Sequence:
#
# PCOD8173799 Si02
#       5
#     8   8   8   8   8
#     4  10  21  36  55  84 122 159 197 237 284 356
#     4   9  21  39  61  93 128 161 193 233 292 365
#     4  11  24  42  65  91 122 159 203 250 298 355
#     4  11  23  38  57  82 114 156 202 251 303 348
#     4  11  23  41  63  89 121 160 202 249 300 353
#
# _framework density 21.121511999999999
#
# number of rings (size 3 to 8) (size 9 to 14) (size 15 to 20)
#    0.000    1.600    0.000    4.800    0.000   11.200 
#    0.000   13.000    0.000    4.800    0.000    0.000 
#    0.000    0.000    0.000    0.000    0.000    0.000 
#
# Total GULP energy -248033.637003 kJ/mol
# GULP energy per Si atom -12401.681850 kJ/mol
# Density = 2.107344 g / cm^3
# Si number density = 21.121512 Si / 1000 Ang^3
#
#
#
# Elastic Constant Matrix: (Units=GPa)
#
#
# Indices 1 2 3 4 5 6 
#
# 1 544.1262 -21.5973 161.2365 0.0000 0.0000 0.0000
# 2 -21.5973 98.9038 12.8645 0.0000 0.0000 0.0000
# 3 161.2365 12.8645 148.8599 0.0000 0.0000 0.0000
# 4 0.0000 0.0000 0.0000 51.9262 0.0000 0.0000
# 5 0.0000 0.0000 0.0000 0.0000 28.0252 0.0000
# 6 0.0000 0.0000 0.0000 0.0000 0.0000 14.4072
#
#
#
# Elastic Compliance Matrix: (Units=1/GPa)
#
#
# Indices 1 2 3 4 5 6 
#
# 1 0.002804 0.001019 -0.003126 0.000000 0.000000 0.000000
# 2 0.001019 0.010596 -0.002019 0.000000 0.000000 0.000000
# 3 -0.003126 -0.002019 0.010278 0.000000 0.000000 0.000000
# 4 0.000000 0.000000 0.000000 0.019258 0.000000 0.000000
# 5 0.000000 0.000000 0.000000 0.000000 0.035682 0.000000
# 6 0.000000 0.000000 0.000000 0.000000 0.000000 0.069410
#
#
# Mechanical properties :
#
#
# Convention : Reuss Voigt Hill
#
# Bulk Modulus (GPa) = 64.82545 121.87747 93.35146
# Shear Modulus (GPa) = 30.97455 61.49745 46.23600
#
# Velocity S-wave (km/s) = 3.83364 5.40178 4.68380
# Velocity P-wave (km/s) = 7.09605 9.83534 8.57578
#
# Compressibility (1/GPa) = 0.01542604
#
# Stress axis : x y z
#
# Youngs Moduli (GPa) = 356.57424 94.37520 97.29692
#
# Poissons Ratio (x) = -0.09616 0.30412
# Poissons Ratio (y) = -0.36334 0.19648
# Poissons Ratio (z) = 1.11454 0.19058
#
# Static dielectric constant tensor:
#      x y z
#    x 4.199720 0.000000 0.000000 
#    y 0.000000 3.799610 0.000000 
#    z 0.000000 0.000000 2.485520 
# 
# 
# High freq. dielectric constant tensor:
#      x y z
#    x 1.838830 0.000000 0.000000 
#    y 0.000000 1.803250 0.000000 
#    z 0.000000 0.000000 1.833060 
# 
# From -- ./inp_files/3329.got.cif
#   From: 2010.03.12/outbox.cif.g09.slc.cpg/sg35_2_cif.got.tgz:3329.got - 2010.04.14 02:02:04.
