data_PCOD8173685
_publ_section_title
;
Structure prediction by ZEFSAII (Michael W. Deem and Ramdas Pophale) SiO2 
 PCOD8173685
Probable space group: C M M 2
;
_chemical_formula_sum "Si O2"
_cell_formula_units_Z 64
_cell_length_a 20.996078
_cell_length_b 15.699488
_cell_length_c 9.362811
_cell_angle_alpha 90.000000
_cell_angle_beta 90.000000
_cell_angle_gamma 90.000000
_cell_volume 3086.241618
_symmetry_space_group_name_H-M "C M M 2"
_symmetry_group_IT_number 35
_symmetry_cell_setting 'orthorhombic'
loop_
_space_group_symop_operation_xyz
x,y,z
-x,-y,z
-x,y,z
x,-y,z
1/2+x,1/2+y,z
1/2-x,1/2-y,z
1/2-x,1/2+y,z
1/2+x,1/2-y,z
loop_
_atom_site_type_symbol
_atom_site_label
_atom_site_fract_x
_atom_site_fract_y
_atom_site_fract_z
Si Si1 0.428696 0.147529 0.147190
Si Si2 0.810602 0.097685 0.428218
Si Si3 0.749865 0.846952 0.928722
Si Si4 0.355232 0.402699 0.733920
Si Si5 0.706818 0.096854 0.220210
Si Si6 0.429531 0.300566 0.341862
Si Si7 0.618209 0.902559 0.841546
Si Si8 0.428932 0.241305 0.652564
O O1 0.500000 0.110617 0.184165
O O2 0.370214 0.102569 0.231111
O O3 0.426047 0.245723 0.196497
O O4 0.417549 0.138368 0.978172
O O5 0.810095 0.116757 0.596835
O O6 0.742047 0.128242 0.365507
O O7 0.871051 0.134966 0.342382
O O8 0.819141 0.000000 0.396916
O O9 0.750000 0.750000 0.872429
O O10 0.815453 0.890733 0.879142
O O11 0.693554 0.903720 0.863772
O O12 0.739668 0.845758 0.098591
O O13 0.382549 0.500000 0.728141
O O14 0.409962 0.331737 0.725060
O O15 0.723858 0.000000 0.184439
O O16 0.500000 0.345261 0.349212
O O17 0.421733 0.241101 0.481715
O O18 0.608124 0.841907 0.706349
O O19 0.594912 0.000000 0.815351
O O20 0.500000 0.226647 0.703330
#
# Coordination Sequence:
#
# PCOD8173685 Si02
#       8
#     8   8   8   8   8   8   8   8
#     4  10  21  37  57  80 108 148 191 232 285 341
#     4   9  20  36  57  85 116 150 188 233 289 346
#     4  11  21  36  57  85 114 148 190 239 294 347
#     4  10  20  38  60  85 119 153 187 235 289 345
#     4  10  22  37  55  84 114 146 191 240 288 347
#     4   9  20  37  57  82 115 150 191 240 285 340
#     4  11  23  39  59  84 114 152 196 241 289 346
#     4  10  21  38  58  86 117 151 196 237 283 343
#
# _framework density 20.737196999999998
#
# number of rings (size 3 to 8) (size 9 to 14) (size 15 to 20)
#    0.000    2.000    1.250    2.625    3.500    3.250 
#    0.000    5.000    0.000    4.500    0.000    3.500 
#    0.000    0.000    0.000    0.000    0.000    0.000 
#
# Total GULP energy -396500.314713 kJ/mol
# GULP energy per Si atom -12390.634835 kJ/mol
# Density = 2.069000 g / cm^3
# Si number density = 20.737197 Si / 1000 Ang^3
#
#
#
# Elastic Constant Matrix: (Units=GPa)
#
#
# Indices 1 2 3 4 5 6 
#
# 1 74.3268 7.7543 19.5924 0.0000 0.0000 0.0000
# 2 7.7543 80.9701 22.3701 0.0000 0.0000 0.0000
# 3 19.5924 22.3701 42.8063 0.0000 0.0000 0.0000
# 4 0.0000 0.0000 0.0000 25.8221 0.0000 0.0000
# 5 0.0000 0.0000 0.0000 0.0000 26.3941 0.0000
# 6 0.0000 0.0000 0.0000 0.0000 0.0000 20.4950
#
#
#
# Elastic Compliance Matrix: (Units=1/GPa)
#
#
# Indices 1 2 3 4 5 6 
#
# 1 0.015321 0.000549 -0.007299 0.000000 0.000000 0.000000
# 2 0.000549 0.014454 -0.007805 0.000000 0.000000 0.000000
# 3 -0.007299 -0.007805 0.030781 0.000000 0.000000 0.000000
# 4 0.000000 0.000000 0.000000 0.038727 0.000000 0.000000
# 5 0.000000 0.000000 0.000000 0.000000 0.037887 0.000000
# 6 0.000000 0.000000 0.000000 0.000000 0.000000 0.048792
#
#
# Mechanical properties :
#
#
# Convention : Reuss Voigt Hill
#
# Bulk Modulus (GPa) = 31.80093 33.05965 32.43029
# Shear Modulus (GPa) = 22.16766 24.43466 23.30116
#
# Velocity S-wave (km/s) = 3.27307 3.43636 3.35571
# Velocity P-wave (km/s) = 5.44541 5.63219 5.53959
#
# Compressibility (1/GPa) = 0.03144563
#
# Stress axis : x y z
#
# Youngs Moduli (GPa) = 65.27027 69.18530 32.48779
#
# Poissons Ratio (x) = -0.03801 0.23714
# Poissons Ratio (y) = -0.03586 0.25357
# Poissons Ratio (z) = 0.47644 0.53999
#
# Static dielectric constant tensor:
#      x y z
#    x 3.973720 0.000000 0.000000 
#    y 0.000000 3.628440 0.000000 
#    z 0.000000 0.000000 3.716450 
# 
# 
# High freq. dielectric constant tensor:
#      x y z
#    x 1.813960 0.000000 0.000000 
#    y 0.000000 1.802220 0.000000 
#    z 0.000000 0.000000 1.798970 
# 
# From -- ./inp_files/9420.got.cif
#   From: 2010.03.12/outbox.cif.g09.slc.cpg/sg35_5_cif.got.tgz:9420.got - 2010.04.14 02:02:04.
