data_PCOD8173766
_publ_section_title
;
Structure prediction by ZEFSAII (Michael W. Deem and Ramdas Pophale) SiO2 
 PCOD8173766
Probable space group: C M M 2
;
_chemical_formula_sum "Si O2"
_cell_formula_units_Z 48
_cell_length_a 37.563489
_cell_length_b 9.155357
_cell_length_c 7.503005
_cell_angle_alpha 90.000000
_cell_angle_beta 90.000000
_cell_angle_gamma 90.000000
_cell_volume 2580.337081
_symmetry_space_group_name_H-M "C M M 2"
_symmetry_group_IT_number 35
_symmetry_cell_setting 'orthorhombic'
loop_
_space_group_symop_operation_xyz
x,y,z
-x,-y,z
-x,y,z
x,-y,z
1/2+x,1/2+y,z
1/2-x,1/2-y,z
1/2-x,1/2+y,z
1/2+x,1/2-y,z
loop_
_atom_site_type_symbol
_atom_site_label
_atom_site_fract_x
_atom_site_fract_y
_atom_site_fract_z
Si Si1 0.285415 0.329982 0.852350
Si Si2 0.159231 0.170882 0.554509
Si Si3 0.041189 0.832424 0.849050
Si Si4 0.541189 0.667576 0.259968
Si Si5 0.084721 0.327035 0.554509
Si Si6 0.214585 0.829982 0.256668
O O1 0.277272 0.500000 0.835372
O O2 0.250000 0.250000 0.784772
O O3 0.318517 0.285814 0.729716
O O4 0.294963 0.284396 0.054509
O O5 0.124381 0.267451 0.554509
O O6 0.181483 0.214187 0.379302
O O7 0.149125 0.000000 0.554509
O O8 0.064867 0.726471 0.731188
O O9 0.000000 0.799971 0.809428
O O10 0.050061 0.000000 0.800990
O O11 0.050193 0.801199 0.054509
O O12 0.500000 0.700029 0.299591
O O13 0.550061 0.500000 0.308028
O O14 0.564867 0.773529 0.377830
O O15 0.085465 0.500000 0.554509
O O16 0.250000 0.750000 0.324246
O O17 0.222728 0.000000 0.273647
#
# Coordination Sequence:
#
# PCOD8173766 Si02
#       6
#     8   8   8   8   8   8
#     4   9  18  33  54  78 101 129 169 217 267 316
#     4  10  21  36  52  72 103 143 183 218 255 311
#     4   9  19  38  63  85 105 138 185 229 268 319
#     4   9  19  38  63  85 105 138 185 229 268 319
#     4  12  25  36  51  81 118 150 179 220 277 329
#     4   9  18  33  54  78 101 129 169 217 267 316
#
# _framework density 18.602219999999999
#
# number of rings (size 3 to 8) (size 9 to 14) (size 15 to 20)
#    0.000    2.333    0.000    3.500    0.000    6.000 
#    0.000    5.000    0.000    0.000    0.000    0.000 
#    0.000    0.000    0.000    0.000    0.000    0.000 
#
# Total GULP energy -297662.051911 kJ/mol
# GULP energy per Si atom -12402.585496 kJ/mol
# Density = 1.855988 g / cm^3
# Si number density = 18.602220 Si / 1000 Ang^3
#
#
#
# Elastic Constant Matrix: (Units=GPa)
#
#
# Indices 1 2 3 4 5 6 
#
# 1 147.6959 89.4388 86.2795 0.0000 0.0000 0.0000
# 2 89.4388 109.8897 68.6598 0.0000 0.0000 0.0000
# 3 86.2795 68.6598 122.2176 0.0000 0.0000 0.0000
# 4 0.0000 0.0000 0.0000 20.2313 0.0000 0.0000
# 5 0.0000 0.0000 0.0000 0.0000 32.8226 0.0000
# 6 0.0000 0.0000 0.0000 0.0000 0.0000 32.6218
#
#
#
# Elastic Compliance Matrix: (Units=1/GPa)
#
#
# Indices 1 2 3 4 5 6 
#
# 1 0.015810 -0.009082 -0.006059 0.000000 0.000000 0.000000
# 2 -0.009082 0.019239 -0.004397 0.000000 0.000000 0.000000
# 3 -0.006059 -0.004397 0.014929 0.000000 0.000000 0.000000
# 4 0.000000 0.000000 0.000000 0.049428 0.000000 0.000000
# 5 0.000000 0.000000 0.000000 0.000000 0.030467 0.000000
# 6 0.000000 0.000000 0.000000 0.000000 0.000000 0.030654
#
#
# Mechanical properties :
#
#
# Convention : Reuss Voigt Hill
#
# Bulk Modulus (GPa) = 91.71711 96.50661 94.11186
# Shear Modulus (GPa) = 24.60192 26.16350 25.38271
#
# Velocity S-wave (km/s) = 3.64060 3.75436 3.69792
# Velocity P-wave (km/s) = 8.19044 8.41340 8.30267
#
# Compressibility (1/GPa) = 0.01090309
#
# Stress axis : x y z
#
# Youngs Moduli (GPa) = 63.25263 51.97826 66.98231
#
# Poissons Ratio (x) = 0.47206 0.40583
# Poissons Ratio (y) = 0.57445 0.29450
# Poissons Ratio (z) = 0.38323 0.22853
#
# Static dielectric constant tensor:
#      x y z
#    x 3.354360 0.000000 0.000000 
#    y 0.000000 3.282130 0.000000 
#    z 0.000000 0.000000 3.683110 
# 
# 
# High freq. dielectric constant tensor:
#      x y z
#    x 1.719430 0.000000 0.000000 
#    y 0.000000 1.709350 0.000000 
#    z 0.000000 0.000000 1.738640 
# 
# From -- ./inp_files/10480.got.cif
#   From: 2010.03.12/outbox.cif.g09.slc.cpg/sg35_6_cif.got.tgz:10480.got - 2010.04.14 02:02:04.
