data_PCOD8173076
_publ_section_title
;
Structure prediction by ZEFSAII (Michael W. Deem and Ramdas Pophale) SiO2 
 PCOD8173076
Probable space group: C M M 2
;
_chemical_formula_sum "Si O2"
_cell_formula_units_Z 56
_cell_length_a 8.998352
_cell_length_b 19.480757
_cell_length_c 17.596800
_cell_angle_alpha 90.000000
_cell_angle_beta 90.000000
_cell_angle_gamma 90.000000
_cell_volume 3084.625930
_symmetry_space_group_name_H-M "C M M 2"
_symmetry_group_IT_number 35
_symmetry_cell_setting 'orthorhombic'
loop_
_space_group_symop_operation_xyz
x,y,z
-x,-y,z
-x,y,z
x,-y,z
1/2+x,1/2+y,z
1/2-x,1/2-y,z
1/2-x,1/2+y,z
1/2+x,1/2-y,z
loop_
_atom_site_type_symbol
_atom_site_label
_atom_site_fract_x
_atom_site_fract_y
_atom_site_fract_z
Si Si1 0.824527 0.179674 0.401960
Si Si2 0.676853 0.675330 0.828163
Si Si3 0.326530 0.679866 0.230302
Si Si4 0.827246 0.421395 0.946009
Si Si5 0.676638 0.423926 0.526492
Si Si6 0.323699 0.577057 0.695230
Si Si7 0.332374 0.920698 0.121776
O O1 0.750000 0.250000 0.426396
O O2 0.779298 0.159242 0.316093
O O3 0.758144 0.124128 0.460521
O O4 0.000000 0.187279 0.410163
O O5 0.500000 0.683852 0.828290
O O6 0.750000 0.750000 0.828311
O O7 0.725116 0.632152 0.901552
O O8 0.736615 0.632930 0.754994
O O9 0.500000 0.692172 0.224725
O O10 0.250000 0.750000 0.204309
O O11 0.281667 0.619678 0.174012
O O12 0.785104 0.500000 0.924780
O O13 0.000000 0.408110 0.927592
O O14 0.793778 0.407752 0.034136
O O15 0.500000 0.423968 0.523012
O O16 0.738109 0.500000 0.510710
O O17 0.728411 0.400039 0.610730
O O18 0.500000 0.574736 0.699456
O O19 0.263081 0.500000 0.713789
O O20 0.500000 0.896115 0.138915
O O21 0.314278 0.000000 0.142123
#
# Coordination Sequence:
#
# PCOD8173076 Si02
#       7
#     8   8   8   8   8   8   8
#     4   9  18  31  48  71  98 130 165 201 243 290
#     4  11  22  34  50  75 105 134 168 208 248 292
#     4  10  20  33  50  73 102 135 171 209 248 294
#     4   9  19  37  58  77  99 129 164 202 248 302
#     4   8  14  27  48  72  97 126 162 203 245 289
#     4   8  15  29  49  72  97 127 164 204 246 294
#     4   9  19  36  56  77 101 129 162 202 250 302
#
# _framework density 18.154551000000001
#
# number of rings (size 3 to 8) (size 9 to 14) (size 15 to 20)
#    0.000    2.857    0.000    3.000    0.000    4.000 
#    0.000    2.857    0.000    1.286    0.000    4.000 
#    0.000    0.000    0.000    0.000    0.000    0.000 
#
# Total GULP energy -347116.687727 kJ/mol
# GULP energy per Si atom -12397.024562 kJ/mol
# Density = 1.811323 g / cm^3
# Si number density = 18.154551 Si / 1000 Ang^3
#
#
#
# Elastic Constant Matrix: (Units=GPa)
#
#
# Indices 1 2 3 4 5 6 
#
# 1 41.5592 38.8700 33.5293 0.0000 0.0000 0.0000
# 2 38.8700 128.5002 84.7917 0.0000 0.0000 0.0000
# 3 33.5293 84.7917 112.3662 0.0000 0.0000 0.0000
# 4 0.0000 0.0000 0.0000 26.5839 0.0000 0.0000
# 5 0.0000 0.0000 0.0000 0.0000 17.5245 0.0000
# 6 0.0000 0.0000 0.0000 0.0000 0.0000 24.5021
#
#
#
# Elastic Compliance Matrix: (Units=1/GPa)
#
#
# Indices 1 2 3 4 5 6 
#
# 1 0.034843 -0.007328 -0.004867 0.000000 0.000000 0.000000
# 2 -0.007328 0.017041 -0.010673 0.000000 0.000000 0.000000
# 3 -0.004867 -0.010673 0.018405 0.000000 0.000000 0.000000
# 4 0.000000 0.000000 0.000000 0.037617 0.000000 0.000000
# 5 0.000000 0.000000 0.000000 0.000000 0.057063 0.000000
# 6 0.000000 0.000000 0.000000 0.000000 0.000000 0.040813
#
#
# Mechanical properties :
#
#
# Convention : Reuss Voigt Hill
#
# Bulk Modulus (GPa) = 40.72712 66.31195 53.51953
# Shear Modulus (GPa) = 19.25286 22.07106 20.66196
#
# Velocity S-wave (km/s) = 3.26006 3.49052 3.37726
# Velocity P-wave (km/s) = 6.05417 7.26984 6.68968
#
# Compressibility (1/GPa) = 0.02455367
#
# Stress axis : x y z
#
# Youngs Moduli (GPa) = 28.70057 58.68158 54.33185
#
# Poissons Ratio (x) = 0.43001 0.26444
# Poissons Ratio (y) = 0.21031 0.57987
# Poissons Ratio (z) = 0.13969 0.62629
#
# Static dielectric constant tensor:
#      x y z
#    x 3.040660 0.000000 0.000000 
#    y 0.000000 3.456700 0.000000 
#    z 0.000000 0.000000 3.559490 
# 
# 
# High freq. dielectric constant tensor:
#      x y z
#    x 1.675180 0.000000 0.000000 
#    y 0.000000 1.704140 0.000000 
#    z 0.000000 0.000000 1.712580 
# 
# From -- ./inp_files/15632.got.cif
#   From: 2010.03.12/outbox.cif.g09.slc.cpg/sg35_8_cif.got.tgz:15632.got - 2010.04.14 02:02:04.
