data_PCOD8173607
_publ_section_title
;
Structure prediction by ZEFSAII (Michael W. Deem and Ramdas Pophale) SiO2 
 PCOD8173607
Probable space group: C M M 2
;
_chemical_formula_sum "Si O2"
_cell_formula_units_Z 52
_cell_length_a 26.716495
_cell_length_b 11.129106
_cell_length_c 8.777353
_cell_angle_alpha 90.000000
_cell_angle_beta 90.000000
_cell_angle_gamma 90.000000
_cell_volume 2609.776554
_symmetry_space_group_name_H-M "C M M 2"
_symmetry_group_IT_number 35
_symmetry_cell_setting 'orthorhombic'
loop_
_space_group_symop_operation_xyz
x,y,z
-x,-y,z
-x,y,z
x,-y,z
1/2+x,1/2+y,z
1/2-x,1/2-y,z
1/2-x,1/2+y,z
1/2+x,1/2-y,z
loop_
_atom_site_type_symbol
_atom_site_label
_atom_site_fract_x
_atom_site_fract_y
_atom_site_fract_z
Si Si1 0.595922 0.253623 0.401140
Si Si2 0.869886 0.777933 0.869814
Si Si3 0.661559 0.141107 0.169606
Si Si4 0.250000 0.250000 0.373203
Si Si5 0.442946 0.500000 0.932546
Si Si6 0.320848 0.635998 0.588107
Si Si7 0.445213 0.136799 0.675372
Si Si8 0.554504 0.500000 0.287021
O O1 0.610893 0.160062 0.268144
O O2 0.643121 0.269227 0.509407
O O3 0.553006 0.203682 0.511132
O O4 0.583918 0.382084 0.332177
O O5 0.822835 0.824831 0.766666
O O6 0.901858 0.673911 0.790762
O O7 0.910444 0.883975 0.889156
O O8 0.844505 0.724151 0.020450
O O9 0.709201 0.189217 0.263291
O O10 0.667856 0.000000 0.129057
O O11 0.269394 0.351490 0.493137
O O12 0.500000 0.500000 0.857540
O O13 0.452011 0.500000 0.109278
O O14 0.339864 0.500000 0.575646
O O15 0.500000 0.156731 0.750851
O O16 0.434976 0.000000 0.635866
O O17 0.500000 0.500000 0.366083
#
# Coordination Sequence:
#
# PCOD8173607 Si02
#       8
#     8   8   8   4   4   8   8   4
#     4  10  20  36  60  86 118 162 204 252 303 362
#     4  11  22  39  62  91 120 166 198 251 307 372
#     4  11  23  42  63  89 121 160 207 250 314 370
#     4  10  24  42  64  92 116 152 198 264 310 370
#     4  11  22  37  59  95 133 163 205 255 309 363
#     4  10  20  38  62  87 118 150 197 246 313 364
#     4  10  21  37  56  84 122 164 207 249 293 352
#     4  11  20  33  57  93 127 159 205 259 305 357
#
# _framework density 19.925077000000002
#
# number of rings (size 3 to 8) (size 9 to 14) (size 15 to 20)
#    0.000    1.538    3.077    2.308    0.000    0.615 
#    1.385    6.154    0.000    3.692    0.000    0.000 
#    0.000    0.000    0.000    0.000    0.000    0.000 
#
# Total GULP energy -322103.252322 kJ/mol
# GULP energy per Si atom -12388.586628 kJ/mol
# Density = 1.987973 g / cm^3
# Si number density = 19.925077 Si / 1000 Ang^3
#
#
#
# Elastic Constant Matrix: (Units=GPa)
#
#
# Indices 1 2 3 4 5 6 
#
# 1 87.5835 36.7875 50.7408 0.0000 0.0000 0.0000
# 2 36.7875 114.2974 41.2263 0.0000 0.0000 0.0000
# 3 50.7408 41.2263 119.4645 0.0000 0.0000 0.0000
# 4 0.0000 0.0000 0.0000 29.9986 0.0000 0.0000
# 5 0.0000 0.0000 0.0000 0.0000 31.5388 0.0000
# 6 0.0000 0.0000 0.0000 0.0000 0.0000 28.5509
#
#
#
# Elastic Compliance Matrix: (Units=1/GPa)
#
#
# Indices 1 2 3 4 5 6 
#
# 1 0.016047 -0.003091 -0.005749 0.000000 0.000000 0.000000
# 2 -0.003091 0.010588 -0.002341 0.000000 0.000000 0.000000
# 3 -0.005749 -0.002341 0.011620 0.000000 0.000000 0.000000
# 4 0.000000 0.000000 0.000000 0.033335 0.000000 0.000000
# 5 0.000000 0.000000 0.000000 0.000000 0.031707 0.000000
# 6 0.000000 0.000000 0.000000 0.000000 0.000000 0.035025
#
#
# Mechanical properties :
#
#
# Convention : Reuss Voigt Hill
#
# Bulk Modulus (GPa) = 62.91988 64.31719 63.61854
# Shear Modulus (GPa) = 30.12373 30.85705 30.49039
#
# Velocity S-wave (km/s) = 3.89247 3.93956 3.91609
# Velocity P-wave (km/s) = 7.20059 7.28307 7.24195
#
# Compressibility (1/GPa) = 0.01589323
#
# Stress axis : x y z
#
# Youngs Moduli (GPa) = 62.31854 94.44279 86.05629
#
# Poissons Ratio (x) = 0.29194 0.49472
# Poissons Ratio (y) = 0.19264 0.20146
# Poissons Ratio (z) = 0.35826 0.22110
#
# Static dielectric constant tensor:
#      x y z
#    x 3.714410 0.000000 0.000000 
#    y 0.000000 3.538230 0.000000 
#    z 0.000000 0.000000 3.832540 
# 
# 
# High freq. dielectric constant tensor:
#      x y z
#    x 1.768850 0.000000 0.000000 
#    y 0.000000 1.783660 0.000000 
#    z 0.000000 0.000000 1.783540 
# 
# From -- ./inp_files/10197.got.cif
#   From: 2010.03.12/outbox.cif.g09.slc.cpg/sg35_6_cif.got.tgz:10197.got - 2010.04.14 02:02:04.
