data_PCOD8173564
_publ_section_title
;
Structure prediction by ZEFSAII (Michael W. Deem and Ramdas Pophale) SiO2 
 PCOD8173564
Probable space group: C M M 2
;
_chemical_formula_sum "Si O2"
_cell_formula_units_Z 48
_cell_length_a 8.773204
_cell_length_b 15.657491
_cell_length_c 17.119959
_cell_angle_alpha 90.000000
_cell_angle_beta 90.000000
_cell_angle_gamma 90.000000
_cell_volume 2351.706497
_symmetry_space_group_name_H-M "C M M 2"
_symmetry_group_IT_number 35
_symmetry_cell_setting 'orthorhombic'
loop_
_space_group_symop_operation_xyz
x,y,z
-x,-y,z
-x,y,z
x,-y,z
1/2+x,1/2+y,z
1/2-x,1/2-y,z
1/2-x,1/2+y,z
1/2+x,1/2-y,z
loop_
_atom_site_type_symbol
_atom_site_label
_atom_site_fract_x
_atom_site_fract_y
_atom_site_fract_z
Si Si1 0.827783 0.601659 0.401010
Si Si2 0.679754 0.661060 0.713250
Si Si3 0.180746 0.000000 0.991276
Si Si4 0.319541 0.000000 0.159724
Si Si5 0.679913 0.339656 0.248179
Si Si6 0.819952 0.840796 0.886285
Si Si7 0.666843 0.402904 0.552482
O O1 0.815291 0.500000 0.392519
O O2 0.716886 0.646227 0.339149
O O3 0.779840 0.635801 0.487260
O O4 0.000000 0.631975 0.385086
O O5 0.500000 0.667132 0.718133
O O6 0.750000 0.750000 0.689350
O O7 0.738634 0.632367 0.799043
O O8 0.731883 0.600873 0.641339
O O9 0.276796 0.000000 0.069455
O O10 0.231546 0.084288 0.944011
O O11 0.000000 0.000000 0.007838
O O12 0.252023 0.084598 0.198160
O O13 0.500000 0.000000 0.171592
O O14 0.500000 0.338655 0.234883
O O15 0.750000 0.250000 0.219059
O O16 0.750000 0.750000 0.912415
O O17 0.000000 0.830100 0.887621
O O18 0.500000 0.357657 0.548370
O O19 0.646277 0.500000 0.529040
#
# Coordination Sequence:
#
# PCOD8173564 Si02
#       7
#     8   8   4   4   8   8   8
#     4  10  20  36  58  84 121 162 204 253 306 359
#     4   9  18  32  51  76 108 149 192 244 298 350
#     4  10  22  40  64  91 118 157 200 241 300 369
#     4  12  26  46  68  95 130 161 198 251 306 369
#     4  12  25  43  69  97 126 163 206 251 306 368
#     4   9  19  36  59  86 119 155 198 248 301 358
#     4   9  18  31  50  77 110 151 202 249 294 349
#
# _framework density 20.410709000000001
#
# number of rings (size 3 to 8) (size 9 to 14) (size 15 to 20)
#    0.000    2.000    0.833    2.750    1.167    3.333 
#    0.000    3.333    0.000    0.000    0.000    0.000 
#    0.000    0.000    0.000    0.000    0.000    0.000 
#
# Total GULP energy -297471.874554 kJ/mol
# GULP energy per Si atom -12394.661440 kJ/mol
# Density = 2.036425 g / cm^3
# Si number density = 20.410709 Si / 1000 Ang^3
#
#
#
# Elastic Constant Matrix: (Units=GPa)
#
#
# Indices 1 2 3 4 5 6 
#
# 1 100.0192 51.0667 52.1632 0.0000 0.0000 0.0000
# 2 51.0667 114.8444 66.2035 0.0000 0.0000 0.0000
# 3 52.1632 66.2035 138.7404 0.0000 0.0000 0.0000
# 4 0.0000 0.0000 0.0000 6.1270 0.0000 0.0000
# 5 0.0000 0.0000 0.0000 0.0000 26.7637 0.0000
# 6 0.0000 0.0000 0.0000 0.0000 0.0000 30.6773
#
#
#
# Elastic Compliance Matrix: (Units=1/GPa)
#
#
# Indices 1 2 3 4 5 6 
#
# 1 0.013855 -0.004356 -0.003130 0.000000 0.000000 0.000000
# 2 -0.004356 0.013381 -0.004747 0.000000 0.000000 0.000000
# 3 -0.003130 -0.004747 0.010650 0.000000 0.000000 0.000000
# 4 0.000000 0.000000 0.000000 0.163213 0.000000 0.000000
# 5 0.000000 0.000000 0.000000 0.000000 0.037364 0.000000
# 6 0.000000 0.000000 0.000000 0.000000 0.000000 0.032597
#
#
# Mechanical properties :
#
#
# Convention : Reuss Voigt Hill
#
# Bulk Modulus (GPa) = 74.52617 76.94121 75.73369
# Shear Modulus (GPa) = 16.66661 24.99162 20.82911
#
# Velocity S-wave (km/s) = 2.86065 3.50299 3.19799
# Velocity P-wave (km/s) = 6.89229 7.35796 7.12893
#
# Compressibility (1/GPa) = 0.01341811
#
# Stress axis : x y z
#
# Youngs Moduli (GPa) = 72.17712 74.73250 93.89675
#
# Poissons Ratio (x) = 0.32554 0.29394
# Poissons Ratio (y) = 0.31441 0.44576
# Poissons Ratio (z) = 0.22595 0.35478
#
# Static dielectric constant tensor:
#      x y z
#    x 3.715860 0.000000 0.000000 
#    y 0.000000 3.657790 0.000000 
#    z 0.000000 0.000000 3.967140 
# 
# 
# High freq. dielectric constant tensor:
#      x y z
#    x 1.790510 0.000000 0.000000 
#    y 0.000000 1.788920 0.000000 
#    z 0.000000 0.000000 1.807090 
# 
# From -- ./inp_files/17845.got.cif
#   From: 2010.03.12/outbox.cif.g09.slc.cpg/sg35_9_cif.got.tgz:17845.got - 2010.04.14 02:02:04.
