data_PCOD8173517
_publ_section_title
;
Structure prediction by ZEFSAII (Michael W. Deem and Ramdas Pophale) SiO2 
 PCOD8173517
Probable space group: C M M 2
;
_chemical_formula_sum "Si O2"
_cell_formula_units_Z 40
_cell_length_a 14.741195
_cell_length_b 8.966420
_cell_length_c 16.513202
_cell_angle_alpha 90.000000
_cell_angle_beta 90.000000
_cell_angle_gamma 90.000000
_cell_volume 2182.644788
_symmetry_space_group_name_H-M "C M M 2"
_symmetry_group_IT_number 35
_symmetry_cell_setting 'orthorhombic'
loop_
_space_group_symop_operation_xyz
x,y,z
-x,-y,z
-x,y,z
x,-y,z
1/2+x,1/2+y,z
1/2-x,1/2-y,z
1/2-x,1/2+y,z
1/2+x,1/2-y,z
loop_
_atom_site_type_symbol
_atom_site_label
_atom_site_fract_x
_atom_site_fract_y
_atom_site_fract_z
Si Si1 0.000000 0.321996 0.108060
Si Si2 0.000000 0.176269 0.708988
Si Si3 0.847933 0.673557 0.410639
Si Si4 0.000000 0.671699 0.540680
Si Si5 0.500000 0.178075 0.290369
Si Si6 0.156315 0.673367 0.994172
Si Si7 0.154120 0.675066 0.811092
O O1 0.000000 0.258686 0.199122
O O2 0.000000 0.500000 0.108086
O O3 0.086476 0.260773 0.059352
O O4 0.000000 0.214877 0.614680
O O5 0.912332 0.246892 0.749297
O O6 0.000000 0.000000 0.721187
O O7 0.828604 0.500000 0.399864
O O8 0.750000 0.750000 0.416175
O O9 0.907994 0.734383 0.334796
O O10 0.908392 0.704020 0.490181
O O11 0.000000 0.500000 0.570189
O O12 0.500000 0.000000 0.293798
O O13 0.171067 0.500000 0.007291
O O14 0.250000 0.750000 0.012719
O O15 0.121045 0.704602 0.903075
O O16 0.159482 0.500000 0.792130
O O17 0.250000 0.750000 0.796316
#
# Coordination Sequence:
#
# PCOD8173517 Si02
#       7
#     4   4   8   4   4   8   8
#     4   9  16  29  50  74 103 138 172 205 247 301
#     4  12  24  36  54  81 108 136 172 215 266 316
#     4   9  18  34  56  77  99 132 169 205 251 304
#     4   9  20  38  54  72 102 136 169 206 253 312
#     4   8  16  31  50  75 105 136 169 202 244 305
#     4   9  18  32  51  74 100 135 176 214 253 299
#     4  10  20  36  55  76 105 141 181 221 262 309
#
# _framework density 18.32639
#
# number of rings (size 3 to 8) (size 9 to 14) (size 15 to 20)
#    0.000    2.600    0.000    3.300    0.000    4.800 
#    0.000    4.000    0.000    1.200    0.000    0.000 
#    0.000    0.000    0.000    0.000    0.000    0.000 
#
# Total GULP energy -247939.063514 kJ/mol
# GULP energy per Si atom -12396.953176 kJ/mol
# Density = 1.828468 g / cm^3
# Si number density = 18.326390 Si / 1000 Ang^3
#
#
#
# Elastic Constant Matrix: (Units=GPa)
#
#
# Indices 1 2 3 4 5 6 
#
# 1 145.3804 58.9126 79.5061 0.0000 0.0000 0.0000
# 2 58.9126 71.3999 52.5026 0.0000 0.0000 0.0000
# 3 79.5061 52.5026 133.8505 0.0000 0.0000 0.0000
# 4 0.0000 0.0000 0.0000 18.9410 0.0000 0.0000
# 5 0.0000 0.0000 0.0000 0.0000 23.3329 0.0000
# 6 0.0000 0.0000 0.0000 0.0000 0.0000 34.7359
#
#
#
# Elastic Compliance Matrix: (Units=1/GPa)
#
#
# Indices 1 2 3 4 5 6 
#
# 1 0.012045 -0.006573 -0.004576 0.000000 0.000000 0.000000
# 2 -0.006573 0.023270 -0.005223 0.000000 0.000000 0.000000
# 3 -0.004576 -0.005223 0.012238 0.000000 0.000000 0.000000
# 4 0.000000 0.000000 0.000000 0.052795 0.000000 0.000000
# 5 0.000000 0.000000 0.000000 0.000000 0.042858 0.000000
# 6 0.000000 0.000000 0.000000 0.000000 0.000000 0.028789
#
#
# Mechanical properties :
#
#
# Convention : Reuss Voigt Hill
#
# Bulk Modulus (GPa) = 67.53265 81.38593 74.45929
# Shear Modulus (GPa) = 23.84634 26.04929 24.94781
#
# Velocity S-wave (km/s) = 3.61113 3.77425 3.69359
# Velocity P-wave (km/s) = 7.37000 7.96861 7.67515
#
# Compressibility (1/GPa) = 0.01480765
#
# Stress axis : x y z
#
# Youngs Moduli (GPa) = 83.02313 42.97379 81.71265
#
# Poissons Ratio (x) = 0.28248 0.37393
# Poissons Ratio (y) = 0.54573 0.42680
# Poissons Ratio (z) = 0.37993 0.22446
#
# Static dielectric constant tensor:
#      x y z
#    x 3.464400 0.000000 0.000000 
#    y 0.000000 3.165050 0.000000 
#    z 0.000000 0.000000 3.545840 
# 
# 
# High freq. dielectric constant tensor:
#      x y z
#    x 1.720700 0.000000 0.000000 
#    y 0.000000 1.688950 0.000000 
#    z 0.000000 0.000000 1.713610 
# 
# From -- ./inp_files/14859.got.cif
#   From: 2010.03.12/outbox.cif.g09.slc.cpg/sg35_8_cif.got.tgz:14859.got - 2010.04.14 02:02:04.
