data_PCOD8173536
_publ_section_title
;
Structure prediction by ZEFSAII (Michael W. Deem and Ramdas Pophale) SiO2 
 PCOD8173536
Probable space group: C M M 2
;
_chemical_formula_sum "Si O2"
_cell_formula_units_Z 48
_cell_length_a 15.804229
_cell_length_b 9.062149
_cell_length_c 16.816706
_cell_angle_alpha 90.000000
_cell_angle_beta 90.000000
_cell_angle_gamma 90.000000
_cell_volume 2408.493309
_symmetry_space_group_name_H-M "C M M 2"
_symmetry_group_IT_number 35
_symmetry_cell_setting 'orthorhombic'
loop_
_space_group_symop_operation_xyz
x,y,z
-x,-y,z
-x,y,z
x,-y,z
1/2+x,1/2+y,z
1/2-x,1/2-y,z
1/2-x,1/2+y,z
1/2+x,1/2-y,z
loop_
_atom_site_type_symbol
_atom_site_label
_atom_site_fract_x
_atom_site_fract_y
_atom_site_fract_z
Si Si1 0.500000 0.675103 0.303520
Si Si2 0.097537 0.670018 0.061834
Si Si3 0.500000 0.675764 0.483356
Si Si4 0.664651 0.325967 0.575728
Si Si5 0.334982 0.324895 0.209238
Si Si6 0.404041 0.665359 0.742776
Si Si7 0.339072 0.172693 0.890103
O O1 0.500000 0.500000 0.301365
O O2 0.500000 0.735360 0.393178
O O3 0.584711 0.732832 0.259866
O O4 0.123330 0.500000 0.076112
O O5 0.153496 0.773601 0.118131
O O6 0.000000 0.697195 0.081742
O O7 0.113833 0.716995 0.971114
O O8 0.500000 0.500000 0.486328
O O9 0.415357 0.735904 0.526093
O O10 0.672959 0.500000 0.563600
O O11 0.750000 0.250000 0.543747
O O12 0.653274 0.284824 0.668547
O O13 0.325274 0.500000 0.212607
O O14 0.250000 0.250000 0.244201
O O15 0.500000 0.668137 0.711883
O O16 0.378890 0.500000 0.770193
O O17 0.395169 0.775615 0.816175
O O18 0.250000 0.250000 0.885603
O O19 0.325593 0.000000 0.883599
#
# Coordination Sequence:
#
# PCOD8173536 Si02
#       7
#     4   8   4   8   8   8   8
#     4   9  20  38  61  88 117 150 192 237 287 351
#     4  10  21  38  59  83 113 150 193 240 290 341
#     4   9  18  38  63  84 115 156 190 231 289 349
#     4  10  20  36  60  87 116 153 194 236 285 343
#     4  11  22  38  60  89 119 153 196 239 288 347
#     4  10  20  36  57  82 112 150 195 238 286 343
#     4  11  23  37  53  79 113 151 194 240 287 339
#
# _framework density 19.929473000000002
#
# number of rings (size 3 to 8) (size 9 to 14) (size 15 to 20)
#    0.000    1.833    1.667    2.500    0.000    6.333 
#    0.000    0.417    0.000    3.000    0.000    0.000 
#    0.000    0.000    0.000    0.000    0.000    0.000 
#
# Total GULP energy -297666.143608 kJ/mol
# GULP energy per Si atom -12402.755984 kJ/mol
# Density = 1.988411 g / cm^3
# Si number density = 19.929473 Si / 1000 Ang^3
#
#
#
# Elastic Constant Matrix: (Units=GPa)
#
#
# Indices 1 2 3 4 5 6 
#
# 1 149.5040 38.9618 60.9696 0.0000 0.0000 0.0000
# 2 38.9618 49.0504 43.7443 0.0000 0.0000 0.0000
# 3 60.9696 43.7443 119.8926 0.0000 0.0000 0.0000
# 4 0.0000 0.0000 0.0000 16.9208 0.0000 0.0000
# 5 0.0000 0.0000 0.0000 0.0000 23.7000 0.0000
# 6 0.0000 0.0000 0.0000 0.0000 0.0000 29.4749
#
#
#
# Elastic Compliance Matrix: (Units=1/GPa)
#
#
# Indices 1 2 3 4 5 6 
#
# 1 0.009086 -0.004590 -0.002946 0.000000 0.000000 0.000000
# 2 -0.004590 0.032540 -0.009538 0.000000 0.000000 0.000000
# 3 -0.002946 -0.009538 0.013319 0.000000 0.000000 0.000000
# 4 0.000000 0.000000 0.000000 0.059099 0.000000 0.000000
# 5 0.000000 0.000000 0.000000 0.000000 0.042194 0.000000
# 6 0.000000 0.000000 0.000000 0.000000 0.000000 0.033927
#
#
# Mechanical properties :
#
#
# Convention : Reuss Voigt Hill
#
# Bulk Modulus (GPa) = 48.08538 67.31091 57.69814
# Shear Modulus (GPa) = 21.62197 25.67057 23.64627
#
# Velocity S-wave (km/s) = 3.29739 3.59286 3.44829
# Velocity P-wave (km/s) = 6.21910 7.14559 6.69838
#
# Compressibility (1/GPa) = 0.02079634
#
# Stress axis : x y z
#
# Youngs Moduli (GPa) = 110.05409 30.73170 75.08045
#
# Poissons Ratio (x) = 0.14107 0.22118
# Poissons Ratio (y) = 0.50518 0.71613
# Poissons Ratio (z) = 0.32421 0.29312
#
# Static dielectric constant tensor:
#      x y z
#    x 3.805210 0.000000 0.000000 
#    y 0.000000 3.399260 0.000000 
#    z 0.000000 0.000000 3.719380 
# 
# 
# High freq. dielectric constant tensor:
#      x y z
#    x 1.793110 0.000000 0.000000 
#    y 0.000000 1.753830 0.000000 
#    z 0.000000 0.000000 1.775450 
# 
# From -- ./inp_files/17126.got.cif
#   From: 2010.03.12/outbox.cif.g09.slc.cpg/sg35_9_cif.got.tgz:17126.got - 2010.04.14 02:02:04.
