data_PCOD8173359
_publ_section_title
;
Structure prediction by ZEFSAII (Michael W. Deem and Ramdas Pophale) SiO2 
 PCOD8173359
Probable space group: C M M 2
;
_chemical_formula_sum "Si O2"
_cell_formula_units_Z 64
_cell_length_a 27.975636
_cell_length_b 9.192633
_cell_length_c 12.974527
_cell_angle_alpha 90.000000
_cell_angle_beta 90.000000
_cell_angle_gamma 90.000000
_cell_volume 3336.655926
_symmetry_space_group_name_H-M "C M M 2"
_symmetry_group_IT_number 35
_symmetry_cell_setting 'orthorhombic'
loop_
_space_group_symop_operation_xyz
x,y,z
-x,-y,z
-x,y,z
x,-y,z
1/2+x,1/2+y,z
1/2-x,1/2-y,z
1/2-x,1/2+y,z
1/2+x,1/2-y,z
loop_
_atom_site_type_symbol
_atom_site_label
_atom_site_fract_x
_atom_site_fract_y
_atom_site_fract_z
Si Si1 0.890295 0.828983 0.581270
Si Si2 0.895041 0.671626 0.187081
Si Si3 0.054782 0.829979 0.373653
Si Si4 0.798974 0.667440 0.096570
Si Si5 0.798112 0.665297 0.873036
Si Si6 0.942898 0.334665 0.758402
Si Si7 0.552965 0.827561 0.985582
Si Si8 0.198842 0.328201 0.648244
O O1 0.920430 0.788947 0.480583
O O2 0.921091 0.777477 0.678190
O O3 0.839615 0.744947 0.572296
O O4 0.880497 0.000000 0.590846
O O5 0.903828 0.500000 0.196395
O O6 0.917815 0.747781 0.284167
O O7 0.838442 0.708890 0.182041
O O8 0.917417 0.735227 0.081533
O O9 0.000000 0.777018 0.378078
O O10 0.057938 0.000000 0.351086
O O11 0.785150 0.500000 0.105075
O O12 0.750000 0.750000 0.118074
O O13 0.823983 0.697042 0.982879
O O14 0.782394 0.500000 0.866572
O O15 0.750000 0.750000 0.879408
O O16 0.823686 0.702034 0.763895
O O17 0.926080 0.500000 0.732766
O O18 0.000000 0.325853 0.755495
O O19 0.924533 0.289218 0.873288
O O20 0.500000 0.760260 0.993980
O O21 0.550421 0.000000 0.993170
O O22 0.204269 0.500000 0.624492
O O23 0.250000 0.250000 0.634627
#
# Coordination Sequence:
#
# PCOD8173359 Si02
#       8
#     8   8   8   8   8   8   8   8
#     4  11  23  38  57  81 111 150 194 236 285 339
#     4  10  20  34  58  86 110 141 188 235 279 334
#     4  10  23  43  62  80 108 146 186 234 291 342
#     4   9  18  32  51  79 113 149 185 224 269 323
#     4   8  15  28  48  74 107 146 181 217 263 316
#     4   9  18  33  55  83 113 146 184 228 283 348
#     4   8  15  29  51  80 112 142 173 219 283 346
#     4  10  20  35  57  84 116 152 190 234 281 333
#
# _framework density 19.180880999999999
#
# number of rings (size 3 to 8) (size 9 to 14) (size 15 to 20)
#    0.000    2.625    0.000    2.250    1.750    3.500 
#    0.000    1.250    0.000    2.250    0.000    0.000 
#    0.000    0.000    0.000    0.000    0.000    0.000 
#
# Total GULP energy -396497.919664 kJ/mol
# GULP energy per Si atom -12390.559990 kJ/mol
# Density = 1.913722 g / cm^3
# Si number density = 19.180881 Si / 1000 Ang^3
#
#
#
# Elastic Constant Matrix: (Units=GPa)
#
#
# Indices 1 2 3 4 5 6 
#
# 1 105.2802 50.1506 75.3818 0.0000 0.0000 0.0000
# 2 50.1506 63.9667 53.8810 0.0000 0.0000 0.0000
# 3 75.3818 53.8810 128.3338 0.0000 0.0000 0.0000
# 4 0.0000 0.0000 0.0000 21.0150 0.0000 0.0000
# 5 0.0000 0.0000 0.0000 0.0000 31.9560 0.0000
# 6 0.0000 0.0000 0.0000 0.0000 0.0000 29.9455
#
#
#
# Elastic Compliance Matrix: (Units=1/GPa)
#
#
# Indices 1 2 3 4 5 6 
#
# 1 0.018967 -0.008488 -0.007578 0.000000 0.000000 0.000000
# 2 -0.008488 0.027985 -0.006764 0.000000 0.000000 0.000000
# 3 -0.007578 -0.006764 0.015083 0.000000 0.000000 0.000000
# 4 0.000000 0.000000 0.000000 0.047585 0.000000 0.000000
# 5 0.000000 0.000000 0.000000 0.000000 0.031293 0.000000
# 6 0.000000 0.000000 0.000000 0.000000 0.000000 0.033394
#
#
# Mechanical properties :
#
#
# Convention : Reuss Voigt Hill
#
# Bulk Modulus (GPa) = 61.06187 72.93416 66.99802
# Shear Modulus (GPa) = 22.18035 24.46112 23.32073
#
# Velocity S-wave (km/s) = 3.40424 3.57499 3.49066
# Velocity P-wave (km/s) = 6.88155 7.42615 7.15903
#
# Compressibility (1/GPa) = 0.01637683
#
# Stress axis : x y z
#
# Youngs Moduli (GPa) = 52.72246 35.73334 66.29986
#
# Poissons Ratio (x) = 0.30330 0.50239
# Poissons Ratio (y) = 0.44749 0.44845
# Poissons Ratio (z) = 0.39951 0.24170
#
# Static dielectric constant tensor:
#      x y z
#    x 3.493020 0.000000 0.000000 
#    y 0.000000 3.317400 0.000000 
#    z 0.000000 0.000000 3.955760 
# 
# 
# High freq. dielectric constant tensor:
#      x y z
#    x 1.751430 0.000000 0.000000 
#    y 0.000000 1.725700 0.000000 
#    z 0.000000 0.000000 1.741170 
# 
# From -- ./inp_files/14568.got.cif
#   From: 2010.03.12/outbox.cif.g09.slc.cpg/sg35_8_cif.got.tgz:14568.got - 2010.04.14 02:02:04.
