data_PCOD8173194
_publ_section_title
;
Structure prediction by ZEFSAII (Michael W. Deem and Ramdas Pophale) SiO2 
 PCOD8173194
Probable space group: C M M 2
;
_chemical_formula_sum "Si O2"
_cell_formula_units_Z 64
_cell_length_a 8.943070
_cell_length_b 19.117524
_cell_length_c 20.391095
_cell_angle_alpha 90.000000
_cell_angle_beta 90.000000
_cell_angle_gamma 90.000000
_cell_volume 3486.252367
_symmetry_space_group_name_H-M "C M M 2"
_symmetry_group_IT_number 35
_symmetry_cell_setting 'orthorhombic'
loop_
_space_group_symop_operation_xyz
x,y,z
-x,-y,z
-x,y,z
x,-y,z
1/2+x,1/2+y,z
1/2-x,1/2-y,z
1/2-x,1/2+y,z
1/2+x,1/2-y,z
loop_
_atom_site_type_symbol
_atom_site_label
_atom_site_fract_x
_atom_site_fract_y
_atom_site_fract_z
Si Si1 0.331176 0.582252 0.201040
Si Si2 0.675418 0.821619 0.100838
Si Si3 0.177460 0.922342 0.347134
Si Si4 0.824288 0.678794 0.953112
Si Si5 0.167923 0.082968 0.707944
Si Si6 0.178105 0.173859 0.464702
Si Si7 0.674510 0.919426 0.837495
Si Si8 0.825075 0.581929 0.575708
O O1 0.500000 0.610259 0.191345
O O2 0.325989 0.500000 0.190026
O O3 0.222803 0.616323 0.148323
O O4 0.271958 0.600642 0.274195
O O5 0.500000 0.811557 0.104640
O O6 0.750000 0.750000 0.124947
O O7 0.727782 0.840556 0.026863
O O8 0.235450 0.865061 0.398831
O O9 0.000000 0.927100 0.348814
O O10 0.241802 0.000000 0.364229
O O11 0.750000 0.750000 0.928970
O O12 0.771659 0.618420 0.903694
O O13 0.000000 0.689386 0.950674
O O14 0.237913 0.112690 0.775229
O O15 0.270938 0.106484 0.647379
O O16 0.000000 0.112479 0.699008
O O17 0.166435 0.000000 0.711927
O O18 0.250000 0.250000 0.467658
O O19 0.231148 0.127064 0.524918
O O20 0.000000 0.180920 0.466733
O O21 0.500000 0.908306 0.823884
O O22 0.714533 0.000000 0.847959
O O23 0.790876 0.500000 0.563913
O O24 0.000000 0.598233 0.568710
#
# Coordination Sequence:
#
# PCOD8173194 Si02
#       8
#     8   8   8   8   8   8   8   8
#     4   9  18  34  55  79 107 136 168 210 259 308
#     4  10  20  34  52  74 102 137 177 217 258 307
#     4   8  16  33  56  78 101 134 173 210 253 307
#     4   9  19  34  51  71  98 134 171 209 253 303
#     4   9  17  30  50  77 105 132 166 208 253 302
#     4  11  22  36  54  77 107 139 172 212 257 304
#     4   9  17  31  51  74 100 130 165 207 255 303
#     4  10  20  35  56  80 105 135 172 213 257 306
#
# _framework density 18.357821999999999
#
# number of rings (size 3 to 8) (size 9 to 14) (size 15 to 20)
#    0.000    2.625    0.000    2.625    0.000    5.000 
#    0.000    4.375    0.000    4.500    0.000    0.000 
#    0.000    0.000    0.000    0.000    0.000    0.000 
#
# Total GULP energy -396771.856835 kJ/mol
# GULP energy per Si atom -12399.120526 kJ/mol
# Density = 1.831604 g / cm^3
# Si number density = 18.357822 Si / 1000 Ang^3
#
#
#
# Elastic Constant Matrix: (Units=GPa)
#
#
# Indices 1 2 3 4 5 6 
#
# 1 63.5561 36.3066 43.0477 0.0000 0.0000 0.0000
# 2 36.3066 79.3082 66.8019 0.0000 0.0000 0.0000
# 3 43.0477 66.8019 134.8026 0.0000 0.0000 0.0000
# 4 0.0000 0.0000 0.0000 2.3440 0.0000 0.0000
# 5 0.0000 0.0000 0.0000 0.0000 28.3991 0.0000
# 6 0.0000 0.0000 0.0000 0.0000 0.0000 24.7228
#
#
#
# Elastic Compliance Matrix: (Units=1/GPa)
#
#
# Indices 1 2 3 4 5 6 
#
# 1 0.022244 -0.007209 -0.003531 0.000000 0.000000 0.000000
# 2 -0.007209 0.023979 -0.009581 0.000000 0.000000 0.000000
# 3 -0.003531 -0.009581 0.013294 0.000000 0.000000 0.000000
# 4 0.000000 0.000000 0.000000 0.426618 0.000000 0.000000
# 5 0.000000 0.000000 0.000000 0.000000 0.035212 0.000000
# 6 0.000000 0.000000 0.000000 0.000000 0.000000 0.040448
#
#
# Mechanical properties :
#
#
# Convention : Reuss Voigt Hill
#
# Bulk Modulus (GPa) = 52.97937 63.33103 58.15520
# Shear Modulus (GPa) = 8.21384 19.86058 14.03721
#
# Velocity S-wave (km/s) = 2.11755 3.29273 2.76822
# Velocity P-wave (km/s) = 5.90768 7.00208 6.47803
#
# Compressibility (1/GPa) = 0.01887527
#
# Stress axis : x y z
#
# Youngs Moduli (GPa) = 44.95645 41.70255 75.22363
#
# Poissons Ratio (x) = 0.30063 0.26561
# Poissons Ratio (y) = 0.32409 0.72072
# Poissons Ratio (z) = 0.15874 0.39955
#
# Static dielectric constant tensor:
#      x y z
#    x 3.325150 0.000000 0.000000 
#    y 0.000000 3.314040 0.000000 
#    z 0.000000 0.000000 3.674810 
# 
# 
# High freq. dielectric constant tensor:
#      x y z
#    x 1.704110 0.000000 0.000000 
#    y 0.000000 1.692360 0.000000 
#    z 0.000000 0.000000 1.724650 
# 
# From -- ./inp_files/18293.got.cif
#   From: 2010.03.12/outbox.cif.g09.slc.cpg/sg35_10_cif.got.tgz:18293.got - 2010.04.14 02:02:04.
