data_PCOD8173792
_publ_section_title
;
Structure prediction by ZEFSAII (Michael W. Deem and Ramdas Pophale) SiO2 
 PCOD8173792
Probable space group: C M M 2
;
_chemical_formula_sum "Si O2"
_cell_formula_units_Z 64
_cell_length_a 9.209884
_cell_length_b 18.614634
_cell_length_c 20.442470
_cell_angle_alpha 90.000000
_cell_angle_beta 90.000000
_cell_angle_gamma 90.000000
_cell_volume 3504.628843
_symmetry_space_group_name_H-M "C M M 2"
_symmetry_group_IT_number 35
_symmetry_cell_setting 'orthorhombic'
loop_
_space_group_symop_operation_xyz
x,y,z
-x,-y,z
-x,y,z
x,-y,z
1/2+x,1/2+y,z
1/2-x,1/2-y,z
1/2-x,1/2+y,z
1/2+x,1/2-y,z
loop_
_atom_site_type_symbol
_atom_site_label
_atom_site_fract_x
_atom_site_fract_y
_atom_site_fract_z
Si Si1 0.331513 0.083319 0.569760
Si Si2 0.667502 0.916672 0.956123
Si Si3 0.336347 0.085485 0.206954
Si Si4 0.331676 0.582370 0.334618
Si Si5 0.835811 0.085734 0.081903
Si Si6 0.328590 0.673854 0.461668
Si Si7 0.330103 0.178605 0.836915
Si Si8 0.832225 0.678921 0.690218
O O1 0.500000 0.094759 0.550704
O O2 0.229727 0.125905 0.520516
O O3 0.299291 0.112548 0.642507
O O4 0.288549 0.000000 0.568309
O O5 0.500000 0.900723 0.972061
O O6 0.717250 0.882646 0.887589
O O7 0.698362 0.000000 0.947937
O O8 0.760783 0.884666 0.016007
O O9 0.500000 0.115598 0.205602
O O10 0.259339 0.111675 0.273230
O O11 0.250162 0.116596 0.144563
O O12 0.335426 0.000000 0.204356
O O13 0.500000 0.587967 0.315871
O O14 0.290627 0.500000 0.352021
O O15 0.290844 0.632226 0.395290
O O16 0.000000 0.114414 0.084644
O O17 0.830884 0.000000 0.082708
O O18 0.500000 0.685387 0.470540
O O19 0.250000 0.750000 0.461022
O O20 0.500000 0.193335 0.840217
O O21 0.250000 0.250000 0.859388
O O22 0.282802 0.155980 0.763375
O O23 0.750000 0.750000 0.665686
O O24 0.000000 0.699731 0.689233
#
# Coordination Sequence:
#
# PCOD8173792 Si02
#       8
#     8   8   8   8   8   8   8   8
#     4  10  21  36  55  80 108 136 169 212 258 304
#     4   9  17  29  46  69  96 126 163 207 251 295
#     4   9  16  26  44  71 100 129 162 202 247 295
#     4   9  18  33  52  74 100 130 165 206 252 301
#     4   9  16  26  42  66  97 131 164 200 245 296
#     4  11  23  38  56  77 104 139 176 212 253 304
#     4   9  18  32  50  71  97 131 168 206 249 298
#     4   9  18  33  52  74 100 132 169 207 250 301
#
# _framework density 18.261562999999999
#
# number of rings (size 3 to 8) (size 9 to 14) (size 15 to 20)
#    0.000    2.625    0.000    1.875    0.000    7.250 
#    0.000    3.750    0.000    0.750    0.000   10.500 
#    0.000    0.000    0.000    0.000    0.000    0.000 
#
# Total GULP energy -396802.585281 kJ/mol
# GULP energy per Si atom -12400.080790 kJ/mol
# Density = 1.822000 g / cm^3
# Si number density = 18.261563 Si / 1000 Ang^3
#
#
#
# Elastic Constant Matrix: (Units=GPa)
#
#
# Indices 1 2 3 4 5 6 
#
# 1 92.7707 46.8510 75.1351 0.0000 0.0000 0.0000
# 2 46.8510 82.4528 65.0363 0.0000 0.0000 0.0000
# 3 75.1351 65.0363 148.6672 0.0000 0.0000 0.0000
# 4 0.0000 0.0000 0.0000 5.1506 0.0000 0.0000
# 5 0.0000 0.0000 0.0000 0.0000 33.3787 0.0000
# 6 0.0000 0.0000 0.0000 0.0000 0.0000 20.0584
#
#
#
# Elastic Compliance Matrix: (Units=1/GPa)
#
#
# Indices 1 2 3 4 5 6 
#
# 1 0.019540 -0.005059 -0.007662 0.000000 0.000000 0.000000
# 2 -0.005059 0.019828 -0.006117 0.000000 0.000000 0.000000
# 3 -0.007662 -0.006117 0.013275 0.000000 0.000000 0.000000
# 4 0.000000 0.000000 0.000000 0.194151 0.000000 0.000000
# 5 0.000000 0.000000 0.000000 0.000000 0.029959 0.000000
# 6 0.000000 0.000000 0.000000 0.000000 0.000000 0.049855
#
#
# Mechanical properties :
#
#
# Convention : Reuss Voigt Hill
#
# Bulk Modulus (GPa) = 66.81926 77.54840 72.18383
# Shear Modulus (GPa) = 13.54014 20.84209 17.19111
#
# Velocity S-wave (km/s) = 2.72592 3.38199 3.07152
# Velocity P-wave (km/s) = 6.82474 7.60316 7.22444
#
# Compressibility (1/GPa) = 0.01496574
#
# Stress axis : x y z
#
# Youngs Moduli (GPa) = 51.17784 50.43416 75.33132
#
# Poissons Ratio (x) = 0.25516 0.57719
# Poissons Ratio (y) = 0.25892 0.46080
# Poissons Ratio (z) = 0.39212 0.30851
#
# Static dielectric constant tensor:
#      x y z
#    x 3.440810 0.000000 0.000000 
#    y 0.000000 3.136950 0.000000 
#    z 0.000000 0.000000 3.629490 
# 
# 
# High freq. dielectric constant tensor:
#      x y z
#    x 1.710520 0.000000 0.000000 
#    y 0.000000 1.673120 0.000000 
#    z 0.000000 0.000000 1.723100 
# 
# From -- ./inp_files/18311.got.cif
#   From: 2010.03.12/outbox.cif.g09.slc.cpg/sg35_10_cif.got.tgz:18311.got - 2010.04.14 02:02:04.
