data_PCOD8173229
_publ_section_title
;
Structure prediction by ZEFSAII (Michael W. Deem and Ramdas Pophale) SiO2 
 PCOD8173229
Probable space group: C M M 2
;
_chemical_formula_sum "Si O2"
_cell_formula_units_Z 48
_cell_length_a 19.925403
_cell_length_b 7.906964
_cell_length_c 16.845227
_cell_angle_alpha 90.000000
_cell_angle_beta 90.000000
_cell_angle_gamma 90.000000
_cell_volume 2653.956151
_symmetry_space_group_name_H-M "C M M 2"
_symmetry_group_IT_number 35
_symmetry_cell_setting 'orthorhombic'
loop_
_space_group_symop_operation_xyz
x,y,z
-x,-y,z
-x,y,z
x,-y,z
1/2+x,1/2+y,z
1/2-x,1/2-y,z
1/2-x,1/2+y,z
1/2+x,1/2-y,z
loop_
_atom_site_type_symbol
_atom_site_label
_atom_site_fract_x
_atom_site_fract_y
_atom_site_fract_z
Si Si1 0.919764 0.000000 0.972520
Si Si2 0.823925 0.199884 0.555320
Si Si3 0.577604 0.190670 0.686890
Si Si4 0.920067 0.688011 0.075601
Si Si5 0.920654 0.000000 0.794585
Si Si6 0.924892 0.302545 0.253043
Si Si7 0.179761 0.808304 0.379712
O O1 0.890597 0.000000 0.883515
O O2 0.892187 0.830939 0.016081
O O3 0.000000 0.000000 0.974510
O O4 0.750000 0.250000 0.586523
O O5 0.879642 0.293767 0.607237
O O6 0.833564 0.276077 0.465910
O O7 0.835628 0.000000 0.562489
O O8 0.500000 0.226820 0.665670
O O9 0.603832 0.329188 0.750575
O O10 0.585918 0.000000 0.721704
O O11 0.893466 0.500000 0.051225
O O12 0.896397 0.734369 0.164884
O O13 0.000000 0.683717 0.075269
O O14 0.000000 0.000000 0.801361
O O15 0.924864 0.500000 0.270198
O O16 0.879569 0.213969 0.318017
O O17 0.000000 0.228791 0.261631
O O18 0.250000 0.750000 0.340944
O O19 0.188331 0.000000 0.401906
#
# Coordination Sequence:
#
# PCOD8173229 Si02
#       7
#     4   8   8   8   4   8   8
#     4   9  16  26  46  71  99 135 165 203 256 301
#     4  10  20  35  53  74 102 133 174 221 256 302
#     4  10  20  34  53  76 106 140 171 209 259 311
#     4   8  15  27  43  68 101 133 167 207 248 296
#     4   9  18  32  48  73 107 135 166 211 256 307
#     4   9  18  32  49  71 103 136 169 214 256 297
#     4  10  21  34  50  72 101 135 171 215 255 298
#
# _framework density 18.086206000000001
#
# number of rings (size 3 to 8) (size 9 to 14) (size 15 to 20)
#    0.000    2.667    0.833    2.000    1.167    3.667 
#    0.000    6.667    0.000    0.000    0.000    1.167 
#    0.000    0.000    0.000    0.000    0.000    0.000 
#
# Total GULP energy -297475.379372 kJ/mol
# GULP energy per Si atom -12394.807474 kJ/mol
# Density = 1.804504 g / cm^3
# Si number density = 18.086206 Si / 1000 Ang^3
#
#
#
# Elastic Constant Matrix: (Units=GPa)
#
#
# Indices 1 2 3 4 5 6 
#
# 1 55.0954 28.2717 43.3172 0.0000 0.0000 0.0000
# 2 28.2717 108.8608 60.1475 0.0000 0.0000 0.0000
# 3 43.3172 60.1475 120.4215 0.0000 0.0000 0.0000
# 4 0.0000 0.0000 0.0000 23.2424 0.0000 0.0000
# 5 0.0000 0.0000 0.0000 0.0000 -0.5003 0.0000
# 6 0.0000 0.0000 0.0000 0.0000 0.0000 21.4219
#
#
#
# Elastic Compliance Matrix: (Units=1/GPa)
#
#
# Indices 1 2 3 4 5 6 
#
# 1 0.025671 -0.002161 -0.008155 0.000000 0.000000 0.000000
# 2 -0.002161 0.012869 -0.005650 0.000000 0.000000 0.000000
# 3 -0.008155 -0.005650 0.014060 0.000000 0.000000 0.000000
# 4 0.000000 0.000000 0.000000 0.043025 0.000000 0.000000
# 5 0.000000 0.000000 0.000000 0.000000 -1.998878 0.000000
# 6 0.000000 0.000000 0.000000 0.000000 0.000000 0.046681
#
#
# Mechanical properties :
#
#
# Convention : Reuss Voigt Hill
#
# Bulk Modulus (GPa) = 48.38604 60.87226 54.62915
# Shear Modulus (GPa) = -2.75065 19.00889 8.12912
#
# Velocity S-wave (km/s) = -1.23457 3.24545 2.12236
# Velocity P-wave (km/s) = 4.97784 6.91186 6.02298
#
# Compressibility (1/GPa) = 0.02066712
#
# Stress axis : x y z
#
# Youngs Moduli (GPa) = 38.95499 77.70425 71.12516
#
# Poissons Ratio (x) = 0.16794 0.57999
# Poissons Ratio (y) = 0.08419 0.40189
# Poissons Ratio (z) = 0.31766 0.43906
#
# Static dielectric constant tensor:
#      x y z
#    x 2.943200 0.000000 0.000000 
#    y 0.000000 3.553940 0.000000 
#    z 0.000000 0.000000 3.404960 
# 
# 
# High freq. dielectric constant tensor:
#      x y z
#    x 1.654940 0.000000 0.000000 
#    y 0.000000 1.714460 0.000000 
#    z 0.000000 0.000000 1.693770 
# 
# From -- ./inp_files/17104.got.cif
#   From: 2010.03.12/outbox.cif.g09.slc.cpg/sg35_9_cif.got.tgz:17104.got - 2010.04.14 02:02:04.
