data_PCOD8173509
_publ_section_title
;
Structure prediction by ZEFSAII (Michael W. Deem and Ramdas Pophale) SiO2 
 PCOD8173509
Probable space group: C M M 2
;
_chemical_formula_sum "Si O2"
_cell_formula_units_Z 64
_cell_length_a 14.015656
_cell_length_b 18.324561
_cell_length_c 12.325896
_cell_angle_alpha 90.000000
_cell_angle_beta 90.000000
_cell_angle_gamma 90.000000
_cell_volume 3165.669032
_symmetry_space_group_name_H-M "C M M 2"
_symmetry_group_IT_number 35
_symmetry_cell_setting 'orthorhombic'
loop_
_space_group_symop_operation_xyz
x,y,z
-x,-y,z
-x,y,z
x,-y,z
1/2+x,1/2+y,z
1/2-x,1/2-y,z
1/2-x,1/2+y,z
1/2+x,1/2-y,z
loop_
_atom_site_type_symbol
_atom_site_label
_atom_site_fract_x
_atom_site_fract_y
_atom_site_fract_z
Si Si1 0.854910 0.169476 0.914270
Si Si2 0.604324 0.183255 0.810957
Si Si3 0.111351 0.414531 0.422137
Si Si4 0.228281 0.666188 0.605953
Si Si5 0.394954 0.417901 0.710054
Si Si6 0.310093 0.856964 0.198226
Si Si7 0.393275 0.697652 0.154710
Si Si8 0.169000 0.416608 0.973929
O O1 0.840547 0.247419 0.858447
O O2 0.906689 0.115652 0.830637
O O3 0.753836 0.135743 0.938824
O O4 0.909623 0.181372 0.027373
O O5 0.500000 0.208388 0.770426
O O6 0.664061 0.152862 0.710938
O O7 0.586301 0.118706 0.899927
O O8 0.125793 0.500000 0.444107
O O9 0.173289 0.368674 0.505896
O O10 0.151762 0.394203 0.305315
O O11 0.000000 0.393030 0.430878
O O12 0.250000 0.750000 0.578409
O O13 0.328627 0.627149 0.628325
O O14 0.500000 0.417883 0.657085
O O15 0.354863 0.500000 0.720862
O O16 0.360063 0.779752 0.177169
O O17 0.193162 0.852548 0.201828
O O18 0.346424 0.910014 0.102334
O O19 0.500000 0.683891 0.207107
O O20 0.185457 0.500000 0.941727
#
# Coordination Sequence:
#
# PCOD8173509 Si02
#       8
#     8   8   8   8   8   8   8   8
#     4  11  20  37  58  90 129 173 210 247 301 369
#     4  12  23  38  62  92 128 167 207 256 313 377
#     4  11  26  48  70  91 122 166 214 264 320 386
#     4  12  25  42  67  94 126 163 209 266 321 373
#     4  11  23  39  62  92 128 171 213 252 303 372
#     4  10  22  39  65  92 124 164 213 262 317 379
#     4  10  20  35  61  96 132 165 207 261 314 370
#     4  11  22  37  60  93 130 167 206 256 316 373
#
# _framework density 20.216895000000001
#
# number of rings (size 3 to 8) (size 9 to 14) (size 15 to 20)
#    0.000    1.000    3.750    3.375    1.750    1.750 
#    0.000    0.625    0.000    9.000    0.000    0.000 
#    0.000    0.000    0.000    0.000    0.000    0.000 
#
# Total GULP energy -396604.837955 kJ/mol
# GULP energy per Si atom -12393.901186 kJ/mol
# Density = 2.017088 g / cm^3
# Si number density = 20.216895 Si / 1000 Ang^3
#
#
#
# Elastic Constant Matrix: (Units=GPa)
#
#
# Indices 1 2 3 4 5 6 
#
# 1 128.1593 36.5642 49.6753 0.0000 0.0000 0.0000
# 2 36.5642 118.5521 56.3819 0.0000 0.0000 0.0000
# 3 49.6753 56.3819 115.7453 0.0000 0.0000 0.0000
# 4 0.0000 0.0000 0.0000 13.7622 0.0000 0.0000
# 5 0.0000 0.0000 0.0000 0.0000 13.2774 0.0000
# 6 0.0000 0.0000 0.0000 0.0000 0.0000 -5.4803
#
#
#
# Elastic Compliance Matrix: (Units=1/GPa)
#
#
# Indices 1 2 3 4 5 6 
#
# 1 0.009509 -0.001291 -0.003452 0.000000 0.000000 0.000000
# 2 -0.001291 0.011154 -0.004879 0.000000 0.000000 0.000000
# 3 -0.003452 -0.004879 0.012498 0.000000 0.000000 0.000000
# 4 0.000000 0.000000 0.000000 0.072663 0.000000 0.000000
# 5 0.000000 0.000000 0.000000 0.000000 0.075316 0.000000
# 6 0.000000 0.000000 0.000000 0.000000 0.000000 -0.182472
#
#
# Mechanical properties :
#
#
# Convention : Reuss Voigt Hill
#
# Bulk Modulus (GPa) = 71.85893 71.96661 71.91277
# Shear Modulus (GPa) = 221.71990 18.96755 120.34373
#
# Velocity S-wave (km/s) = 10.48373 3.06633 7.72370
# Velocity P-wave (km/s) = 13.49689 6.94342 10.73259
#
# Compressibility (1/GPa) = 0.01391616
#
# Stress axis : x y z
#
# Youngs Moduli (GPa) = 105.16087 89.65597 80.01263
#
# Poissons Ratio (x) = 0.11575 0.27623
# Poissons Ratio (y) = 0.13576 0.39039
# Poissons Ratio (z) = 0.36304 0.43744
#
# Static dielectric constant tensor:
#      x y z
#    x 3.773880 0.000000 0.000000 
#    y 0.000000 3.674850 0.000000 
#    z 0.000000 0.000000 3.754990 
# 
# 
# High freq. dielectric constant tensor:
#      x y z
#    x 1.805840 0.000000 0.000000 
#    y 0.000000 1.790720 0.000000 
#    z 0.000000 0.000000 1.771770 
# 
# From -- ./inp_files/13159.got.cif
#   From: 2010.03.12/outbox.cif.g09.slc.cpg/sg35_7_cif.got.tgz:13159.got - 2010.04.14 02:02:04.
