data_PCOD8173256
_publ_section_title
;
Structure prediction by ZEFSAII (Michael W. Deem and Ramdas Pophale) SiO2 
 PCOD8173256
Probable space group: C M M 2
;
_chemical_formula_sum "Si O2"
_cell_formula_units_Z 64
_cell_length_a 9.245290
_cell_length_b 29.290413
_cell_length_c 12.261357
_cell_angle_alpha 90.000000
_cell_angle_beta 90.000000
_cell_angle_gamma 90.000000
_cell_volume 3320.355396
_symmetry_space_group_name_H-M "C M M 2"
_symmetry_group_IT_number 35
_symmetry_cell_setting 'orthorhombic'
loop_
_space_group_symop_operation_xyz
x,y,z
-x,-y,z
-x,y,z
x,-y,z
1/2+x,1/2+y,z
1/2-x,1/2-y,z
1/2-x,1/2+y,z
1/2+x,1/2-y,z
loop_
_atom_site_type_symbol
_atom_site_label
_atom_site_fract_x
_atom_site_fract_y
_atom_site_fract_z
Si Si1 0.173178 0.201204 0.585410
Si Si2 0.666782 0.949613 0.310054
Si Si3 0.837729 0.172410 0.032247
Si Si4 0.336597 0.209236 0.220824
Si Si5 0.171636 0.853890 0.795662
Si Si6 0.327868 0.450634 0.857149
Si Si7 0.165209 0.641924 0.411681
Si Si8 0.838236 0.930053 0.095522
O O1 0.250000 0.250000 0.574497
O O2 0.227569 0.177119 0.696685
O O3 0.223921 0.167611 0.490032
O O4 0.000000 0.207475 0.580012
O O5 0.500000 0.940171 0.284320
O O6 0.717614 0.910703 0.396352
O O7 0.745434 0.948132 0.195005
O O8 0.691415 0.000000 0.362333
O O9 0.731128 0.204157 0.100609
O O10 0.839730 0.124240 0.092562
O O11 0.000000 0.192968 0.031169
O O12 0.776107 0.168520 0.909073
O O13 0.500000 0.225277 0.206360
O O14 0.250000 0.250000 0.281818
O O15 0.324866 0.163706 0.291732
O O16 0.230899 0.906697 0.788528
O O17 0.000000 0.855696 0.794348
O O18 0.500000 0.446826 0.861066
O O19 0.279467 0.500000 0.806465
O O20 0.271498 0.448477 0.981786
O O21 0.000000 0.645407 0.456536
O O22 0.000000 0.948982 0.112165
#
# Coordination Sequence:
#
# PCOD8173256 Si02
#       8
#     8   8   8   8   8   8   8   8
#     4  11  23  40  62  83 104 136 183 235 283 330
#     4  10  20  34  53  78 111 149 183 218 266 321
#     4   9  17  32  53  78 112 148 177 215 267 322
#     4  11  22  35  53  78 108 141 178 222 271 331
#     4   8  17  33  52  78 110 141 177 222 270 320
#     4   8  13  24  46  77 112 147 179 212 258 315
#     4  10  22  40  58  79 109 143 183 227 272 325
#     4   9  16  27  48  78 111 146 184 222 257 305
#
# _framework density 19.275044999999999
#
# number of rings (size 3 to 8) (size 9 to 14) (size 15 to 20)
#    0.000    2.500    1.250    3.000    0.000    3.750 
#    0.000    3.125    0.000    2.250    0.000    0.000 
#    0.000    0.000    0.000    0.000    0.000    0.000 
#
# Total GULP energy -396560.464994 kJ/mol
# GULP energy per Si atom -12392.514531 kJ/mol
# Density = 1.923117 g / cm^3
# Si number density = 19.275045 Si / 1000 Ang^3
#
#
#
# Elastic Constant Matrix: (Units=GPa)
#
#
# Indices 1 2 3 4 5 6 
#
# 1 69.9037 42.7200 34.6366 0.0000 0.0000 0.0000
# 2 42.7200 137.0114 51.4564 0.0000 0.0000 0.0000
# 3 34.6366 51.4564 83.8697 0.0000 0.0000 0.0000
# 4 0.0000 0.0000 0.0000 24.1958 0.0000 0.0000
# 5 0.0000 0.0000 0.0000 0.0000 16.7558 0.0000
# 6 0.0000 0.0000 0.0000 0.0000 0.0000 16.9006
#
#
#
# Elastic Compliance Matrix: (Units=1/GPa)
#
#
# Indices 1 2 3 4 5 6 
#
# 1 0.019521 -0.003975 -0.005623 0.000000 0.000000 0.000000
# 2 -0.003975 0.010293 -0.004674 0.000000 0.000000 0.000000
# 3 -0.005623 -0.004674 0.017113 0.000000 0.000000 0.000000
# 4 0.000000 0.000000 0.000000 0.041330 0.000000 0.000000
# 5 0.000000 0.000000 0.000000 0.000000 0.059681 0.000000
# 6 0.000000 0.000000 0.000000 0.000000 0.000000 0.059169
#
#
# Mechanical properties :
#
#
# Convention : Reuss Voigt Hill
#
# Bulk Modulus (GPa) = 54.39558 60.93454 57.66506
# Shear Modulus (GPa) = 20.68019 22.36856 21.52438
#
# Velocity S-wave (km/s) = 3.27907 3.41030 3.34533
# Velocity P-wave (km/s) = 6.52828 6.86940 6.70101
#
# Compressibility (1/GPa) = 0.01838385
#
# Stress axis : x y z
#
# Youngs Moduli (GPa) = 51.22787 97.15103 58.43530
#
# Poissons Ratio (x) = 0.38615 0.32859
# Poissons Ratio (y) = 0.20362 0.27311
# Poissons Ratio (z) = 0.28806 0.45406
#
# Static dielectric constant tensor:
#      x y z
#    x 3.289850 0.000000 0.000000 
#    y 0.000000 3.894000 0.000000 
#    z 0.000000 0.000000 3.406850 
# 
# 
# High freq. dielectric constant tensor:
#      x y z
#    x 1.719230 0.000000 0.000000 
#    y 0.000000 1.769460 0.000000 
#    z 0.000000 0.000000 1.724150 
# 
# From -- ./inp_files/11977.got.cif
#   From: 2010.03.12/outbox.cif.g09.slc.cpg/sg35_6_cif.got.tgz:11977.got - 2010.04.14 02:02:04.
