data_PCOD8173035
_publ_section_title
;
Structure prediction by ZEFSAII (Michael W. Deem and Ramdas Pophale) SiO2 
 PCOD8173035
Probable space group: C M M 2
;
_chemical_formula_sum "Si O2"
_cell_formula_units_Z 56
_cell_length_a 21.559440
_cell_length_b 8.996618
_cell_length_c 14.519450
_cell_angle_alpha 90.000000
_cell_angle_beta 90.000000
_cell_angle_gamma 90.000000
_cell_volume 2816.222228
_symmetry_space_group_name_H-M "C M M 2"
_symmetry_group_IT_number 35
_symmetry_cell_setting 'orthorhombic'
loop_
_space_group_symop_operation_xyz
x,y,z
-x,-y,z
-x,y,z
x,-y,z
1/2+x,1/2+y,z
1/2-x,1/2-y,z
1/2-x,1/2+y,z
1/2+x,1/2-y,z
loop_
_atom_site_type_symbol
_atom_site_label
_atom_site_fract_x
_atom_site_fract_y
_atom_site_fract_z
Si Si1 0.500000 0.675099 0.172230
Si Si2 0.132819 0.668374 0.405286
Si Si3 0.118520 0.823391 0.062656
Si Si4 0.428730 0.173557 0.888812
Si Si5 0.570728 0.326133 0.696797
Si Si6 0.186601 0.174310 0.570445
Si Si7 0.000000 0.669224 0.362735
Si Si8 0.310295 0.171951 0.214913
O O1 0.500000 0.500000 0.168549
O O2 0.440741 0.736649 0.118422
O O3 0.500000 0.721819 0.277124
O O4 0.152152 0.500000 0.431014
O O5 0.175563 0.777658 0.464708
O O6 0.060190 0.698765 0.426293
O O7 0.139171 0.695009 0.295500
O O8 0.175519 0.756041 0.119368
O O9 0.123868 0.000000 0.056984
O O10 0.116199 0.757615 0.960016
O O11 0.500000 0.206714 0.915178
O O12 0.414184 0.234840 0.788145
O O13 0.413605 0.000000 0.890926
O O14 0.500000 0.290056 0.661694
O O15 0.576260 0.500000 0.719110
O O16 0.624290 0.276639 0.625184
O O17 0.250000 0.250000 0.608638
O O18 0.197017 0.000000 0.575786
O O19 0.000000 0.500000 0.325345
O O20 0.250000 0.250000 0.256663
O O21 0.299256 0.000000 0.192611
#
# Coordination Sequence:
#
# PCOD8173035 Si02
#       8
#     4   8   8   8   8   8   4   8
#     4  10  20  32  52  83 114 149 188 229 280 334
#     4  10  22  38  59  86 119 155 194 239 293 351
#     4  11  21  35  56  84 117 154 193 235 284 340
#     4  10  20  34  57  89 120 151 188 235 293 353
#     4   9  20  40  63  88 118 152 193 244 302 360
#     4  11  24  41  64  89 118 156 199 246 298 357
#     4  10  20  36  56  85 120 155 190 239 298 346
#     4  11  23  39  57  79 112 155 201 247 291 343
#
# _framework density 19.884793999999999
#
# number of rings (size 3 to 8) (size 9 to 14) (size 15 to 20)
#    0.000    1.714    2.143    2.143    1.000    5.143 
#    0.000    0.714    0.000    1.714    0.000    0.000 
#    0.000    0.000    0.000    0.000    0.000    0.000 
#
# Total GULP energy -347180.181794 kJ/mol
# GULP energy per Si atom -12399.292207 kJ/mol
# Density = 1.983954 g / cm^3
# Si number density = 19.884794 Si / 1000 Ang^3
#
#
#
# Elastic Constant Matrix: (Units=GPa)
#
#
# Indices 1 2 3 4 5 6 
#
# 1 109.9789 43.2381 41.0857 0.0000 0.0000 0.0000
# 2 43.2381 87.1483 48.8344 0.0000 0.0000 0.0000
# 3 41.0857 48.8344 93.1497 0.0000 0.0000 0.0000
# 4 0.0000 0.0000 0.0000 33.6485 0.0000 0.0000
# 5 0.0000 0.0000 0.0000 0.0000 27.4564 0.0000
# 6 0.0000 0.0000 0.0000 0.0000 0.0000 30.3919
#
#
#
# Elastic Compliance Matrix: (Units=1/GPa)
#
#
# Indices 1 2 3 4 5 6 
#
# 1 0.011875 -0.004187 -0.003043 0.000000 0.000000 0.000000
# 2 -0.004187 0.017724 -0.007445 0.000000 0.000000 0.000000
# 3 -0.003043 -0.007445 0.015981 0.000000 0.000000 0.000000
# 4 0.000000 0.000000 0.000000 0.029719 0.000000 0.000000
# 5 0.000000 0.000000 0.000000 0.000000 0.036421 0.000000
# 6 0.000000 0.000000 0.000000 0.000000 0.000000 0.032903
#
#
# Mechanical properties :
#
#
# Convention : Reuss Voigt Hill
#
# Bulk Modulus (GPa) = 61.61345 61.84370 61.72858
# Shear Modulus (GPa) = 27.87314 28.77395 28.32354
#
# Velocity S-wave (km/s) = 3.74803 3.80812 3.77819
# Velocity P-wave (km/s) = 7.05569 7.10663 7.08121
#
# Compressibility (1/GPa) = 0.01623022
#
# Stress axis : x y z
#
# Youngs Moduli (GPa) = 84.20719 56.42082 62.57512
#
# Poissons Ratio (x) = 0.23622 0.19042
# Poissons Ratio (y) = 0.35256 0.46589
# Poissons Ratio (z) = 0.25624 0.42007
#
# Static dielectric constant tensor:
#      x y z
#    x 3.754970 0.000000 0.000000 
#    y 0.000000 3.527380 0.000000 
#    z 0.000000 0.000000 3.384230 
# 
# 
# High freq. dielectric constant tensor:
#      x y z
#    x 1.774860 0.000000 0.000000 
#    y 0.000000 1.778200 0.000000 
#    z 0.000000 0.000000 1.763180 
# 
# From -- ./inp_files/15727.got.cif
#   From: 2010.03.12/outbox.cif.g09.slc.cpg/sg35_8_cif.got.tgz:15727.got - 2010.04.14 02:02:04.
