data_PCOD8173017
_publ_section_title
;
Structure prediction by ZEFSAII (Michael W. Deem and Ramdas Pophale) SiO2 
 PCOD8173017
Probable space group: C M M 2
;
_chemical_formula_sum "Si O2"
_cell_formula_units_Z 48
_cell_length_a 8.807134
_cell_length_b 26.228504
_cell_length_c 11.640197
_cell_angle_alpha 90.000000
_cell_angle_beta 90.000000
_cell_angle_gamma 90.000000
_cell_volume 2688.861637
_symmetry_space_group_name_H-M "C M M 2"
_symmetry_group_IT_number 35
_symmetry_cell_setting 'orthorhombic'
loop_
_space_group_symop_operation_xyz
x,y,z
-x,-y,z
-x,y,z
x,-y,z
1/2+x,1/2+y,z
1/2-x,1/2-y,z
1/2-x,1/2+y,z
1/2+x,1/2-y,z
loop_
_atom_site_type_symbol
_atom_site_label
_atom_site_fract_x
_atom_site_fract_y
_atom_site_fract_z
Si Si1 0.174652 0.126555 0.230770
Si Si2 0.821188 0.696007 0.408669
Si Si3 0.329754 0.113285 0.600599
Si Si4 0.834921 0.442941 0.387182
Si Si5 0.324976 0.558054 0.799150
Si Si6 0.178841 0.442093 0.040967
O O1 0.257147 0.176203 0.285203
O O2 0.192479 0.083389 0.327536
O O3 0.000000 0.139665 0.207621
O O4 0.247436 0.103179 0.115757
O O5 0.750000 0.750000 0.438703
O O6 0.776636 0.659214 0.516113
O O7 0.000000 0.701439 0.397112
O O8 0.500000 0.123686 0.647056
O O9 0.323402 0.061833 0.524229
O O10 0.219334 0.101610 0.706690
O O11 0.833465 0.500000 0.345788
O O12 0.000000 0.418290 0.349486
O O13 0.500000 0.565831 0.831460
O O14 0.296028 0.500000 0.754786
O O15 0.224506 0.568664 0.910559
O O16 0.231564 0.500000 0.076169
O O17 0.000000 0.437609 0.054275
#
# Coordination Sequence:
#
# PCOD8173017 Si02
#       6
#     8   8   8   8   8   8
#     4  11  21  32  49  74 103 133 167 209 257 306
#     4  10  21  38  58  79 102 130 168 213 262 313
#     4   9  18  32  50  72  99 132 168 205 249 303
#     4   9  17  29  45  67  98 134 169 205 247 298
#     4  10  20  32  48  74 107 140 175 213 250 294
#     4  10  20  34  52  73 102 142 181 213 250 300
#
# _framework density 17.851421999999999
#
# number of rings (size 3 to 8) (size 9 to 14) (size 15 to 20)
#    0.000    2.167    0.000    5.000    0.000    8.333 
#    0.000    0.000    0.000    1.000    0.000    4.667 
#    0.000    0.000    0.000    0.000    0.000    0.000 
#
# Total GULP energy -297323.299013 kJ/mol
# GULP energy per Si atom -12388.470792 kJ/mol
# Density = 1.781079 g / cm^3
# Si number density = 17.851422 Si / 1000 Ang^3
#
#
#
# Elastic Constant Matrix: (Units=GPa)
#
#
# Indices 1 2 3 4 5 6 
#
# 1 86.2880 35.1311 35.8562 0.0000 0.0000 0.0000
# 2 35.1311 82.7971 41.0516 0.0000 0.0000 0.0000
# 3 35.8562 41.0516 86.3477 0.0000 0.0000 0.0000
# 4 0.0000 0.0000 0.0000 23.7592 0.0000 0.0000
# 5 0.0000 0.0000 0.0000 0.0000 26.9184 0.0000
# 6 0.0000 0.0000 0.0000 0.0000 0.0000 25.9614
#
#
#
# Elastic Compliance Matrix: (Units=1/GPa)
#
#
# Indices 1 2 3 4 5 6 
#
# 1 0.015099 -0.004315 -0.004218 0.000000 0.000000 0.000000
# 2 -0.004315 0.017036 -0.006307 0.000000 0.000000 0.000000
# 3 -0.004218 -0.006307 0.016331 0.000000 0.000000 0.000000
# 4 0.000000 0.000000 0.000000 0.042089 0.000000 0.000000
# 5 0.000000 0.000000 0.000000 0.000000 0.037149 0.000000
# 6 0.000000 0.000000 0.000000 0.000000 0.000000 0.038519
#
#
# Mechanical properties :
#
#
# Convention : Reuss Voigt Hill
#
# Bulk Modulus (GPa) = 53.23518 53.27896 53.25707
# Shear Modulus (GPa) = 24.73215 24.88741 24.80978
#
# Velocity S-wave (km/s) = 3.72619 3.73787 3.73204
# Velocity P-wave (km/s) = 6.95692 6.96703 6.96197
#
# Compressibility (1/GPa) = 0.01878457
#
# Stress axis : x y z
#
# Youngs Moduli (GPa) = 66.23046 58.69983 61.23144
#
# Poissons Ratio (x) = 0.25329 0.25830
# Poissons Ratio (y) = 0.28578 0.38621
# Poissons Ratio (z) = 0.27939 0.37024
#
# Static dielectric constant tensor:
#      x y z
#    x 3.337780 0.000000 0.000000 
#    y 0.000000 3.283570 0.000000 
#    z 0.000000 0.000000 3.212020 
# 
# 
# High freq. dielectric constant tensor:
#      x y z
#    x 1.695890 0.000000 0.000000 
#    y 0.000000 1.665310 0.000000 
#    z 0.000000 0.000000 1.682460 
# 
# From -- ./inp_files/11470.got.cif
#   From: 2010.03.12/outbox.cif.g09.slc.cpg/sg35_6_cif.got.tgz:11470.got - 2010.04.14 02:02:04.
