data_PCOD8173052
_publ_section_title
;
Structure prediction by ZEFSAII (Michael W. Deem and Ramdas Pophale) SiO2 
 PCOD8173052
Probable space group: C M M 2
;
_chemical_formula_sum "Si O2"
_cell_formula_units_Z 64
_cell_length_a 8.852114
_cell_length_b 18.573399
_cell_length_c 21.023988
_cell_angle_alpha 90.000000
_cell_angle_beta 90.000000
_cell_angle_gamma 90.000000
_cell_volume 3456.634711
_symmetry_space_group_name_H-M "C M M 2"
_symmetry_group_IT_number 35
_symmetry_cell_setting 'orthorhombic'
loop_
_space_group_symop_operation_xyz
x,y,z
-x,-y,z
-x,y,z
x,-y,z
1/2+x,1/2+y,z
1/2-x,1/2-y,z
1/2-x,1/2+y,z
1/2+x,1/2-y,z
loop_
_atom_site_type_symbol
_atom_site_label
_atom_site_fract_x
_atom_site_fract_y
_atom_site_fract_z
Si Si1 0.670212 0.085607 0.990630
Si Si2 0.822803 0.827955 0.354872
Si Si3 0.172463 0.914698 0.863372
Si Si4 0.321283 0.828748 0.230130
Si Si5 0.175070 0.327514 0.613020
Si Si6 0.323886 0.328260 0.492741
Si Si7 0.326690 0.585206 0.118861
Si Si8 0.176196 0.672196 0.753536
O O1 0.500000 0.115814 0.995615
O O2 0.746748 0.115809 0.926565
O O3 0.669504 0.000000 0.988785
O O4 0.766921 0.112681 0.050690
O O5 0.750000 0.750000 0.358939
O O6 0.741826 0.866863 0.295120
O O7 0.795110 0.866754 0.423767
O O8 0.000000 0.821592 0.340427
O O9 0.252893 0.884007 0.801614
O O10 0.000000 0.888952 0.865045
O O11 0.185536 0.000000 0.860132
O O12 0.500000 0.821939 0.233689
O O13 0.250000 0.750000 0.221004
O O14 0.276014 0.879122 0.172165
O O15 0.250000 0.250000 0.615239
O O16 0.250940 0.371171 0.553327
O O17 0.203246 0.361683 0.682745
O O18 0.000000 0.320055 0.598157
O O19 0.500000 0.319985 0.505217
O O20 0.250000 0.250000 0.490307
O O21 0.500000 0.609471 0.126426
O O22 0.309260 0.500000 0.124991
O O23 0.250000 0.750000 0.761712
O O24 0.000000 0.681080 0.767565
#
# Coordination Sequence:
#
# PCOD8173052 Si02
#       8
#     8   8   8   8   8   8   8   8
#     4   9  17  31  52  76 100 126 159 199 240 283
#     4   9  16  26  40  61  90 123 159 197 240 286
#     4  10  20  34  53  76 100 128 163 201 241 287
#     4  11  21  33  50  72 101 134 166 201 244 292
#     4   9  16  25  39  60  88 121 156 194 237 284
#     4   9  15  22  36  58  85 118 155 195 236 280
#     4  10  20  35  55  77 101 129 162 200 241 287
#     4  10  20  33  49  71 100 133 165 200 245 292
#
# _framework density 18.515118000000001
#
# number of rings (size 3 to 8) (size 9 to 14) (size 15 to 20)
#    0.000    2.375    0.000    5.250    0.000    6.000 
#    0.000    0.625    0.000    0.000    0.000    0.875 
#    0.000    5.000    0.000    0.000    0.000    0.000 
#
# Total GULP energy -396515.184506 kJ/mol
# GULP energy per Si atom -12391.099516 kJ/mol
# Density = 1.847298 g / cm^3
# Si number density = 18.515118 Si / 1000 Ang^3
#
#
#
# Elastic Constant Matrix: (Units=GPa)
#
#
# Indices 1 2 3 4 5 6 
#
# 1 156.8854 21.3203 83.2832 0.0000 0.0000 0.0000
# 2 21.3203 14.0696 24.5662 0.0000 0.0000 0.0000
# 3 83.2832 24.5662 184.3305 0.0000 0.0000 0.0000
# 4 0.0000 0.0000 0.0000 -21.5719 0.0000 0.0000
# 5 0.0000 0.0000 0.0000 0.0000 38.4604 0.0000
# 6 0.0000 0.0000 0.0000 0.0000 0.0000 19.4323
#
#
#
# Elastic Compliance Matrix: (Units=1/GPa)
#
#
# Indices 1 2 3 4 5 6 
#
# 1 0.009126 -0.008640 -0.002972 0.000000 0.000000 0.000000
# 2 -0.008640 0.100810 -0.009532 0.000000 0.000000 0.000000
# 3 -0.002972 -0.009532 0.008038 0.000000 0.000000 0.000000
# 4 0.000000 0.000000 0.000000 -0.046357 0.000000 0.000000
# 5 0.000000 0.000000 0.000000 0.000000 0.026001 0.000000
# 6 0.000000 0.000000 0.000000 0.000000 0.000000 0.051461
#
#
# Mechanical properties :
#
#
# Convention : Reuss Voigt Hill
#
# Bulk Modulus (GPa) = 13.21224 68.18054 40.69639
# Shear Modulus (GPa) = 23.08467 22.33855 22.71161
#
# Velocity S-wave (km/s) = 3.53484 3.47724 3.50616
# Velocity P-wave (km/s) = 4.87970 7.28188 6.19828
#
# Compressibility (1/GPa) = 0.07568738
#
# Stress axis : x y z
#
# Youngs Moduli (GPa) = 109.58010 9.91965 124.40938
#
# Poissons Ratio (x) = 0.08570 0.36970
# Poissons Ratio (y) = 0.94676 1.18582
# Poissons Ratio (z) = 0.32564 0.09455
#
# Static dielectric constant tensor:
#      x y z
#    x 3.669850 0.000000 0.000000 
#    y 0.000000 2.715630 0.000000 
#    z 0.000000 0.000000 4.526410 
# 
# 
# High freq. dielectric constant tensor:
#      x y z
#    x 1.741260 0.000000 0.000000 
#    y 0.000000 1.636450 0.000000 
#    z 0.000000 0.000000 1.752930 
# 
# From -- ./inp_files/18497.got.cif
#   From: 2010.03.12/outbox.cif.g09.slc.cpg/sg35_10_cif.got.tgz:18497.got - 2010.04.14 02:02:04.
