data_PCOD8173818
_publ_section_title
;
Structure prediction by ZEFSAII (Michael W. Deem and Ramdas Pophale) SiO2 
 PCOD8173818
Probable space group: C M M 2
;
_chemical_formula_sum "Si O2"
_cell_formula_units_Z 48
_cell_length_a 18.884010
_cell_length_b 8.858462
_cell_length_c 15.332942
_cell_angle_alpha 90.000000
_cell_angle_beta 90.000000
_cell_angle_gamma 90.000000
_cell_volume 2564.944906
_symmetry_space_group_name_H-M "C M M 2"
_symmetry_group_IT_number 35
_symmetry_cell_setting 'orthorhombic'
loop_
_space_group_symop_operation_xyz
x,y,z
-x,-y,z
-x,y,z
x,-y,z
1/2+x,1/2+y,z
1/2-x,1/2-y,z
1/2-x,1/2+y,z
1/2+x,1/2-y,z
loop_
_atom_site_type_symbol
_atom_site_label
_atom_site_fract_x
_atom_site_fract_y
_atom_site_fract_z
Si Si1 0.077420 0.321519 0.247600
Si Si2 0.082927 0.324245 0.442703
Si Si3 0.323527 0.176147 0.902229
Si Si4 0.823737 0.678769 0.097192
Si Si5 0.672551 0.321836 0.591027
Si Si6 0.918125 0.322822 0.742396
O O1 0.072331 0.500000 0.237580
O O2 0.106759 0.283775 0.344022
O O3 0.123536 0.252690 0.169337
O O4 0.000000 0.249107 0.237513
O O5 0.096077 0.500000 0.463655
O O6 0.132497 0.223483 0.502956
O O7 0.000000 0.286108 0.457574
O O8 0.250000 0.250000 0.871845
O O9 0.386712 0.219957 0.837028
O O10 0.308705 0.000000 0.901178
O O11 0.346546 0.228821 0.999441
O O12 0.818736 0.500000 0.104428
O O13 0.750000 0.750000 0.122339
O O14 0.681659 0.500000 0.594561
O O15 0.750000 0.250000 0.595775
O O16 0.625043 0.268889 0.671319
O O17 0.910131 0.500000 0.722699
O O18 0.000000 0.273387 0.740427
#
# Coordination Sequence:
#
# PCOD8173818 Si02
#       6
#     8   8   8   8   8   8
#     4   8  15  29  51  77 103 134 171 209 250 298
#     4   9  18  35  57  79 106 139 173 212 260 310
#     4   9  18  32  51  75 103 137 173 211 255 301
#     4   9  17  30  49  74 104 136 172 212 252 297
#     4  12  25  39  56  78 104 135 173 215 260 310
#     4  10  21  37  56  79 107 137 170 211 260 311
#
# _framework density 18.713853
#
# number of rings (size 3 to 8) (size 9 to 14) (size 15 to 20)
#    0.000    2.500    0.000    3.500    0.000    6.000 
#    0.000    5.833    0.000    1.500    0.000    4.667 
#    0.000    0.000    0.000    0.000    0.000    0.000 
#
# Total GULP energy -297528.823972 kJ/mol
# GULP energy per Si atom -12397.034332 kJ/mol
# Density = 1.867126 g / cm^3
# Si number density = 18.713853 Si / 1000 Ang^3
#
#
#
# Elastic Constant Matrix: (Units=GPa)
#
#
# Indices 1 2 3 4 5 6 
#
# 1 142.9106 53.1622 98.2582 0.0000 0.0000 0.0000
# 2 53.1622 57.9885 48.0307 0.0000 0.0000 0.0000
# 3 98.2582 48.0307 151.2652 0.0000 0.0000 0.0000
# 4 0.0000 0.0000 0.0000 9.7455 0.0000 0.0000
# 5 0.0000 0.0000 0.0000 0.0000 38.4668 0.0000
# 6 0.0000 0.0000 0.0000 0.0000 0.0000 28.3018
#
#
#
# Elastic Compliance Matrix: (Units=1/GPa)
#
#
# Indices 1 2 3 4 5 6 
#
# 1 0.014750 -0.007580 -0.007174 0.000000 0.000000 0.000000
# 2 -0.007580 0.027294 -0.003743 0.000000 0.000000 0.000000
# 3 -0.007174 -0.003743 0.012460 0.000000 0.000000 0.000000
# 4 0.000000 0.000000 0.000000 0.102611 0.000000 0.000000
# 5 0.000000 0.000000 0.000000 0.000000 0.025996 0.000000
# 6 0.000000 0.000000 0.000000 0.000000 0.000000 0.035333
#
#
# Mechanical properties :
#
#
# Convention : Reuss Voigt Hill
#
# Bulk Modulus (GPa) = 57.11245 83.45182 70.28214
# Shear Modulus (GPa) = 19.13695 25.48370 22.31032
#
# Velocity S-wave (km/s) = 3.20129 3.69420 3.45655
# Velocity P-wave (km/s) = 6.65203 7.93011 7.31902
#
# Compressibility (1/GPa) = 0.01750932
#
# Stress axis : x y z
#
# Youngs Moduli (GPa) = 67.79790 36.63821 80.25943
#
# Poissons Ratio (x) = 0.27771 0.57580
# Poissons Ratio (y) = 0.51390 0.30040
# Poissons Ratio (z) = 0.48640 0.13713
#
# Static dielectric constant tensor:
#      x y z
#    x 3.549870 0.000000 0.000000 
#    y 0.000000 3.178870 0.000000 
#    z 0.000000 0.000000 3.827140 
# 
# 
# High freq. dielectric constant tensor:
#      x y z
#    x 1.726500 0.000000 0.000000 
#    y 0.000000 1.699560 0.000000 
#    z 0.000000 0.000000 1.744730 
# 
# From -- ./inp_files/15099.got.cif
#   From: 2010.03.12/outbox.cif.g09.slc.cpg/sg35_8_cif.got.tgz:15099.got - 2010.04.14 02:02:04.
