data_PCOD8173662
_publ_section_title
;
Structure prediction by ZEFSAII (Michael W. Deem and Ramdas Pophale) SiO2 
 PCOD8173662
Probable space group: C M M 2
;
_chemical_formula_sum "Si O2"
_cell_formula_units_Z 48
_cell_length_a 8.676743
_cell_length_b 15.615119
_cell_length_c 17.193768
_cell_angle_alpha 90.000000
_cell_angle_beta 90.000000
_cell_angle_gamma 90.000000
_cell_volume 2329.555677
_symmetry_space_group_name_H-M "C M M 2"
_symmetry_group_IT_number 35
_symmetry_cell_setting 'orthorhombic'
loop_
_space_group_symop_operation_xyz
x,y,z
-x,-y,z
-x,y,z
x,-y,z
1/2+x,1/2+y,z
1/2-x,1/2-y,z
1/2-x,1/2+y,z
1/2+x,1/2-y,z
loop_
_atom_site_type_symbol
_atom_site_label
_atom_site_fract_x
_atom_site_fract_y
_atom_site_fract_z
Si Si1 0.817114 0.500000 0.386451
Si Si2 0.667873 0.402030 0.980699
Si Si3 0.680895 0.159133 0.128325
Si Si4 0.317689 0.000000 0.565170
Si Si5 0.183356 0.844507 0.290939
Si Si6 0.177276 0.600978 0.827475
Si Si7 0.316745 0.839212 0.661577
O O1 0.766990 0.500000 0.475902
O O2 0.746866 0.413595 0.351074
O O3 0.000000 0.500000 0.374182
O O4 0.500000 0.360792 0.000160
O O5 0.646476 0.500000 0.959407
O O6 0.736423 0.359049 0.902701
O O7 0.782781 0.398855 0.054022
O O8 0.500000 0.163225 0.145083
O O9 0.750000 0.250000 0.105628
O O10 0.764324 0.123968 0.205484
O O11 0.251576 0.914970 0.606760
O O12 0.500000 0.000000 0.573702
O O13 0.250000 0.750000 0.309357
O O14 0.000000 0.840590 0.295289
O O15 0.201527 0.500000 0.817751
O O16 0.242135 0.645497 0.749652
O O17 0.000000 0.623234 0.839681
O O18 0.500000 0.837335 0.658373
O O19 0.250000 0.750000 0.629859
#
# Coordination Sequence:
#
# PCOD8173662 Si02
#       7
#     4   8   8   4   8   8   8
#     4  11  23  41  67  96 123 162 205 247 308 375
#     4  10  21  35  53  81 118 156 199 247 296 345
#     4  11  22  38  59  83 115 154 199 247 299 356
#     4   9  20  41  65  88 121 158 195 241 296 363
#     4  11  23  42  65  92 127 163 204 255 307 365
#     4   9  17  33  56  78 109 155 204 248 295 352
#     4  10  20  37  61  89 118 156 199 245 298 358
#
# _framework density 20.604787000000002
#
# number of rings (size 3 to 8) (size 9 to 14) (size 15 to 20)
#    0.000    1.833    0.833    4.750    1.167    3.000 
#    0.000    5.417    0.000    0.000    0.000    0.000 
#    0.000    0.000    0.000    0.000    0.000    0.000 
#
# Total GULP energy -297568.953147 kJ/mol
# GULP energy per Si atom -12398.706381 kJ/mol
# Density = 2.055789 g / cm^3
# Si number density = 20.604787 Si / 1000 Ang^3
#
#
#
# Elastic Constant Matrix: (Units=GPa)
#
#
# Indices 1 2 3 4 5 6 
#
# 1 116.9144 40.6618 56.4452 0.0000 0.0000 0.0000
# 2 40.6618 101.9991 78.9363 0.0000 0.0000 0.0000
# 3 56.4452 78.9363 167.2789 0.0000 0.0000 0.0000
# 4 0.0000 0.0000 0.0000 15.7916 0.0000 0.0000
# 5 0.0000 0.0000 0.0000 0.0000 22.7633 0.0000
# 6 0.0000 0.0000 0.0000 0.0000 0.0000 31.3566
#
#
#
# Elastic Compliance Matrix: (Units=1/GPa)
#
#
# Indices 1 2 3 4 5 6 
#
# 1 0.010545 -0.002284 -0.002480 0.000000 0.000000 0.000000
# 2 -0.002284 0.015939 -0.006750 0.000000 0.000000 0.000000
# 3 -0.002480 -0.006750 0.010000 0.000000 0.000000 0.000000
# 4 0.000000 0.000000 0.000000 0.063325 0.000000 0.000000
# 5 0.000000 0.000000 0.000000 0.000000 0.043930 0.000000
# 6 0.000000 0.000000 0.000000 0.000000 0.000000 0.031891
#
#
# Mechanical properties :
#
#
# Convention : Reuss Voigt Hill
#
# Bulk Modulus (GPa) = 74.32644 82.03102 78.17873
# Shear Modulus (GPa) = 24.61287 27.99224 26.30255
#
# Velocity S-wave (km/s) = 3.45993 3.68982 3.57673
# Velocity P-wave (km/s) = 7.21888 7.61913 7.42170
#
# Compressibility (1/GPa) = 0.01345416
#
# Stress axis : x y z
#
# Youngs Moduli (GPa) = 94.82969 62.74011 99.99576
#
# Poissons Ratio (x) = 0.14332 0.24803
# Poissons Ratio (y) = 0.21662 0.67502
# Poissons Ratio (z) = 0.23521 0.42352
#
# Static dielectric constant tensor:
#      x y z
#    x 3.789350 0.000000 0.000000 
#    y 0.000000 3.673280 0.000000 
#    z 0.000000 0.000000 3.855640 
# 
# 
# High freq. dielectric constant tensor:
#      x y z
#    x 1.800900 0.000000 0.000000 
#    y 0.000000 1.800560 0.000000 
#    z 0.000000 0.000000 1.810160 
# 
# From -- ./inp_files/17910.got.cif
#   From: 2010.03.12/outbox.cif.g09.slc.cpg/sg35_9_cif.got.tgz:17910.got - 2010.04.14 02:02:04.
