data_PCOD8173622
_publ_section_title
;
Structure prediction by ZEFSAII (Michael W. Deem and Ramdas Pophale) SiO2 
 PCOD8173622
Probable space group: C M M 2
;
_chemical_formula_sum "Si O2"
_cell_formula_units_Z 64
_cell_length_a 15.193123
_cell_length_b 23.574660
_cell_length_c 9.612506
_cell_angle_alpha 90.000000
_cell_angle_beta 90.000000
_cell_angle_gamma 90.000000
_cell_volume 3442.937315
_symmetry_space_group_name_H-M "C M M 2"
_symmetry_group_IT_number 35
_symmetry_cell_setting 'orthorhombic'
loop_
_space_group_symop_operation_xyz
x,y,z
-x,-y,z
-x,y,z
x,-y,z
1/2+x,1/2+y,z
1/2-x,1/2-y,z
1/2-x,1/2+y,z
1/2+x,1/2-y,z
loop_
_atom_site_type_symbol
_atom_site_label
_atom_site_fract_x
_atom_site_fract_y
_atom_site_fract_z
Si Si1 0.097134 0.852520 0.752080
Si Si2 0.102192 0.749185 0.273686
Si Si3 0.101015 0.150394 0.071823
Si Si4 0.400680 0.878328 0.572599
Si Si5 0.348627 0.750981 0.577914
Si Si6 0.747810 0.065223 0.749742
Si Si7 0.748721 0.064945 0.072805
Si Si8 0.101699 0.378151 0.250505
O O1 0.097140 0.796246 0.659715
O O2 0.168216 0.898253 0.699762
O O3 0.000000 0.880262 0.739190
O O4 0.115334 0.834782 0.910865
O O5 0.128660 0.793733 0.156087
O O6 0.153950 0.764095 0.414364
O O7 0.126110 0.686997 0.215933
O O8 0.000000 0.750808 0.313847
O O9 0.164804 0.099647 0.119598
O O10 0.000000 0.132780 0.103639
O O11 0.500000 0.896748 0.607469
O O12 0.391386 0.811878 0.606611
O O13 0.337650 0.916375 0.665453
O O14 0.378770 0.890252 0.411975
O O15 0.250000 0.750000 0.636648
O O16 0.769728 0.000000 0.717869
O O17 0.727556 0.075222 0.911388
O O18 0.662503 0.081864 0.158287
O O19 0.771215 0.000000 0.103962
O O20 0.000000 0.391181 0.214323
#
# Coordination Sequence:
#
# PCOD8173622 Si02
#       8
#     8   8   8   8   8   8   8   8
#     4  10  20  37  57  81 112 144 178 222 271 322
#     4   9  19  35  54  82 111 140 177 216 264 326
#     4   9  20  36  56  81 110 142 178 219 267 320
#     4  10  21  38  57  80 111 145 179 220 270 326
#     4  11  20  33  56  85 112 142 176 219 270 326
#     4  10  22  39  55  79 108 141 188 229 268 319
#     4  10  22  37  55  78 107 142 182 226 268 313
#     4   9  20  37  56  79 108 141 178 218 267 322
#
# _framework density 18.58878
#
# number of rings (size 3 to 8) (size 9 to 14) (size 15 to 20)
#    0.000    2.250    1.250    1.875    3.500    3.000 
#    0.000    6.250    0.000    0.000    0.000    3.500 
#    0.000    0.000    0.000    0.000    0.000    0.000 
#
# Total GULP energy -396872.826101 kJ/mol
# GULP energy per Si atom -12402.275816 kJ/mol
# Density = 1.854647 g / cm^3
# Si number density = 18.588780 Si / 1000 Ang^3
#
#
#
# Elastic Constant Matrix: (Units=GPa)
#
#
# Indices 1 2 3 4 5 6 
#
# 1 93.5866 31.0752 33.0817 0.0000 0.0000 0.0000
# 2 31.0752 79.0967 36.3339 0.0000 0.0000 0.0000
# 3 33.0817 36.3339 49.4970 0.0000 0.0000 0.0000
# 4 0.0000 0.0000 0.0000 21.3135 0.0000 0.0000
# 5 0.0000 0.0000 0.0000 0.0000 31.1446 0.0000
# 6 0.0000 0.0000 0.0000 0.0000 0.0000 24.6145
#
#
#
# Elastic Compliance Matrix: (Units=1/GPa)
#
#
# Indices 1 2 3 4 5 6 
#
# 1 0.014165 -0.001835 -0.008120 0.000000 0.000000 0.000000
# 2 -0.001835 0.019312 -0.012950 0.000000 0.000000 0.000000
# 3 -0.008120 -0.012950 0.035137 0.000000 0.000000 0.000000
# 4 0.000000 0.000000 0.000000 0.046919 0.000000 0.000000
# 5 0.000000 0.000000 0.000000 0.000000 0.032108 0.000000
# 6 0.000000 0.000000 0.000000 0.000000 0.000000 0.040626
#
#
# Mechanical properties :
#
#
# Convention : Reuss Voigt Hill
#
# Bulk Modulus (GPa) = 43.85317 47.01797 45.43557
# Shear Modulus (GPa) = 20.68856 23.52715 22.10786
#
# Velocity S-wave (km/s) = 3.33972 3.56148 3.45238
# Velocity P-wave (km/s) = 6.20597 6.50083 6.35511
#
# Compressibility (1/GPa) = 0.02280337
#
# Stress axis : x y z
#
# Youngs Moduli (GPa) = 70.59645 51.78014 28.46026
#
# Poissons Ratio (x) = 0.09501 0.23111
# Poissons Ratio (y) = 0.12954 0.36856
# Poissons Ratio (z) = 0.57327 0.67056
#
# Static dielectric constant tensor:
#      x y z
#    x 3.507890 0.000000 0.000000 
#    y 0.000000 3.379120 0.000000 
#    z 0.000000 0.000000 3.328110 
# 
# 
# High freq. dielectric constant tensor:
#      x y z
#    x 1.733090 0.000000 0.000000 
#    y 0.000000 1.714190 0.000000 
#    z 0.000000 0.000000 1.713840 
# 
# From -- ./inp_files/7852.got.cif
#   From: 2010.03.12/outbox.cif.g09.slc.cpg/sg35_4_cif.got.tgz:7852.got - 2010.04.14 02:02:04.
