data_PCOD8173264
_publ_section_title
;
Structure prediction by ZEFSAII (Michael W. Deem and Ramdas Pophale) SiO2 
 PCOD8173264
Probable space group: C M M 2
;
_chemical_formula_sum "Si O2"
_cell_formula_units_Z 48
_cell_length_a 15.918794
_cell_length_b 8.810678
_cell_length_c 17.241709
_cell_angle_alpha 90.000000
_cell_angle_beta 90.000000
_cell_angle_gamma 90.000000
_cell_volume 2418.242242
_symmetry_space_group_name_H-M "C M M 2"
_symmetry_group_IT_number 35
_symmetry_cell_setting 'orthorhombic'
loop_
_space_group_symop_operation_xyz
x,y,z
-x,-y,z
-x,y,z
x,-y,z
1/2+x,1/2+y,z
1/2-x,1/2-y,z
1/2-x,1/2+y,z
1/2+x,1/2-y,z
loop_
_atom_site_type_symbol
_atom_site_label
_atom_site_fract_x
_atom_site_fract_y
_atom_site_fract_z
Si Si1 0.000000 0.319106 0.383670
Si Si2 0.594539 0.665533 0.975530
Si Si3 0.500000 0.179295 0.558018
Si Si4 0.161656 0.320077 0.290004
Si Si5 0.335920 0.822272 0.114922
Si Si6 0.656992 0.181231 0.661355
Si Si7 0.160597 0.818482 0.815062
O O1 0.000000 0.254735 0.470603
O O2 0.915699 0.258393 0.341147
O O3 0.000000 0.500000 0.379886
O O4 0.500000 0.639575 0.951541
O O5 0.636465 0.500000 0.992111
O O6 0.633865 0.744819 0.899331
O O7 0.596263 0.769227 0.052083
O O8 0.587607 0.231533 0.597494
O O9 0.500000 0.000000 0.555042
O O10 0.170073 0.500000 0.295417
O O11 0.250000 0.250000 0.318892
O O12 0.142143 0.266693 0.201643
O O13 0.250000 0.750000 0.084954
O O14 0.328426 0.000000 0.113404
O O15 0.750000 0.250000 0.641228
O O16 0.613375 0.248357 0.740398
O O17 0.666283 0.000000 0.667334
O O18 0.250000 0.750000 0.797778
O O19 0.155958 0.000000 0.814011
#
# Coordination Sequence:
#
# PCOD8173264 Si02
#       7
#     4   8   4   8   8   8   8
#     4   9  18  36  59  82 111 148 180 219 273 331
#     4  10  22  36  50  75 109 143 179 222 271 318
#     4   9  20  36  57  84 113 144 180 221 273 331
#     4   9  19  35  58  83 111 145 185 226 272 325
#     4  10  20  34  54  78 105 140 183 226 268 320
#     4  10  20  36  57  83 111 143 183 226 272 326
#     4  10  20  35  55  76 103 140 180 220 266 318
#
# _framework density 19.849129000000001
#
# number of rings (size 3 to 8) (size 9 to 14) (size 15 to 20)
#    0.000    2.333    0.000    3.000    2.333    4.333 
#    0.000    1.667    0.000    3.000    0.000    0.000 
#    0.000    0.000    0.000    0.000    0.000    0.000 
#
# Total GULP energy -297360.758177 kJ/mol
# GULP energy per Si atom -12390.031591 kJ/mol
# Density = 1.980395 g / cm^3
# Si number density = 19.849129 Si / 1000 Ang^3
#
#
#
# Elastic Constant Matrix: (Units=GPa)
#
#
# Indices 1 2 3 4 5 6 
#
# 1 110.9465 25.3449 72.8023 0.0000 0.0000 0.0000
# 2 25.3449 52.1911 33.6891 0.0000 0.0000 0.0000
# 3 72.8023 33.6891 159.3185 0.0000 0.0000 0.0000
# 4 0.0000 0.0000 0.0000 22.1048 0.0000 0.0000
# 5 0.0000 0.0000 0.0000 0.0000 38.7574 0.0000
# 6 0.0000 0.0000 0.0000 0.0000 0.0000 22.7187
#
#
#
# Elastic Compliance Matrix: (Units=1/GPa)
#
#
# Indices 1 2 3 4 5 6 
#
# 1 0.013248 -0.002925 -0.005435 0.000000 0.000000 0.000000
# 2 -0.002925 0.022835 -0.003492 0.000000 0.000000 0.000000
# 3 -0.005435 -0.003492 0.009499 0.000000 0.000000 0.000000
# 4 0.000000 0.000000 0.000000 0.045239 0.000000 0.000000
# 5 0.000000 0.000000 0.000000 0.000000 0.025801 0.000000
# 6 0.000000 0.000000 0.000000 0.000000 0.000000 0.044017
#
#
# Mechanical properties :
#
#
# Convention : Reuss Voigt Hill
#
# Bulk Modulus (GPa) = 45.70978 65.12540 55.41759
# Shear Modulus (GPa) = 26.09107 29.42417 27.75762
#
# Velocity S-wave (km/s) = 3.62949 3.85436 3.74362
# Velocity P-wave (km/s) = 6.37518 7.25876 6.83127
#
# Compressibility (1/GPa) = 0.02187716
#
# Stress axis : x y z
#
# Youngs Moduli (GPa) = 75.48183 43.79270 105.27545
#
# Poissons Ratio (x) = 0.12810 0.57221
# Poissons Ratio (y) = 0.22079 0.36762
# Poissons Ratio (z) = 0.41027 0.15292
#
# Static dielectric constant tensor:
#      x y z
#    x 3.609710 0.000000 0.000000 
#    y 0.000000 3.422840 0.000000 
#    z 0.000000 0.000000 3.929190 
# 
# 
# High freq. dielectric constant tensor:
#      x y z
#    x 1.771210 0.000000 0.000000 
#    y 0.000000 1.753690 0.000000 
#    z 0.000000 0.000000 1.782590 
# 
# From -- ./inp_files/15177.got.cif
#   From: 2010.03.12/outbox.cif.g09.slc.cpg/sg35_8_cif.got.tgz:15177.got - 2010.04.14 02:02:04.
