data_PCOD8173131
_publ_section_title
;
Structure prediction by ZEFSAII (Michael W. Deem and Ramdas Pophale) SiO2 
 PCOD8173131
Probable space group: C M M 2
;
_chemical_formula_sum "Si O2"
_cell_formula_units_Z 56
_cell_length_a 9.060803
_cell_length_b 19.185464
_cell_length_c 18.210656
_cell_angle_alpha 90.000000
_cell_angle_beta 90.000000
_cell_angle_gamma 90.000000
_cell_volume 3165.662311
_symmetry_space_group_name_H-M "C M M 2"
_symmetry_group_IT_number 35
_symmetry_cell_setting 'orthorhombic'
loop_
_space_group_symop_operation_xyz
x,y,z
-x,-y,z
-x,y,z
x,-y,z
1/2+x,1/2+y,z
1/2-x,1/2-y,z
1/2-x,1/2+y,z
1/2+x,1/2-y,z
loop_
_atom_site_type_symbol
_atom_site_label
_atom_site_fract_x
_atom_site_fract_y
_atom_site_fract_z
Si Si1 0.838157 0.417525 0.359360
Si Si2 0.172567 0.080910 0.657847
Si Si3 0.827131 0.581189 0.195983
Si Si4 0.827791 0.676299 0.936063
Si Si5 0.829106 0.323634 0.773999
Si Si6 0.337417 0.417187 0.495924
Si Si7 0.676374 0.674097 0.076962
O O1 0.846287 0.500000 0.368981
O O2 0.773011 0.400541 0.278839
O O3 0.749115 0.383863 0.427146
O O4 0.000000 0.384714 0.364492
O O5 0.265928 0.122566 0.716372
O O6 0.229459 0.101957 0.575926
O O7 0.000000 0.098333 0.665821
O O8 0.201693 0.000000 0.672442
O O9 0.801765 0.500000 0.178849
O O10 0.722672 0.626080 0.144325
O O11 0.000000 0.599857 0.185670
O O12 0.750000 0.750000 0.930033
O O13 0.808179 0.642006 0.855494
O O14 0.000000 0.683831 0.956819
O O15 0.741680 0.637247 0.002470
O O16 0.750000 0.250000 0.765992
O O17 0.000000 0.310505 0.757772
O O18 0.500000 0.385352 0.490895
O O19 0.343849 0.500000 0.488861
O O20 0.500000 0.680288 0.073042
O O21 0.750000 0.750000 0.086416
#
# Coordination Sequence:
#
# PCOD8173131 Si02
#       7
#     8   8   8   8   8   8   8
#     4   8  14  25  43  67  93 123 158 194 233 278
#     4   9  18  32  49  71 101 133 162 197 242 286
#     4   9  18  33  51  72 101 132 160 196 243 288
#     4   9  17  31  50  71  94 122 159 200 240 283
#     4  10  20  33  52  75  97 125 161 200 241 287
#     4   8  14  25  42  65  93 125 159 194 233 277
#     4  11  21  33  52  75  98 126 162 200 239 286
#
# _framework density 17.689820000000001
#
# number of rings (size 3 to 8) (size 9 to 14) (size 15 to 20)
#    0.000    2.857    0.000    4.714    0.000    3.429 
#    0.000    3.571    0.000    1.714    0.000    6.000 
#    0.000    0.000    0.000    0.000    0.000    0.000 
#
# Total GULP energy -346895.568510 kJ/mol
# GULP energy per Si atom -12389.127447 kJ/mol
# Density = 1.764956 g / cm^3
# Si number density = 17.689820 Si / 1000 Ang^3
#
#
#
# Elastic Constant Matrix: (Units=GPa)
#
#
# Indices 1 2 3 4 5 6 
#
# 1 120.4146 38.8842 86.8186 0.0000 0.0000 0.0000
# 2 38.8842 36.7551 47.8224 0.0000 0.0000 0.0000
# 3 86.8186 47.8224 176.4383 0.0000 0.0000 0.0000
# 4 0.0000 0.0000 0.0000 76.4478 0.0000 0.0000
# 5 0.0000 0.0000 0.0000 0.0000 35.8313 0.0000
# 6 0.0000 0.0000 0.0000 0.0000 0.0000 22.9156
#
#
#
# Elastic Compliance Matrix: (Units=1/GPa)
#
#
# Indices 1 2 3 4 5 6 
#
# 1 0.014752 -0.009519 -0.004679 0.000000 0.000000 0.000000
# 2 -0.009519 0.048171 -0.008373 0.000000 0.000000 0.000000
# 3 -0.004679 -0.008373 0.010239 0.000000 0.000000 0.000000
# 4 0.000000 0.000000 0.000000 0.013081 0.000000 0.000000
# 5 0.000000 0.000000 0.000000 0.000000 0.027909 0.000000
# 6 0.000000 0.000000 0.000000 0.000000 0.000000 0.043638
#
#
# Mechanical properties :
#
#
# Convention : Reuss Voigt Hill
#
# Bulk Modulus (GPa) = 35.68660 75.62872 55.65766
# Shear Modulus (GPa) = 23.55486 37.71113 30.63299
#
# Velocity S-wave (km/s) = 3.65300 4.62215 4.16585
# Velocity P-wave (km/s) = 6.16521 8.44578 7.39395
#
# Compressibility (1/GPa) = 0.02802173
#
# Stress axis : x y z
#
# Youngs Moduli (GPa) = 67.78822 20.75951 97.66262
#
# Poissons Ratio (x) = 0.19760 0.45695
# Poissons Ratio (y) = 0.64525 0.81769
# Poissons Ratio (z) = 0.31717 0.17381
#
# Static dielectric constant tensor:
#      x y z
#    x 3.453250 0.000000 0.000000 
#    y 0.000000 2.744970 0.000000 
#    z 0.000000 0.000000 3.902340 
# 
# 
# High freq. dielectric constant tensor:
#      x y z
#    x 1.687220 0.000000 0.000000 
#    y 0.000000 1.624530 0.000000 
#    z 0.000000 0.000000 1.709060 
# 
# From -- ./inp_files/18253.got.cif
#   From: 2010.03.12/outbox.cif.g09.slc.cpg/sg35_10_cif.got.tgz:18253.got - 2010.04.14 02:02:04.
