data_PCOD8173768
_publ_section_title
;
Structure prediction by ZEFSAII (Michael W. Deem and Ramdas Pophale) SiO2 
 PCOD8173768
Probable space group: C M M 2
;
_chemical_formula_sum "Si O2"
_cell_formula_units_Z 64
_cell_length_a 19.247392
_cell_length_b 18.656659
_cell_length_c 9.358882
_cell_angle_alpha 90.000000
_cell_angle_beta 90.000000
_cell_angle_gamma 90.000000
_cell_volume 3360.699928
_symmetry_space_group_name_H-M "C M M 2"
_symmetry_group_IT_number 35
_symmetry_cell_setting 'orthorhombic'
loop_
_space_group_symop_operation_xyz
x,y,z
-x,-y,z
-x,y,z
x,-y,z
1/2+x,1/2+y,z
1/2-x,1/2-y,z
1/2-x,1/2+y,z
1/2+x,1/2-y,z
loop_
_atom_site_type_symbol
_atom_site_label
_atom_site_fract_x
_atom_site_fract_y
_atom_site_fract_z
Si Si1 0.822282 0.417618 0.442770
Si Si2 0.081937 0.337500 0.226479
Si Si3 0.923980 0.131223 0.998040
Si Si4 0.168005 0.921771 0.471612
Si Si5 0.199631 0.316309 0.708600
Si Si6 0.576399 0.794924 0.917963
Si Si7 0.080506 0.821521 0.298413
Si Si8 0.802659 0.921086 0.803326
O O1 0.840144 0.500000 0.488987
O O2 0.873152 0.395639 0.313398
O O3 0.742252 0.414300 0.391725
O O4 0.828336 0.363161 0.576126
O O5 0.107272 0.259387 0.278962
O O6 0.000000 0.349677 0.256349
O O7 0.097070 0.343958 0.055651
O O8 0.929637 0.215012 0.973075
O O9 0.868358 0.091232 0.903053
O O10 0.000000 0.096174 0.969837
O O11 0.903230 0.125989 0.164633
O O12 0.118871 0.856421 0.431793
O O13 0.175707 0.913788 0.639986
O O14 0.135775 0.000000 0.435323
O O15 0.250000 0.250000 0.661293
O O16 0.130610 0.292425 0.789505
O O17 0.241688 0.363527 0.826019
O O18 0.500000 0.819580 0.861394
O O19 0.000000 0.819615 0.333891
O O20 0.773082 0.000000 0.835929
#
# Coordination Sequence:
#
# PCOD8173768 Si02
#       8
#     8   8   8   8   8   8   8   8
#     4  10  23  40  57  83 119 151 185 237 290 342
#     4   9  20  38  60  84 112 149 189 237 286 336
#     4   9  18  34  53  77 110 146 183 229 280 333
#     4   9  20  36  51  73 109 147 181 225 280 330
#     4  11  21  36  60  89 111 153 195 235 286 344
#     4   9  19  38  59  85 116 143 186 241 286 332
#     4   9  19  34  54  80 109 141 186 233 275 330
#     4  10  21  36  52  76 115 150 182 230 279 336
#
# _framework density 19.043651000000001
#
# number of rings (size 3 to 8) (size 9 to 14) (size 15 to 20)
#    0.000    2.500    1.250    2.625    3.500    3.250 
#    0.000    7.500    0.000    2.625    0.000    0.000 
#    0.000    0.000    0.000    0.000    0.000    0.000 
#
# Total GULP energy -396538.815324 kJ/mol
# GULP energy per Si atom -12391.837979 kJ/mol
# Density = 1.900031 g / cm^3
# Si number density = 19.043651 Si / 1000 Ang^3
#
#
#
# Elastic Constant Matrix: (Units=GPa)
#
#
# Indices 1 2 3 4 5 6 
#
# 1 60.9592 26.1770 31.2925 0.0000 0.0000 0.0000
# 2 26.1770 73.8833 22.0994 0.0000 0.0000 0.0000
# 3 31.2925 22.0994 46.6352 0.0000 0.0000 0.0000
# 4 0.0000 0.0000 0.0000 18.2880 0.0000 0.0000
# 5 0.0000 0.0000 0.0000 0.0000 25.5292 0.0000
# 6 0.0000 0.0000 0.0000 0.0000 0.0000 25.4009
#
#
#
# Elastic Compliance Matrix: (Units=1/GPa)
#
#
# Indices 1 2 3 4 5 6 
#
# 1 0.026364 -0.004718 -0.015454 0.000000 0.000000 0.000000
# 2 -0.004718 0.016615 -0.004707 0.000000 0.000000 0.000000
# 3 -0.015454 -0.004707 0.034044 0.000000 0.000000 0.000000
# 4 0.000000 0.000000 0.000000 0.054681 0.000000 0.000000
# 5 0.000000 0.000000 0.000000 0.000000 0.039171 0.000000
# 6 0.000000 0.000000 0.000000 0.000000 0.000000 0.039369
#
#
# Mechanical properties :
#
#
# Convention : Reuss Voigt Hill
#
# Bulk Modulus (GPa) = 36.68079 37.84615 37.26347
# Shear Modulus (GPa) = 18.58117 20.63753 19.60935
#
# Velocity S-wave (km/s) = 3.12703 3.29552 3.21238
# Velocity P-wave (km/s) = 5.68692 5.86491 5.77660
#
# Compressibility (1/GPa) = 0.02726222
#
# Stress axis : x y z
#
# Youngs Moduli (GPa) = 37.93089 60.18826 29.37397
#
# Poissons Ratio (x) = 0.28398 0.45396
# Poissons Ratio (y) = 0.17896 0.13827
# Poissons Ratio (z) = 0.58620 0.28333
#
# Static dielectric constant tensor:
#      x y z
#    x 3.573180 0.000000 0.000000 
#    y 0.000000 3.578150 0.000000 
#    z 0.000000 0.000000 3.369140 
# 
# 
# High freq. dielectric constant tensor:
#      x y z
#    x 1.736540 0.000000 0.000000 
#    y 0.000000 1.737910 0.000000 
#    z 0.000000 0.000000 1.728330 
# 
# From -- ./inp_files/8793.got.cif
#   From: 2010.03.12/outbox.cif.g09.slc.cpg/sg35_5_cif.got.tgz:8793.got - 2010.04.14 02:02:04.
