data_PCOD8173557
_publ_section_title
;
Structure prediction by ZEFSAII (Michael W. Deem and Ramdas Pophale) SiO2 
 PCOD8173557
Probable space group: C M M 2
;
_chemical_formula_sum "Si O2"
_cell_formula_units_Z 48
_cell_length_a 8.811175
_cell_length_b 18.616309
_cell_length_c 15.150522
_cell_angle_alpha 90.000000
_cell_angle_beta 90.000000
_cell_angle_gamma 90.000000
_cell_volume 2485.163705
_symmetry_space_group_name_H-M "C M M 2"
_symmetry_group_IT_number 35
_symmetry_cell_setting 'orthorhombic'
loop_
_space_group_symop_operation_xyz
x,y,z
-x,-y,z
-x,y,z
x,-y,z
1/2+x,1/2+y,z
1/2-x,1/2-y,z
1/2-x,1/2+y,z
1/2+x,1/2-y,z
loop_
_atom_site_type_symbol
_atom_site_label
_atom_site_fract_x
_atom_site_fract_y
_atom_site_fract_z
Si Si1 0.175930 0.416712 0.212600
Si Si2 0.178031 0.325966 0.042877
Si Si3 0.170110 0.584078 0.717648
Si Si4 0.322292 0.325766 0.861434
Si Si5 0.678076 0.327619 0.365876
Si Si6 0.177417 0.582039 0.516085
O O1 0.219178 0.500000 0.209802
O O2 0.215122 0.383882 0.117572
O O3 0.276408 0.378948 0.286010
O O4 0.000000 0.405056 0.236671
O O5 0.250000 0.250000 0.070520
O O6 0.000000 0.314934 0.029291
O O7 0.249534 0.355306 0.952042
O O8 0.176424 0.500000 0.734293
O O9 0.290774 0.620136 0.781937
O O10 0.214700 0.601581 0.617069
O O11 0.000000 0.612645 0.737380
O O12 0.500000 0.316826 0.875347
O O13 0.250000 0.250000 0.835881
O O14 0.500000 0.317413 0.366787
O O15 0.750000 0.250000 0.352599
O O16 0.728619 0.362903 0.457490
O O17 0.225936 0.500000 0.495099
O O18 0.000000 0.591465 0.496066
#
# Coordination Sequence:
#
# PCOD8173557 Si02
#       6
#     8   8   8   8   8   8
#     4  10  22  40  61  85 114 148 184 225 276 333
#     4  10  20  36  58  82 110 147 189 232 279 330
#     4   9  19  37  60  84 112 148 187 228 278 334
#     4  11  22  36  56  82 114 151 189 232 280 329
#     4  12  25  39  58  84 114 149 187 230 278 329
#     4   9  19  38  62  85 112 147 185 228 279 333
#
# _framework density 19.314623000000001
#
# number of rings (size 3 to 8) (size 9 to 14) (size 15 to 20)
#    0.000    1.833    0.000    6.500    0.000    7.667 
#    0.000    3.333    0.000    0.000    0.000    0.000 
#    0.000    0.000    0.000    0.000    0.000    0.000 
#
# Total GULP energy -297689.235104 kJ/mol
# GULP energy per Si atom -12403.718129 kJ/mol
# Density = 1.927066 g / cm^3
# Si number density = 19.314623 Si / 1000 Ang^3
#
#
#
# Elastic Constant Matrix: (Units=GPa)
#
#
# Indices 1 2 3 4 5 6 
#
# 1 122.8142 56.3549 66.0513 0.0000 0.0000 0.0000
# 2 56.3549 107.8767 75.1849 0.0000 0.0000 0.0000
# 3 66.0513 75.1849 128.2248 0.0000 0.0000 0.0000
# 4 0.0000 0.0000 0.0000 42.9903 0.0000 0.0000
# 5 0.0000 0.0000 0.0000 0.0000 -6.4743 0.0000
# 6 0.0000 0.0000 0.0000 0.0000 0.0000 32.5428
#
#
#
# Elastic Compliance Matrix: (Units=1/GPa)
#
#
# Indices 1 2 3 4 5 6 
#
# 1 0.011916 -0.003292 -0.004208 0.000000 0.000000 0.000000
# 2 -0.003292 0.016586 -0.008029 0.000000 0.000000 0.000000
# 3 -0.004208 -0.008029 0.014674 0.000000 0.000000 0.000000
# 4 0.000000 0.000000 0.000000 0.023261 0.000000 0.000000
# 5 0.000000 0.000000 0.000000 0.000000 -0.154458 0.000000
# 6 0.000000 0.000000 0.000000 0.000000 0.000000 0.030729
#
#
# Mechanical properties :
#
#
# Convention : Reuss Voigt Hill
#
# Bulk Modulus (GPa) = 82.52494 83.78866 83.15680
# Shear Modulus (GPa) = -225.28105 24.56675 -100.35715
#
# Velocity S-wave (km/s) = -10.81160 3.57027 -7.21609
# Velocity P-wave (km/s) = 10.63179 7.77631 5.12660
#
# Compressibility (1/GPa) = 0.01211755
#
# Stress axis : x y z
#
# Youngs Moduli (GPa) = 83.91983 60.29297 68.14698
#
# Poissons Ratio (x) = 0.19851 0.28675
# Poissons Ratio (y) = 0.27630 0.54716
# Poissons Ratio (z) = 0.35311 0.48410
#
# Static dielectric constant tensor:
#      x y z
#    x 3.533260 0.000000 0.000000 
#    y 0.000000 3.109340 0.000000 
#    z 0.000000 0.000000 3.636070 
# 
# 
# High freq. dielectric constant tensor:
#      x y z
#    x 1.752060 0.000000 0.000000 
#    y 0.000000 1.751040 0.000000 
#    z 0.000000 0.000000 1.765070 
# 
# From -- ./inp_files/15122.got.cif
#   From: 2010.03.12/outbox.cif.g09.slc.cpg/sg35_8_cif.got.tgz:15122.got - 2010.04.14 02:02:04.
