data_PCOD8173339
_publ_section_title
;
Structure prediction by ZEFSAII (Michael W. Deem and Ramdas Pophale) SiO2 
 PCOD8173339
Probable space group: C M M 2
;
_chemical_formula_sum "Si O2"
_cell_formula_units_Z 48
_cell_length_a 15.813387
_cell_length_b 7.610148
_cell_length_c 19.007693
_cell_angle_alpha 90.000000
_cell_angle_beta 90.000000
_cell_angle_gamma 90.000000
_cell_volume 2287.427886
_symmetry_space_group_name_H-M "C M M 2"
_symmetry_group_IT_number 35
_symmetry_cell_setting 'orthorhombic'
loop_
_space_group_symop_operation_xyz
x,y,z
-x,-y,z
-x,y,z
x,-y,z
1/2+x,1/2+y,z
1/2-x,1/2-y,z
1/2-x,1/2+y,z
1/2+x,1/2-y,z
loop_
_atom_site_type_symbol
_atom_site_label
_atom_site_fract_x
_atom_site_fract_y
_atom_site_fract_z
Si Si1 0.844202 0.793603 0.323590
Si Si2 0.399246 0.000000 0.073538
Si Si3 0.000000 0.789938 0.572078
Si Si4 0.000000 0.210014 0.730666
Si Si5 0.092994 0.500000 0.226411
Si Si6 0.656131 0.705161 0.820258
Si Si7 0.100007 0.200037 0.970682
Si Si8 0.843882 0.205400 0.482688
O O1 0.750000 0.750000 0.299959
O O2 0.899527 0.677057 0.271799
O O3 0.857588 0.724530 0.403324
O O4 0.865771 0.000000 0.314690
O O5 0.356353 0.000000 0.151947
O O6 0.367754 0.824084 0.033707
O O7 0.500000 0.000000 0.072257
O O8 0.000000 0.717078 0.651083
O O9 0.916040 0.714352 0.533130
O O10 0.000000 0.000000 0.570529
O O11 0.084424 0.285475 0.768645
O O12 0.000000 0.000000 0.729747
O O13 0.000000 0.500000 0.196484
O O14 0.640910 0.500000 0.821024
O O15 0.750000 0.750000 0.792151
O O16 0.643600 0.774442 0.899579
O O17 0.000000 0.210473 0.958734
O O18 0.127600 0.000000 0.987946
O O19 0.750000 0.250000 0.511014
O O20 0.854884 0.000000 0.480242
#
# Coordination Sequence:
#
# PCOD8173339 Si02
#       8
#     8   4   4   4   4   8   8   8
#     4  10  20  38  62  84 117 161 205 247 299 359
#     4   9  20  36  56  86 118 152 191 240 304 356
#     4   9  18  34  57  83 117 150 192 233 288 360
#     4   9  18  36  57  81 115 158 186 229 296 354
#     4  11  24  38  58  94 123 153 202 249 306 366
#     4  10  20  34  56  85 111 146 199 240 284 348
#     4   9  17  34  59  81 110 153 197 242 289 351
#     4   9  19  34  55  85 111 149 199 242 290 349
#
# _framework density 20.984268
#
# number of rings (size 3 to 8) (size 9 to 14) (size 15 to 20)
#    0.000    2.500    1.667    0.000    3.500    1.667 
#    0.000    3.333    0.000    1.000    0.000    0.000 
#    0.000    0.000    0.000    0.000    0.000    0.000 
#
# Total GULP energy -297456.552302 kJ/mol
# GULP energy per Si atom -12394.023013 kJ/mol
# Density = 2.093651 g / cm^3
# Si number density = 20.984268 Si / 1000 Ang^3
#
#
#
# Elastic Constant Matrix: (Units=GPa)
#
#
# Indices 1 2 3 4 5 6 
#
# 1 119.4470 16.3103 73.1935 0.0000 0.0000 0.0000
# 2 16.3103 76.3638 46.4289 0.0000 0.0000 0.0000
# 3 73.1935 46.4289 163.8209 0.0000 0.0000 0.0000
# 4 0.0000 0.0000 0.0000 16.7532 0.0000 0.0000
# 5 0.0000 0.0000 0.0000 0.0000 16.6405 0.0000
# 6 0.0000 0.0000 0.0000 0.0000 0.0000 20.8244
#
#
#
# Elastic Compliance Matrix: (Units=1/GPa)
#
#
# Indices 1 2 3 4 5 6 
#
# 1 0.011570 0.000812 -0.005399 0.000000 0.000000 0.000000
# 2 0.000812 0.015878 -0.004863 0.000000 0.000000 0.000000
# 3 -0.005399 -0.004863 0.009895 0.000000 0.000000 0.000000
# 4 0.000000 0.000000 0.000000 0.059690 0.000000 0.000000
# 5 0.000000 0.000000 0.000000 0.000000 0.060094 0.000000
# 6 0.000000 0.000000 0.000000 0.000000 0.000000 0.048021
#
#
# Mechanical properties :
#
#
# Convention : Reuss Voigt Hill
#
# Bulk Modulus (GPa) = 54.22419 70.16634 62.19526
# Shear Modulus (GPa) = 21.72066 25.75689 23.73877
#
# Velocity S-wave (km/s) = 3.22078 3.50728 3.36708
# Velocity P-wave (km/s) = 6.30299 7.06481 6.69475
#
# Compressibility (1/GPa) = 0.01844195
#
# Stress axis : x y z
#
# Youngs Moduli (GPa) = 86.43388 62.97866 101.06440
#
# Poissons Ratio (x) = -0.05111 0.54566
# Poissons Ratio (y) = -0.07015 0.49145
# Poissons Ratio (z) = 0.46667 0.30625
#
# Static dielectric constant tensor:
#      x y z
#    x 3.985390 0.000000 0.000000 
#    y 0.000000 3.502160 0.000000 
#    z 0.000000 0.000000 3.943160 
# 
# 
# High freq. dielectric constant tensor:
#      x y z
#    x 1.811420 0.000000 0.000000 
#    y 0.000000 1.808840 0.000000 
#    z 0.000000 0.000000 1.817220 
# 
# From -- ./inp_files/18851.got.cif
#   From: 2010.03.12/outbox.cif.g09.slc.cpg/sg35_10_cif.got.tgz:18851.got - 2010.04.14 02:02:04.
