data_PCOD8173039
_publ_section_title
;
Structure prediction by ZEFSAII (Michael W. Deem and Ramdas Pophale) SiO2 
 PCOD8173039
Probable space group: C M M 2
;
_chemical_formula_sum "Si O2"
_cell_formula_units_Z 64
_cell_length_a 30.441131
_cell_length_b 8.950439
_cell_length_c 15.326568
_cell_angle_alpha 90.000000
_cell_angle_beta 90.000000
_cell_angle_gamma 90.000000
_cell_volume 4175.899494
_symmetry_space_group_name_H-M "C M M 2"
_symmetry_group_IT_number 35
_symmetry_cell_setting 'orthorhombic'
loop_
_space_group_symop_operation_xyz
x,y,z
-x,-y,z
-x,y,z
x,-y,z
1/2+x,1/2+y,z
1/2-x,1/2-y,z
1/2-x,1/2+y,z
1/2+x,1/2-y,z
loop_
_atom_site_type_symbol
_atom_site_label
_atom_site_fract_x
_atom_site_fract_y
_atom_site_fract_z
Si Si1 0.052071 0.333686 0.770070
Si Si2 0.451181 0.321977 0.411478
Si Si3 0.792846 0.167477 0.066769
Si Si4 0.051624 0.826400 0.945095
Si Si5 0.052369 0.833481 0.602329
Si Si6 0.886286 0.179275 0.262631
Si Si7 0.790827 0.837000 0.273376
Si Si8 0.883706 0.677830 0.078009
O O1 0.071082 0.500000 0.785608
O O2 0.066155 0.225562 0.848705
O O3 0.071566 0.270461 0.679109
O O4 0.000000 0.339523 0.763189
O O5 0.500000 0.258915 0.393562
O O6 0.452114 0.500000 0.411313
O O7 0.433807 0.269224 0.506889
O O8 0.420216 0.261851 0.334751
O O9 0.750000 0.250000 0.026215
O O10 0.786571 0.156577 0.169723
O O11 0.837104 0.258131 0.044287
O O12 0.796341 0.000000 0.027380
O O13 0.000000 0.798425 0.960404
O O14 0.063679 0.000000 0.956374
O O15 0.077791 0.726352 0.013410
O O16 0.000000 0.840205 0.605902
O O17 0.071427 0.000000 0.616053
O O18 0.838250 0.233363 0.295992
O O19 0.897529 0.256999 0.171658
O O20 0.887102 0.000000 0.248935
O O21 0.750000 0.750000 0.315529
O O22 0.788021 0.000000 0.315105
O O23 0.880381 0.500000 0.082789
#
# Coordination Sequence:
#
# PCOD8173039 Si02
#       8
#     8   8   8   8   8   8   8   8
#     4   9  16  26  41  61  83 105 130 166 213 258
#     4   8  14  25  42  61  80 106 141 176 206 242
#     4   9  16  28  45  64  84 107 138 175 216 258
#     4  10  20  33  47  61  80 111 149 184 215 251
#     4   8  13  23  40  60  79 101 131 165 203 250
#     4   9  17  29  42  58  81 110 145 180 210 243
#     4   8  14  23  37  55  75  99 129 168 209 246
#     4  11  21  31  43  61  87 117 147 180 217 256
#
# _framework density 15.326039
#
# number of rings (size 3 to 8) (size 9 to 14) (size 15 to 20)
#    0.000    3.000    0.000    3.750    0.000    5.750 
#    0.000    1.875    0.000    0.750    0.000    0.000 
#    0.000    1.000    0.000    7.000    0.000    3.500 
#
# Total GULP energy -396573.880727 kJ/mol
# GULP energy per Si atom -12392.933773 kJ/mol
# Density = 1.529116 g / cm^3
# Si number density = 15.326039 Si / 1000 Ang^3
#
#
#
# Elastic Constant Matrix: (Units=GPa)
#
#
# Indices 1 2 3 4 5 6 
#
# 1 71.0147 30.8309 47.9729 0.0000 0.0000 0.0000
# 2 30.8309 79.2495 35.2331 0.0000 0.0000 0.0000
# 3 47.9729 35.2331 87.5010 0.0000 0.0000 0.0000
# 4 0.0000 0.0000 0.0000 12.3251 0.0000 0.0000
# 5 0.0000 0.0000 0.0000 0.0000 0.4444 0.0000
# 6 0.0000 0.0000 0.0000 0.0000 0.0000 21.0520
#
#
#
# Elastic Compliance Matrix: (Units=1/GPa)
#
#
# Indices 1 2 3 4 5 6 
#
# 1 0.023433 -0.004147 -0.011177 0.000000 0.000000 0.000000
# 2 -0.004147 0.016104 -0.004211 0.000000 0.000000 0.000000
# 3 -0.011177 -0.004211 0.019252 0.000000 0.000000 0.000000
# 4 0.000000 0.000000 0.000000 0.081135 0.000000 0.000000
# 5 0.000000 0.000000 0.000000 0.000000 2.250413 0.000000
# 6 0.000000 0.000000 0.000000 0.000000 0.000000 0.047501
#
#
# Mechanical properties :
#
#
# Convention : Reuss Voigt Hill
#
# Bulk Modulus (GPa) = 50.71400 51.75990 51.23695
# Shear Modulus (GPa) = 2.01330 15.01285 8.51308
#
# Velocity S-wave (km/s) = 1.14739 3.13320 2.35939
# Velocity P-wave (km/s) = 5.90908 6.85092 6.39736
#
# Compressibility (1/GPa) = 0.01971842
#
# Stress axis : x y z
#
# Youngs Moduli (GPa) = 42.67556 62.09757 51.94284
#
# Poissons Ratio (x) = 0.25751 0.58058
# Poissons Ratio (y) = 0.17697 0.21872
# Poissons Ratio (z) = 0.47700 0.26148
#
# Static dielectric constant tensor:
#      x y z
#    x 2.903430 0.000000 0.000000 
#    y 0.000000 3.036610 0.000000 
#    z 0.000000 0.000000 2.879940 
# 
# 
# High freq. dielectric constant tensor:
#      x y z
#    x 1.560190 0.000000 0.000000 
#    y 0.000000 1.585980 0.000000 
#    z 0.000000 0.000000 1.560330 
# 
# From -- ./inp_files/17778.got.cif
#   From: 2010.03.12/outbox.cif.g09.slc.cpg/sg35_9_cif.got.tgz:17778.got - 2010.04.14 02:02:04.
