data_PCOD8173743
_publ_section_title
;
Structure prediction by ZEFSAII (Michael W. Deem and Ramdas Pophale) SiO2 
 PCOD8173743
Probable space group: C M M 2
;
_chemical_formula_sum "Si O2"
_cell_formula_units_Z 64
_cell_length_a 8.992199
_cell_length_b 29.005392
_cell_length_c 12.556909
_cell_angle_alpha 90.000000
_cell_angle_beta 90.000000
_cell_angle_gamma 90.000000
_cell_volume 3275.121346
_symmetry_space_group_name_H-M "C M M 2"
_symmetry_group_IT_number 35
_symmetry_cell_setting 'orthorhombic'
loop_
_space_group_symop_operation_xyz
x,y,z
-x,-y,z
-x,y,z
x,-y,z
1/2+x,1/2+y,z
1/2-x,1/2-y,z
1/2-x,1/2+y,z
1/2+x,1/2-y,z
loop_
_atom_site_type_symbol
_atom_site_label
_atom_site_fract_x
_atom_site_fract_y
_atom_site_fract_z
Si Si1 0.677275 0.704560 0.656190
Si Si2 0.165893 0.181204 0.426304
Si Si3 0.678291 0.886990 0.114539
Si Si4 0.824412 0.945898 0.930626
Si Si5 0.320867 0.297282 0.193463
Si Si6 0.165778 0.449645 0.301803
Si Si7 0.165580 0.922097 0.493036
Si Si8 0.823736 0.894651 0.717663
O O1 0.500000 0.708496 0.657351
O O2 0.750000 0.750000 0.709449
O O3 0.740290 0.701249 0.534209
O O4 0.728923 0.659051 0.722321
O O5 0.242172 0.195932 0.314738
O O6 0.165811 0.126545 0.433432
O O7 0.000000 0.200874 0.421464
O O8 0.500000 0.882435 0.109777
O O9 0.756493 0.837179 0.116555
O O10 0.737008 0.913595 0.219598
O O11 0.732764 0.917127 0.015738
O O12 0.772417 0.924500 0.817882
O O13 0.000000 0.938905 0.948503
O O14 0.782364 0.000000 0.934083
O O15 0.500000 0.297231 0.186470
O O16 0.250000 0.250000 0.149844
O O17 0.169530 0.500000 0.246915
O O18 0.245271 0.455278 0.415298
O O19 0.000000 0.433025 0.326204
O O20 0.240439 0.918483 0.610162
O O21 0.000000 0.942030 0.503964
O O22 0.000000 0.893938 0.704935
#
# Coordination Sequence:
#
# PCOD8173743 Si02
#       8
#     8   8   8   8   8   8   8   8
#     4   9  16  29  49  76 111 149 182 217 264 321
#     4   8  15  28  48  75 111 148 182 222 264 314
#     4  11  23  40  59  80 111 150 191 237 289 339
#     4  10  21  39  63  86 106 139 191 244 292 344
#     4  11  21  35  56  84 117 151 190 233 280 335
#     4  10  21  35  51  76 112 148 180 223 284 345
#     4   9  16  31  54  80 110 146 184 224 273 332
#     4   8  17  34  56  81 112 143 178 230 287 334
#
# _framework density 19.541260999999999
#
# number of rings (size 3 to 8) (size 9 to 14) (size 15 to 20)
#    0.000    2.500    1.250    3.000    0.000    2.000 
#    0.000    6.250    0.000    1.500    0.000    0.000 
#    0.000    0.000    0.000    0.000    0.000    0.000 
#
# Total GULP energy -396522.882757 kJ/mol
# GULP energy per Si atom -12391.340086 kJ/mol
# Density = 1.949678 g / cm^3
# Si number density = 19.541261 Si / 1000 Ang^3
#
#
#
# Elastic Constant Matrix: (Units=GPa)
#
#
# Indices 1 2 3 4 5 6 
#
# 1 56.5636 41.3867 39.0923 0.0000 0.0000 0.0000
# 2 41.3867 135.2238 63.0811 0.0000 0.0000 0.0000
# 3 39.0923 63.0811 111.1561 0.0000 0.0000 0.0000
# 4 0.0000 0.0000 0.0000 25.1074 0.0000 0.0000
# 5 0.0000 0.0000 0.0000 0.0000 7.8391 0.0000
# 6 0.0000 0.0000 0.0000 0.0000 0.0000 24.4517
#
#
#
# Elastic Compliance Matrix: (Units=1/GPa)
#
#
# Indices 1 2 3 4 5 6 
#
# 1 0.025571 -0.004938 -0.006190 0.000000 0.000000 0.000000
# 2 -0.004938 0.011012 -0.004512 0.000000 0.000000 0.000000
# 3 -0.006190 -0.004512 0.013734 0.000000 0.000000 0.000000
# 4 0.000000 0.000000 0.000000 0.039829 0.000000 0.000000
# 5 0.000000 0.000000 0.000000 0.000000 0.127566 0.000000
# 6 0.000000 0.000000 0.000000 0.000000 0.000000 0.040897
#
#
# Mechanical properties :
#
#
# Convention : Reuss Voigt Hill
#
# Bulk Modulus (GPa) = 52.53655 65.56263 59.04959
# Shear Modulus (GPa) = 16.87846 22.10520 19.49183
#
# Velocity S-wave (km/s) = 2.94212 3.36699 3.16170
# Velocity P-wave (km/s) = 6.20361 6.98135 6.60394
#
# Compressibility (1/GPa) = 0.01903437
#
# Stress axis : x y z
#
# Youngs Moduli (GPa) = 39.10693 90.81368 72.81118
#
# Poissons Ratio (x) = 0.44848 0.45073
# Poissons Ratio (y) = 0.19313 0.32854
# Poissons Ratio (z) = 0.24209 0.40977
#
# Static dielectric constant tensor:
#      x y z
#    x 3.232430 0.000000 0.000000 
#    y 0.000000 3.627790 0.000000 
#    z 0.000000 0.000000 3.576560 
# 
# 
# High freq. dielectric constant tensor:
#      x y z
#    x 1.727380 0.000000 0.000000 
#    y 0.000000 1.771680 0.000000 
#    z 0.000000 0.000000 1.745560 
# 
# From -- ./inp_files/11989.got.cif
#   From: 2010.03.12/outbox.cif.g09.slc.cpg/sg35_6_cif.got.tgz:11989.got - 2010.04.14 02:02:04.
