data_PCOD8173861
_publ_section_title
;
Structure prediction by ZEFSAII (Michael W. Deem and Ramdas Pophale) SiO2 
 PCOD8173861
Probable space group: C M M 2
;
_chemical_formula_sum "Si O2"
_cell_formula_units_Z 64
_cell_length_a 15.292581
_cell_length_b 17.288329
_cell_length_c 12.038094
_cell_angle_alpha 90.000000
_cell_angle_beta 90.000000
_cell_angle_gamma 90.000000
_cell_volume 3182.669472
_symmetry_space_group_name_H-M "C M M 2"
_symmetry_group_IT_number 35
_symmetry_cell_setting 'orthorhombic'
loop_
_space_group_symop_operation_xyz
x,y,z
-x,-y,z
-x,y,z
x,-y,z
1/2+x,1/2+y,z
1/2-x,1/2-y,z
1/2-x,1/2+y,z
1/2+x,1/2-y,z
loop_
_atom_site_type_symbol
_atom_site_label
_atom_site_fract_x
_atom_site_fract_y
_atom_site_fract_z
Si Si1 0.402624 0.359811 0.029810
Si Si2 0.897550 0.150681 0.272836
Si Si3 0.102614 0.590638 0.492701
Si Si4 0.250986 0.159654 0.644203
Si Si5 0.163446 0.700588 0.043852
Si Si6 0.752887 0.588482 0.883493
Si Si7 0.100685 0.911923 0.503619
Si Si8 0.897025 0.323174 0.274951
O O1 0.500000 0.393631 0.013310
O O2 0.362252 0.378919 0.153121
O O3 0.409009 0.265950 0.015745
O O4 0.341474 0.400206 0.939787
O O5 0.873129 0.093750 0.373347
O O6 0.862835 0.236578 0.302741
O O7 0.000000 0.156868 0.254693
O O8 0.121901 0.500000 0.501943
O O9 0.159512 0.635763 0.583355
O O10 0.134892 0.619029 0.371433
O O11 0.000000 0.609294 0.512684
O O12 0.250000 0.250000 0.671234
O O13 0.244930 0.112058 0.756582
O O14 0.164433 0.141921 0.573331
O O15 0.250000 0.750000 0.062417
O O16 0.141746 0.652126 0.155443
O O17 0.173096 0.640193 0.943304
O O18 0.782472 0.500000 0.891518
O O19 0.000000 0.884473 0.520775
O O20 0.112829 0.000000 0.541706
O O21 0.000000 0.327685 0.266923
#
# Coordination Sequence:
#
# PCOD8173861 Si02
#       8
#     8   8   8   8   8   8   8   8
#     4   9  18  35  60  85 111 148 190 229 271 325
#     4   8  15  30  53  83 118 153 187 222 267 332
#     4  10  22  40  61  86 117 151 189 236 288 341
#     4  12  25  42  63  82 108 151 199 243 284 335
#     4   9  18  34  55  81 113 150 188 226 271 327
#     4  11  24  40  56  79 113 147 185 234 284 338
#     4  10  21  37  59  90 125 153 182 230 290 346
#     4   9  17  32  56  85 115 146 185 232 278 329
#
# _framework density 20.108906000000001
#
# number of rings (size 3 to 8) (size 9 to 14) (size 15 to 20)
#    0.000    2.250    0.000    4.125    0.000    6.750 
#    0.000    3.750    0.000    2.625    0.000    0.000 
#    0.000    0.000    0.000    0.000    0.000    0.000 
#
# Total GULP energy -396682.136228 kJ/mol
# GULP energy per Si atom -12396.316757 kJ/mol
# Density = 2.006314 g / cm^3
# Si number density = 20.108906 Si / 1000 Ang^3
#
#
#
# Elastic Constant Matrix: (Units=GPa)
#
#
# Indices 1 2 3 4 5 6 
#
# 1 51.6094 13.6759 28.1022 0.0000 0.0000 0.0000
# 2 13.6759 77.9656 27.9998 0.0000 0.0000 0.0000
# 3 28.1022 27.9998 119.6725 0.0000 0.0000 0.0000
# 4 0.0000 0.0000 0.0000 26.6416 0.0000 0.0000
# 5 0.0000 0.0000 0.0000 0.0000 18.4332 0.0000
# 6 0.0000 0.0000 0.0000 0.0000 0.0000 23.6548
#
#
#
# Elastic Compliance Matrix: (Units=1/GPa)
#
#
# Indices 1 2 3 4 5 6 
#
# 1 0.022571 -0.002244 -0.004775 0.000000 0.000000 0.000000
# 2 -0.002244 0.014226 -0.002801 0.000000 0.000000 0.000000
# 3 -0.004775 -0.002801 0.010133 0.000000 0.000000 0.000000
# 4 0.000000 0.000000 0.000000 0.037535 0.000000 0.000000
# 5 0.000000 0.000000 0.000000 0.000000 0.054250 0.000000
# 6 0.000000 0.000000 0.000000 0.000000 0.000000 0.042275
#
#
# Mechanical properties :
#
#
# Convention : Reuss Voigt Hill
#
# Bulk Modulus (GPa) = 36.64586 43.20037 39.92311
# Shear Modulus (GPa) = 23.84042 25.71057 24.77550
#
# Velocity S-wave (km/s) = 3.44694 3.57958 3.51389
# Velocity P-wave (km/s) = 5.83996 6.21405 6.02991
#
# Compressibility (1/GPa) = 0.02728821
#
# Stress axis : x y z
#
# Youngs Moduli (GPa) = 44.30424 70.29427 98.68815
#
# Poissons Ratio (x) = 0.15776 0.47126
# Poissons Ratio (y) = 0.09943 0.27647
# Poissons Ratio (z) = 0.21156 0.19692
#
# Static dielectric constant tensor:
#      x y z
#    x 3.712790 0.000000 0.000000 
#    y 0.000000 3.666250 0.000000 
#    z 0.000000 0.000000 3.700650 
# 
# 
# High freq. dielectric constant tensor:
#      x y z
#    x 1.778510 0.000000 0.000000 
#    y 0.000000 1.774810 0.000000 
#    z 0.000000 0.000000 1.785150 
# 
# From -- ./inp_files/13152.got.cif
#   From: 2010.03.12/outbox.cif.g09.slc.cpg/sg35_7_cif.got.tgz:13152.got - 2010.04.14 02:02:04.
