data_PCOD8173774
_publ_section_title
;
Structure prediction by ZEFSAII (Michael W. Deem and Ramdas Pophale) SiO2 
 PCOD8173774
Probable space group: C M M 2
;
_chemical_formula_sum "Si O2"
_cell_formula_units_Z 64
_cell_length_a 28.008501
_cell_length_b 8.970765
_cell_length_c 13.059118
_cell_angle_alpha 90.000000
_cell_angle_beta 90.000000
_cell_angle_gamma 90.000000
_cell_volume 3281.203698
_symmetry_space_group_name_H-M "C M M 2"
_symmetry_group_IT_number 35
_symmetry_cell_setting 'orthorhombic'
loop_
_space_group_symop_operation_xyz
x,y,z
-x,-y,z
-x,y,z
x,-y,z
1/2+x,1/2+y,z
1/2-x,1/2-y,z
1/2-x,1/2+y,z
1/2+x,1/2-y,z
loop_
_atom_site_type_symbol
_atom_site_label
_atom_site_fract_x
_atom_site_fract_y
_atom_site_fract_z
Si Si1 0.800402 0.326990 0.327150
Si Si2 0.945668 0.177158 0.618502
Si Si3 0.103680 0.176829 0.822640
Si Si4 0.895602 0.670975 0.431739
Si Si5 0.700628 0.673134 0.903835
Si Si6 0.301217 0.324537 0.131103
Si Si7 0.057060 0.168709 0.247177
Si Si8 0.552882 0.676862 0.022187
O O1 0.790568 0.500000 0.304505
O O2 0.750000 0.250000 0.357066
O O3 0.838435 0.306837 0.419255
O O4 0.827512 0.252115 0.227965
O O5 0.922670 0.242455 0.723091
O O6 0.913556 0.230386 0.525242
O O7 0.000000 0.236000 0.608503
O O8 0.945054 0.000000 0.619618
O O9 0.160048 0.219169 0.821957
O O10 0.081768 0.245798 0.926750
O O11 0.097720 0.000000 0.824530
O O12 0.908054 0.500000 0.454532
O O13 0.923023 0.716606 0.329077
O O14 0.712169 0.500000 0.900690
O O15 0.750000 0.750000 0.875136
O O16 0.679618 0.713446 0.017326
O O17 0.299426 0.500000 0.149683
O O18 0.250000 0.250000 0.140452
O O19 0.000000 0.175897 0.245924
O O20 0.073602 0.000000 0.274023
O O21 0.076409 0.213856 0.133160
O O22 0.500000 0.745412 0.016181
O O23 0.550614 0.500000 0.011692
#
# Coordination Sequence:
#
# PCOD8173774 Si02
#       8
#     8   8   8   8   8   8   8   8
#     4  10  21  36  53  76 106 141 183 225 270 321
#     4  10  21  38  61  85 106 135 182 235 277 320
#     4   9  17  31  53  80 108 137 176 222 272 320
#     4  11  24  38  54  78 109 145 182 222 274 332
#     4   9  18  31  49  76 109 145 180 215 261 317
#     4   9  16  27  47  74 105 143 179 214 259 310
#     4   9  18  32  53  82 111 140 178 221 266 323
#     4   8  14  26  48  79 110 135 164 212 269 320
#
# _framework density 19.505036
#
# number of rings (size 3 to 8) (size 9 to 14) (size 15 to 20)
#    0.000    2.625    0.000    3.375    1.750    6.000 
#    0.000    1.250    0.000    3.750    0.000    1.750 
#    0.000    0.000    0.000    0.000    0.000    0.000 
#
# Total GULP energy -396532.620695 kJ/mol
# GULP energy per Si atom -12391.644397 kJ/mol
# Density = 1.946064 g / cm^3
# Si number density = 19.505036 Si / 1000 Ang^3
#
#
#
# Elastic Constant Matrix: (Units=GPa)
#
#
# Indices 1 2 3 4 5 6 
#
# 1 86.3760 27.9963 60.2145 0.0000 0.0000 0.0000
# 2 27.9963 45.0573 22.1410 0.0000 0.0000 0.0000
# 3 60.2145 22.1410 120.2074 0.0000 0.0000 0.0000
# 4 0.0000 0.0000 0.0000 12.0031 0.0000 0.0000
# 5 0.0000 0.0000 0.0000 0.0000 34.8049 0.0000
# 6 0.0000 0.0000 0.0000 0.0000 0.0000 22.3151
#
#
#
# Elastic Compliance Matrix: (Units=1/GPa)
#
#
# Indices 1 2 3 4 5 6 
#
# 1 0.020309 -0.008378 -0.008630 0.000000 0.000000 0.000000
# 2 -0.008378 0.027859 -0.000935 0.000000 0.000000 0.000000
# 3 -0.008630 -0.000935 0.012814 0.000000 0.000000 0.000000
# 4 0.000000 0.000000 0.000000 0.083311 0.000000 0.000000
# 5 0.000000 0.000000 0.000000 0.000000 0.028732 0.000000
# 6 0.000000 0.000000 0.000000 0.000000 0.000000 0.044813
#
#
# Mechanical properties :
#
#
# Convention : Reuss Voigt Hill
#
# Bulk Modulus (GPa) = 39.84620 52.48271 46.16445
# Shear Modulus (GPa) = 19.07749 23.24388 21.16069
#
# Velocity S-wave (km/s) = 3.13082 3.45583 3.29733
# Velocity P-wave (km/s) = 5.79158 6.54899 6.18190
#
# Compressibility (1/GPa) = 0.02509650
#
# Stress axis : x y z
#
# Youngs Moduli (GPa) = 49.23911 35.89509 78.03914
#
# Poissons Ratio (x) = 0.30074 0.67348
# Poissons Ratio (y) = 0.41254 0.07293
# Poissons Ratio (z) = 0.42494 0.03354
#
# Static dielectric constant tensor:
#      x y z
#    x 3.616160 0.000000 0.000000 
#    y 0.000000 3.264030 0.000000 
#    z 0.000000 0.000000 3.922760 
# 
# 
# High freq. dielectric constant tensor:
#      x y z
#    x 1.766660 0.000000 0.000000 
#    y 0.000000 1.724690 0.000000 
#    z 0.000000 0.000000 1.752150 
# 
# From -- ./inp_files/14522.got.cif
#   From: 2010.03.12/outbox.cif.g09.slc.cpg/sg35_8_cif.got.tgz:14522.got - 2010.04.14 02:02:04.
