data_PCOD8173307
_publ_section_title
;
Structure prediction by ZEFSAII (Michael W. Deem and Ramdas Pophale) SiO2 
 PCOD8173307
Probable space group: C M M 2
;
_chemical_formula_sum "Si O2"
_cell_formula_units_Z 64
_cell_length_a 8.642650
_cell_length_b 31.980175
_cell_length_c 11.503699
_cell_angle_alpha 90.000000
_cell_angle_beta 90.000000
_cell_angle_gamma 90.000000
_cell_volume 3179.547163
_symmetry_space_group_name_H-M "C M M 2"
_symmetry_group_IT_number 35
_symmetry_cell_setting 'orthorhombic'
loop_
_space_group_symop_operation_xyz
x,y,z
-x,-y,z
-x,y,z
x,-y,z
1/2+x,1/2+y,z
1/2-x,1/2-y,z
1/2-x,1/2+y,z
1/2+x,1/2-y,z
loop_
_atom_site_type_symbol
_atom_site_label
_atom_site_fract_x
_atom_site_fract_y
_atom_site_fract_z
Si Si1 0.825794 0.677411 0.217160
Si Si2 0.317312 0.451997 0.940540
Si Si3 0.319947 0.871881 0.828633
Si Si4 0.176191 0.708476 0.462856
Si Si5 0.822740 0.133284 0.584548
Si Si6 0.182194 0.204196 0.979303
Si Si7 0.678523 0.600684 0.348044
Si Si8 0.830070 0.548426 0.177946
O O1 0.818903 0.710335 0.322763
O O2 0.775948 0.633127 0.270299
O O3 0.000000 0.673775 0.167884
O O4 0.717917 0.693025 0.112822
O O5 0.500000 0.450186 0.932004
O O6 0.261010 0.500000 0.913585
O O7 0.247471 0.417995 0.853269
O O8 0.264767 0.435653 0.066501
O O9 0.500000 0.871245 0.857828
O O10 0.293886 0.867172 0.691258
O O11 0.243309 0.833032 0.896392
O O12 0.250000 0.750000 0.514965
O O13 0.294456 0.674485 0.509832
O O14 0.000000 0.701619 0.507030
O O15 0.785454 0.097961 0.486602
O O16 0.000000 0.130970 0.628665
O O17 0.250000 0.250000 0.945677
O O18 0.000000 0.206931 0.962081
O O19 0.500000 0.610996 0.328521
O O20 0.730591 0.556636 0.294305
O O21 0.853048 0.500000 0.166414
O O22 0.000000 0.569898 0.181332
#
# Coordination Sequence:
#
# PCOD8173307 Si02
#       8
#     8   8   8   8   8   8   8   8
#     4  10  20  35  56  83 115 149 187 232 285 343
#     4  10  21  39  64  92 121 154 194 239 289 346
#     4  12  25  42  63  86 116 154 197 244 295 347
#     4  10  20  34  55  82 111 145 185 232 284 337
#     4  10  22  40  59  80 108 145 191 237 281 334
#     4  12  25  41  60  85 119 156 198 243 292 349
#     4  10  20  35  57  83 112 147 186 231 283 338
#     4  10  20  34  55  85 119 150 182 225 278 337
#
# _framework density 20.128654000000001
#
# number of rings (size 3 to 8) (size 9 to 14) (size 15 to 20)
#    0.000    1.500    0.000    5.625    0.000    6.000 
#    0.000    3.125    0.000    0.750    0.000    0.000 
#    0.000    0.000    0.000    0.000    0.000    0.000 
#
# Total GULP energy -396626.267740 kJ/mol
# GULP energy per Si atom -12394.570867 kJ/mol
# Density = 2.008284 g / cm^3
# Si number density = 20.128654 Si / 1000 Ang^3
#
#
#
# Elastic Constant Matrix: (Units=GPa)
#
#
# Indices 1 2 3 4 5 6 
#
# 1 109.6203 35.6608 35.1341 0.0000 0.0000 0.0000
# 2 35.6608 64.9042 38.7333 0.0000 0.0000 0.0000
# 3 35.1341 38.7333 98.6068 0.0000 0.0000 0.0000
# 4 0.0000 0.0000 0.0000 12.4680 0.0000 0.0000
# 5 0.0000 0.0000 0.0000 0.0000 34.1878 0.0000
# 6 0.0000 0.0000 0.0000 0.0000 0.0000 32.2479
#
#
#
# Elastic Compliance Matrix: (Units=1/GPa)
#
#
# Indices 1 2 3 4 5 6 
#
# 1 0.011431 -0.005029 -0.002097 0.000000 0.000000 0.000000
# 2 -0.005029 0.022337 -0.006982 0.000000 0.000000 0.000000
# 3 -0.002097 -0.006982 0.013631 0.000000 0.000000 0.000000
# 4 0.000000 0.000000 0.000000 0.080205 0.000000 0.000000
# 5 0.000000 0.000000 0.000000 0.000000 0.029250 0.000000
# 6 0.000000 0.000000 0.000000 0.000000 0.000000 0.031010
#
#
# Mechanical properties :
#
#
# Convention : Reuss Voigt Hill
#
# Bulk Modulus (GPa) = 52.13225 54.68752 53.40989
# Shear Modulus (GPa) = 22.47437 26.68760 24.58099
#
# Velocity S-wave (km/s) = 3.34509 3.64517 3.49835
# Velocity P-wave (km/s) = 6.39337 6.70406 6.55056
#
# Compressibility (1/GPa) = 0.01918198
#
# Stress axis : x y z
#
# Youngs Moduli (GPa) = 87.48499 44.76830 73.36010
#
# Poissons Ratio (x) = 0.22512 0.15387
# Poissons Ratio (y) = 0.43993 0.51223
# Poissons Ratio (z) = 0.18350 0.31259
#
# Static dielectric constant tensor:
#      x y z
#    x 3.890340 0.000000 0.000000 
#    y 0.000000 3.734150 0.000000 
#    z 0.000000 0.000000 3.646560 
# 
# 
# High freq. dielectric constant tensor:
#      x y z
#    x 1.801790 0.000000 0.000000 
#    y 0.000000 1.781550 0.000000 
#    z 0.000000 0.000000 1.777420 
# 
# From -- ./inp_files/12013.got.cif
#   From: 2010.03.12/outbox.cif.g09.slc.cpg/sg35_7_cif.got.tgz:12013.got - 2010.04.14 02:02:04.
