data_PCOD8173857
_publ_section_title
;
Structure prediction by ZEFSAII (Michael W. Deem and Ramdas Pophale) SiO2 
 PCOD8173857
Probable space group: C M M 2
;
_chemical_formula_sum "Si O2"
_cell_formula_units_Z 48
_cell_length_a 8.676479
_cell_length_b 37.510799
_cell_length_c 7.518535
_cell_angle_alpha 90.000000
_cell_angle_beta 90.000000
_cell_angle_gamma 90.000000
_cell_volume 2446.994880
_symmetry_space_group_name_H-M "C M M 2"
_symmetry_group_IT_number 35
_symmetry_cell_setting 'orthorhombic'
loop_
_space_group_symop_operation_xyz
x,y,z
-x,-y,z
-x,y,z
x,-y,z
1/2+x,1/2+y,z
1/2-x,1/2-y,z
1/2-x,1/2+y,z
1/2+x,1/2-y,z
loop_
_atom_site_type_symbol
_atom_site_label
_atom_site_fract_x
_atom_site_fract_y
_atom_site_fract_z
Si Si1 0.822114 0.041326 0.490390
Si Si2 0.177735 0.459338 0.121703
Si Si3 0.180432 0.164356 0.785139
Si Si4 0.681321 0.787512 0.081215
Si Si5 0.179313 0.588002 0.787053
Si Si6 0.181373 0.712480 0.488899
O O1 0.783470 0.051407 0.287722
O O2 0.712921 0.064456 0.614836
O O3 0.000000 0.050119 0.528500
O O4 0.784284 0.000000 0.525238
O O5 0.208674 0.500000 0.062886
O O6 0.000000 0.453825 0.175070
O O7 0.226748 0.434316 0.959985
O O8 0.216200 0.122785 0.783635
O O9 0.250960 0.181085 0.607297
O O10 0.000000 0.171084 0.785531
O O11 0.251770 0.180988 0.962788
O O12 0.500000 0.785855 0.055466
O O13 0.750000 0.750000 0.016300
O O14 0.727904 0.795264 0.285022
O O15 0.000000 0.598603 0.788751
O O16 0.250000 0.750000 0.553599
O O17 0.000000 0.714036 0.514887
#
# Coordination Sequence:
#
# PCOD8173857 Si02
#       6
#     8   8   8   8   8   8
#     4  10  21  37  59  87 117 149 186 231 283 338
#     4   9  19  37  61  86 111 145 190 236 281 332
#     4  12  25  39  57  83 118 155 190 233 285 341
#     4  10  21  39  63  88 114 147 189 235 282 334
#     4  11  23  39  59  83 114 152 193 236 283 336
#     4  10  21  39  63  88 115 149 191 237 282 333
#
# _framework density 19.615895999999999
#
# number of rings (size 3 to 8) (size 9 to 14) (size 15 to 20)
#    0.000    1.667    0.000    4.500    0.000    6.333 
#    0.000    3.333    0.000    0.000    0.000    0.000 
#    0.000    0.000    0.000    0.000    0.000    0.000 
#
# Total GULP energy -297754.628402 kJ/mol
# GULP energy per Si atom -12406.442850 kJ/mol
# Density = 1.957125 g / cm^3
# Si number density = 19.615896 Si / 1000 Ang^3
#
#
#
# Elastic Constant Matrix: (Units=GPa)
#
#
# Indices 1 2 3 4 5 6 
#
# 1 73.0008 28.6649 35.4330 0.0000 0.0000 0.0000
# 2 28.6649 103.5285 62.8479 0.0000 0.0000 0.0000
# 3 35.4330 62.8479 108.9774 0.0000 0.0000 0.0000
# 4 0.0000 0.0000 0.0000 76.6945 0.0000 0.0000
# 5 0.0000 0.0000 0.0000 0.0000 29.8475 0.0000
# 6 0.0000 0.0000 0.0000 0.0000 0.0000 30.0408
#
#
#
# Elastic Compliance Matrix: (Units=1/GPa)
#
#
# Indices 1 2 3 4 5 6 
#
# 1 0.016536 -0.002023 -0.004210 0.000000 0.000000 0.000000
# 2 -0.002023 0.015110 -0.008056 0.000000 0.000000 0.000000
# 3 -0.004210 -0.008056 0.015191 0.000000 0.000000 0.000000
# 4 0.000000 0.000000 0.000000 0.013039 0.000000 0.000000
# 5 0.000000 0.000000 0.000000 0.000000 0.033504 0.000000
# 6 0.000000 0.000000 0.000000 0.000000 0.000000 0.033288
#
#
# Mechanical properties :
#
#
# Convention : Reuss Voigt Hill
#
# Bulk Modulus (GPa) = 54.76733 59.93315 57.35024
# Shear Modulus (GPa) = 30.99194 37.88728 34.43961
#
# Velocity S-wave (km/s) = 3.97916 4.39960 4.19465
# Velocity P-wave (km/s) = 7.00657 7.51188 7.26362
#
# Compressibility (1/GPa) = 0.01825906
#
# Stress axis : x y z
#
# Youngs Moduli (GPa) = 60.47334 66.18198 65.82782
#
# Poissons Ratio (x) = 0.13387 0.27714
# Poissons Ratio (y) = 0.12233 0.53032
# Poissons Ratio (z) = 0.25459 0.53318
#
# Static dielectric constant tensor:
#      x y z
#    x 3.626690 0.000000 0.000000 
#    y 0.000000 3.486450 0.000000 
#    z 0.000000 0.000000 3.665380 
# 
# 
# High freq. dielectric constant tensor:
#      x y z
#    x 1.774690 0.000000 0.000000 
#    y 0.000000 1.761530 0.000000 
#    z 0.000000 0.000000 1.775400 
# 
# From -- ./inp_files/5337.got.cif
#   From: 2010.03.12/outbox.cif.g09.slc.cpg/sg35_3_cif.got.tgz:5337.got - 2010.04.14 02:02:04.
