data_PCOD8173092
_publ_section_title
;
Structure prediction by ZEFSAII (Michael W. Deem and Ramdas Pophale) SiO2 
 PCOD8173092
Probable space group: C M M 2
;
_chemical_formula_sum "Si O2"
_cell_formula_units_Z 56
_cell_length_a 8.822927
_cell_length_b 18.958802
_cell_length_c 18.039431
_cell_angle_alpha 90.000000
_cell_angle_beta 90.000000
_cell_angle_gamma 90.000000
_cell_volume 3017.493976
_symmetry_space_group_name_H-M "C M M 2"
_symmetry_group_IT_number 35
_symmetry_cell_setting 'orthorhombic'
loop_
_space_group_symop_operation_xyz
x,y,z
-x,-y,z
-x,y,z
x,-y,z
1/2+x,1/2+y,z
1/2-x,1/2-y,z
1/2-x,1/2+y,z
1/2+x,1/2-y,z
loop_
_atom_site_type_symbol
_atom_site_label
_atom_site_fract_x
_atom_site_fract_y
_atom_site_fract_z
Si Si1 0.179328 0.675797 0.608950
Si Si2 0.831108 0.916058 0.183283
Si Si3 0.320560 0.675751 0.452933
Si Si4 0.327029 0.916639 0.331495
Si Si5 0.329823 0.916214 0.876470
Si Si6 0.329001 0.083857 0.038793
Si Si7 0.327611 0.583519 0.729904
O O1 0.250000 0.750000 0.634529
O O2 0.250228 0.651620 0.531027
O O3 0.217890 0.617008 0.669255
O O4 0.000000 0.683421 0.600380
O O5 0.724855 0.890261 0.250377
O O6 0.771939 0.884210 0.105199
O O7 0.000000 0.887257 0.196971
O O8 0.829918 0.000000 0.179426
O O9 0.500000 0.683143 0.461157
O O10 0.250000 0.750000 0.427574
O O11 0.280928 0.617196 0.392679
O O12 0.500000 0.892882 0.343869
O O13 0.308314 0.000000 0.338601
O O14 0.500000 0.887612 0.862618
O O15 0.220475 0.888448 0.811425
O O16 0.332867 0.000000 0.875947
O O17 0.270089 0.890580 0.957552
O O18 0.500000 0.110377 0.050553
O O19 0.323798 0.000000 0.042336
O O20 0.500000 0.606902 0.715484
O O21 0.308121 0.500000 0.724372
#
# Coordination Sequence:
#
# PCOD8173092 Si02
#       7
#     8   8   8   8   8   8   8
#     4  11  22  38  58  77 100 130 167 207 249 299
#     4   9  16  25  39  63  95 129 165 205 249 294
#     4  11  22  38  58  78 102 130 165 206 249 299
#     4  10  20  34  52  75 104 136 170 208 252 299
#     4   8  14  25  41  63  93 129 167 205 247 294
#     4   8  13  22  37  58  88 127 166 202 243 292
#     4  10  20  33  50  75 106 136 168 208 253 298
#
# _framework density 18.558446
#
# number of rings (size 3 to 8) (size 9 to 14) (size 15 to 20)
#    0.000    2.429    0.000    5.571    0.000    4.571 
#    0.000    2.857    0.000    0.000    0.000    1.000 
#    0.000    6.857    0.000    0.000    0.000    0.000 
#
# Total GULP energy -347124.214884 kJ/mol
# GULP energy per Si atom -12397.293389 kJ/mol
# Density = 1.851621 g / cm^3
# Si number density = 18.558446 Si / 1000 Ang^3
#
#
#
# Elastic Constant Matrix: (Units=GPa)
#
#
# Indices 1 2 3 4 5 6 
#
# 1 138.1585 27.3964 62.8657 0.0000 0.0000 0.0000
# 2 27.3964 24.3193 36.3693 0.0000 0.0000 0.0000
# 3 62.8657 36.3693 139.2977 0.0000 0.0000 0.0000
# 4 0.0000 0.0000 0.0000 -1.2007 0.0000 0.0000
# 5 0.0000 0.0000 0.0000 0.0000 36.7141 0.0000
# 6 0.0000 0.0000 0.0000 0.0000 0.0000 20.4663
#
#
#
# Elastic Compliance Matrix: (Units=1/GPa)
#
#
# Indices 1 2 3 4 5 6 
#
# 1 0.009838 -0.007289 -0.002537 0.000000 0.000000 0.000000
# 2 -0.007289 0.072860 -0.015734 0.000000 0.000000 0.000000
# 3 -0.002537 -0.015734 0.012432 0.000000 0.000000 0.000000
# 4 0.000000 0.000000 0.000000 -0.832880 0.000000 0.000000
# 5 0.000000 0.000000 0.000000 0.000000 0.027238 0.000000
# 6 0.000000 0.000000 0.000000 0.000000 0.000000 0.048861
#
#
# Mechanical properties :
#
#
# Convention : Reuss Voigt Hill
#
# Bulk Modulus (GPa) = 22.72157 61.67092 42.19624
# Shear Modulus (GPa) = -8.39118 22.87221 7.24052
#
# Velocity S-wave (km/s) = -2.12869 3.51442 1.97736
# Velocity P-wave (km/s) = 2.49561 7.05486 5.29146
#
# Compressibility (1/GPa) = 0.04401105
#
# Stress axis : x y z
#
# Youngs Moduli (GPa) = 101.64993 13.72497 80.43990
#
# Poissons Ratio (x) = 0.10004 0.20406
# Poissons Ratio (y) = 0.74089 1.26561
# Poissons Ratio (z) = 0.25786 0.21594
#
# Static dielectric constant tensor:
#      x y z
#    x 3.572330 0.000000 0.000000 
#    y 0.000000 2.855910 0.000000 
#    z 0.000000 0.000000 3.752820 
# 
# 
# High freq. dielectric constant tensor:
#      x y z
#    x 1.730850 0.000000 0.000000 
#    y 0.000000 1.657860 0.000000 
#    z 0.000000 0.000000 1.738820 
# 
# From -- ./inp_files/18192.got.cif
#   From: 2010.03.12/outbox.cif.g09.slc.cpg/sg35_10_cif.got.tgz:18192.got - 2010.04.14 02:02:04.
