data_PCOD8173140
_publ_section_title
;
Structure prediction by ZEFSAII (Michael W. Deem and Ramdas Pophale) SiO2 
 PCOD8173140
Probable space group: C M M 2
;
_chemical_formula_sum "Si O2"
_cell_formula_units_Z 64
_cell_length_a 9.156927
_cell_length_b 19.244027
_cell_length_c 19.829093
_cell_angle_alpha 90.000000
_cell_angle_beta 90.000000
_cell_angle_gamma 90.000000
_cell_volume 3494.206435
_symmetry_space_group_name_H-M "C M M 2"
_symmetry_group_IT_number 35
_symmetry_cell_setting 'orthorhombic'
loop_
_space_group_symop_operation_xyz
x,y,z
-x,-y,z
-x,y,z
x,-y,z
1/2+x,1/2+y,z
1/2-x,1/2-y,z
1/2-x,1/2+y,z
1/2+x,1/2-y,z
loop_
_atom_site_type_symbol
_atom_site_label
_atom_site_fract_x
_atom_site_fract_y
_atom_site_fract_z
Si Si1 0.830789 0.181439 0.612250
Si Si2 0.828284 0.819972 0.765586
Si Si3 0.669535 0.180105 0.397587
Si Si4 0.330411 0.819706 0.240016
Si Si5 0.662002 0.082531 0.013927
Si Si6 0.331639 0.918711 0.863909
Si Si7 0.170409 0.080136 0.494522
Si Si8 0.332953 0.417736 0.142654
O O1 0.750000 0.250000 0.585469
O O2 0.784061 0.162906 0.688470
O O3 0.789330 0.116450 0.565320
O O4 0.000000 0.199148 0.608405
O O5 0.750000 0.750000 0.790169
O O6 0.774489 0.882950 0.810991
O O7 0.000000 0.810457 0.774296
O O8 0.500000 0.187730 0.415817
O O9 0.750000 0.250000 0.422106
O O10 0.694948 0.167517 0.318799
O O11 0.736951 0.113807 0.434643
O O12 0.500000 0.813006 0.221923
O O13 0.250000 0.750000 0.215657
O O14 0.261856 0.885178 0.202191
O O15 0.500000 0.110742 0.031667
O O16 0.774952 0.109566 0.070184
O O17 0.657797 0.000000 0.012893
O O18 0.708783 0.108068 0.939353
O O19 0.500000 0.901044 0.847835
O O20 0.302432 0.000000 0.857578
O O21 0.000000 0.088783 0.477368
O O22 0.215394 0.000000 0.500896
O O23 0.500000 0.394259 0.149866
O O24 0.315200 0.500000 0.148677
#
# Coordination Sequence:
#
# PCOD8173140 Si02
#       8
#     8   8   8   8   8   8   8   8
#     4   9  19  35  54  75 100 135 176 213 254 307
#     4  10  20  34  53  76 104 137 173 215 259 306
#     4  10  21  37  57  79 103 135 175 214 254 306
#     4  10  21  37  56  77 104 137 172 213 259 307
#     4   8  15  30  51  73 100 136 174 211 255 307
#     4   9  18  33  53  77 105 136 171 213 260 309
#     4  10  21  36  54  78 109 140 169 209 259 305
#     4  10  20  33  52  79 108 137 172 214 256 303
#
# _framework density 18.316033000000001
#
# number of rings (size 3 to 8) (size 9 to 14) (size 15 to 20)
#    0.000    2.500    0.000    2.625    0.000    6.250 
#    0.000    5.625    0.000    3.000    0.000    0.000 
#    0.000    0.000    0.000    0.000    0.000    0.000 
#
# Total GULP energy -396852.023414 kJ/mol
# GULP energy per Si atom -12401.625732 kJ/mol
# Density = 1.827434 g / cm^3
# Si number density = 18.316033 Si / 1000 Ang^3
#
#
#
# Elastic Constant Matrix: (Units=GPa)
#
#
# Indices 1 2 3 4 5 6 
#
# 1 107.2344 57.8361 61.8193 0.0000 0.0000 0.0000
# 2 57.8361 94.6384 57.5085 0.0000 0.0000 0.0000
# 3 61.8193 57.5085 92.8329 0.0000 0.0000 0.0000
# 4 0.0000 0.0000 0.0000 23.3767 0.0000 0.0000
# 5 0.0000 0.0000 0.0000 0.0000 31.5089 0.0000
# 6 0.0000 0.0000 0.0000 0.0000 0.0000 33.0817
#
#
#
# Elastic Compliance Matrix: (Units=1/GPa)
#
#
# Indices 1 2 3 4 5 6 
#
# 1 0.016779 -0.005556 -0.007732 0.000000 0.000000 0.000000
# 2 -0.005556 0.018785 -0.007937 0.000000 0.000000 0.000000
# 3 -0.007732 -0.007937 0.020838 0.000000 0.000000 0.000000
# 4 0.000000 0.000000 0.000000 0.042778 0.000000 0.000000
# 5 0.000000 0.000000 0.000000 0.000000 0.031737 0.000000
# 6 0.000000 0.000000 0.000000 0.000000 0.000000 0.030228
#
#
# Mechanical properties :
#
#
# Convention : Reuss Voigt Hill
#
# Bulk Modulus (GPa) = 71.67355 72.11484 71.89420
# Shear Modulus (GPa) = 24.01008 25.42957 24.71983
#
# Velocity S-wave (km/s) = 3.62453 3.73014 3.67771
# Velocity P-wave (km/s) = 7.53212 7.61642 7.57439
#
# Compressibility (1/GPa) = 0.01395215
#
# Stress axis : x y z
#
# Youngs Moduli (GPa) = 59.59759 53.23372 47.98955
#
# Poissons Ratio (x) = 0.29576 0.37105
# Poissons Ratio (y) = 0.33112 0.38091
# Poissons Ratio (z) = 0.46080 0.42253
#
# Static dielectric constant tensor:
#      x y z
#    x 3.477450 0.000000 0.000000 
#    y 0.000000 3.202870 0.000000 
#    z 0.000000 0.000000 3.515440 
# 
# 
# High freq. dielectric constant tensor:
#      x y z
#    x 1.715410 0.000000 0.000000 
#    y 0.000000 1.692440 0.000000 
#    z 0.000000 0.000000 1.717360 
# 
# From -- ./inp_files/18359.got.cif
#   From: 2010.03.12/outbox.cif.g09.slc.cpg/sg35_10_cif.got.tgz:18359.got - 2010.04.14 02:02:04.
