data_PCOD8173375
_publ_section_title
;
Structure prediction by ZEFSAII (Michael W. Deem and Ramdas Pophale) SiO2 
 PCOD8173375
Probable space group: C M M 2
;
_chemical_formula_sum "Si O2"
_cell_formula_units_Z 64
_cell_length_a 27.849875
_cell_length_b 8.960438
_cell_length_c 13.037203
_cell_angle_alpha 90.000000
_cell_angle_beta 90.000000
_cell_angle_gamma 90.000000
_cell_volume 3253.395917
_symmetry_space_group_name_H-M "C M M 2"
_symmetry_group_IT_number 35
_symmetry_cell_setting 'orthorhombic'
loop_
_space_group_symop_operation_xyz
x,y,z
-x,-y,z
-x,y,z
x,-y,z
1/2+x,1/2+y,z
1/2-x,1/2-y,z
1/2-x,1/2+y,z
1/2+x,1/2-y,z
loop_
_atom_site_type_symbol
_atom_site_label
_atom_site_fract_x
_atom_site_fract_y
_atom_site_fract_z
Si Si1 0.891903 0.823118 0.581850
Si Si2 0.891003 0.823367 0.179247
Si Si3 0.053765 0.822688 0.379241
Si Si4 0.801655 0.676436 0.102046
Si Si5 0.799020 0.669898 0.878936
Si Si6 0.942883 0.329887 0.768735
Si Si7 0.556353 0.671674 0.973399
Si Si8 0.198213 0.326016 0.656385
O O1 0.918024 0.766639 0.479186
O O2 0.922979 0.770356 0.677777
O O3 0.838854 0.751345 0.579202
O O4 0.886885 0.000000 0.585687
O O5 0.919804 0.763421 0.277607
O O6 0.838898 0.745987 0.182213
O O7 0.884194 0.000000 0.183366
O O8 0.919358 0.772272 0.077910
O O9 0.000000 0.756134 0.381832
O O10 0.051502 0.000000 0.377293
O O11 0.797741 0.500000 0.118982
O O12 0.750000 0.750000 0.120162
O O13 0.822093 0.721795 0.987213
O O14 0.784910 0.500000 0.894123
O O15 0.750000 0.750000 0.858444
O O16 0.826829 0.694750 0.770870
O O17 0.925012 0.500000 0.756503
O O18 0.923866 0.269316 0.878395
O O19 0.000000 0.318006 0.765536
O O20 0.500000 0.694411 0.988300
O O21 0.569018 0.500000 0.950351
O O22 0.204120 0.500000 0.630182
O O23 0.250000 0.250000 0.645211
#
# Coordination Sequence:
#
# PCOD8173375 Si02
#       8
#     8   8   8   8   8   8   8   8
#     4  11  22  36  58  86 113 148 194 239 287 342
#     4  10  20  35  58  86 112 145 189 235 286 339
#     4   9  19  38  63  87 112 145 189 241 290 338
#     4  10  20  35  54  80 114 152 191 233 280 333
#     4   8  16  30  49  73 104 144 182 221 268 322
#     4  10  21  36  54  79 114 152 187 230 287 346
#     4   9  18  33  54  82 114 146 183 228 280 344
#     4  10  20  36  56  82 116 154 193 236 285 337
#
# _framework density 19.671752000000001
#
# number of rings (size 3 to 8) (size 9 to 14) (size 15 to 20)
#    0.000    2.375    0.000    2.250    1.750    4.250 
#    0.000    1.875    0.000    2.625    0.000    0.000 
#    0.000    0.000    0.000    0.000    0.000    0.000 
#
# Total GULP energy -396661.738700 kJ/mol
# GULP energy per Si atom -12395.679334 kJ/mol
# Density = 1.962698 g / cm^3
# Si number density = 19.671752 Si / 1000 Ang^3
#
#
#
# Elastic Constant Matrix: (Units=GPa)
#
#
# Indices 1 2 3 4 5 6 
#
# 1 107.3997 43.6013 81.8050 0.0000 0.0000 0.0000
# 2 43.6013 73.0824 45.9455 0.0000 0.0000 0.0000
# 3 81.8050 45.9455 143.0349 0.0000 0.0000 0.0000
# 4 0.0000 0.0000 0.0000 15.5850 0.0000 0.0000
# 5 0.0000 0.0000 0.0000 0.0000 34.7588 0.0000
# 6 0.0000 0.0000 0.0000 0.0000 0.0000 32.0390
#
#
#
# Elastic Compliance Matrix: (Units=1/GPa)
#
#
# Indices 1 2 3 4 5 6 
#
# 1 0.018028 -0.005355 -0.008591 0.000000 0.000000 0.000000
# 2 -0.005355 0.018736 -0.002956 0.000000 0.000000 0.000000
# 3 -0.008591 -0.002956 0.012854 0.000000 0.000000 0.000000
# 4 0.000000 0.000000 0.000000 0.064164 0.000000 0.000000
# 5 0.000000 0.000000 0.000000 0.000000 0.028770 0.000000
# 6 0.000000 0.000000 0.000000 0.000000 0.000000 0.031212
#
#
# Mechanical properties :
#
#
# Convention : Reuss Voigt Hill
#
# Bulk Modulus (GPa) = 63.22870 74.02453 68.62662
# Shear Modulus (GPa) = 23.49184 26.62091 25.05638
#
# Velocity S-wave (km/s) = 3.45946 3.68265 3.57280
# Velocity P-wave (km/s) = 6.94037 7.46955 7.20982
#
# Compressibility (1/GPa) = 0.01581560
#
# Stress axis : x y z
#
# Youngs Moduli (GPa) = 55.46779 53.37250 77.79675
#
# Poissons Ratio (x) = 0.28581 0.66833
# Poissons Ratio (y) = 0.29703 0.22995
# Poissons Ratio (z) = 0.47651 0.15776
#
# Static dielectric constant tensor:
#      x y z
#    x 3.499750 0.000000 0.000000 
#    y 0.000000 3.384770 0.000000 
#    z 0.000000 0.000000 3.725210 
# 
# 
# High freq. dielectric constant tensor:
#      x y z
#    x 1.771520 0.000000 0.000000 
#    y 0.000000 1.755310 0.000000 
#    z 0.000000 0.000000 1.759230 
# 
# From -- ./inp_files/14569.got.cif
#   From: 2010.03.12/outbox.cif.g09.slc.cpg/sg35_8_cif.got.tgz:14569.got - 2010.04.14 02:02:04.
