data_PCOD8173381
_publ_section_title
;
Structure prediction by ZEFSAII (Michael W. Deem and Ramdas Pophale) SiO2 
 PCOD8173381
Probable space group: C M M 2
;
_chemical_formula_sum "Si O2"
_cell_formula_units_Z 64
_cell_length_a 9.157135
_cell_length_b 18.938982
_cell_length_c 20.377989
_cell_angle_alpha 90.000000
_cell_angle_beta 90.000000
_cell_angle_gamma 90.000000
_cell_volume 3534.089727
_symmetry_space_group_name_H-M "C M M 2"
_symmetry_group_IT_number 35
_symmetry_cell_setting 'orthorhombic'
loop_
_space_group_symop_operation_xyz
x,y,z
-x,-y,z
-x,y,z
x,-y,z
1/2+x,1/2+y,z
1/2-x,1/2-y,z
1/2-x,1/2+y,z
1/2+x,1/2-y,z
loop_
_atom_site_type_symbol
_atom_site_label
_atom_site_fract_x
_atom_site_fract_y
_atom_site_fract_z
Si Si1 0.669619 0.820215 0.979140
Si Si2 0.666743 0.583195 0.229816
Si Si3 0.829995 0.418843 0.862760
Si Si4 0.330534 0.081441 0.360764
Si Si5 0.327588 0.177495 0.128459
Si Si6 0.835164 0.083996 0.736027
Si Si7 0.828215 0.675138 0.484441
Si Si8 0.171333 0.418810 0.607085
O O1 0.500000 0.804251 0.973346
O O2 0.750000 0.750000 0.956757
O O3 0.719179 0.881708 0.929988
O O4 0.710373 0.842071 0.053277
O O5 0.500000 0.610124 0.226328
O O6 0.676258 0.500000 0.221068
O O7 0.734175 0.606146 0.299316
O O8 0.762400 0.615372 0.171858
O O9 0.789240 0.500000 0.872779
O O10 0.743062 0.385939 0.801134
O O11 0.000000 0.408139 0.847920
O O12 0.500000 0.092005 0.342828
O O13 0.282222 0.130547 0.420790
O O14 0.299788 0.000000 0.379758
O O15 0.500000 0.184543 0.140347
O O16 0.250000 0.250000 0.149119
O O17 0.752579 0.110987 0.671281
O O18 0.000000 0.112508 0.734377
O O19 0.828347 0.000000 0.737661
O O20 0.750000 0.750000 0.484058
O O21 0.777439 0.629645 0.546938
O O22 0.000000 0.688320 0.485988
O O23 0.214593 0.500000 0.591749
O O24 0.000000 0.412819 0.620036
#
# Coordination Sequence:
#
# PCOD8173381 Si02
#       8
#     8   8   8   8   8   8   8   8
#     4   9  19  34  52  74 100 132 169 208 250 299
#     4  10  21  36  54  79 109 137 169 212 258 304
#     4   9  17  31  51  74 100 130 165 205 248 295
#     4   9  18  35  57  77  99 132 173 211 248 296
#     4  10  20  35  55  77 103 137 175 214 257 307
#     4   9  17  29  47  74 103 128 160 204 251 296
#     4  10  21  35  52  76 104 132 164 205 251 298
#     4   9  17  32  54  75  96 128 168 205 243 292
#
# _framework density 18.109331999999998
#
# number of rings (size 3 to 8) (size 9 to 14) (size 15 to 20)
#    0.000    2.625    0.000    1.500    0.000    6.750 
#    0.000    3.125    0.000    5.250    0.000    0.000 
#    0.000    0.000    0.000    0.000    0.000    0.000 
#
# Total GULP energy -396841.550465 kJ/mol
# GULP energy per Si atom -12401.298452 kJ/mol
# Density = 1.806811 g / cm^3
# Si number density = 18.109332 Si / 1000 Ang^3
#
#
#
# Elastic Constant Matrix: (Units=GPa)
#
#
# Indices 1 2 3 4 5 6 
#
# 1 78.1113 42.6958 65.4676 0.0000 0.0000 0.0000
# 2 42.6958 76.9150 70.4925 0.0000 0.0000 0.0000
# 3 65.4676 70.4925 149.0184 0.0000 0.0000 0.0000
# 4 0.0000 0.0000 0.0000 9.8793 0.0000 0.0000
# 5 0.0000 0.0000 0.0000 0.0000 26.1318 0.0000
# 6 0.0000 0.0000 0.0000 0.0000 0.0000 29.3181
#
#
#
# Elastic Compliance Matrix: (Units=1/GPa)
#
#
# Indices 1 2 3 4 5 6 
#
# 1 0.021648 -0.005827 -0.006754 0.000000 0.000000 0.000000
# 2 -0.005827 0.024520 -0.009040 0.000000 0.000000 0.000000
# 3 -0.006754 -0.009040 0.013954 0.000000 0.000000 0.000000
# 4 0.000000 0.000000 0.000000 0.101222 0.000000 0.000000
# 5 0.000000 0.000000 0.000000 0.000000 0.038267 0.000000
# 6 0.000000 0.000000 0.000000 0.000000 0.000000 0.034109
#
#
# Mechanical properties :
#
#
# Convention : Reuss Voigt Hill
#
# Bulk Modulus (GPa) = 59.23581 73.48406 66.35993
# Shear Modulus (GPa) = 17.69354 21.42509 19.55932
#
# Velocity S-wave (km/s) = 3.12916 3.44335 3.29000
# Velocity P-wave (km/s) = 6.77027 7.51498 7.15233
#
# Compressibility (1/GPa) = 0.01688168
#
# Stress axis : x y z
#
# Youngs Moduli (GPa) = 46.19347 40.78231 71.66399
#
# Poissons Ratio (x) = 0.23762 0.48404
# Poissons Ratio (y) = 0.26915 0.64781
# Poissons Ratio (z) = 0.31200 0.36865
#
# Static dielectric constant tensor:
#      x y z
#    x 3.376370 0.000000 0.000000 
#    y 0.000000 3.187250 0.000000 
#    z 0.000000 0.000000 3.528480 
# 
# 
# High freq. dielectric constant tensor:
#      x y z
#    x 1.702110 0.000000 0.000000 
#    y 0.000000 1.681320 0.000000 
#    z 0.000000 0.000000 1.713410 
# 
# From -- ./inp_files/18296.got.cif
#   From: 2010.03.12/outbox.cif.g09.slc.cpg/sg35_10_cif.got.tgz:18296.got - 2010.04.14 02:02:04.
