data_PCOD8173855
_publ_section_title
;
Structure prediction by ZEFSAII (Michael W. Deem and Ramdas Pophale) SiO2 
 PCOD8173855
Probable space group: C M M 2
;
_chemical_formula_sum "Si O2"
_cell_formula_units_Z 40
_cell_length_a 8.837841
_cell_length_b 15.651234
_cell_length_c 14.147041
_cell_angle_alpha 90.000000
_cell_angle_beta 90.000000
_cell_angle_gamma 90.000000
_cell_volume 1956.862815
_symmetry_space_group_name_H-M "C M M 2"
_symmetry_group_IT_number 35
_symmetry_cell_setting 'orthorhombic'
loop_
_space_group_symop_operation_xyz
x,y,z
-x,-y,z
-x,y,z
x,-y,z
1/2+x,1/2+y,z
1/2-x,1/2-y,z
1/2-x,1/2+y,z
1/2+x,1/2-y,z
loop_
_atom_site_type_symbol
_atom_site_label
_atom_site_fract_x
_atom_site_fract_y
_atom_site_fract_z
Si Si1 0.321734 0.841496 0.648920
Si Si2 0.829571 0.904112 0.039528
Si Si3 0.176882 0.339662 0.865020
Si Si4 0.321101 0.500000 0.541828
Si Si5 0.322668 0.835410 0.218347
Si Si6 0.177469 0.500000 0.340696
O O1 0.500000 0.836822 0.628872
O O2 0.250000 0.750000 0.622537
O O3 0.286763 0.865864 0.757467
O O4 0.248478 0.914774 0.586252
O O5 0.739094 0.845271 0.112229
O O6 0.000000 0.869078 0.030328
O O7 0.828173 0.000000 0.079095
O O8 0.750811 0.906702 0.936702
O O9 0.250000 0.250000 0.890738
O O10 0.000000 0.335003 0.882788
O O11 0.500000 0.500000 0.557233
O O12 0.281415 0.500000 0.432180
O O13 0.500000 0.823397 0.212896
O O14 0.250000 0.750000 0.263708
O O15 0.277993 0.916228 0.281714
O O16 0.000000 0.500000 0.367507
#
# Coordination Sequence:
#
# PCOD8173855 Si02
#       6
#     8   8   8   4   8   4
#     4  10  22  42  66  94 128 167 212 262 313 371
#     4  11  23  37  57  88 126 166 207 255 302 360
#     4  10  21  37  59  86 121 163 207 253 302 360
#     4  12  26  42  67  96 127 166 205 258 320 380
#     4  11  23  42  67  93 123 163 205 253 309 367
#     4  10  24  46  67  90 123 160 205 260 314 374
#
# _framework density 20.440881999999998
#
# number of rings (size 3 to 8) (size 9 to 14) (size 15 to 20)
#    0.000    1.400    1.000    3.900    1.400    6.000 
#    0.000    2.000    0.000    0.000    0.000    0.000 
#    0.000    0.000    0.000    0.000    0.000    0.000 
#
# Total GULP energy -248073.865109 kJ/mol
# GULP energy per Si atom -12403.693255 kJ/mol
# Density = 2.039436 g / cm^3
# Si number density = 20.440882 Si / 1000 Ang^3
#
#
#
# Elastic Constant Matrix: (Units=GPa)
#
#
# Indices 1 2 3 4 5 6 
#
# 1 132.6804 72.2335 67.8064 0.0000 0.0000 0.0000
# 2 72.2335 147.2916 65.9621 0.0000 0.0000 0.0000
# 3 67.8064 65.9621 113.0570 0.0000 0.0000 0.0000
# 4 0.0000 0.0000 0.0000 19.2342 0.0000 0.0000
# 5 0.0000 0.0000 0.0000 0.0000 34.6883 0.0000
# 6 0.0000 0.0000 0.0000 0.0000 0.0000 35.6928
#
#
#
# Elastic Compliance Matrix: (Units=1/GPa)
#
#
# Indices 1 2 3 4 5 6 
#
# 1 0.012165 -0.003653 -0.005165 0.000000 0.000000 0.000000
# 2 -0.003653 0.010288 -0.003811 0.000000 0.000000 0.000000
# 3 -0.005165 -0.003811 0.014166 0.000000 0.000000 0.000000
# 4 0.000000 0.000000 0.000000 0.051991 0.000000 0.000000
# 5 0.000000 0.000000 0.000000 0.000000 0.028828 0.000000
# 6 0.000000 0.000000 0.000000 0.000000 0.000000 0.028017
#
#
# Mechanical properties :
#
#
# Convention : Reuss Voigt Hill
#
# Bulk Modulus (GPa) = 88.02094 89.44809 88.73452
# Shear Modulus (GPa) = 28.65334 30.39152 29.52243
#
# Velocity S-wave (km/s) = 3.74808 3.86009 3.80450
# Velocity P-wave (km/s) = 7.86673 7.98257 7.92486
#
# Compressibility (1/GPa) = 0.01136093
#
# Stress axis : x y z
#
# Youngs Moduli (GPa) = 82.20238 97.20506 70.58970
#
# Poissons Ratio (x) = 0.35508 0.36458
# Poissons Ratio (y) = 0.30028 0.26904
# Poissons Ratio (z) = 0.42456 0.37048
#
# Static dielectric constant tensor:
#      x y z
#    x 3.793910 0.000000 0.000000 
#    y 0.000000 3.781340 0.000000 
#    z 0.000000 0.000000 3.652820 
# 
# 
# High freq. dielectric constant tensor:
#      x y z
#    x 1.812070 0.000000 0.000000 
#    y 0.000000 1.808840 0.000000 
#    z 0.000000 0.000000 1.794630 
# 
# From -- ./inp_files/14724.got.cif
#   From: 2010.03.12/outbox.cif.g09.slc.cpg/sg35_8_cif.got.tgz:14724.got - 2010.04.14 02:02:04.
