data_PCOD8173854
_publ_section_title
;
Structure prediction by ZEFSAII (Michael W. Deem and Ramdas Pophale) SiO2 
 PCOD8173854
Probable space group: C M M 2
;
_chemical_formula_sum "Si O2"
_cell_formula_units_Z 64
_cell_length_a 24.655746
_cell_length_b 13.839477
_cell_length_c 9.367938
_cell_angle_alpha 90.000000
_cell_angle_beta 90.000000
_cell_angle_gamma 90.000000
_cell_volume 3196.552439
_symmetry_space_group_name_H-M "C M M 2"
_symmetry_group_IT_number 35
_symmetry_cell_setting 'orthorhombic'
loop_
_space_group_symop_operation_xyz
x,y,z
-x,-y,z
-x,y,z
x,-y,z
1/2+x,1/2+y,z
1/2-x,1/2-y,z
1/2-x,1/2+y,z
1/2+x,1/2-y,z
loop_
_atom_site_type_symbol
_atom_site_label
_atom_site_fract_x
_atom_site_fract_y
_atom_site_fract_z
Si Si1 0.364335 0.388728 0.679660
Si Si2 0.147174 0.895016 0.012083
Si Si3 0.243487 0.386800 0.654940
Si Si4 0.938302 0.608549 0.929295
Si Si5 0.146369 0.613175 0.448477
Si Si6 0.563963 0.786263 0.640316
Si Si7 0.227917 0.608269 0.967795
Si Si8 0.638963 0.799471 0.143117
O O1 0.374568 0.500000 0.632153
O O2 0.305059 0.350627 0.624372
O O3 0.410068 0.319404 0.611453
O O4 0.369787 0.378455 0.849171
O O5 0.122835 0.812640 0.115751
O O6 0.125112 0.000000 0.063706
O O7 0.211536 0.895463 0.023891
O O8 0.248425 0.500000 0.676207
O O9 0.201559 0.356963 0.531913
O O10 0.222737 0.347264 0.807784
O O11 0.925253 0.500000 0.876658
O O12 0.924003 0.681852 0.802278
O O13 0.000000 0.619170 0.975543
O O14 0.905253 0.631713 0.071367
O O15 0.147807 0.500000 0.409255
O O16 0.092761 0.634821 0.539990
O O17 0.143389 0.679052 0.309266
O O18 0.500000 0.784139 0.606010
O O19 0.202571 0.500000 0.974468
O O20 0.196531 0.681267 0.069561
#
# Coordination Sequence:
#
# PCOD8173854 Si02
#       8
#     8   8   8   8   8   8   8   8
#     4   9  18  38  65  92 118 153 199 252 300 348
#     4   9  19  36  58  87 121 152 192 242 293 349
#     4   8  17  35  59  86 121 158 196 239 291 357
#     4  10  21  37  59  86 114 148 197 253 301 350
#     4  11  24  39  56  87 128 165 199 242 300 367
#     4  11  23  40  61  87 117 156 206 256 303 358
#     4   9  17  32  57  86 115 153 197 239 285 346
#     4  12  21  36  59  86 120 159 199 239 293 360
#
# _framework density 20.021571999999999
#
# number of rings (size 3 to 8) (size 9 to 14) (size 15 to 20)
#    0.000    2.125    1.250    4.125    0.000    3.000 
#    4.500    0.625    0.000    0.375    0.000    0.000 
#    0.000    0.000    0.000    0.000    0.000    0.000 
#
# Total GULP energy -396722.982341 kJ/mol
# GULP energy per Si atom -12397.593198 kJ/mol
# Density = 1.997600 g / cm^3
# Si number density = 20.021572 Si / 1000 Ang^3
#
#
#
# Elastic Constant Matrix: (Units=GPa)
#
#
# Indices 1 2 3 4 5 6 
#
# 1 89.6866 28.5076 32.0509 0.0000 0.0000 0.0000
# 2 28.5076 100.7781 25.1690 0.0000 0.0000 0.0000
# 3 32.0509 25.1690 81.5082 0.0000 0.0000 0.0000
# 4 0.0000 0.0000 0.0000 26.3982 0.0000 0.0000
# 5 0.0000 0.0000 0.0000 0.0000 0.7860 0.0000
# 6 0.0000 0.0000 0.0000 0.0000 0.0000 27.7159
#
#
#
# Elastic Compliance Matrix: (Units=1/GPa)
#
#
# Indices 1 2 3 4 5 6 
#
# 1 0.013632 -0.002728 -0.004518 0.000000 0.000000 0.000000
# 2 -0.002728 0.011298 -0.002416 0.000000 0.000000 0.000000
# 3 -0.004518 -0.002416 0.014791 0.000000 0.000000 0.000000
# 4 0.000000 0.000000 0.000000 0.037881 0.000000 0.000000
# 5 0.000000 0.000000 0.000000 0.000000 1.272299 0.000000
# 6 0.000000 0.000000 0.000000 0.000000 0.000000 0.036080
#
#
# Mechanical properties :
#
#
# Convention : Reuss Voigt Hill
#
# Bulk Modulus (GPa) = 49.02621 49.26976 49.14799
# Shear Modulus (GPa) = 3.54082 23.39637 13.46859
#
# Velocity S-wave (km/s) = 1.33129 3.42213 2.59647
# Velocity P-wave (km/s) = 5.18681 6.34637 5.79566
#
# Compressibility (1/GPa) = 0.02039725
#
# Stress axis : x y z
#
# Youngs Moduli (GPa) = 73.35947 88.51299 67.60719
#
# Poissons Ratio (x) = 0.24143 0.30545
# Poissons Ratio (y) = 0.20010 0.16334
# Poissons Ratio (z) = 0.33143 0.21385
#
# Static dielectric constant tensor:
#      x y z
#    x 3.519660 0.000000 0.000000 
#    y 0.000000 4.045750 0.000000 
#    z 0.000000 0.000000 3.311420 
# 
# 
# High freq. dielectric constant tensor:
#      x y z
#    x 1.766930 0.000000 0.000000 
#    y 0.000000 1.797260 0.000000 
#    z 0.000000 0.000000 1.748420 
# 
# From -- ./inp_files/7821.got.cif
#   From: 2010.03.12/outbox.cif.g09.slc.cpg/sg35_4_cif.got.tgz:7821.got - 2010.04.14 02:02:04.
