data_PCOD8173811
_publ_section_title
;
Structure prediction by ZEFSAII (Michael W. Deem and Ramdas Pophale) SiO2 
 PCOD8173811
Probable space group: C M M 2
;
_chemical_formula_sum "Si O2"
_cell_formula_units_Z 64
_cell_length_a 24.717410
_cell_length_b 13.788093
_cell_length_c 9.504257
_cell_angle_alpha 90.000000
_cell_angle_beta 90.000000
_cell_angle_gamma 90.000000
_cell_volume 3239.107315
_symmetry_space_group_name_H-M "C M M 2"
_symmetry_group_IT_number 35
_symmetry_cell_setting 'orthorhombic'
loop_
_space_group_symop_operation_xyz
x,y,z
-x,-y,z
-x,y,z
x,-y,z
1/2+x,1/2+y,z
1/2-x,1/2-y,z
1/2-x,1/2+y,z
1/2+x,1/2-y,z
loop_
_atom_site_type_symbol
_atom_site_label
_atom_site_fract_x
_atom_site_fract_y
_atom_site_fract_z
Si Si1 0.116715 0.297508 0.419080
Si Si2 0.770619 0.610838 0.988592
Si Si3 0.832391 0.110345 0.483959
Si Si4 0.837415 0.890193 0.813703
Si Si5 0.226191 0.612595 0.309517
Si Si6 0.937955 0.387166 0.169200
Si Si7 0.561136 0.112907 0.672316
Si Si8 0.620695 0.200946 0.919091
O O1 0.119955 0.179982 0.424788
O O2 0.174730 0.334222 0.371401
O O3 0.068834 0.341239 0.323731
O O4 0.103708 0.331787 0.575618
O O5 0.789123 0.500000 0.986177
O O6 0.762272 0.646338 0.149333
O O7 0.715920 0.627915 0.904593
O O8 0.816776 0.670636 0.908186
O O9 0.823806 0.126549 0.650184
O O10 0.777158 0.139237 0.405741
O O11 0.849324 0.000000 0.449493
O O12 0.882609 0.813782 0.869882
O O13 0.859279 0.000000 0.837504
O O14 0.213243 0.500000 0.315372
O O15 0.918966 0.500000 0.166502
O O16 0.000000 0.379405 0.122594
O O17 0.899734 0.317856 0.076932
O O18 0.500000 0.152083 0.653623
O O19 0.580973 0.132916 0.829759
O O20 0.563204 0.000000 0.639025
#
# Coordination Sequence:
#
# PCOD8173811 Si02
#       8
#     8   8   8   8   8   8   8   8
#     4  12  22  38  64  88 119 161 198 240 297 357
#     4  10  21  36  58  90 125 158 195 238 292 359
#     4  10  23  41  59  86 123 161 201 245 290 343
#     4  10  23  41  59  86 123 161 201 245 290 343
#     4  10  21  36  58  90 125 158 195 238 292 359
#     4  11  24  42  64  91 123 155 192 244 304 361
#     4  11  24  40  60  89 119 149 196 252 302 355
#     4  12  22  38  64  88 119 161 198 240 297 357
#
# _framework density 19.758531000000001
#
# number of rings (size 3 to 8) (size 9 to 14) (size 15 to 20)
#    0.000    1.250    2.500    3.750    3.500    4.000 
#    0.000    0.000    0.000    4.500    0.000    0.000 
#    0.000    0.000    0.000    0.000    0.000    0.000 
#
# Total GULP energy -396811.243578 kJ/mol
# GULP energy per Si atom -12400.351362 kJ/mol
# Density = 1.971356 g / cm^3
# Si number density = 19.758531 Si / 1000 Ang^3
#
#
#
# Elastic Constant Matrix: (Units=GPa)
#
#
# Indices 1 2 3 4 5 6 
#
# 1 55.5862 60.2869 33.9063 0.0000 0.0000 0.0000
# 2 60.2869 100.8213 39.2950 0.0000 0.0000 0.0000
# 3 33.9063 39.2950 83.9671 0.0000 0.0000 0.0000
# 4 0.0000 0.0000 0.0000 23.1152 0.0000 0.0000
# 5 0.0000 0.0000 0.0000 0.0000 21.3355 0.0000
# 6 0.0000 0.0000 0.0000 0.0000 0.0000 23.7939
#
#
#
# Elastic Compliance Matrix: (Units=1/GPa)
#
#
# Indices 1 2 3 4 5 6 
#
# 1 0.055683 -0.030005 -0.008443 0.000000 0.000000 0.000000
# 2 -0.030005 0.028300 -0.001128 0.000000 0.000000 0.000000
# 3 -0.008443 -0.001128 0.015846 0.000000 0.000000 0.000000
# 4 0.000000 0.000000 0.000000 0.043262 0.000000 0.000000
# 5 0.000000 0.000000 0.000000 0.000000 0.046870 0.000000
# 6 0.000000 0.000000 0.000000 0.000000 0.000000 0.042028
#
#
# Mechanical properties :
#
#
# Convention : Reuss Voigt Hill
#
# Bulk Modulus (GPa) = 48.36205 56.37232 52.36718
# Shear Modulus (GPa) = 15.72162 20.77468 18.24815
#
# Velocity S-wave (km/s) = 2.82385 3.24609 3.04231
# Velocity P-wave (km/s) = 5.92975 6.53009 6.23714
#
# Compressibility (1/GPa) = 0.02067737
#
# Stress axis : x y z
#
# Youngs Moduli (GPa) = 17.95880 35.33578 63.10561
#
# Poissons Ratio (x) = 1.06026 0.53281
# Poissons Ratio (y) = 0.53886 0.07115
# Poissons Ratio (z) = 0.15163 0.03984
#
# Static dielectric constant tensor:
#      x y z
#    x 3.380460 0.000000 0.000000 
#    y 0.000000 3.825120 0.000000 
#    z 0.000000 0.000000 3.718070 
# 
# 
# High freq. dielectric constant tensor:
#      x y z
#    x 1.748300 0.000000 0.000000 
#    y 0.000000 1.778190 0.000000 
#    z 0.000000 0.000000 1.784410 
# 
# From -- ./inp_files/9909.got.cif
#   From: 2010.03.12/outbox.cif.g09.slc.cpg/sg35_5_cif.got.tgz:9909.got - 2010.04.14 02:02:04.
