data_PCOD8173262
_publ_section_title
;
Structure prediction by ZEFSAII (Michael W. Deem and Ramdas Pophale) SiO2 
 PCOD8173262
Probable space group: C M M 2
;
_chemical_formula_sum "Si O2"
_cell_formula_units_Z 64
_cell_length_a 19.311978
_cell_length_b 20.523346
_cell_length_c 8.731888
_cell_angle_alpha 90.000000
_cell_angle_beta 90.000000
_cell_angle_gamma 90.000000
_cell_volume 3460.852430
_symmetry_space_group_name_H-M "C M M 2"
_symmetry_group_IT_number 35
_symmetry_cell_setting 'orthorhombic'
loop_
_space_group_symop_operation_xyz
x,y,z
-x,-y,z
-x,y,z
x,-y,z
1/2+x,1/2+y,z
1/2-x,1/2-y,z
1/2-x,1/2+y,z
1/2+x,1/2-y,z
loop_
_atom_site_type_symbol
_atom_site_label
_atom_site_fract_x
_atom_site_fract_y
_atom_site_fract_z
Si Si1 0.789995 0.573656 0.731390
Si Si2 0.705737 0.312798 0.227723
Si Si3 0.794263 0.187202 0.585894
Si Si4 0.078326 0.378905 0.585209
Si Si5 0.921674 0.378905 0.228408
Si Si6 0.922173 0.759319 0.083418
Si Si7 0.577827 0.259319 0.730199
Si Si8 0.289995 0.926344 0.082227
O O1 0.763004 0.500000 0.709697
O O2 0.745321 0.621083 0.625790
O O3 0.870297 0.575829 0.681333
O O4 0.783336 0.596022 0.906809
O O5 0.750000 0.250000 0.175086
O O6 0.690718 0.310969 0.406809
O O7 0.632587 0.313481 0.138041
O O8 0.745321 0.378917 0.187827
O O9 0.750000 0.250000 0.638532
O O10 0.867413 0.186519 0.675576
O O11 0.094417 0.387554 0.406809
O O12 0.091065 0.303981 0.627562
O O13 0.000000 0.400061 0.625195
O O14 0.908935 0.303981 0.186055
O O15 0.870297 0.424171 0.132284
O O16 0.000000 0.400061 0.188423
O O17 0.000000 0.786427 0.108626
O O18 0.909974 0.740932 0.906809
O O19 0.500000 0.286427 0.704991
O O20 0.263004 0.000000 0.103920
#
# Coordination Sequence:
#
# PCOD8173262 Si02
#       8
#     8   8   8   8   8   8   8   8
#     4  11  24  39  56  80 111 149 190 232 279 330
#     4  11  22  36  58  86 112 146 187 229 279 330
#     4  11  22  36  58  86 112 146 187 229 279 330
#     4  10  20  34  53  79 112 149 188 228 272 326
#     4  10  20  34  53  79 112 149 188 228 272 326
#     4  10  20  34  56  85 114 145 182 228 279 327
#     4  10  20  34  56  85 114 145 182 228 279 327
#     4  11  24  39  56  80 111 149 190 232 279 330
#
# _framework density 18.492553000000001
#
# number of rings (size 3 to 8) (size 9 to 14) (size 15 to 20)
#    0.000    1.500    2.500    3.000    0.000    6.500 
#    0.000    2.500    0.000    0.750    0.000    5.250 
#    0.000    0.000    0.000    0.000    0.000    0.000 
#
# Total GULP energy -396927.360305 kJ/mol
# GULP energy per Si atom -12403.980010 kJ/mol
# Density = 1.845046 g / cm^3
# Si number density = 18.492553 Si / 1000 Ang^3
#
#
#
# Elastic Constant Matrix: (Units=GPa)
#
#
# Indices 1 2 3 4 5 6 
#
# 1 100.7692 37.2574 32.8886 0.0000 0.0000 0.0000
# 2 37.2574 71.9144 21.5083 0.0000 0.0000 0.0000
# 3 32.8886 21.5083 60.0942 0.0000 0.0000 0.0000
# 4 0.0000 0.0000 0.0000 23.3709 0.0000 0.0000
# 5 0.0000 0.0000 0.0000 0.0000 35.2692 0.0000
# 6 0.0000 0.0000 0.0000 0.0000 0.0000 24.4624
#
#
#
# Elastic Compliance Matrix: (Units=1/GPa)
#
#
# Indices 1 2 3 4 5 6 
#
# 1 0.013764 -0.005463 -0.005578 0.000000 0.000000 0.000000
# 2 -0.005463 0.017740 -0.003360 0.000000 0.000000 0.000000
# 3 -0.005578 -0.003360 0.020896 0.000000 0.000000 0.000000
# 4 0.000000 0.000000 0.000000 0.042788 0.000000 0.000000
# 5 0.000000 0.000000 0.000000 0.000000 0.028353 0.000000
# 6 0.000000 0.000000 0.000000 0.000000 0.000000 0.040879
#
#
# Mechanical properties :
#
#
# Convention : Reuss Voigt Hill
#
# Bulk Modulus (GPa) = 42.37348 46.23182 44.30265
# Shear Modulus (GPa) = 24.86489 26.02874 25.44682
#
# Velocity S-wave (km/s) = 3.67084 3.75577 3.71355
# Velocity P-wave (km/s) = 6.39768 6.62286 6.51124
#
# Compressibility (1/GPa) = 0.02359966
#
# Stress axis : x y z
#
# Youngs Moduli (GPa) = 72.65486 56.36870 47.85696
#
# Poissons Ratio (x) = 0.30792 0.26693
# Poissons Ratio (y) = 0.39688 0.16079
# Poissons Ratio (z) = 0.40524 0.18939
#
# Static dielectric constant tensor:
#      x y z
#    x 3.571120 0.000000 0.000000 
#    y 0.000000 3.063580 0.000000 
#    z 0.000000 0.000000 3.451360 
# 
# 
# High freq. dielectric constant tensor:
#      x y z
#    x 1.720960 0.000000 0.000000 
#    y 0.000000 1.683250 0.000000 
#    z 0.000000 0.000000 1.734210 
# 
# From -- ./inp_files/8719.got.cif
#   From: 2010.03.12/outbox.cif.g09.slc.cpg/sg35_5_cif.got.tgz:8719.got - 2010.04.14 02:02:04.
