data_PCOD8173026
_publ_section_title
;
Structure prediction by ZEFSAII (Michael W. Deem and Ramdas Pophale) SiO2 
 PCOD8173026
Probable space group: C M M 2
;
_chemical_formula_sum "Si O2"
_cell_formula_units_Z 48
_cell_length_a 15.814970
_cell_length_b 9.199694
_cell_length_c 16.773618
_cell_angle_alpha 90.000000
_cell_angle_beta 90.000000
_cell_angle_gamma 90.000000
_cell_volume 2440.442068
_symmetry_space_group_name_H-M "C M M 2"
_symmetry_group_IT_number 35
_symmetry_cell_setting 'orthorhombic'
loop_
_space_group_symop_operation_xyz
x,y,z
-x,-y,z
-x,y,z
x,-y,z
1/2+x,1/2+y,z
1/2-x,1/2-y,z
1/2-x,1/2+y,z
1/2+x,1/2-y,z
loop_
_atom_site_type_symbol
_atom_site_label
_atom_site_fract_x
_atom_site_fract_y
_atom_site_fract_z
Si Si1 0.406242 0.327387 0.197750
Si Si2 0.404171 0.334911 0.865957
Si Si3 0.833092 0.671291 0.725252
Si Si4 0.333681 0.668357 0.032873
Si Si5 0.000000 0.171773 0.460528
Si Si6 0.665776 0.671417 0.363519
Si Si7 0.000000 0.329523 0.627503
O O1 0.500000 0.263267 0.210534
O O2 0.411984 0.500000 0.193451
O O3 0.369889 0.264353 0.114959
O O4 0.348139 0.279539 0.271820
O O5 0.500000 0.307570 0.839812
O O6 0.375888 0.500000 0.846656
O O7 0.345402 0.225995 0.815981
O O8 0.398580 0.305787 0.960576
O O9 0.818169 0.500000 0.725221
O O10 0.750000 0.750000 0.688648
O O11 0.915608 0.716365 0.674914
O O12 0.313097 0.500000 0.045520
O O13 0.250000 0.750000 0.007570
O O14 0.084026 0.221847 0.413555
O O15 0.000000 0.245294 0.545510
O O16 0.000000 0.000000 0.471161
O O17 0.679215 0.500000 0.371054
O O18 0.750000 0.750000 0.396310
O O19 0.000000 0.500000 0.610424
#
# Coordination Sequence:
#
# PCOD8173026 Si02
#       7
#     8   8   8   8   4   8   4
#     4   9  16  31  55  78 107 149 194 236 278 330
#     4  10  20  35  56  83 114 151 197 242 287 340
#     4  11  23  41  63  89 118 153 194 237 289 348
#     4  10  20  32  49  77 111 149 193 239 282 331
#     4  10  22  40  62  87 116 150 190 231 282 350
#     4  10  20  36  59  87 116 151 193 235 282 339
#     4  10  24  44  64  87 118 150 186 235 292 348
#
# _framework density 19.668566999999999
#
# number of rings (size 3 to 8) (size 9 to 14) (size 15 to 20)
#    0.000    2.000    1.667    2.000    0.000    6.667 
#    0.000    3.333    0.000    2.500    0.000    0.000 
#    0.000    0.000    0.000    0.000    0.000    0.000 
#
# Total GULP energy -297606.900953 kJ/mol
# GULP energy per Si atom -12400.287540 kJ/mol
# Density = 1.962380 g / cm^3
# Si number density = 19.668567 Si / 1000 Ang^3
#
#
#
# Elastic Constant Matrix: (Units=GPa)
#
#
# Indices 1 2 3 4 5 6 
#
# 1 153.4287 50.9280 56.1576 0.0000 0.0000 0.0000
# 2 50.9280 50.8657 41.3430 0.0000 0.0000 0.0000
# 3 56.1576 41.3430 121.1623 0.0000 0.0000 0.0000
# 4 0.0000 0.0000 0.0000 27.6568 0.0000 0.0000
# 5 0.0000 0.0000 0.0000 0.0000 21.9531 0.0000
# 6 0.0000 0.0000 0.0000 0.0000 0.0000 32.0231
#
#
#
# Elastic Compliance Matrix: (Units=1/GPa)
#
#
# Indices 1 2 3 4 5 6 
#
# 1 0.010005 -0.008646 -0.001687 0.000000 0.000000 0.000000
# 2 -0.008646 0.034676 -0.007825 0.000000 0.000000 0.000000
# 3 -0.001687 -0.007825 0.011705 0.000000 0.000000 0.000000
# 4 0.000000 0.000000 0.000000 0.036157 0.000000 0.000000
# 5 0.000000 0.000000 0.000000 0.000000 0.045552 0.000000
# 6 0.000000 0.000000 0.000000 0.000000 0.000000 0.031227
#
#
# Mechanical properties :
#
#
# Convention : Reuss Voigt Hill
#
# Bulk Modulus (GPa) = 49.82398 69.14598 59.48498
# Shear Modulus (GPa) = 23.54829 28.12848 25.83839
#
# Velocity S-wave (km/s) = 3.46389 3.78580 3.62842
# Velocity P-wave (km/s) = 6.43310 7.37168 6.91832
#
# Compressibility (1/GPa) = 0.02007066
#
# Stress axis : x y z
#
# Youngs Moduli (GPa) = 99.94880 28.83811 85.43135
#
# Poissons Ratio (x) = 0.24934 0.14412
# Poissons Ratio (y) = 0.86418 0.66849
# Poissons Ratio (z) = 0.16862 0.22565
#
# Static dielectric constant tensor:
#      x y z
#    x 3.750850 0.000000 0.000000 
#    y 0.000000 3.266130 0.000000 
#    z 0.000000 0.000000 3.578730 
# 
# 
# High freq. dielectric constant tensor:
#      x y z
#    x 1.779980 0.000000 0.000000 
#    y 0.000000 1.737440 0.000000 
#    z 0.000000 0.000000 1.767610 
# 
# From -- ./inp_files/15197.got.cif
#   From: 2010.03.12/outbox.cif.g09.slc.cpg/sg35_8_cif.got.tgz:15197.got - 2010.04.14 02:02:04.
