data_PCOD8173655
_publ_section_title
;
Structure prediction by ZEFSAII (Michael W. Deem and Ramdas Pophale) SiO2 
 PCOD8173655
Probable space group: C M M 2
;
_chemical_formula_sum "Si O2"
_cell_formula_units_Z 48
_cell_length_a 15.420956
_cell_length_b 8.833262
_cell_length_c 18.374264
_cell_angle_alpha 90.000000
_cell_angle_beta 90.000000
_cell_angle_gamma 90.000000
_cell_volume 2502.893452
_symmetry_space_group_name_H-M "C M M 2"
_symmetry_group_IT_number 35
_symmetry_cell_setting 'orthorhombic'
loop_
_space_group_symop_operation_xyz
x,y,z
-x,-y,z
-x,y,z
x,-y,z
1/2+x,1/2+y,z
1/2-x,1/2-y,z
1/2-x,1/2+y,z
1/2+x,1/2-y,z
loop_
_atom_site_type_symbol
_atom_site_label
_atom_site_fract_x
_atom_site_fract_y
_atom_site_fract_z
Si Si1 0.840289 0.176574 0.054330
Si Si2 0.161636 0.177367 0.549036
Si Si3 0.659139 0.322637 0.885734
Si Si4 0.000000 0.820747 0.645758
Si Si5 0.000000 0.673080 0.132397
Si Si6 0.000000 0.320845 0.802218
Si Si7 0.840120 0.179277 0.383217
Si Si8 0.500000 0.826367 0.304374
O O1 0.750000 0.250000 0.078389
O O2 0.915169 0.246681 0.102413
O O3 0.834665 0.000000 0.070275
O O4 0.860413 0.209953 0.970069
O O5 0.250000 0.250000 0.578786
O O6 0.141858 0.228869 0.466492
O O7 0.083509 0.230248 0.599948
O O8 0.174020 0.000000 0.552231
O O9 0.661673 0.500000 0.868563
O O10 0.750000 0.250000 0.861997
O O11 0.584895 0.245664 0.839290
O O12 0.000000 0.725542 0.718676
O O13 0.000000 0.000000 0.661920
O O14 0.000000 0.500000 0.106280
O O15 0.000000 0.687568 0.218317
O O16 0.000000 0.500000 0.810478
O O17 0.750000 0.250000 0.355761
O O18 0.915391 0.243737 0.333536
O O19 0.836370 0.000000 0.374530
O O20 0.500000 0.000000 0.330101
#
# Coordination Sequence:
#
# PCOD8173655 Si02
#       8
#     8   8   8   4   4   4   8   4
#     4  10  21  38  62  88 113 144 186 232 281 334
#     4   9  19  36  59  84 109 141 183 229 279 331
#     4  10  21  39  62  87 113 145 186 233 281 332
#     4  10  21  38  56  77 112 152 185 226 278 332
#     4  11  24  39  56  81 116 153 190 231 278 332
#     4  12  25  38  55  83 117 154 191 228 276 334
#     4  10  20  37  61  87 113 145 186 233 282 334
#     4  11  24  39  55  81 115 153 192 231 278 332
#
# _framework density 19.177803000000001
#
# number of rings (size 3 to 8) (size 9 to 14) (size 15 to 20)
#    0.000    1.833    0.000    3.750    0.000    9.333 
#    0.000    2.500    0.000    0.000    0.000    0.000 
#    0.000    0.000    0.000    0.000    0.000    0.000 
#
# Total GULP energy -297715.946765 kJ/mol
# GULP energy per Si atom -12404.831115 kJ/mol
# Density = 1.913415 g / cm^3
# Si number density = 19.177803 Si / 1000 Ang^3
#
#
#
# Elastic Constant Matrix: (Units=GPa)
#
#
# Indices 1 2 3 4 5 6 
#
# 1 180.6602 76.5615 76.8668 0.0000 0.0000 0.0000
# 2 76.5615 107.4015 54.2929 0.0000 0.0000 0.0000
# 3 76.8668 54.2929 82.4196 0.0000 0.0000 0.0000
# 4 0.0000 0.0000 0.0000 30.2626 0.0000 0.0000
# 5 0.0000 0.0000 0.0000 0.0000 -53.5396 0.0000
# 6 0.0000 0.0000 0.0000 0.0000 0.0000 39.2686
#
#
#
# Elastic Compliance Matrix: (Units=1/GPa)
#
#
# Indices 1 2 3 4 5 6 
#
# 1 0.010041 -0.003634 -0.006971 0.000000 0.000000 0.000000
# 2 -0.003634 0.015275 -0.006673 0.000000 0.000000 0.000000
# 3 -0.006971 -0.006673 0.023030 0.000000 0.000000 0.000000
# 4 0.000000 0.000000 0.000000 0.033044 0.000000 0.000000
# 5 0.000000 0.000000 0.000000 0.000000 -0.018678 0.000000
# 6 0.000000 0.000000 0.000000 0.000000 0.000000 0.025466
#
#
# Mechanical properties :
#
#
# Convention : Reuss Voigt Hill
#
# Bulk Modulus (GPa) = 72.51433 87.32484 79.91958
# Shear Modulus (GPa) = 39.26820 14.04902 26.65861
#
# Velocity S-wave (km/s) = 4.52994 2.70953 3.73242
# Velocity P-wave (km/s) = 8.07800 7.44459 7.76775
#
# Compressibility (1/GPa) = 0.01379038
#
# Stress axis : x y z
#
# Youngs Moduli (GPa) = 99.58894 65.46841 43.42207
#
# Poissons Ratio (x) = 0.23792 0.30269
# Poissons Ratio (y) = 0.36192 0.28974
# Poissons Ratio (z) = 0.69422 0.43685
#
# Static dielectric constant tensor:
#      x y z
#    x 3.692190 0.000000 0.000000 
#    y 0.000000 3.632480 0.000000 
#    z 0.000000 0.000000 3.517630 
# 
# 
# High freq. dielectric constant tensor:
#      x y z
#    x 1.763910 0.000000 0.000000 
#    y 0.000000 1.757410 0.000000 
#    z 0.000000 0.000000 1.741730 
# 
# From -- ./inp_files/17949.got.cif
#   From: 2010.03.12/outbox.cif.g09.slc.cpg/sg35_9_cif.got.tgz:17949.got - 2010.04.14 02:02:04.
