data_PCOD8173216
_publ_section_title
;
Structure prediction by ZEFSAII (Michael W. Deem and Ramdas Pophale) SiO2 
 PCOD8173216
Probable space group: C M M 2
;
_chemical_formula_sum "Si O2"
_cell_formula_units_Z 64
_cell_length_a 9.211945
_cell_length_b 18.155817
_cell_length_c 20.679255
_cell_angle_alpha 90.000000
_cell_angle_beta 90.000000
_cell_angle_gamma 90.000000
_cell_volume 3458.613415
_symmetry_space_group_name_H-M "C M M 2"
_symmetry_group_IT_number 35
_symmetry_cell_setting 'orthorhombic'
loop_
_space_group_symop_operation_xyz
x,y,z
-x,-y,z
-x,y,z
x,-y,z
1/2+x,1/2+y,z
1/2-x,1/2-y,z
1/2-x,1/2+y,z
1/2+x,1/2-y,z
loop_
_atom_site_type_symbol
_atom_site_label
_atom_site_fract_x
_atom_site_fract_y
_atom_site_fract_z
Si Si1 0.163650 0.587726 0.265170
Si Si2 0.162826 0.087967 0.388663
Si Si3 0.160456 0.587413 0.509421
Si Si4 0.172629 0.172525 0.763959
Si Si5 0.671484 0.672793 0.012221
Si Si6 0.330845 0.914222 0.654577
Si Si7 0.671976 0.582250 0.889199
Si Si8 0.831541 0.914973 0.139704
O O1 0.166812 0.500000 0.266420
O O2 0.246170 0.618886 0.328042
O O3 0.241998 0.616365 0.200457
O O4 0.000000 0.618046 0.266018
O O5 0.230366 0.119026 0.455461
O O6 0.000000 0.118354 0.383035
O O7 0.164549 0.000000 0.388580
O O8 0.154160 0.500000 0.505238
O O9 0.209980 0.609880 0.581470
O O10 0.000000 0.619090 0.495015
O O11 0.250000 0.250000 0.771965
O O12 0.226605 0.133202 0.699367
O O13 0.222329 0.123417 0.824575
O O14 0.000000 0.183225 0.760772
O O15 0.500000 0.685248 0.007716
O O16 0.750000 0.750000 0.011438
O O17 0.715809 0.630222 0.077022
O O18 0.730137 0.625718 0.951660
O O19 0.500000 0.897621 0.668753
O O20 0.297317 0.000000 0.665882
O O21 0.500000 0.577344 0.892354
O O22 0.738804 0.500000 0.889005
O O23 0.000000 0.904743 0.156171
O O24 0.794940 0.000000 0.125886
#
# Coordination Sequence:
#
# PCOD8173216 Si02
#       8
#     8   8   8   8   8   8   8   8
#     4   9  16  25  39  61  91 126 161 201 250 298
#     4   9  15  22  35  59  92 127 162 202 246 293
#     4   8  14  25  41  62  91 127 163 201 249 301
#     4  11  22  35  53  76 104 137 173 213 255 303
#     4  10  20  34  53  75 101 132 164 202 247 296
#     4   9  18  33  52  74 102 135 171 213 260 309
#     4   9  18  34  56  80 103 130 167 208 250 298
#     4   9  17  30  48  69  93 125 166 207 246 291
#
# _framework density 18.504525000000001
#
# number of rings (size 3 to 8) (size 9 to 14) (size 15 to 20)
#    0.000    2.750    0.000    3.000    0.000    6.250 
#    0.000    1.875    0.000    2.625    0.000    0.875 
#    0.000    2.000    0.000    0.000    0.000    0.000 
#
# Total GULP energy -396764.594165 kJ/mol
# GULP energy per Si atom -12398.893568 kJ/mol
# Density = 1.846241 g / cm^3
# Si number density = 18.504525 Si / 1000 Ang^3
#
#
#
# Elastic Constant Matrix: (Units=GPa)
#
#
# Indices 1 2 3 4 5 6 
#
# 1 96.1743 42.6432 80.0028 0.0000 0.0000 0.0000
# 2 42.6432 82.9207 62.4535 0.0000 0.0000 0.0000
# 3 80.0028 62.4535 184.5358 0.0000 0.0000 0.0000
# 4 0.0000 0.0000 0.0000 1.6173 0.0000 0.0000
# 5 0.0000 0.0000 0.0000 0.0000 27.6564 0.0000
# 6 0.0000 0.0000 0.0000 0.0000 0.0000 20.9840
#
#
#
# Elastic Compliance Matrix: (Units=1/GPa)
#
#
# Indices 1 2 3 4 5 6 
#
# 1 0.017371 -0.004377 -0.006050 0.000000 0.000000 0.000000
# 2 -0.004377 0.017288 -0.003953 0.000000 0.000000 0.000000
# 3 -0.006050 -0.003953 0.009380 0.000000 0.000000 0.000000
# 4 0.000000 0.000000 0.000000 0.618329 0.000000 0.000000
# 5 0.000000 0.000000 0.000000 0.000000 0.036158 0.000000
# 6 0.000000 0.000000 0.000000 0.000000 0.000000 0.047655
#
#
# Mechanical properties :
#
#
# Convention : Reuss Voigt Hill
#
# Bulk Modulus (GPa) = 65.44929 81.53665 73.49297
# Shear Modulus (GPa) = 6.40998 21.95361 14.18179
#
# Velocity S-wave (km/s) = 1.86320 3.44814 2.77139
# Velocity P-wave (km/s) = 6.33047 7.74672 7.07412
#
# Compressibility (1/GPa) = 0.01527901
#
# Stress axis : x y z
#
# Youngs Moduli (GPa) = 57.56782 57.84303 106.61315
#
# Poissons Ratio (x) = 0.25317 0.64497
# Poissons Ratio (y) = 0.25196 0.42149
# Poissons Ratio (z) = 0.34826 0.22868
#
# Static dielectric constant tensor:
#      x y z
#    x 3.369530 0.000000 0.000000 
#    y 0.000000 3.034480 0.000000 
#    z 0.000000 0.000000 3.673040 
# 
# 
# High freq. dielectric constant tensor:
#      x y z
#    x 1.707840 0.000000 0.000000 
#    y 0.000000 1.675120 0.000000 
#    z 0.000000 0.000000 1.737460 
# 
# From -- ./inp_files/18402.got.cif
#   From: 2010.03.12/outbox.cif.g09.slc.cpg/sg35_10_cif.got.tgz:18402.got - 2010.04.14 02:02:04.
