data_PCOD8173487
_publ_section_title
;
Structure prediction by ZEFSAII (Michael W. Deem and Ramdas Pophale) SiO2 
 PCOD8173487
Probable space group: C M M 2
;
_chemical_formula_sum "Si O2"
_cell_formula_units_Z 64
_cell_length_a 14.203568
_cell_length_b 18.668692
_cell_length_c 12.355637
_cell_angle_alpha 90.000000
_cell_angle_beta 90.000000
_cell_angle_gamma 90.000000
_cell_volume 3276.245867
_symmetry_space_group_name_H-M "C M M 2"
_symmetry_group_IT_number 35
_symmetry_cell_setting 'orthorhombic'
loop_
_space_group_symop_operation_xyz
x,y,z
-x,-y,z
-x,y,z
x,-y,z
1/2+x,1/2+y,z
1/2-x,1/2-y,z
1/2-x,1/2+y,z
1/2+x,1/2-y,z
loop_
_atom_site_type_symbol
_atom_site_label
_atom_site_fract_x
_atom_site_fract_y
_atom_site_fract_z
Si Si1 0.682730 0.081232 0.051180
Si Si2 0.105610 0.793653 0.215602
Si Si3 0.891159 0.416172 0.478245
Si Si4 0.395800 0.828027 0.892778
Si Si5 0.201884 0.354044 0.268965
Si Si6 0.299504 0.083424 0.704481
Si Si7 0.100822 0.080614 0.787142
Si Si8 0.852247 0.178507 0.976074
O O1 0.679485 0.084202 0.181241
O O2 0.702235 0.000000 0.015801
O O3 0.591339 0.113689 0.991197
O O4 0.756798 0.135784 0.997435
O O5 0.144844 0.713769 0.225061
O O6 0.184376 0.843089 0.274842
O O7 0.000000 0.801399 0.267365
O O8 0.094002 0.814352 0.090066
O O9 0.883008 0.500000 0.455667
O O10 0.835585 0.374789 0.385448
O O11 0.840438 0.394096 0.588752
O O12 0.000000 0.391893 0.481296
O O13 0.500000 0.802918 0.859073
O O14 0.346864 0.866102 0.791921
O O15 0.336440 0.757820 0.927392
O O16 0.187117 0.099301 0.706641
O O17 0.322614 0.000000 0.728131
O O18 0.090639 0.131738 0.890532
O O19 0.000000 0.086997 0.724395
O O20 0.115457 0.000000 0.830973
#
# Coordination Sequence:
#
# PCOD8173487 Si02
#       8
#     8   8   8   8   8   8   8   8
#     4  11  22  36  57  87 122 158 196 248 306 354
#     4  10  20  36  57  84 122 161 199 240 299 364
#     4  10  21  40  64  85 111 153 201 249 306 369
#     4  12  23  35  57  88 121 156 195 243 301 366
#     4  10  21  36  60  87 115 153 200 253 297 350
#     4  10  22  39  59  84 118 155 197 251 309 364
#     4  10  20  35  58  86 117 158 205 247 289 349
#     4  11  21  37  56  84 121 167 201 236 290 362
#
# _framework density 19.534552999999999
#
# number of rings (size 3 to 8) (size 9 to 14) (size 15 to 20)
#    0.000    1.500    2.500    3.375    0.000    2.000 
#    0.000    3.125    0.000    9.000    0.000    0.000 
#    0.000    0.000    0.000    0.000    0.000    0.000 
#
# Total GULP energy -396510.541342 kJ/mol
# GULP energy per Si atom -12390.954417 kJ/mol
# Density = 1.949009 g / cm^3
# Si number density = 19.534553 Si / 1000 Ang^3
#
#
#
# Elastic Constant Matrix: (Units=GPa)
#
#
# Indices 1 2 3 4 5 6 
#
# 1 154.4970 44.1885 64.0666 0.0000 0.0000 0.0000
# 2 44.1885 106.0669 54.0822 0.0000 0.0000 0.0000
# 3 64.0666 54.0822 113.0416 0.0000 0.0000 0.0000
# 4 0.0000 0.0000 0.0000 26.2240 0.0000 0.0000
# 5 0.0000 0.0000 0.0000 0.0000 16.1539 0.0000
# 6 0.0000 0.0000 0.0000 0.0000 0.0000 9.7822
#
#
#
# Elastic Compliance Matrix: (Units=1/GPa)
#
#
# Indices 1 2 3 4 5 6 
#
# 1 0.008628 -0.001456 -0.004193 0.000000 0.000000 0.000000
# 2 -0.001456 0.012716 -0.005258 0.000000 0.000000 0.000000
# 3 -0.004193 -0.005258 0.013738 0.000000 0.000000 0.000000
# 4 0.000000 0.000000 0.000000 0.038133 0.000000 0.000000
# 5 0.000000 0.000000 0.000000 0.000000 0.061904 0.000000
# 6 0.000000 0.000000 0.000000 0.000000 0.000000 0.102227
#
#
# Mechanical properties :
#
#
# Convention : Reuss Voigt Hill
#
# Bulk Modulus (GPa) = 75.37636 77.58666 76.48151
# Shear Modulus (GPa) = 18.96925 24.51656 21.74291
#
# Velocity S-wave (km/s) = 3.11957 3.54649 3.33986
# Velocity P-wave (km/s) = 7.18648 7.52157 7.35593
#
# Compressibility (1/GPa) = 0.01326676
#
# Stress axis : x y z
#
# Youngs Moduli (GPa) = 115.90186 78.64198 72.78865
#
# Poissons Ratio (x) = 0.11454 0.30521
# Poissons Ratio (y) = 0.16881 0.38273
# Poissons Ratio (z) = 0.48599 0.41351
#
# Static dielectric constant tensor:
#      x y z
#    x 3.853970 0.000000 0.000000 
#    y 0.000000 3.558410 0.000000 
#    z 0.000000 0.000000 3.468360 
# 
# 
# High freq. dielectric constant tensor:
#      x y z
#    x 1.776260 0.000000 0.000000 
#    y 0.000000 1.760080 0.000000 
#    z 0.000000 0.000000 1.734620 
# 
# From -- ./inp_files/13199.got.cif
#   From: 2010.03.12/outbox.cif.g09.slc.cpg/sg35_7_cif.got.tgz:13199.got - 2010.04.14 02:02:04.
