data_PCOD8173970
_publ_section_title
;
Structure prediction by ZEFSAII (Michael W. Deem and Ramdas Pophale) SiO2 
 PCOD8173970
Probable space group: C M M 2
;
_chemical_formula_sum "Si O2"
_cell_formula_units_Z 32
_cell_length_a 19.603603
_cell_length_b 9.825790
_cell_length_c 7.389098
_cell_angle_alpha 90.000000
_cell_angle_beta 90.000000
_cell_angle_gamma 90.000000
_cell_volume 1423.294606
_symmetry_space_group_name_H-M "C M M 2"
_symmetry_group_IT_number 35
_symmetry_cell_setting 'orthorhombic'
loop_
_space_group_symop_operation_xyz
x,y,z
-x,-y,z
-x,y,z
x,-y,z
1/2+x,1/2+y,z
1/2-x,1/2-y,z
1/2-x,1/2+y,z
1/2+x,1/2-y,z
loop_
_atom_site_type_symbol
_atom_site_label
_atom_site_fract_x
_atom_site_fract_y
_atom_site_fract_z
Si Si1 0.000000 0.211126 0.746201
Si Si2 0.750000 0.250000 0.636296
Si Si3 0.641465 0.000000 0.041439
Si Si4 0.143935 0.792677 0.911090
Si Si5 0.778783 0.500000 0.412024
Si Si6 0.000000 0.500000 0.881344
Si Si7 0.859000 0.000000 0.219070
Si Si8 0.500000 0.500000 0.431909
O O1 0.932844 0.167602 0.855566
O O2 0.000000 0.137918 0.551642
O O3 0.000000 0.375252 0.738562
O O4 0.804181 0.161827 0.754262
O O5 0.793087 0.360237 0.520265
O O6 0.669605 0.000000 0.243975
O O7 0.664583 0.865310 0.935876
O O8 0.559735 0.000000 0.029581
O O9 0.155851 0.867039 0.099783
O O10 0.698214 0.500000 0.371313
O O11 0.933765 0.000000 0.305547
#
# Coordination Sequence:
#
# PCOD8173970 Si02
#       8
#     4   4   4   8   4   2   4   2
#     4  10  21  40  64  92 121 156 202 246 297 358
#     4  12  24  40  62  88 122 162 204 252 300 354
#     4  10  21  40  64  90 121 157 203 251 297 355
#     4  11  22  42  64  87 120 167 204 238 297 374
#     4  12  24  39  59  94 125 154 202 260 302 341
#     4   8  20  40  68  90 120 164 204 236 294 374
#     4  12  24  40  62  90 124 161 200 247 302 361
#     4  12  24  40  62  96 126 152 194 260 306 344
#
# _framework density 22.483049000000001
#
# number of rings (size 3 to 8) (size 9 to 14) (size 15 to 20)
#    0.000    1.000    0.000    7.500    0.000    0.000 
#    0.000    2.500    0.000    0.000    0.000    0.000 
#    0.000    0.000    0.000    0.000    0.000    0.000 
#
# Total GULP energy -198356.593674 kJ/mol
# GULP energy per Si atom -12397.287105 kJ/mol
# Density = 2.243188 g / cm^3
# Si number density = 22.483049 Si / 1000 Ang^3
#
#
#
# Elastic Constant Matrix: (Units=GPa)
#
#
# Indices 1 2 3 4 5 6 
#
# 1 116.2093 22.9615 53.9126 0.0000 0.0000 0.0000
# 2 22.9615 119.1160 44.6170 0.0000 0.0000 0.0000
# 3 53.9126 44.6170 124.5687 0.0000 0.0000 0.0000
# 4 0.0000 0.0000 0.0000 44.7243 0.0000 0.0000
# 5 0.0000 0.0000 0.0000 0.0000 53.7324 0.0000
# 6 0.0000 0.0000 0.0000 0.0000 0.0000 21.6695
#
#
#
# Elastic Compliance Matrix: (Units=1/GPa)
#
#
# Indices 1 2 3 4 5 6 
#
# 1 0.010782 -0.000382 -0.004530 0.000000 0.000000 0.000000
# 2 -0.000382 0.009710 -0.003312 0.000000 0.000000 0.000000
# 3 -0.004530 -0.003312 0.011175 0.000000 0.000000 0.000000
# 4 0.000000 0.000000 0.000000 0.022359 0.000000 0.000000
# 5 0.000000 0.000000 0.000000 0.000000 0.018611 0.000000
# 6 0.000000 0.000000 0.000000 0.000000 0.000000 0.046148
#
#
# Mechanical properties :
#
#
# Convention : Reuss Voigt Hill
#
# Bulk Modulus (GPa) = 65.71016 66.98622 66.34819
# Shear Modulus (GPa) = 35.63682 39.91877 37.77780
#
# Velocity S-wave (km/s) = 3.98559 4.21825 4.10357
# Velocity P-wave (km/s) = 7.10422 7.32008 7.21296
#
# Compressibility (1/GPa) = 0.01521835
#
# Stress axis : x y z
#
# Youngs Moduli (GPa) = 92.74702 102.99189 89.48916
#
# Poissons Ratio (x) = 0.03932 0.40536
# Poissons Ratio (y) = 0.03540 0.29643
# Poissons Ratio (z) = 0.42011 0.34116
#
# Static dielectric constant tensor:
#      x y z
#    x 4.082230 0.000000 0.000000 
#    y 0.000000 4.178620 0.000000 
#    z 0.000000 0.000000 3.885670 
# 
# 
# High freq. dielectric constant tensor:
#      x y z
#    x 1.897670 0.000000 0.000000 
#    y 0.000000 1.899550 0.000000 
#    z 0.000000 0.000000 1.879120 
# 
# From -- ./inp_files/1054.got.cif
#   From: 2010.03.12/outbox.cif.g09.slc.cpg/sg35_1_cif.got.tgz:1054.got - 2010.04.14 02:02:04.
