data_PCOD8173458
_publ_section_title
;
Structure prediction by ZEFSAII (Michael W. Deem and Ramdas Pophale) SiO2 
 PCOD8173458
Probable space group: C M M 2
;
_chemical_formula_sum "Si O2"
_cell_formula_units_Z 48
_cell_length_a 15.838094
_cell_length_b 8.612122
_cell_length_c 17.148884
_cell_angle_alpha 90.000000
_cell_angle_beta 90.000000
_cell_angle_gamma 90.000000
_cell_volume 2339.100880
_symmetry_space_group_name_H-M "C M M 2"
_symmetry_group_IT_number 35
_symmetry_cell_setting 'orthorhombic'
loop_
_space_group_symop_operation_xyz
x,y,z
-x,-y,z
-x,y,z
x,-y,z
1/2+x,1/2+y,z
1/2-x,1/2-y,z
1/2-x,1/2+y,z
1/2+x,1/2-y,z
loop_
_atom_site_type_symbol
_atom_site_label
_atom_site_fract_x
_atom_site_fract_y
_atom_site_fract_z
Si Si1 0.000000 0.815492 0.853890
Si Si2 0.660790 0.316654 0.752664
Si Si3 0.159426 0.314896 0.274025
Si Si4 0.162905 0.181556 0.578537
Si Si5 0.345168 0.684993 0.116918
Si Si6 0.000000 0.316680 0.022652
Si Si7 0.094813 0.330965 0.434834
O O1 0.916760 0.764122 0.806029
O O2 0.000000 0.000000 0.870328
O O3 0.000000 0.714734 0.930876
O O4 0.668883 0.500000 0.751494
O O5 0.750000 0.250000 0.783894
O O6 0.642136 0.252509 0.664754
O O7 0.152163 0.500000 0.275197
O O8 0.250000 0.250000 0.255087
O O9 0.111725 0.246623 0.198313
O O10 0.134114 0.246690 0.358694
O O11 0.250000 0.250000 0.546519
O O12 0.095598 0.229259 0.513227
O O13 0.167939 0.000000 0.583530
O O14 0.339091 0.500000 0.117284
O O15 0.250000 0.750000 0.099259
O O16 0.412988 0.740196 0.052988
O O17 0.000000 0.500000 0.039801
O O18 0.137789 0.500000 0.450156
O O19 0.000000 0.357946 0.409977
#
# Coordination Sequence:
#
# PCOD8173458 Si02
#       7
#     4   8   8   8   8   4   8
#     4  10  22  42  64  89 122 159 196 245 304 367
#     4   9  20  38  62  88 120 157 199 247 303 359
#     4  10  20  36  58  82 114 156 199 246 299 353
#     4  10  20  35  57  82 111 152 198 245 295 350
#     4  11  23  42  67  96 126 163 207 253 307 367
#     4  12  26  44  66  95 128 163 202 249 306 371
#     4  10  22  36  51  79 117 157 197 244 296 344
#
# _framework density 20.520707000000002
#
# number of rings (size 3 to 8) (size 9 to 14) (size 15 to 20)
#    0.000    1.833    0.000    4.750    2.333    5.000 
#    0.000    1.667    0.000    0.000    0.000    0.000 
#    0.000    0.000    0.000    0.000    0.000    0.000 
#
# Total GULP energy -297392.716358 kJ/mol
# GULP energy per Si atom -12391.363182 kJ/mol
# Density = 2.047400 g / cm^3
# Si number density = 20.520707 Si / 1000 Ang^3
#
#
#
# Elastic Constant Matrix: (Units=GPa)
#
#
# Indices 1 2 3 4 5 6 
#
# 1 106.6539 31.5919 60.5338 0.0000 0.0000 0.0000
# 2 31.5919 87.9460 39.8615 0.0000 0.0000 0.0000
# 3 60.5338 39.8615 138.8386 0.0000 0.0000 0.0000
# 4 0.0000 0.0000 0.0000 34.1461 0.0000 0.0000
# 5 0.0000 0.0000 0.0000 0.0000 35.8496 0.0000
# 6 0.0000 0.0000 0.0000 0.0000 0.0000 26.4717
#
#
#
# Elastic Compliance Matrix: (Units=1/GPa)
#
#
# Indices 1 2 3 4 5 6 
#
# 1 0.012883 -0.002393 -0.004930 0.000000 0.000000 0.000000
# 2 -0.002393 0.013516 -0.002837 0.000000 0.000000 0.000000
# 3 -0.004930 -0.002837 0.010167 0.000000 0.000000 0.000000
# 4 0.000000 0.000000 0.000000 0.029286 0.000000 0.000000
# 5 0.000000 0.000000 0.000000 0.000000 0.027894 0.000000
# 6 0.000000 0.000000 0.000000 0.000000 0.000000 0.037776
#
#
# Mechanical properties :
#
#
# Convention : Reuss Voigt Hill
#
# Bulk Modulus (GPa) = 61.55652 66.37922 63.96787
# Shear Modulus (GPa) = 31.79480 32.72355 32.25917
#
# Velocity S-wave (km/s) = 3.94051 3.99765 3.96919
# Velocity P-wave (km/s) = 7.12502 7.32980 7.22813
#
# Compressibility (1/GPa) = 0.01624523
#
# Stress axis : x y z
#
# Youngs Moduli (GPa) = 77.62076 73.98487 98.36127
#
# Poissons Ratio (x) = 0.17708 0.48491
# Poissons Ratio (y) = 0.18578 0.27906
# Poissons Ratio (z) = 0.38266 0.20990
#
# Static dielectric constant tensor:
#      x y z
#    x 3.721570 0.000000 0.000000 
#    y 0.000000 3.629290 0.000000 
#    z 0.000000 0.000000 3.944070 
# 
# 
# High freq. dielectric constant tensor:
#      x y z
#    x 1.798490 0.000000 0.000000 
#    y 0.000000 1.796700 0.000000 
#    z 0.000000 0.000000 1.812970 
# 
# From -- ./inp_files/15252.got.cif
#   From: 2010.03.12/outbox.cif.g09.slc.cpg/sg35_8_cif.got.tgz:15252.got - 2010.04.14 02:02:04.
