data_PCOD8173357
_publ_section_title
;
Structure prediction by ZEFSAII (Michael W. Deem and Ramdas Pophale) SiO2 
 PCOD8173357
Probable space group: C M M 2
;
_chemical_formula_sum "Si O2"
_cell_formula_units_Z 64
_cell_length_a 21.623767
_cell_length_b 16.193971
_cell_length_c 9.979116
_cell_angle_alpha 90.000000
_cell_angle_beta 90.000000
_cell_angle_gamma 90.000000
_cell_volume 3494.433510
_symmetry_space_group_name_H-M "C M M 2"
_symmetry_group_IT_number 35
_symmetry_cell_setting 'orthorhombic'
loop_
_space_group_symop_operation_xyz
x,y,z
-x,-y,z
-x,y,z
x,-y,z
1/2+x,1/2+y,z
1/2-x,1/2-y,z
1/2-x,1/2+y,z
1/2+x,1/2-y,z
loop_
_atom_site_type_symbol
_atom_site_label
_atom_site_fract_x
_atom_site_fract_y
_atom_site_fract_z
Si Si1 0.693311 0.813686 0.166270
Si Si2 0.203779 0.326484 0.460574
Si Si3 0.121969 0.796368 0.589896
Si Si4 0.771304 0.092136 0.681038
Si Si5 0.071386 0.908535 0.353583
Si Si6 0.931816 0.272880 0.842841
Si Si7 0.570428 0.284371 0.127339
Si Si8 0.672149 0.095202 0.902864
O O1 0.750000 0.750000 0.140684
O O2 0.700413 0.859251 0.308833
O O3 0.624845 0.774944 0.176721
O O4 0.693921 0.882753 0.052299
O O5 0.250000 0.250000 0.465974
O O6 0.139954 0.290734 0.521078
O O7 0.227458 0.402056 0.550262
O O8 0.176205 0.839034 0.675365
O O9 0.101853 0.856929 0.472133
O O10 0.071170 0.776409 0.702563
O O11 0.731423 0.111983 0.811676
O O12 0.799391 0.000000 0.687137
O O13 0.081841 0.870235 0.205582
O O14 0.000000 0.913563 0.388938
O O15 0.101036 0.000000 0.351351
O O16 0.883485 0.347460 0.852154
O O17 0.000000 0.312397 0.852890
O O18 0.922547 0.207653 0.965997
O O19 0.500000 0.252283 0.162352
O O20 0.650658 0.000000 0.896445
#
# Coordination Sequence:
#
# PCOD8173357 Si02
#       8
#     8   8   8   8   8   8   8   8
#     4  10  20  34  58  83 108 142 186 230 272 328
#     4   9  18  32  52  79 105 142 178 220 269 325
#     4  11  19  34  56  81 111 142 183 231 272 332
#     4  10  21  35  52  79 113 147 175 218 285 338
#     4  10  20  35  55  79 110 147 186 229 276 330
#     4  10  21  36  59  82 106 146 192 232 274 328
#     4   9  19  36  54  78 109 145 186 226 275 335
#     4  10  22  37  55  82 113 144 181 228 286 332
#
# _framework density 18.314843
#
# number of rings (size 3 to 8) (size 9 to 14) (size 15 to 20)
#    0.000    2.125    2.500    0.750    3.500    0.750 
#    0.000    1.875    0.000    3.000    0.000    0.000 
#    0.000    0.000    0.000    0.000    0.000    0.000 
#
# Total GULP energy -396541.096497 kJ/mol
# GULP energy per Si atom -12391.909266 kJ/mol
# Density = 1.827316 g / cm^3
# Si number density = 18.314843 Si / 1000 Ang^3
#
#
#
# Elastic Constant Matrix: (Units=GPa)
#
#
# Indices 1 2 3 4 5 6 
#
# 1 65.8989 26.3417 26.4779 0.0000 0.0000 0.0000
# 2 26.3417 65.4721 35.8962 0.0000 0.0000 0.0000
# 3 26.4779 35.8962 115.6130 0.0000 0.0000 0.0000
# 4 0.0000 0.0000 0.0000 22.3092 0.0000 0.0000
# 5 0.0000 0.0000 0.0000 0.0000 26.3479 0.0000
# 6 0.0000 0.0000 0.0000 0.0000 0.0000 20.2654
#
#
#
# Elastic Compliance Matrix: (Units=1/GPa)
#
#
# Indices 1 2 3 4 5 6 
#
# 1 0.018591 -0.006201 -0.002332 0.000000 0.000000 0.000000
# 2 -0.006201 0.020475 -0.004937 0.000000 0.000000 0.000000
# 3 -0.002332 -0.004937 0.010717 0.000000 0.000000 0.000000
# 4 0.000000 0.000000 0.000000 0.044825 0.000000 0.000000
# 5 0.000000 0.000000 0.000000 0.000000 0.037954 0.000000
# 6 0.000000 0.000000 0.000000 0.000000 0.000000 0.049345
#
#
# Mechanical properties :
#
#
# Convention : Reuss Voigt Hill
#
# Bulk Modulus (GPa) = 43.77947 47.15729 45.46838
# Shear Modulus (GPa) = 23.09890 24.33574 23.71732
#
# Velocity S-wave (km/s) = 3.55521 3.64915 3.60248
# Velocity P-wave (km/s) = 6.38814 6.59993 6.49490
#
# Compressibility (1/GPa) = 0.02284176
#
# Stress axis : x y z
#
# Youngs Moduli (GPa) = 53.79073 48.83915 93.31292
#
# Poissons Ratio (x) = 0.30284 0.21764
# Poissons Ratio (y) = 0.33355 0.46070
# Poissons Ratio (z) = 0.12546 0.24113
#
# Static dielectric constant tensor:
#      x y z
#    x 3.480840 0.000000 0.000000 
#    y 0.000000 3.195110 0.000000 
#    z 0.000000 0.000000 3.642970 
# 
# 
# High freq. dielectric constant tensor:
#      x y z
#    x 1.710330 0.000000 0.000000 
#    y 0.000000 1.679330 0.000000 
#    z 0.000000 0.000000 1.729530 
# 
# From -- ./inp_files/9955.got.cif
#   From: 2010.03.12/outbox.cif.g09.slc.cpg/sg35_5_cif.got.tgz:9955.got - 2010.04.14 02:02:04.
