data_PCOD8173016
_publ_section_title
;
Structure prediction by ZEFSAII (Michael W. Deem and Ramdas Pophale) SiO2 
 PCOD8173016
Probable space group: C M M 2
;
_chemical_formula_sum "Si O2"
_cell_formula_units_Z 64
_cell_length_a 31.961064
_cell_length_b 9.306224
_cell_length_c 11.663490
_cell_angle_alpha 90.000000
_cell_angle_beta 90.000000
_cell_angle_gamma 90.000000
_cell_volume 3469.151386
_symmetry_space_group_name_H-M "C M M 2"
_symmetry_group_IT_number 35
_symmetry_cell_setting 'orthorhombic'
loop_
_space_group_symop_operation_xyz
x,y,z
-x,-y,z
-x,y,z
x,-y,z
1/2+x,1/2+y,z
1/2-x,1/2-y,z
1/2-x,1/2+y,z
1/2+x,1/2-y,z
loop_
_atom_site_type_symbol
_atom_site_label
_atom_site_fract_x
_atom_site_fract_y
_atom_site_fract_z
Si Si1 0.359656 0.835540 0.761780
Si Si2 0.952472 0.330006 0.156274
Si Si3 0.316878 0.163155 0.429834
Si Si4 0.951345 0.156245 0.377080
Si Si5 0.593521 0.157517 0.539249
Si Si6 0.206439 0.669623 0.170309
Si Si7 0.372337 0.831381 0.021892
Si Si8 0.789167 0.170037 0.640494
O O1 0.398744 0.824619 0.675195
O O2 0.327354 0.717917 0.718575
O O3 0.341873 0.000000 0.758348
O O4 0.372351 0.789119 0.888832
O O5 0.951202 0.500000 0.169840
O O6 0.938169 0.263549 0.276561
O O7 0.917105 0.272945 0.068129
O O8 0.000000 0.281485 0.120336
O O9 0.365375 0.176469 0.461134
O O10 0.308523 0.205983 0.298811
O O11 0.292214 0.274922 0.509464
O O12 0.301474 0.000000 0.455128
O O13 0.938678 0.221732 0.499625
O O14 0.000000 0.134070 0.378407
O O15 0.929775 0.000000 0.360214
O O16 0.574278 0.000000 0.516950
O O17 0.213872 0.500000 0.153321
O O18 0.250000 0.750000 0.141326
O O19 0.169199 0.728304 0.086783
O O20 0.371755 0.000000 0.041147
O O21 0.750000 0.250000 0.698202
O O22 0.784211 0.000000 0.642501
#
# Coordination Sequence:
#
# PCOD8173016 Si02
#       8
#     8   8   8   8   8   8   8   8
#     4   9  19  36  54  72  98 132 170 210 253 303
#     4   9  17  32  57  84 105 130 169 212 256 311
#     4   9  18  33  52  75 102 130 163 208 262 313
#     4  10  20  32  48  74 107 137 164 200 249 305
#     4   9  17  31  52  75  98 127 165 209 257 307
#     4  10  20  33  50  73 104 138 170 206 250 302
#     4   9  18  35  56  76 102 136 170 211 260 301
#     4  11  21  33  51  74 100 131 170 214 258 303
#
# _framework density 18.448315000000001
#
# number of rings (size 3 to 8) (size 9 to 14) (size 15 to 20)
#    0.000    2.500    0.000    3.375    0.000    6.750 
#    0.000    5.000    0.000    2.250    0.000    1.750 
#    0.000    0.000    0.000    0.000    0.000    0.000 
#
# Total GULP energy -396590.382100 kJ/mol
# GULP energy per Si atom -12393.449441 kJ/mol
# Density = 1.840633 g / cm^3
# Si number density = 18.448315 Si / 1000 Ang^3
#
#
#
# Elastic Constant Matrix: (Units=GPa)
#
#
# Indices 1 2 3 4 5 6 
#
# 1 62.0239 32.5511 64.0539 0.0000 0.0000 0.0000
# 2 32.5511 86.5108 41.8558 0.0000 0.0000 0.0000
# 3 64.0539 41.8558 131.1535 0.0000 0.0000 0.0000
# 4 0.0000 0.0000 0.0000 -12.4970 0.0000 0.0000
# 5 0.0000 0.0000 0.0000 0.0000 12.3089 0.0000
# 6 0.0000 0.0000 0.0000 0.0000 0.0000 26.1696
#
#
#
# Elastic Compliance Matrix: (Units=1/GPa)
#
#
# Indices 1 2 3 4 5 6 
#
# 1 0.034799 -0.005760 -0.015157 0.000000 0.000000 0.000000
# 2 -0.005760 0.014623 -0.001854 0.000000 0.000000 0.000000
# 3 -0.015157 -0.001854 0.015619 0.000000 0.000000 0.000000
# 4 0.000000 0.000000 0.000000 -0.080019 0.000000 0.000000
# 5 0.000000 0.000000 0.000000 0.000000 0.081242 0.000000
# 6 0.000000 0.000000 0.000000 0.000000 0.000000 0.038212
#
#
# Mechanical properties :
#
#
# Convention : Reuss Voigt Hill
#
# Bulk Modulus (GPa) = 51.28417 61.84554 56.56485
# Shear Modulus (GPa) = 31.94514 14.61147 23.27831
#
# Velocity S-wave (km/s) = 4.16577 2.81734 3.55605
# Velocity P-wave (km/s) = 7.14124 6.64678 6.89844
#
# Compressibility (1/GPa) = 0.01949919
#
# Stress axis : x y z
#
# Youngs Moduli (GPa) = 28.73629 68.38320 64.02540
#
# Poissons Ratio (x) = 0.39391 0.97045
# Poissons Ratio (y) = 0.16553 0.11868
# Poissons Ratio (z) = 0.43556 0.12675
#
# Static dielectric constant tensor:
#      x y z
#    x 3.465980 0.000000 0.000000 
#    y 0.000000 3.360540 0.000000 
#    z 0.000000 0.000000 3.402560 
# 
# 
# High freq. dielectric constant tensor:
#      x y z
#    x 1.710590 0.000000 0.000000 
#    y 0.000000 1.700370 0.000000 
#    z 0.000000 0.000000 1.707480 
# 
# From -- ./inp_files/14541.got.cif
#   From: 2010.03.12/outbox.cif.g09.slc.cpg/sg35_8_cif.got.tgz:14541.got - 2010.04.14 02:02:04.
