data_PCOD8173829
_publ_section_title
;
Structure prediction by ZEFSAII (Michael W. Deem and Ramdas Pophale) SiO2 
 PCOD8173829
Probable space group: C M M 2
;
_chemical_formula_sum "Si O2"
_cell_formula_units_Z 64
_cell_length_a 9.013990
_cell_length_b 29.387360
_cell_length_c 12.189951
_cell_angle_alpha 90.000000
_cell_angle_beta 90.000000
_cell_angle_gamma 90.000000
_cell_volume 3229.085950
_symmetry_space_group_name_H-M "C M M 2"
_symmetry_group_IT_number 35
_symmetry_cell_setting 'orthorhombic'
loop_
_space_group_symop_operation_xyz
x,y,z
-x,-y,z
-x,y,z
x,-y,z
1/2+x,1/2+y,z
1/2-x,1/2-y,z
1/2-x,1/2+y,z
1/2+x,1/2-y,z
loop_
_atom_site_type_symbol
_atom_site_label
_atom_site_fract_x
_atom_site_fract_y
_atom_site_fract_z
Si Si1 0.675862 0.378975 0.475240
Si Si2 0.672819 0.298071 0.322186
Si Si3 0.671627 0.877794 0.706871
Si Si4 0.827478 0.701804 0.872036
Si Si5 0.336515 0.553820 0.108079
Si Si6 0.173483 0.201482 0.079772
Si Si7 0.330597 0.946244 0.320702
Si Si8 0.672959 0.553066 0.863464
O O1 0.500000 0.382077 0.475383
O O2 0.732534 0.334664 0.409007
O O3 0.733576 0.375521 0.597501
O O4 0.737763 0.424246 0.418563
O O5 0.500000 0.288725 0.337324
O O6 0.750000 0.250000 0.342677
O O7 0.704306 0.319190 0.200459
O O8 0.500000 0.885700 0.678257
O O9 0.697153 0.830203 0.767893
O O10 0.725844 0.919787 0.779496
O O11 0.750000 0.750000 0.846380
O O12 0.000000 0.709921 0.896291
O O13 0.752388 0.675832 0.977653
O O14 0.500000 0.575375 0.129342
O O15 0.350966 0.500000 0.112389
O O16 0.226436 0.571510 0.202217
O O17 0.280130 0.567805 0.987175
O O18 0.250000 0.250000 0.077602
O O19 0.000000 0.205302 0.055522
O O20 0.500000 0.931183 0.331736
O O21 0.310239 0.000000 0.331481
O O22 0.500000 0.564102 0.844202
O O23 0.704359 0.500000 0.844097
#
# Coordination Sequence:
#
# PCOD8173829 Si02
#       8
#     8   8   8   8   8   8   8   8
#     4  11  24  41  59  80 108 146 194 236 274 329
#     4   9  20  37  58  85 113 143 179 223 275 329
#     4  11  25  41  56  80 112 146 189 236 281 331
#     4  10  21  37  57  82 112 145 182 224 273 328
#     4   8  15  31  56  85 115 145 180 222 270 330
#     4   9  16  30  54  83 113 141 174 218 270 329
#     4  10  21  37  58  85 116 148 183 227 280 331
#     4   9  19  37  61  87 114 147 186 227 274 329
#
# _framework density 19.819851
#
# number of rings (size 3 to 8) (size 9 to 14) (size 15 to 20)
#    0.000    2.375    0.000    3.375    0.000    7.000 
#    0.000    7.500    0.000    0.000    0.000    0.000 
#    0.000    0.000    0.000    0.000    0.000    0.000 
#
# Total GULP energy -396698.741890 kJ/mol
# GULP energy per Si atom -12396.835684 kJ/mol
# Density = 1.977474 g / cm^3
# Si number density = 19.819851 Si / 1000 Ang^3
#
#
#
# Elastic Constant Matrix: (Units=GPa)
#
#
# Indices 1 2 3 4 5 6 
#
# 1 113.9006 46.7442 68.2342 0.0000 0.0000 0.0000
# 2 46.7442 66.7109 45.7368 0.0000 0.0000 0.0000
# 3 68.2342 45.7368 149.2167 0.0000 0.0000 0.0000
# 4 0.0000 0.0000 0.0000 -11.7796 0.0000 0.0000
# 5 0.0000 0.0000 0.0000 0.0000 33.7516 0.0000
# 6 0.0000 0.0000 0.0000 0.0000 0.0000 21.9458
#
#
#
# Elastic Compliance Matrix: (Units=1/GPa)
#
#
# Indices 1 2 3 4 5 6 
#
# 1 0.014278 -0.006999 -0.004384 0.000000 0.000000 0.000000
# 2 -0.006999 0.022409 -0.003668 0.000000 0.000000 0.000000
# 3 -0.004384 -0.003668 0.009831 0.000000 0.000000 0.000000
# 4 0.000000 0.000000 0.000000 -0.084892 0.000000 0.000000
# 5 0.000000 0.000000 0.000000 0.000000 0.029628 0.000000
# 6 0.000000 0.000000 0.000000 0.000000 0.000000 0.045567
#
#
# Mechanical properties :
#
#
# Convention : Reuss Voigt Hill
#
# Bulk Modulus (GPa) = 60.91684 72.36205 66.63945
# Shear Modulus (GPa) = 69.06550 20.05775 44.56162
#
# Velocity S-wave (km/s) = 5.90951 3.18465 4.74680
# Velocity P-wave (km/s) = 8.79574 7.07897 7.98363
#
# Compressibility (1/GPa) = 0.01641582
#
# Stress axis : x y z
#
# Youngs Moduli (GPa) = 70.03679 44.62453 101.72271
#
# Poissons Ratio (x) = 0.31233 0.44594
# Poissons Ratio (y) = 0.49020 0.37313
# Poissons Ratio (z) = 0.30703 0.16369
#
# Static dielectric constant tensor:
#      x y z
#    x 3.751510 0.000000 0.000000 
#    y 0.000000 3.565370 0.000000 
#    z 0.000000 0.000000 4.033960 
# 
# 
# High freq. dielectric constant tensor:
#      x y z
#    x 1.776910 0.000000 0.000000 
#    y 0.000000 1.762240 0.000000 
#    z 0.000000 0.000000 1.780110 
# 
# From -- ./inp_files/12021.got.cif
#   From: 2010.03.12/outbox.cif.g09.slc.cpg/sg35_7_cif.got.tgz:12021.got - 2010.04.14 02:02:04.
