data_PCOD8173336
_publ_section_title
;
Structure prediction by ZEFSAII (Michael W. Deem and Ramdas Pophale) SiO2 
 PCOD8173336
Probable space group: C M M 2
;
_chemical_formula_sum "Si O2"
_cell_formula_units_Z 56
_cell_length_a 21.572256
_cell_length_b 8.812423
_cell_length_c 14.616078
_cell_angle_alpha 90.000000
_cell_angle_beta 90.000000
_cell_angle_gamma 90.000000
_cell_volume 2778.572626
_symmetry_space_group_name_H-M "C M M 2"
_symmetry_group_IT_number 35
_symmetry_cell_setting 'orthorhombic'
loop_
_space_group_symop_operation_xyz
x,y,z
-x,-y,z
-x,y,z
x,-y,z
1/2+x,1/2+y,z
1/2-x,1/2-y,z
1/2-x,1/2+y,z
1/2+x,1/2-y,z
loop_
_atom_site_type_symbol
_atom_site_label
_atom_site_fract_x
_atom_site_fract_y
_atom_site_fract_z
Si Si1 0.500000 0.673288 0.158260
Si Si2 0.123579 0.822567 0.364566
Si Si3 0.120355 0.823785 0.040130
Si Si4 0.428771 0.177241 0.864788
Si Si5 0.570237 0.320024 0.670823
Si Si6 0.185194 0.176474 0.549189
Si Si7 0.000000 0.678772 0.351374
Si Si8 0.313350 0.179313 0.198184
O O1 0.500000 0.500000 0.194322
O O2 0.441986 0.707868 0.094885
O O3 0.500000 0.786392 0.243216
O O4 0.175434 0.790751 0.441344
O O5 0.058724 0.755989 0.400921
O O6 0.135506 0.736176 0.269734
O O7 0.117196 0.000000 0.343403
O O8 0.174466 0.739499 0.095883
O O9 0.136769 0.000000 0.031869
O O10 0.115643 0.753875 0.939429
O O11 0.500000 0.211043 0.890483
O O12 0.412254 0.248954 0.767810
O O13 0.414704 0.000000 0.861285
O O14 0.500000 0.268699 0.640805
O O15 0.571941 0.500000 0.679211
O O16 0.623955 0.261152 0.601822
O O17 0.250000 0.250000 0.581674
O O18 0.191545 0.000000 0.569220
O O19 0.000000 0.500000 0.367940
O O20 0.250000 0.250000 0.234814
O O21 0.310210 0.000000 0.198664
#
# Coordination Sequence:
#
# PCOD8173336 Si02
#       8
#     4   8   8   8   8   8   4   8
#     4  10  20  34  56  83 116 153 192 233 286 346
#     4  11  23  40  62  87 120 160 202 247 302 362
#     4  11  21  36  59  86 117 156 198 240 290 348
#     4  10  20  34  56  88 123 154 190 241 303 359
#     4   9  19  38  63  89 118 154 201 249 304 369
#     4  10  23  41  65  91 118 158 202 252 306 365
#     4  12  24  36  56  89 124 159 198 249 306 354
#     4  12  25  41  59  82 116 158 205 251 299 354
#
# _framework density 20.154232
#
# number of rings (size 3 to 8) (size 9 to 14) (size 15 to 20)
#    0.000    1.429    2.143    3.643    1.000    4.000 
#    0.000    0.714    0.000    1.714    0.000    0.000 
#    0.000    0.000    0.000    0.000    0.000    0.000 
#
# Total GULP energy -347231.133289 kJ/mol
# GULP energy per Si atom -12401.111903 kJ/mol
# Density = 2.010836 g / cm^3
# Si number density = 20.154232 Si / 1000 Ang^3
#
#
#
# Elastic Constant Matrix: (Units=GPa)
#
#
# Indices 1 2 3 4 5 6 
#
# 1 113.9431 44.4163 43.8201 0.0000 0.0000 0.0000
# 2 44.4163 40.2179 30.0066 0.0000 0.0000 0.0000
# 3 43.8201 30.0066 94.3103 0.0000 0.0000 0.0000
# 4 0.0000 0.0000 0.0000 25.9126 0.0000 0.0000
# 5 0.0000 0.0000 0.0000 0.0000 18.5071 0.0000
# 6 0.0000 0.0000 0.0000 0.0000 0.0000 33.3411
#
#
#
# Elastic Compliance Matrix: (Units=1/GPa)
#
#
# Indices 1 2 3 4 5 6 
#
# 1 0.015797 -0.015696 -0.002346 0.000000 0.000000 0.000000
# 2 -0.015696 0.048199 -0.008043 0.000000 0.000000 0.000000
# 3 -0.002346 -0.008043 0.014252 0.000000 0.000000 0.000000
# 4 0.000000 0.000000 0.000000 0.038591 0.000000 0.000000
# 5 0.000000 0.000000 0.000000 0.000000 0.054033 0.000000
# 6 0.000000 0.000000 0.000000 0.000000 0.000000 0.029993
#
#
# Mechanical properties :
#
#
# Convention : Reuss Voigt Hill
#
# Bulk Modulus (GPa) = 38.34384 53.88416 46.11400
# Shear Modulus (GPa) = 19.10381 24.23404 21.66892
#
# Velocity S-wave (km/s) = 3.08211 3.47137 3.28251
# Velocity P-wave (km/s) = 5.63315 6.54684 6.10711
#
# Compressibility (1/GPa) = 0.02607981
#
# Stress axis : x y z
#
# Youngs Moduli (GPa) = 63.30390 20.74720 70.16425
#
# Poissons Ratio (x) = 0.32564 0.16460
# Poissons Ratio (y) = 0.99359 0.56432
# Poissons Ratio (z) = 0.14851 0.16687
#
# Static dielectric constant tensor:
#      x y z
#    x 3.905670 0.000000 0.000000 
#    y 0.000000 3.561910 0.000000 
#    z 0.000000 0.000000 3.572940 
# 
# 
# High freq. dielectric constant tensor:
#      x y z
#    x 1.784870 0.000000 0.000000 
#    y 0.000000 1.786920 0.000000 
#    z 0.000000 0.000000 1.782320 
# 
# From -- ./inp_files/17464.got.cif
#   From: 2010.03.12/outbox.cif.g09.slc.cpg/sg35_9_cif.got.tgz:17464.got - 2010.04.14 02:02:04.
