data_PCOD8173849
_publ_section_title
;
Structure prediction by ZEFSAII (Michael W. Deem and Ramdas Pophale) SiO2 
 PCOD8173849
Probable space group: C M M 2
;
_chemical_formula_sum "Si O2"
_cell_formula_units_Z 64
_cell_length_a 14.510159
_cell_length_b 17.338429
_cell_length_c 12.106649
_cell_angle_alpha 90.000000
_cell_angle_beta 90.000000
_cell_angle_gamma 90.000000
_cell_volume 3045.831453
_symmetry_space_group_name_H-M "C M M 2"
_symmetry_group_IT_number 35
_symmetry_cell_setting 'orthorhombic'
loop_
_space_group_symop_operation_xyz
x,y,z
-x,-y,z
-x,y,z
x,-y,z
1/2+x,1/2+y,z
1/2-x,1/2-y,z
1/2-x,1/2+y,z
1/2+x,1/2-y,z
loop_
_atom_site_type_symbol
_atom_site_label
_atom_site_fract_x
_atom_site_fract_y
_atom_site_fract_z
Si Si1 0.867420 0.414230 0.071460
Si Si2 0.599339 0.909795 0.830381
Si Si3 0.107754 0.090352 0.591649
Si Si4 0.663247 0.412828 0.008922
Si Si5 0.102184 0.149136 0.224129
Si Si6 0.719364 0.337720 0.783366
Si Si7 0.263437 0.412817 0.387689
Si Si8 0.897098 0.320228 0.286994
O O1 0.908897 0.500000 0.083331
O O2 0.758115 0.417010 0.074702
O O3 0.904502 0.365598 0.172651
O O4 0.898663 0.375656 0.955087
O O5 0.500000 0.888938 0.775658
O O6 0.684196 0.880831 0.756759
O O7 0.613741 0.000000 0.842335
O O8 0.144169 0.143951 0.690437
O O9 0.171047 0.113979 0.487930
O O10 0.000000 0.109382 0.568724
O O11 0.119527 0.000000 0.620867
O O12 0.627170 0.500000 0.983597
O O13 0.597002 0.366180 0.092159
O O14 0.672299 0.365265 0.896343
O O15 0.172986 0.089508 0.279040
O O16 0.136760 0.234685 0.255517
O O17 0.000000 0.135397 0.271772
O O18 0.750000 0.250000 0.789832
O O19 0.227659 0.500000 0.404070
O O20 0.173869 0.358078 0.374538
O O21 0.000000 0.319505 0.339890
#
# Coordination Sequence:
#
# PCOD8173849 Si02
#       8
#     8   8   8   8   8   8   8   8
#     4   9  17  31  53  81 114 160 206 242 285 349
#     4   9  18  34  57  83 116 160 204 244 290 355
#     4  10  23  46  71  90 115 161 218 265 309 372
#     4  10  21  37  58  87 126 170 210 253 299 357
#     4  11  24  38  58  91 127 166 205 253 318 374
#     4  11  24  38  62  95 127 161 200 258 323 377
#     4  11  23  41  66  89 116 159 212 266 311 367
#     4  11  23  36  56  89 129 166 198 246 314 379
#
# _framework density 21.012326000000002
#
# number of rings (size 3 to 8) (size 9 to 14) (size 15 to 20)
#    0.000    1.750    1.250    3.750    3.500    5.000 
#    0.000    0.625    0.000    0.750    0.000    0.000 
#    0.000    0.000    0.000    0.000    0.000    0.000 
#
# Total GULP energy -396640.870150 kJ/mol
# GULP energy per Si atom -12395.027192 kJ/mol
# Density = 2.096450 g / cm^3
# Si number density = 21.012326 Si / 1000 Ang^3
#
#
#
# Elastic Constant Matrix: (Units=GPa)
#
#
# Indices 1 2 3 4 5 6 
#
# 1 120.1898 39.2870 44.4726 0.0000 0.0000 0.0000
# 2 39.2870 97.6475 42.5432 0.0000 0.0000 0.0000
# 3 44.4726 42.5432 97.2923 0.0000 0.0000 0.0000
# 4 0.0000 0.0000 0.0000 21.0740 0.0000 0.0000
# 5 0.0000 0.0000 0.0000 0.0000 22.8692 0.0000
# 6 0.0000 0.0000 0.0000 0.0000 0.0000 20.8494
#
#
#
# Elastic Compliance Matrix: (Units=1/GPa)
#
#
# Indices 1 2 3 4 5 6 
#
# 1 0.010539 -0.002645 -0.003661 0.000000 0.000000 0.000000
# 2 -0.002645 0.013315 -0.004613 0.000000 0.000000 0.000000
# 3 -0.003661 -0.004613 0.013969 0.000000 0.000000 0.000000
# 4 0.000000 0.000000 0.000000 0.047452 0.000000 0.000000
# 5 0.000000 0.000000 0.000000 0.000000 0.043727 0.000000
# 6 0.000000 0.000000 0.000000 0.000000 0.000000 0.047963
#
#
# Mechanical properties :
#
#
# Convention : Reuss Voigt Hill
#
# Bulk Modulus (GPa) = 62.55982 63.08169 62.82076
# Shear Modulus (GPa) = 24.49391 25.54697 25.02044
#
# Velocity S-wave (km/s) = 3.41793 3.49063 3.45447
# Velocity P-wave (km/s) = 6.73898 6.80679 6.77297
#
# Compressibility (1/GPa) = 0.01598470
#
# Stress axis : x y z
#
# Youngs Moduli (GPa) = 94.88134 75.10272 71.58777
#
# Poissons Ratio (x) = 0.19868 0.26207
# Poissons Ratio (y) = 0.25100 0.33024
# Poissons Ratio (z) = 0.34735 0.34646
#
# Static dielectric constant tensor:
#      x y z
#    x 3.951130 0.000000 0.000000 
#    y 0.000000 3.759240 0.000000 
#    z 0.000000 0.000000 3.547060 
# 
# 
# High freq. dielectric constant tensor:
#      x y z
#    x 1.834480 0.000000 0.000000 
#    y 0.000000 1.815530 0.000000 
#    z 0.000000 0.000000 1.797090 
# 
# From -- ./inp_files/13228.got.cif
#   From: 2010.03.12/outbox.cif.g09.slc.cpg/sg35_7_cif.got.tgz:13228.got - 2010.04.14 02:02:04.
