data_PCOD8173824
_publ_section_title
;
Structure prediction by ZEFSAII (Michael W. Deem and Ramdas Pophale) SiO2 
 PCOD8173824
Probable space group: C M M 2
;
_chemical_formula_sum "Si O2"
_cell_formula_units_Z 64
_cell_length_a 14.525202
_cell_length_b 26.299470
_cell_length_c 9.890959
_cell_angle_alpha 90.000000
_cell_angle_beta 90.000000
_cell_angle_gamma 90.000000
_cell_volume 3778.396923
_symmetry_space_group_name_H-M "C M M 2"
_symmetry_group_IT_number 35
_symmetry_cell_setting 'orthorhombic'
loop_
_space_group_symop_operation_xyz
x,y,z
-x,-y,z
-x,y,z
x,-y,z
1/2+x,1/2+y,z
1/2-x,1/2-y,z
1/2-x,1/2+y,z
1/2+x,1/2-y,z
loop_
_atom_site_type_symbol
_atom_site_label
_atom_site_fract_x
_atom_site_fract_y
_atom_site_fract_z
Si Si1 0.211712 0.131101 0.959400
Si Si2 0.154751 0.770233 0.578931
Si Si3 0.900731 0.774615 0.865957
Si Si4 0.393913 0.440667 0.764421
Si Si5 0.393480 0.754549 0.286212
Si Si6 0.892703 0.142771 0.218733
Si Si7 0.105183 0.877988 0.509174
Si Si8 0.106845 0.677189 0.044698
O O1 0.177833 0.184802 0.899659
O O2 0.183058 0.087299 0.854282
O O3 0.161168 0.116293 0.097871
O O4 0.321880 0.133671 0.992020
O O5 0.250000 0.750000 0.634507
O O6 0.087944 0.762827 0.706257
O O7 0.127096 0.737631 0.445402
O O8 0.166558 0.829869 0.549033
O O9 0.000000 0.796438 0.914405
O O10 0.880403 0.722833 0.941427
O O11 0.500000 0.426610 0.805031
O O12 0.376294 0.500000 0.778813
O O13 0.376600 0.425411 0.607675
O O14 0.500000 0.749853 0.261385
O O15 0.352198 0.700291 0.238109
O O16 0.360084 0.801973 0.193353
O O17 0.873896 0.108507 0.352831
O O18 0.000000 0.143778 0.183462
O O19 0.000000 0.858442 0.519565
O O20 0.000000 0.657202 0.046727
#
# Coordination Sequence:
#
# PCOD8173824 Si02
#       8
#     8   8   8   8   8   8   8   8
#     4  12  20  31  54  73 102 135 172 210 261 308
#     4  11  20  26  44  71 100 135 178 209 238 285
#     4  11  20  31  45  70 104 140 172 205 247 300
#     4  10  21  37  57  79 101 128 166 216 268 315
#     4   9  18  31  43  63  99 139 173 208 239 278
#     4   9  17  28  47  74 100 135 173 203 238 295
#     4   9  18  33  48  67 101 138 171 203 248 303
#     4  10  22  34  46  69 105 140 175 207 245 296
#
# _framework density 16.938400000000001
#
# number of rings (size 3 to 8) (size 9 to 14) (size 15 to 20)
#    0.000    1.875    2.500    4.125    3.500    0.000 
#    0.000    0.625    0.000    2.625    0.000    0.000 
#    0.000    0.000    0.000    0.000    0.000    0.000 
#
# Total GULP energy -396486.815735 kJ/mol
# GULP energy per Si atom -12390.212992 kJ/mol
# Density = 1.689985 g / cm^3
# Si number density = 16.938400 Si / 1000 Ang^3
#
#
#
# Elastic Constant Matrix: (Units=GPa)
#
#
# Indices 1 2 3 4 5 6 
#
# 1 78.6366 31.6484 33.3563 0.0000 0.0000 0.0000
# 2 31.6484 50.9990 30.8841 0.0000 0.0000 0.0000
# 3 33.3563 30.8841 125.2520 0.0000 0.0000 0.0000
# 4 0.0000 0.0000 0.0000 15.0644 0.0000 0.0000
# 5 0.0000 0.0000 0.0000 0.0000 47.5817 0.0000
# 6 0.0000 0.0000 0.0000 0.0000 0.0000 14.0617
#
#
#
# Elastic Compliance Matrix: (Units=1/GPa)
#
#
# Indices 1 2 3 4 5 6 
#
# 1 0.017511 -0.009455 -0.002332 0.000000 0.000000 0.000000
# 2 -0.009455 0.028155 -0.004424 0.000000 0.000000 0.000000
# 3 -0.002332 -0.004424 0.009696 0.000000 0.000000 0.000000
# 4 0.000000 0.000000 0.000000 0.066382 0.000000 0.000000
# 5 0.000000 0.000000 0.000000 0.000000 0.021017 0.000000
# 6 0.000000 0.000000 0.000000 0.000000 0.000000 0.071115
#
#
# Mechanical properties :
#
#
# Convention : Reuss Voigt Hill
#
# Bulk Modulus (GPa) = 43.59281 49.62947 46.61114
# Shear Modulus (GPa) = 19.68938 25.94147 22.81543
#
# Velocity S-wave (km/s) = 3.41311 3.91771 3.67408
# Velocity P-wave (km/s) = 6.42841 7.05891 6.75102
#
# Compressibility (1/GPa) = 0.02293956
#
# Stress axis : x y z
#
# Youngs Moduli (GPa) = 57.10664 35.51802 103.13593
#
# Poissons Ratio (x) = 0.33581 0.24053
# Poissons Ratio (y) = 0.53992 0.45631
# Poissons Ratio (z) = 0.13318 0.15715
#
# Static dielectric constant tensor:
#      x y z
#    x 3.097510 0.000000 0.000000 
#    y 0.000000 2.724460 0.000000 
#    z 0.000000 0.000000 3.626640 
# 
# 
# High freq. dielectric constant tensor:
#      x y z
#    x 1.641290 0.000000 0.000000 
#    y 0.000000 1.585290 0.000000 
#    z 0.000000 0.000000 1.678950 
# 
# From -- ./inp_files/7997.got.cif
#   From: 2010.03.12/outbox.cif.g09.slc.cpg/sg35_4_cif.got.tgz:7997.got - 2010.04.14 02:02:04.
