data_PCOD8173757
_publ_section_title
;
Structure prediction by ZEFSAII (Michael W. Deem and Ramdas Pophale) SiO2 
 PCOD8173757
Probable space group: C M M 2
;
_chemical_formula_sum "Si O2"
_cell_formula_units_Z 64
_cell_length_a 30.399858
_cell_length_b 17.318949
_cell_length_c 5.590760
_cell_angle_alpha 90.000000
_cell_angle_beta 90.000000
_cell_angle_gamma 90.000000
_cell_volume 2943.499305
_symmetry_space_group_name_H-M "C M M 2"
_symmetry_group_IT_number 35
_symmetry_cell_setting 'orthorhombic'
loop_
_space_group_symop_operation_xyz
x,y,z
-x,-y,z
-x,y,z
x,-y,z
1/2+x,1/2+y,z
1/2-x,1/2-y,z
1/2-x,1/2+y,z
1/2+x,1/2-y,z
loop_
_atom_site_type_symbol
_atom_site_label
_atom_site_fract_x
_atom_site_fract_y
_atom_site_fract_z
Si Si1 0.674551 0.589175 0.246880
Si Si2 0.951068 0.085345 0.921218
Si Si3 0.658044 0.090658 0.558634
Si Si4 0.629370 0.158448 0.055939
Si Si5 0.395058 0.667603 0.559021
Si Si6 0.750843 0.828407 0.507205
Si Si7 0.180764 0.789110 0.876745
Si Si8 0.449857 0.741486 0.201723
O O1 0.669002 0.500000 0.208689
O O2 0.629947 0.624359 0.347271
O O3 0.718153 0.605218 0.403383
O O4 0.680330 0.626036 0.988980
O O5 0.916985 0.099817 0.709928
O O6 0.000000 0.086299 0.810946
O O7 0.941183 0.000000 0.033075
O O8 0.946818 0.153509 0.111314
O O9 0.633310 0.110874 0.307103
O O10 0.703815 0.137164 0.574584
O O11 0.667956 0.000000 0.553507
O O12 0.631915 0.108444 0.808372
O O13 0.581542 0.200711 0.053497
O O14 0.670749 0.219057 0.063093
O O15 0.360476 0.720423 0.698207
O O16 0.430784 0.730965 0.469174
O O17 0.750000 0.750000 0.336161
O O18 0.773601 0.787275 0.738903
O O19 0.500000 0.773075 0.200977
#
# Coordination Sequence:
#
# PCOD8173757 Si02
#       8
#     8   8   8   8   8   8   8   8
#     4  11  24  38  59  91 137 182 233 287 346 413
#     4  10  21  35  54  86 130 179 233 289 343 405
#     4  12  28  49  78 108 144 188 235 294 359 430
#     4  12  24  49  74 105 145 181 239 291 360 427
#     4  11  20  38  57  88 131 179 234 281 348 411
#     4  11  24  42  67  97 135 187 232 291 339 414
#     4  11  23  39  65  96 133 185 231 286 340 416
#     4  11  24  41  68 100 134 180 239 296 359 434
#
# _framework density 21.742829
#
# number of rings (size 3 to 8) (size 9 to 14) (size 15 to 20)
#    0.000    0.875    3.750    3.000    1.750    5.500 
#    0.000    1.250    0.000    2.250    0.000    0.000 
#    0.000    0.000    0.000    0.000    0.000    0.000 
#
# Total GULP energy -396440.328786 kJ/mol
# GULP energy per Si atom -12388.760275 kJ/mol
# Density = 2.169334 g / cm^3
# Si number density = 21.742829 Si / 1000 Ang^3
#
#
#
# Elastic Constant Matrix: (Units=GPa)
#
#
# Indices 1 2 3 4 5 6 
#
# 1 126.6703 28.6130 36.2689 0.0000 0.0000 0.0000
# 2 28.6130 104.0748 26.4033 0.0000 0.0000 0.0000
# 3 36.2689 26.4033 96.0535 0.0000 0.0000 0.0000
# 4 0.0000 0.0000 0.0000 33.6654 0.0000 0.0000
# 5 0.0000 0.0000 0.0000 0.0000 -12.4448 0.0000
# 6 0.0000 0.0000 0.0000 0.0000 0.0000 25.6399
#
#
#
# Elastic Compliance Matrix: (Units=1/GPa)
#
#
# Indices 1 2 3 4 5 6 
#
# 1 0.009142 -0.001760 -0.002968 0.000000 0.000000 0.000000
# 2 -0.001760 0.010668 -0.002268 0.000000 0.000000 0.000000
# 3 -0.002968 -0.002268 0.012155 0.000000 0.000000 0.000000
# 4 0.000000 0.000000 0.000000 0.029704 0.000000 0.000000
# 5 0.000000 0.000000 0.000000 0.000000 -0.080355 0.000000
# 6 0.000000 0.000000 0.000000 0.000000 0.000000 0.039002
#
#
# Mechanical properties :
#
#
# Convention : Reuss Voigt Hill
#
# Bulk Modulus (GPa) = 55.64065 56.59654 56.11860
# Shear Modulus (GPa) = 124.07389 25.07299 74.57344
#
# Velocity S-wave (km/s) = 7.56229 3.39951 5.86280
# Velocity P-wave (km/s) = 10.09439 6.44169 8.46735
#
# Compressibility (1/GPa) = 0.01797247
#
# Stress axis : x y z
#
# Youngs Moduli (GPa) = 109.38545 93.74044 82.27135
#
# Poissons Ratio (x) = 0.16502 0.24418
# Poissons Ratio (y) = 0.19256 0.18656
# Poissons Ratio (z) = 0.32466 0.21257
#
# Static dielectric constant tensor:
#      x y z
#    x 4.134930 0.000000 0.000000 
#    y 0.000000 4.054780 0.000000 
#    z 0.000000 0.000000 3.986790 
# 
# 
# High freq. dielectric constant tensor:
#      x y z
#    x 1.861600 0.000000 0.000000 
#    y 0.000000 1.844030 0.000000 
#    z 0.000000 0.000000 1.853630 
# 
# From -- ./inp_files/4077.got.cif
#   From: 2010.03.12/outbox.cif.g09.slc.cpg/sg35_3_cif.got.tgz:4077.got - 2010.04.14 02:02:04.
