data_PCOD8173597
_publ_section_title
;
Structure prediction by ZEFSAII (Michael W. Deem and Ramdas Pophale) SiO2 
 PCOD8173597
Probable space group: C M M 2
;
_chemical_formula_sum "Si O2"
_cell_formula_units_Z 40
_cell_length_a 8.633089
_cell_length_b 18.251417
_cell_length_c 12.649063
_cell_angle_alpha 90.000000
_cell_angle_beta 90.000000
_cell_angle_gamma 90.000000
_cell_volume 1993.063618
_symmetry_space_group_name_H-M "C M M 2"
_symmetry_group_IT_number 35
_symmetry_cell_setting 'orthorhombic'
loop_
_space_group_symop_operation_xyz
x,y,z
-x,-y,z
-x,y,z
x,-y,z
1/2+x,1/2+y,z
1/2-x,1/2-y,z
1/2-x,1/2+y,z
1/2+x,1/2-y,z
loop_
_atom_site_type_symbol
_atom_site_label
_atom_site_fract_x
_atom_site_fract_y
_atom_site_fract_z
Si Si1 0.678324 0.585211 0.161860
Si Si2 0.817860 0.328562 0.732443
Si Si3 0.819091 0.084393 0.545202
Si Si4 0.680464 0.673129 0.955556
Si Si5 0.818796 0.670094 0.349766
O O1 0.500000 0.601400 0.192798
O O2 0.716084 0.500000 0.166001
O O3 0.790968 0.625487 0.242724
O O4 0.713962 0.612554 0.043869
O O5 0.750000 0.250000 0.698441
O O6 0.769035 0.390214 0.649772
O O7 0.758852 0.353435 0.847322
O O8 0.000000 0.321097 0.734815
O O9 0.766098 0.130941 0.445685
O O10 0.000000 0.096333 0.563314
O O11 0.778069 0.000000 0.523338
O O12 0.500000 0.684123 0.933795
O O13 0.750000 0.750000 0.994863
O O14 0.750000 0.750000 0.334282
O O15 0.000000 0.674650 0.374131
#
# Coordination Sequence:
#
# PCOD8173597 Si02
#       5
#     8   8   8   8   8
#     4  10  22  40  61  87 121 158 195 239 293 350
#     4  11  22  38  61  88 120 156 198 245 291 344
#     4  11  24  42  63  87 119 156 193 238 294 352
#     4  10  20  36  59  86 117 156 201 245 291 344
#     4  12  25  41  63  89 118 153 196 243 291 347
#
# _framework density 20.069604999999999
#
# number of rings (size 3 to 8) (size 9 to 14) (size 15 to 20)
#    0.000    1.200    0.000    7.800    0.000    8.400 
#    0.000    2.000    0.000    0.000    0.000    0.000 
#    0.000    0.000    0.000    0.000    0.000    0.000 
#
# Total GULP energy -248135.121614 kJ/mol
# GULP energy per Si atom -12406.756081 kJ/mol
# Density = 2.002393 g / cm^3
# Si number density = 20.069605 Si / 1000 Ang^3
#
#
#
# Elastic Constant Matrix: (Units=GPa)
#
#
# Indices 1 2 3 4 5 6 
#
# 1 111.9752 36.1673 41.9282 0.0000 0.0000 0.0000
# 2 36.1673 113.2738 60.7599 0.0000 0.0000 0.0000
# 3 41.9282 60.7599 110.7438 0.0000 0.0000 0.0000
# 4 0.0000 0.0000 0.0000 9.9222 0.0000 0.0000
# 5 0.0000 0.0000 0.0000 0.0000 36.4032 0.0000
# 6 0.0000 0.0000 0.0000 0.0000 0.0000 17.1873
#
#
#
# Elastic Compliance Matrix: (Units=1/GPa)
#
#
# Indices 1 2 3 4 5 6 
#
# 1 0.010646 -0.001753 -0.003069 0.000000 0.000000 0.000000
# 2 -0.001753 0.012798 -0.006358 0.000000 0.000000 0.000000
# 3 -0.003069 -0.006358 0.013680 0.000000 0.000000 0.000000
# 4 0.000000 0.000000 0.000000 0.100784 0.000000 0.000000
# 5 0.000000 0.000000 0.000000 0.000000 0.027470 0.000000
# 6 0.000000 0.000000 0.000000 0.000000 0.000000 0.058183
#
#
# Mechanical properties :
#
#
# Convention : Reuss Voigt Hill
#
# Bulk Modulus (GPa) = 67.73037 68.18930 67.95983
# Shear Modulus (GPa) = 19.93284 25.84503 22.88894
#
# Velocity S-wave (km/s) = 3.15490 3.59244 3.38076
# Velocity P-wave (km/s) = 6.86238 7.15945 7.01249
#
# Compressibility (1/GPa) = 0.01476443
#
# Stress axis : x y z
#
# Youngs Moduli (GPa) = 93.93333 78.13473 73.09869
#
# Poissons Ratio (x) = 0.13697 0.22432
# Poissons Ratio (y) = 0.16467 0.46477
# Poissons Ratio (z) = 0.28826 0.49679
#
# Static dielectric constant tensor:
#      x y z
#    x 3.710690 0.000000 0.000000 
#    y 0.000000 3.689440 0.000000 
#    z 0.000000 0.000000 3.762310 
# 
# 
# High freq. dielectric constant tensor:
#      x y z
#    x 1.795780 0.000000 0.000000 
#    y 0.000000 1.787520 0.000000 
#    z 0.000000 0.000000 1.797620 
# 
# From -- ./inp_files/11009.got.cif
#   From: 2010.03.12/outbox.cif.g09.slc.cpg/sg35_6_cif.got.tgz:11009.got - 2010.04.14 02:02:04.
