data_PCOD8173311
_publ_section_title
;
Structure prediction by ZEFSAII (Michael W. Deem and Ramdas Pophale) SiO2 
 PCOD8173311
Probable space group: C M M 2
;
_chemical_formula_sum "Si O2"
_cell_formula_units_Z 48
_cell_length_a 10.148287
_cell_length_b 17.966284
_cell_length_c 13.884906
_cell_angle_alpha 90.000000
_cell_angle_beta 90.000000
_cell_angle_gamma 90.000000
_cell_volume 2531.593345
_symmetry_space_group_name_H-M "C M M 2"
_symmetry_group_IT_number 35
_symmetry_cell_setting 'orthorhombic'
loop_
_space_group_symop_operation_xyz
x,y,z
-x,-y,z
-x,y,z
x,-y,z
1/2+x,1/2+y,z
1/2-x,1/2-y,z
1/2-x,1/2+y,z
1/2+x,1/2-y,z
loop_
_atom_site_type_symbol
_atom_site_label
_atom_site_fract_x
_atom_site_fract_y
_atom_site_fract_z
Si Si1 0.000000 0.332085 0.525790
Si Si2 0.242632 0.585374 0.854776
Si Si3 0.000000 0.843426 0.527783
Si Si4 0.000000 0.582212 0.716131
Si Si5 0.500000 0.412367 0.739564
Si Si6 0.844662 0.680028 0.035921
Si Si7 0.849158 0.413921 0.225953
Si Si8 0.250135 0.838349 0.408576
O O1 0.000000 0.357234 0.634557
O O2 0.874252 0.363890 0.470872
O O3 0.000000 0.244400 0.532506
O O4 0.255897 0.500000 0.890453
O O5 0.127739 0.594378 0.779055
O O6 0.374554 0.613163 0.801789
O O7 0.210069 0.637942 0.943294
O O8 0.000000 0.874797 0.635225
O O9 0.873836 0.869824 0.467346
O O10 0.000000 0.500000 0.669973
O O11 0.500000 0.500000 0.721363
O O12 0.750000 0.750000 0.053804
O O13 0.825048 0.624964 0.124587
O O14 0.000000 0.702181 0.024260
O O15 0.812454 0.500000 0.213941
O O16 0.753534 0.377168 0.304711
O O17 0.000000 0.403059 0.259274
O O18 0.250000 0.750000 0.392169
#
# Coordination Sequence:
#
# PCOD8173311 Si02
#       8
#     4   8   4   4   4   8   8   8
#     4  10  20  34  55  82 115 154 199 244 290 344
#     4  10  21  39  61  86 118 158 200 245 297 348
#     4  10  22  36  57  82 121 162 195 240 296 350
#     4  10  20  34  57  86 113 148 199 250 292 344
#     4  10  22  38  57  84 121 162 199 244 300 350
#     4  11  24  41  64  92 121 154 194 242 298 357
#     4  10  21  39  64  90 116 152 197 244 291 347
#     4  10  20  37  57  85 118 156 196 242 296 347
#
# _framework density 18.960391000000001
#
# number of rings (size 3 to 8) (size 9 to 14) (size 15 to 20)
#    0.000    1.833    1.667    2.000    1.167    3.333 
#    1.500    0.000    0.000    0.000    0.000    0.000 
#    0.000    0.000    0.000    0.000    0.000    0.000 
#
# Total GULP energy -297626.379679 kJ/mol
# GULP energy per Si atom -12401.099153 kJ/mol
# Density = 1.891724 g / cm^3
# Si number density = 18.960391 Si / 1000 Ang^3
#
#
#
# Elastic Constant Matrix: (Units=GPa)
#
#
# Indices 1 2 3 4 5 6 
#
# 1 158.6503 43.4074 66.5569 0.0000 0.0000 0.0000
# 2 43.4074 61.4005 43.9645 0.0000 0.0000 0.0000
# 3 66.5569 43.9645 120.9810 0.0000 0.0000 0.0000
# 4 0.0000 0.0000 0.0000 71.0232 0.0000 0.0000
# 5 0.0000 0.0000 0.0000 0.0000 35.5735 0.0000
# 6 0.0000 0.0000 0.0000 0.0000 0.0000 19.9265
#
#
#
# Elastic Compliance Matrix: (Units=1/GPa)
#
#
# Indices 1 2 3 4 5 6 
#
# 1 0.008780 -0.003715 -0.003480 0.000000 0.000000 0.000000
# 2 -0.003715 0.023587 -0.006528 0.000000 0.000000 0.000000
# 3 -0.003480 -0.006528 0.012552 0.000000 0.000000 0.000000
# 4 0.000000 0.000000 0.000000 0.014080 0.000000 0.000000
# 5 0.000000 0.000000 0.000000 0.000000 0.028111 0.000000
# 6 0.000000 0.000000 0.000000 0.000000 0.000000 0.050185
#
#
# Mechanical properties :
#
#
# Convention : Reuss Voigt Hill
#
# Bulk Modulus (GPa) = 57.22953 72.09881 64.66417
# Shear Modulus (GPa) = 29.31455 37.77817 33.54636
#
# Velocity S-wave (km/s) = 3.93631 4.46856 4.21085
# Velocity P-wave (km/s) = 7.13503 8.04566 7.60399
#
# Compressibility (1/GPa) = 0.01747350
#
# Stress axis : x y z
#
# Youngs Moduli (GPa) = 113.90148 42.39655 79.66601
#
# Poissons Ratio (x) = 0.15750 0.27724
# Poissons Ratio (y) = 0.42314 0.52003
# Poissons Ratio (z) = 0.39637 0.27675
#
# Static dielectric constant tensor:
#      x y z
#    x 3.774640 0.000000 0.000000 
#    y 0.000000 3.393870 0.000000 
#    z 0.000000 0.000000 3.445440 
# 
# 
# High freq. dielectric constant tensor:
#      x y z
#    x 1.746270 0.000000 0.000000 
#    y 0.000000 1.731150 0.000000 
#    z 0.000000 0.000000 1.748550 
# 
# From -- ./inp_files/15320.got.cif
#   From: 2010.03.12/outbox.cif.g09.slc.cpg/sg35_8_cif.got.tgz:15320.got - 2010.04.14 02:02:04.
