data_PCOD8173282
_publ_section_title
;
Structure prediction by ZEFSAII (Michael W. Deem and Ramdas Pophale) SiO2 
 PCOD8173282
Probable space group: C M M 2
;
_chemical_formula_sum "Si O2"
_cell_formula_units_Z 64
_cell_length_a 8.929560
_cell_length_b 18.741468
_cell_length_c 20.310891
_cell_angle_alpha 90.000000
_cell_angle_beta 90.000000
_cell_angle_gamma 90.000000
_cell_volume 3399.089821
_symmetry_space_group_name_H-M "C M M 2"
_symmetry_group_IT_number 35
_symmetry_cell_setting 'orthorhombic'
loop_
_space_group_symop_operation_xyz
x,y,z
-x,-y,z
-x,y,z
x,-y,z
1/2+x,1/2+y,z
1/2-x,1/2-y,z
1/2-x,1/2+y,z
1/2+x,1/2-y,z
loop_
_atom_site_type_symbol
_atom_site_label
_atom_site_fract_x
_atom_site_fract_y
_atom_site_fract_z
Si Si1 0.324526 0.083294 0.549550
Si Si2 0.324245 0.176349 0.309243
Si Si3 0.322515 0.672669 0.664513
Si Si4 0.330119 0.415923 0.415055
Si Si5 0.831356 0.415104 0.922408
Si Si6 0.174896 0.323282 0.157440
Si Si7 0.324617 0.581566 0.790596
Si Si8 0.830034 0.915418 0.052478
O O1 0.500000 0.100075 0.552300
O O2 0.238496 0.128807 0.603268
O O3 0.261509 0.108309 0.479240
O O4 0.291068 0.000000 0.562053
O O5 0.500000 0.180319 0.322719
O O6 0.250000 0.250000 0.332103
O O7 0.251229 0.113416 0.350711
O O8 0.287522 0.160353 0.233263
O O9 0.500000 0.679757 0.658130
O O10 0.250000 0.750000 0.666831
O O11 0.274786 0.630248 0.729868
O O12 0.500000 0.387067 0.420116
O O13 0.328535 0.500000 0.407897
O O14 0.826653 0.500000 0.923192
O O15 0.756900 0.387460 0.855112
O O16 0.000000 0.385913 0.926087
O O17 0.741430 0.384965 0.985122
O O18 0.250000 0.250000 0.134144
O O19 0.239566 0.387825 0.115152
O O20 0.000000 0.316599 0.144990
O O21 0.500000 0.585795 0.804074
O O22 0.275979 0.500000 0.775550
O O23 0.000000 0.888364 0.056113
O O24 0.820091 0.000000 0.054039
#
# Coordination Sequence:
#
# PCOD8173282 Si02
#       8
#     8   8   8   8   8   8   8   8
#     4  10  21  38  60  84 110 141 179 222 267 319
#     4  10  21  37  57  80 108 143 182 223 268 320
#     4  11  23  38  56  80 112 146 181 223 269 317
#     4  10  21  37  58  84 113 143 177 220 268 318
#     4   9  17  30  51  79 108 137 174 222 271 320
#     4  10  21  37  56  78 107 143 182 224 269 321
#     4   9  18  34  56  79 104 138 178 219 267 324
#     4  10  20  34  54  80 110 143 180 224 271 319
#
# _framework density 18.828569000000002
#
# number of rings (size 3 to 8) (size 9 to 14) (size 15 to 20)
#    0.000    2.125    0.000    3.000    0.000    7.750 
#    0.000    6.875    0.000    1.500    0.000    0.000 
#    0.000    0.000    0.000    0.000    0.000    0.000 
#
# Total GULP energy -396915.701762 kJ/mol
# GULP energy per Si atom -12403.615680 kJ/mol
# Density = 1.878571 g / cm^3
# Si number density = 18.828569 Si / 1000 Ang^3
#
#
#
# Elastic Constant Matrix: (Units=GPa)
#
#
# Indices 1 2 3 4 5 6 
#
# 1 110.4918 42.0571 67.7104 0.0000 0.0000 0.0000
# 2 42.0571 51.8230 52.8563 0.0000 0.0000 0.0000
# 3 67.7104 52.8563 132.3507 0.0000 0.0000 0.0000
# 4 0.0000 0.0000 0.0000 4.4537 0.0000 0.0000
# 5 0.0000 0.0000 0.0000 0.0000 38.9648 0.0000
# 6 0.0000 0.0000 0.0000 0.0000 0.0000 28.7890
#
#
#
# Elastic Compliance Matrix: (Units=1/GPa)
#
#
# Indices 1 2 3 4 5 6 
#
# 1 0.014596 -0.007136 -0.004618 0.000000 0.000000 0.000000
# 2 -0.007136 0.036047 -0.010745 0.000000 0.000000 0.000000
# 3 -0.004618 -0.010745 0.014209 0.000000 0.000000 0.000000
# 4 0.000000 0.000000 0.000000 0.224534 0.000000 0.000000
# 5 0.000000 0.000000 0.000000 0.000000 0.025664 0.000000
# 6 0.000000 0.000000 0.000000 0.000000 0.000000 0.034735
#
#
# Mechanical properties :
#
#
# Convention : Reuss Voigt Hill
#
# Bulk Modulus (GPa) = 50.36472 68.87924 59.62198
# Shear Modulus (GPa) = 12.45631 23.24427 17.85029
#
# Velocity S-wave (km/s) = 2.57488 3.51739 3.08237
# Velocity P-wave (km/s) = 5.97053 7.29094 6.66352
#
# Compressibility (1/GPa) = 0.01985517
#
# Stress axis : x y z
#
# Youngs Moduli (GPa) = 68.51003 27.74135 70.37641
#
# Poissons Ratio (x) = 0.19796 0.32497
# Poissons Ratio (y) = 0.48889 0.75621
# Poissons Ratio (z) = 0.31635 0.29809
#
# Static dielectric constant tensor:
#      x y z
#    x 3.646100 0.000000 0.000000 
#    y 0.000000 3.252730 0.000000 
#    z 0.000000 0.000000 3.574270 
# 
# 
# High freq. dielectric constant tensor:
#      x y z
#    x 1.748280 0.000000 0.000000 
#    y 0.000000 1.710320 0.000000 
#    z 0.000000 0.000000 1.743200 
# 
# From -- ./inp_files/18422.got.cif
#   From: 2010.03.12/outbox.cif.g09.slc.cpg/sg35_10_cif.got.tgz:18422.got - 2010.04.14 02:02:04.
