data_PCOD8173434
_publ_section_title
;
Structure prediction by ZEFSAII (Michael W. Deem and Ramdas Pophale) SiO2 
 PCOD8173434
Probable space group: C M M 2
;
_chemical_formula_sum "Si O2"
_cell_formula_units_Z 48
_cell_length_a 8.823963
_cell_length_b 18.562037
_cell_length_c 15.192720
_cell_angle_alpha 90.000000
_cell_angle_beta 90.000000
_cell_angle_gamma 90.000000
_cell_volume 2488.426664
_symmetry_space_group_name_H-M "C M M 2"
_symmetry_group_IT_number 35
_symmetry_cell_setting 'orthorhombic'
loop_
_space_group_symop_operation_xyz
x,y,z
-x,-y,z
-x,y,z
x,-y,z
1/2+x,1/2+y,z
1/2-x,1/2-y,z
1/2-x,1/2+y,z
1/2+x,1/2-y,z
loop_
_atom_site_type_symbol
_atom_site_label
_atom_site_fract_x
_atom_site_fract_y
_atom_site_fract_z
Si Si1 0.179515 0.825131 0.729510
Si Si2 0.676755 0.416809 0.090526
Si Si3 0.822644 0.084133 0.402131
Si Si4 0.828954 0.414995 0.582611
Si Si5 0.678895 0.171480 0.244731
Si Si6 0.324047 0.676899 0.927744
O O1 0.250000 0.750000 0.697548
O O2 0.244410 0.887648 0.668937
O O3 0.232775 0.842291 0.829461
O O4 0.000000 0.822139 0.720385
O O5 0.500000 0.405786 0.113449
O O6 0.722927 0.500000 0.094967
O O7 0.776798 0.373110 0.158813
O O8 0.715084 0.388795 0.992562
O O9 0.762053 0.110354 0.496476
O O10 0.736218 0.129769 0.329845
O O11 0.000000 0.100421 0.396384
O O12 0.787951 0.000000 0.386092
O O13 0.829492 0.500000 0.588905
O O14 0.000000 0.384634 0.577828
O O15 0.500000 0.179343 0.249551
O O16 0.750000 0.250000 0.239817
O O17 0.500000 0.692981 0.925178
O O18 0.250000 0.750000 0.963928
#
# Coordination Sequence:
#
# PCOD8173434 Si02
#       6
#     8   8   8   8   8   8
#     4  10  20  35  56  82 113 149 190 233 279 331
#     4  10  21  38  59  84 115 149 185 227 277 332
#     4  10  21  39  62  86 113 146 184 227 277 332
#     4  10  21  37  57  83 115 149 186 230 279 330
#     4  12  25  40  59  84 114 147 186 230 277 330
#     4   9  19  35  56  81 110 147 188 232 279 328
#
# _framework density 19.289297000000001
#
# number of rings (size 3 to 8) (size 9 to 14) (size 15 to 20)
#    0.000    1.833    0.000    4.000    0.000    8.333 
#    0.000    5.000    0.000    0.000    0.000    0.000 
#    0.000    0.000    0.000    0.000    0.000    0.000 
#
# Total GULP energy -297687.848688 kJ/mol
# GULP energy per Si atom -12403.660362 kJ/mol
# Density = 1.924539 g / cm^3
# Si number density = 19.289297 Si / 1000 Ang^3
#
#
#
# Elastic Constant Matrix: (Units=GPa)
#
#
# Indices 1 2 3 4 5 6 
#
# 1 117.8424 62.2110 61.1054 0.0000 0.0000 0.0000
# 2 62.2110 87.4492 63.8967 0.0000 0.0000 0.0000
# 3 61.1054 63.8967 126.8780 0.0000 0.0000 0.0000
# 4 0.0000 0.0000 0.0000 10.3983 0.0000 0.0000
# 5 0.0000 0.0000 0.0000 0.0000 36.5336 0.0000
# 6 0.0000 0.0000 0.0000 0.0000 0.0000 31.3183
#
#
#
# Elastic Compliance Matrix: (Units=1/GPa)
#
#
# Indices 1 2 3 4 5 6 
#
# 1 0.014178 -0.008064 -0.002767 0.000000 0.000000 0.000000
# 2 -0.008064 0.022680 -0.007538 0.000000 0.000000 0.000000
# 3 -0.002767 -0.007538 0.013010 0.000000 0.000000 0.000000
# 4 0.000000 0.000000 0.000000 0.096170 0.000000 0.000000
# 5 0.000000 0.000000 0.000000 0.000000 0.027372 0.000000
# 6 0.000000 0.000000 0.000000 0.000000 0.000000 0.031930
#
#
# Mechanical properties :
#
#
# Convention : Reuss Voigt Hill
#
# Bulk Modulus (GPa) = 76.16305 78.51063 77.33684
# Shear Modulus (GPa) = 20.28766 25.31380 22.80073
#
# Velocity S-wave (km/s) = 3.24660 3.62653 3.44181
# Velocity P-wave (km/s) = 7.32286 7.63712 7.48164
#
# Compressibility (1/GPa) = 0.01312973
#
# Stress axis : x y z
#
# Youngs Moduli (GPa) = 70.53172 44.09178 76.86220
#
# Poissons Ratio (x) = 0.35558 0.21267
# Poissons Ratio (y) = 0.56880 0.57938
# Poissons Ratio (z) = 0.19515 0.33236
#
# Static dielectric constant tensor:
#      x y z
#    x 3.342280 0.000000 0.000000 
#    y 0.000000 3.553800 0.000000 
#    z 0.000000 0.000000 3.773370 
# 
# 
# High freq. dielectric constant tensor:
#      x y z
#    x 1.758720 0.000000 0.000000 
#    y 0.000000 1.747960 0.000000 
#    z 0.000000 0.000000 1.764220 
# 
# From -- ./inp_files/15079.got.cif
#   From: 2010.03.12/outbox.cif.g09.slc.cpg/sg35_8_cif.got.tgz:15079.got - 2010.04.14 02:02:04.
