data_PCOD8173948
_publ_section_title
;
Structure prediction by ZEFSAII (Michael W. Deem and Ramdas Pophale) SiO2 
 PCOD8173948
Probable space group: C M M 2
;
_chemical_formula_sum "Si O2"
_cell_formula_units_Z 64
_cell_length_a 23.597178
_cell_length_b 13.681760
_cell_length_c 9.711582
_cell_angle_alpha 90.000000
_cell_angle_beta 90.000000
_cell_angle_gamma 90.000000
_cell_volume 3135.393242
_symmetry_space_group_name_H-M "C M M 2"
_symmetry_group_IT_number 35
_symmetry_cell_setting 'orthorhombic'
loop_
_space_group_symop_operation_xyz
x,y,z
-x,-y,z
-x,y,z
x,-y,z
1/2+x,1/2+y,z
1/2-x,1/2-y,z
1/2-x,1/2+y,z
1/2+x,1/2-y,z
loop_
_atom_site_type_symbol
_atom_site_label
_atom_site_fract_x
_atom_site_fract_y
_atom_site_fract_z
Si Si1 0.939053 0.389758 0.403960
Si Si2 0.129456 0.282999 0.192998
Si Si3 0.756517 0.390187 0.134979
Si Si4 0.393324 0.111975 0.698180
Si Si5 0.668283 0.614397 0.895297
Si Si6 0.689587 0.281126 0.622609
Si Si7 0.665735 0.610327 0.350033
Si Si8 0.064861 0.257638 0.933799
O O1 0.938687 0.500000 0.352238
O O2 0.885580 0.340310 0.331749
O O3 0.934066 0.384321 0.567710
O O4 0.000000 0.341280 0.365922
O O5 0.190602 0.316487 0.134463
O O6 0.129251 0.168931 0.236305
O O7 0.080488 0.302437 0.082319
O O8 0.777470 0.500000 0.099540
O O9 0.729660 0.388966 0.288688
O O10 0.710653 0.356459 0.019600
O O11 0.340031 0.181219 0.669415
O O12 0.428302 0.154306 0.826204
O O13 0.373514 0.000000 0.728403
O O14 0.655735 0.500000 0.895889
O O15 0.696626 0.646063 0.751722
O O16 0.607665 0.668107 0.907075
O O17 0.750000 0.250000 0.564895
O O18 0.659193 0.338930 0.498582
O O19 0.642225 0.500000 0.360439
O O20 0.000000 0.220138 0.931516
#
# Coordination Sequence:
#
# PCOD8173948 Si02
#       8
#     8   8   8   8   8   8   8   8
#     4  10  21  39  63  90 122 164 214 265 318 379
#     4  12  22  39  63  92 130 165 210 261 322 378
#     4  10  22  39  62  91 126 168 207 255 320 384
#     4  10  23  42  64  91 126 169 211 259 325 386
#     4  10  23  42  64  91 125 165 212 262 315 376
#     4  11  23  39  63  95 127 162 205 263 316 383
#     4  11  23  39  61  91 129 167 206 254 309 370
#     4  11  25  41  64  92 124 166 213 264 319 381
#
# _framework density 20.412113000000002
#
# number of rings (size 3 to 8) (size 9 to 14) (size 15 to 20)
#    0.000    1.375    2.500    2.625    3.500    3.000 
#    0.000    0.000    0.000    1.125    0.000    0.000 
#    0.000    0.000    0.000    0.000    0.000    0.000 
#
# Total GULP energy -396696.436321 kJ/mol
# GULP energy per Si atom -12396.763635 kJ/mol
# Density = 2.036565 g / cm^3
# Si number density = 20.412113 Si / 1000 Ang^3
#
#
#
# Elastic Constant Matrix: (Units=GPa)
#
#
# Indices 1 2 3 4 5 6 
#
# 1 105.6323 50.3909 36.7429 0.0000 0.0000 0.0000
# 2 50.3909 141.6253 56.0906 0.0000 0.0000 0.0000
# 3 36.7429 56.0906 121.9889 0.0000 0.0000 0.0000
# 4 0.0000 0.0000 0.0000 30.5943 0.0000 0.0000
# 5 0.0000 0.0000 0.0000 0.0000 21.4615 0.0000
# 6 0.0000 0.0000 0.0000 0.0000 0.0000 21.4948
#
#
#
# Elastic Compliance Matrix: (Units=1/GPa)
#
#
# Indices 1 2 3 4 5 6 
#
# 1 0.011781 -0.003407 -0.001982 0.000000 0.000000 0.000000
# 2 -0.003407 0.009618 -0.003396 0.000000 0.000000 0.000000
# 3 -0.001982 -0.003396 0.010356 0.000000 0.000000 0.000000
# 4 0.000000 0.000000 0.000000 0.032686 0.000000 0.000000
# 5 0.000000 0.000000 0.000000 0.000000 0.046595 0.000000
# 6 0.000000 0.000000 0.000000 0.000000 0.000000 0.046523
#
#
# Mechanical properties :
#
#
# Convention : Reuss Voigt Hill
#
# Bulk Modulus (GPa) = 70.49599 72.85504 71.67551
# Shear Modulus (GPa) = 27.79962 29.77825 28.78893
#
# Velocity S-wave (km/s) = 3.69442 3.82364 3.75958
# Velocity P-wave (km/s) = 7.26703 7.43392 7.35094
#
# Compressibility (1/GPa) = 0.01418520
#
# Stress axis : x y z
#
# Youngs Moduli (GPa) = 84.87906 103.96986 96.56163
#
# Poissons Ratio (x) = 0.35421 0.19139
# Poissons Ratio (y) = 0.28917 0.32795
# Poissons Ratio (z) = 0.16824 0.35311
#
# Static dielectric constant tensor:
#      x y z
#    x 3.479200 0.000000 0.000000 
#    y 0.000000 3.789740 0.000000 
#    z 0.000000 0.000000 3.885540 
# 
# 
# High freq. dielectric constant tensor:
#      x y z
#    x 1.775120 0.000000 0.000000 
#    y 0.000000 1.803830 0.000000 
#    z 0.000000 0.000000 1.813690 
# 
# From -- ./inp_files/9901.got.cif
#   From: 2010.03.12/outbox.cif.g09.slc.cpg/sg35_5_cif.got.tgz:9901.got - 2010.04.14 02:02:04.
