data_PCOD8173584
_publ_section_title
;
Structure prediction by ZEFSAII (Michael W. Deem and Ramdas Pophale) SiO2 
 PCOD8173584
Probable space group: C M M 2
;
_chemical_formula_sum "Si O2"
_cell_formula_units_Z 40
_cell_length_a 10.390240
_cell_length_b 14.655009
_cell_length_c 13.311442
_cell_angle_alpha 90.000000
_cell_angle_beta 90.000000
_cell_angle_gamma 90.000000
_cell_volume 2026.920770
_symmetry_space_group_name_H-M "C M M 2"
_symmetry_group_IT_number 35
_symmetry_cell_setting 'orthorhombic'
loop_
_space_group_symop_operation_xyz
x,y,z
-x,-y,z
-x,y,z
x,-y,z
1/2+x,1/2+y,z
1/2-x,1/2-y,z
1/2-x,1/2+y,z
1/2+x,1/2-y,z
loop_
_atom_site_type_symbol
_atom_site_label
_atom_site_fract_x
_atom_site_fract_y
_atom_site_fract_z
Si Si1 0.348768 0.894273 0.301120
Si Si2 0.500000 0.391026 0.765703
Si Si3 0.745492 0.892284 0.873795
Si Si4 0.000000 0.759394 0.583906
Si Si5 0.142968 0.608454 0.079066
Si Si6 0.500000 0.892393 0.744189
Si Si7 0.750000 0.250000 0.450033
O O1 0.500000 0.873950 0.313691
O O2 0.302809 0.864418 0.188842
O O3 0.266722 0.838704 0.381091
O O4 0.319363 0.000000 0.320334
O O5 0.500000 0.500000 0.752057
O O6 0.376169 0.353869 0.826141
O O7 0.500000 0.345785 0.657197
O O8 0.624726 0.861840 0.806824
O O9 0.752585 0.000000 0.876765
O O10 0.731799 0.854174 0.987961
O O11 0.126153 0.767238 0.517123
O O12 0.000000 0.661993 0.639957
O O13 0.133521 0.500000 0.072941
O O14 0.000000 0.648950 0.064551
O O15 0.500000 0.000000 0.719473
#
# Coordination Sequence:
#
# PCOD8173584 Si02
#       7
#     8   4   8   4   8   4   4
#     4   9  19  38  64  90 117 154 197 238 291 358
#     4  10  22  38  53  77 119 159 184 224 293 354
#     4   9  16  31  57  86 115 148 185 228 281 344
#     4  12  26  40  58  80 114 154 200 250 300 336
#     4   8  13  27  57  90 113 142 185 228 275 340
#     4  10  20  36  59  85 107 143 202 244 275 340
#     4  12  24  42  60  86 116 150 200 262 300 334
#
# _framework density 19.734369000000001
#
# number of rings (size 3 to 8) (size 9 to 14) (size 15 to 20)
#    0.000    2.400    2.000    2.400    0.000    1.600 
#    0.000    3.000    0.000    2.400    0.000    0.000 
#    0.000    0.000    0.000    0.000    0.000    0.000 
#
# Total GULP energy -247935.084459 kJ/mol
# GULP energy per Si atom -12396.754223 kJ/mol
# Density = 1.968945 g / cm^3
# Si number density = 19.734369 Si / 1000 Ang^3
#
#
#
# Elastic Constant Matrix: (Units=GPa)
#
#
# Indices 1 2 3 4 5 6 
#
# 1 155.7534 35.8165 99.1531 0.0000 0.0000 0.0000
# 2 35.8165 69.1341 57.1703 0.0000 0.0000 0.0000
# 3 99.1531 57.1703 189.2915 0.0000 0.0000 0.0000
# 4 0.0000 0.0000 0.0000 -28.9496 0.0000 0.0000
# 5 0.0000 0.0000 0.0000 0.0000 -38.8795 0.0000
# 6 0.0000 0.0000 0.0000 0.0000 0.0000 14.1408
#
#
#
# Elastic Compliance Matrix: (Units=1/GPa)
#
#
# Indices 1 2 3 4 5 6 
#
# 1 0.009694 -0.001097 -0.004747 0.000000 0.000000 0.000000
# 2 -0.001097 0.019404 -0.005286 0.000000 0.000000 0.000000
# 3 -0.004747 -0.005286 0.009366 0.000000 0.000000 0.000000
# 4 0.000000 0.000000 0.000000 -0.034543 0.000000 0.000000
# 5 0.000000 0.000000 0.000000 0.000000 -0.025720 0.000000
# 6 0.000000 0.000000 0.000000 0.000000 0.000000 0.070717
#
#
# Mechanical properties :
#
#
# Convention : Reuss Voigt Hill
#
# Bulk Modulus (GPa) = 61.70951 88.71763 75.21357
# Shear Modulus (GPa) = 65.29192 4.06495 34.67844
#
# Velocity S-wave (km/s) = 5.75823 1.43677 4.19652
# Velocity P-wave (km/s) = 8.69181 6.91418 7.85345
#
# Compressibility (1/GPa) = 0.01620496
#
# Stress axis : x y z
#
# Youngs Moduli (GPa) = 103.15152 51.53548 106.77310
#
# Poissons Ratio (x) = 0.05654 0.50682
# Poissons Ratio (y) = 0.11317 0.56438
# Poissons Ratio (z) = 0.48963 0.27240
#
# Static dielectric constant tensor:
#      x y z
#    x 4.178240 0.000000 0.000000 
#    y 0.000000 3.315350 0.000000 
#    z 0.000000 0.000000 3.918260 
# 
# 
# High freq. dielectric constant tensor:
#      x y z
#    x 1.760350 0.000000 0.000000 
#    y 0.000000 1.752460 0.000000 
#    z 0.000000 0.000000 1.782810 
# 
# From -- ./inp_files/14865.got.cif
#   From: 2010.03.12/outbox.cif.g09.slc.cpg/sg35_8_cif.got.tgz:14865.got - 2010.04.14 02:02:04.
