data_PCOD8173163
_publ_section_title
;
Structure prediction by ZEFSAII (Michael W. Deem and Ramdas Pophale) SiO2 
 PCOD8173163
Probable space group: C M M 2
;
_chemical_formula_sum "Si O2"
_cell_formula_units_Z 64
_cell_length_a 9.344756
_cell_length_b 28.146069
_cell_length_c 13.071004
_cell_angle_alpha 90.000000
_cell_angle_beta 90.000000
_cell_angle_gamma 90.000000
_cell_volume 3437.911254
_symmetry_space_group_name_H-M "C M M 2"
_symmetry_group_IT_number 35
_symmetry_cell_setting 'orthorhombic'
loop_
_space_group_symop_operation_xyz
x,y,z
-x,-y,z
-x,y,z
x,-y,z
1/2+x,1/2+y,z
1/2-x,1/2-y,z
1/2-x,1/2+y,z
1/2+x,1/2-y,z
loop_
_atom_site_type_symbol
_atom_site_label
_atom_site_fract_x
_atom_site_fract_y
_atom_site_fract_z
Si Si1 0.161415 0.704247 0.354090
Si Si2 0.329780 0.053572 0.855466
Si Si3 0.670074 0.896022 0.056771
Si Si4 0.668546 0.101879 0.647132
Si Si5 0.664501 0.556391 0.460316
Si Si6 0.165511 0.702221 0.577573
Si Si7 0.164439 0.298443 0.133355
Si Si8 0.836330 0.556295 0.262712
O O1 0.250000 0.750000 0.329515
O O2 0.208820 0.682071 0.463193
O O3 0.181033 0.675910 0.247067
O O4 0.000000 0.721018 0.367831
O O5 0.500000 0.053547 0.860279
O O6 0.277801 0.080640 0.754161
O O7 0.270133 0.000000 0.852967
O O8 0.265115 0.080030 0.954856
O O9 0.500000 0.900917 0.056262
O O10 0.715029 0.840213 0.056849
O O11 0.728181 0.922865 0.157384
O O12 0.500000 0.092724 0.627462
O O13 0.756704 0.077099 0.558380
O O14 0.701544 0.158477 0.652192
O O15 0.500000 0.573430 0.458437
O O16 0.675790 0.500000 0.466494
O O17 0.742235 0.575317 0.357712
O O18 0.250000 0.750000 0.607251
O O19 0.000000 0.716017 0.584653
O O20 0.250000 0.250000 0.114146
O O21 0.000000 0.284735 0.114855
O O22 0.827529 0.500000 0.253873
O O23 0.000000 0.573050 0.281771
#
# Coordination Sequence:
#
# PCOD8173163 Si02
#       8
#     8   8   8   8   8   8   8   8
#     4   8  14  25  41  61  88 123 160 198 238 285
#     4   9  17  31  52  79 106 130 167 219 265 305
#     4   9  17  29  50  76 103 133 168 211 260 307
#     4  10  20  33  54  79 103 135 177 220 260 306
#     4  10  21  35  50  73 107 140 169 209 264 322
#     4   9  18  31  48  71 101 135 172 212 254 304
#     4   9  17  29  46  68  97 133 168 205 248 297
#     4   9  17  30  51  77 102 130 166 209 259 315
#
# _framework density 18.615956000000001
#
# number of rings (size 3 to 8) (size 9 to 14) (size 15 to 20)
#    0.000    2.875    0.000    1.125    1.750    3.250 
#    0.000    1.250    0.000    1.500    0.000    1.750 
#    0.000    0.000    0.000    0.000    0.000    0.000 
#
# Total GULP energy -396473.681260 kJ/mol
# GULP energy per Si atom -12389.802539 kJ/mol
# Density = 1.857358 g / cm^3
# Si number density = 18.615956 Si / 1000 Ang^3
#
#
#
# Elastic Constant Matrix: (Units=GPa)
#
#
# Indices 1 2 3 4 5 6 
#
# 1 51.7175 30.5565 46.9822 0.0000 0.0000 0.0000
# 2 30.5565 101.0528 82.5232 0.0000 0.0000 0.0000
# 3 46.9822 82.5232 156.5629 0.0000 0.0000 0.0000
# 4 0.0000 0.0000 0.0000 32.9299 0.0000 0.0000
# 5 0.0000 0.0000 0.0000 0.0000 8.1691 0.0000
# 6 0.0000 0.0000 0.0000 0.0000 0.0000 22.4377
#
#
#
# Elastic Compliance Matrix: (Units=1/GPa)
#
#
# Indices 1 2 3 4 5 6 
#
# 1 0.027001 -0.002717 -0.006670 0.000000 0.000000 0.000000
# 2 -0.002717 0.017648 -0.008487 0.000000 0.000000 0.000000
# 3 -0.006670 -0.008487 0.012862 0.000000 0.000000 0.000000
# 4 0.000000 0.000000 0.000000 0.030368 0.000000 0.000000
# 5 0.000000 0.000000 0.000000 0.000000 0.122412 0.000000
# 6 0.000000 0.000000 0.000000 0.000000 0.000000 0.044568
#
#
# Mechanical properties :
#
#
# Convention : Reuss Voigt Hill
#
# Bulk Modulus (GPa) = 45.95093 69.93968 57.94530
# Shear Modulus (GPa) = 16.78632 22.65876 19.72254
#
# Velocity S-wave (km/s) = 3.00612 3.49258 3.25844
# Velocity P-wave (km/s) = 6.06516 7.34271 6.73430
#
# Compressibility (1/GPa) = 0.02176234
#
# Stress axis : x y z
#
# Youngs Moduli (GPa) = 37.03584 56.66347 77.74750
#
# Poissons Ratio (x) = 0.15398 0.51859
# Poissons Ratio (y) = 0.10064 0.65982
# Poissons Ratio (z) = 0.24704 0.48089
#
# Static dielectric constant tensor:
#      x y z
#    x 3.166160 0.000000 0.000000 
#    y 0.000000 3.308890 0.000000 
#    z 0.000000 0.000000 3.628620 
# 
# 
# High freq. dielectric constant tensor:
#      x y z
#    x 1.684660 0.000000 0.000000 
#    y 0.000000 1.724180 0.000000 
#    z 0.000000 0.000000 1.718810 
# 
# From -- ./inp_files/12027.got.cif
#   From: 2010.03.12/outbox.cif.g09.slc.cpg/sg35_7_cif.got.tgz:12027.got - 2010.04.14 02:02:04.
