data_PCOD8173377
_publ_section_title
;
Structure prediction by ZEFSAII (Michael W. Deem and Ramdas Pophale) SiO2 
 PCOD8173377
Probable space group: C M M 2
;
_chemical_formula_sum "Si O2"
_cell_formula_units_Z 64
_cell_length_a 9.125787
_cell_length_b 18.993157
_cell_length_c 20.361883
_cell_angle_alpha 90.000000
_cell_angle_beta 90.000000
_cell_angle_gamma 90.000000
_cell_volume 3529.274382
_symmetry_space_group_name_H-M "C M M 2"
_symmetry_group_IT_number 35
_symmetry_cell_setting 'orthorhombic'
loop_
_space_group_symop_operation_xyz
x,y,z
-x,-y,z
-x,y,z
x,-y,z
1/2+x,1/2+y,z
1/2-x,1/2-y,z
1/2-x,1/2+y,z
1/2+x,1/2-y,z
loop_
_atom_site_type_symbol
_atom_site_label
_atom_site_fract_x
_atom_site_fract_y
_atom_site_fract_z
Si Si1 0.827125 0.581506 0.066700
Si Si2 0.329042 0.679102 0.452518
Si Si3 0.327491 0.677404 0.602034
Si Si4 0.661776 0.916392 0.213156
Si Si5 0.326919 0.325135 0.959425
Si Si6 0.667432 0.917064 0.703766
Si Si7 0.672437 0.420507 0.338166
Si Si8 0.830605 0.919159 0.834723
O O1 0.785098 0.500000 0.053676
O O2 0.782824 0.605019 0.140651
O O3 0.000000 0.592488 0.054906
O O4 0.733354 0.631716 0.020786
O O5 0.500000 0.692259 0.444256
O O6 0.250000 0.750000 0.432036
O O7 0.291148 0.656816 0.526883
O O8 0.271428 0.619636 0.402826
O O9 0.500000 0.685107 0.614254
O O10 0.250000 0.750000 0.621759
O O11 0.262779 0.615778 0.645977
O O12 0.500000 0.885448 0.225098
O O13 0.764210 0.886298 0.271154
O O14 0.657710 0.000000 0.215538
O O15 0.500000 0.314548 0.967615
O O16 0.250000 0.250000 0.954352
O O17 0.287558 0.369488 0.894827
O O18 0.500000 0.890887 0.699742
O O19 0.732845 0.893932 0.773700
O O20 0.679447 0.000000 0.694941
O O21 0.500000 0.416823 0.331893
O O22 0.728787 0.500000 0.346442
O O23 0.000000 0.910725 0.814973
O O24 0.795625 0.000000 0.854096
#
# Coordination Sequence:
#
# PCOD8173377 Si02
#       8
#     8   8   8   8   8   8   8   8
#     4   9  18  34  56  79 104 136 173 213 258 309
#     4   9  19  34  51  72  99 133 171 209 252 303
#     4  10  20  35  55  76 102 138 176 215 259 308
#     4   8  15  29  49  74 102 131 165 205 251 303
#     4  11  23  37  54  78 108 139 173 214 257 303
#     4  10  21  36  55  81 110 137 169 211 255 302
#     4   9  17  30  49  74 102 130 165 210 254 297
#     4   9  19  37  58  78 102 135 174 213 255 305
#
# _framework density 18.134039000000001
#
# number of rings (size 3 to 8) (size 9 to 14) (size 15 to 20)
#    0.000    2.625    0.000    2.250    0.000    5.000 
#    0.000    5.625    0.000    3.000    0.000    0.000 
#    0.000    0.000    0.000    0.000    0.000    0.000 
#
# Total GULP energy -396772.334787 kJ/mol
# GULP energy per Si atom -12399.135462 kJ/mol
# Density = 1.809277 g / cm^3
# Si number density = 18.134039 Si / 1000 Ang^3
#
#
#
# Elastic Constant Matrix: (Units=GPa)
#
#
# Indices 1 2 3 4 5 6 
#
# 1 76.5979 47.6629 65.7949 0.0000 0.0000 0.0000
# 2 47.6629 82.5096 73.6051 0.0000 0.0000 0.0000
# 3 65.7949 73.6051 146.6228 0.0000 0.0000 0.0000
# 4 0.0000 0.0000 0.0000 4.0790 0.0000 0.0000
# 5 0.0000 0.0000 0.0000 0.0000 32.1157 0.0000
# 6 0.0000 0.0000 0.0000 0.0000 0.0000 28.0143
#
#
#
# Elastic Compliance Matrix: (Units=1/GPa)
#
#
# Indices 1 2 3 4 5 6 
#
# 1 0.023600 -0.007580 -0.006785 0.000000 0.000000 0.000000
# 2 -0.007580 0.024384 -0.008839 0.000000 0.000000 0.000000
# 3 -0.006785 -0.008839 0.014302 0.000000 0.000000 0.000000
# 4 0.000000 0.000000 0.000000 0.245160 0.000000 0.000000
# 5 0.000000 0.000000 0.000000 0.000000 0.031137 0.000000
# 6 0.000000 0.000000 0.000000 0.000000 0.000000 0.035696
#
#
# Mechanical properties :
#
#
# Convention : Reuss Voigt Hill
#
# Bulk Modulus (GPa) = 62.98288 75.53958 69.26123
# Shear Modulus (GPa) = 11.73762 20.75293 16.24528
#
# Velocity S-wave (km/s) = 2.54691 3.38660 2.99631
# Velocity P-wave (km/s) = 6.59214 7.55240 7.08855
#
# Compressibility (1/GPa) = 0.01587733
#
# Stress axis : x y z
#
# Youngs Moduli (GPa) = 42.37307 41.01036 69.91929
#
# Poissons Ratio (x) = 0.31087 0.47439
# Poissons Ratio (y) = 0.32120 0.61804
# Poissons Ratio (z) = 0.28749 0.36251
#
# Static dielectric constant tensor:
#      x y z
#    x 3.406710 0.000000 0.000000 
#    y 0.000000 3.269920 0.000000 
#    z 0.000000 0.000000 3.569510 
# 
# 
# High freq. dielectric constant tensor:
#      x y z
#    x 1.704390 0.000000 0.000000 
#    y 0.000000 1.684050 0.000000 
#    z 0.000000 0.000000 1.714750 
# 
# From -- ./inp_files/18351.got.cif
#   From: 2010.03.12/outbox.cif.g09.slc.cpg/sg35_10_cif.got.tgz:18351.got - 2010.04.14 02:02:04.
