data_PCOD8173664
_publ_section_title
;
Structure prediction by ZEFSAII (Michael W. Deem and Ramdas Pophale) SiO2 
 PCOD8173664
Probable space group: C M M 2
;
_chemical_formula_sum "Si O2"
_cell_formula_units_Z 64
_cell_length_a 30.894751
_cell_length_b 8.669922
_cell_length_c 11.974919
_cell_angle_alpha 90.000000
_cell_angle_beta 90.000000
_cell_angle_gamma 90.000000
_cell_volume 3207.542903
_symmetry_space_group_name_H-M "C M M 2"
_symmetry_group_IT_number 35
_symmetry_cell_setting 'orthorhombic'
loop_
_space_group_symop_operation_xyz
x,y,z
-x,-y,z
-x,y,z
x,-y,z
1/2+x,1/2+y,z
1/2-x,1/2-y,z
1/2-x,1/2+y,z
1/2+x,1/2-y,z
loop_
_atom_site_type_symbol
_atom_site_label
_atom_site_fract_x
_atom_site_fract_y
_atom_site_fract_z
Si Si1 0.916965 0.321075 0.681920
Si Si2 0.373442 0.318128 0.311369
Si Si3 0.823992 0.180698 0.674199
Si Si4 0.294708 0.818959 0.448508
Si Si5 0.548997 0.678365 0.900731
Si Si6 0.795101 0.817758 0.917572
Si Si7 0.124585 0.183122 0.060432
Si Si8 0.048528 0.177048 0.467173
O O1 0.903901 0.500000 0.683117
O O2 0.874606 0.216160 0.675974
O O3 0.944465 0.280141 0.790909
O O4 0.946017 0.285278 0.574407
O O5 0.365965 0.500000 0.311566
O O6 0.334100 0.242244 0.376039
O O7 0.375347 0.250965 0.185920
O O8 0.418356 0.272613 0.370500
O O9 0.800059 0.273712 0.577571
O O10 0.803275 0.235250 0.790678
O O11 0.817518 0.000000 0.652395
O O12 0.250000 0.750000 0.401330
O O13 0.292757 0.000000 0.437383
O O14 0.500000 0.699678 0.943950
O O15 0.558753 0.500000 0.871056
O O16 0.581112 0.738177 0.997515
O O17 0.750000 0.750000 0.961603
O O18 0.793677 0.000000 0.926201
O O19 0.833576 0.751705 0.994956
O O20 0.125820 0.000000 0.063592
O O21 0.000000 0.198891 0.420062
O O22 0.056806 0.000000 0.502848
#
# Coordination Sequence:
#
# PCOD8173664 Si02
#       8
#     8   8   8   8   8   8   8   8
#     4  12  23  35  57  88 122 157 194 242 299 360
#     4  10  21  39  63  86 118 158 202 252 298 347
#     4  11  21  38  63  88 119 154 192 243 300 356
#     4  12  25  41  62  90 123 157 199 243 296 357
#     4  10  20  37  62  88 118 157 199 243 294 355
#     4  10  21  37  59  85 118 150 186 235 287 345
#     4   9  19  38  60  86 116 153 199 248 294 340
#     4  10  21  37  59  87 119 157 199 244 298 357
#
# _framework density 19.952967999999998
#
# number of rings (size 3 to 8) (size 9 to 14) (size 15 to 20)
#    0.000    1.500    2.500    3.375    0.000    5.000 
#    0.000    5.000    0.000    0.000    0.000    1.750 
#    0.000    0.000    0.000    0.000    0.000    0.000 
#
# Total GULP energy -396936.350657 kJ/mol
# GULP energy per Si atom -12404.260958 kJ/mol
# Density = 1.990755 g / cm^3
# Si number density = 19.952968 Si / 1000 Ang^3
#
#
#
# Elastic Constant Matrix: (Units=GPa)
#
#
# Indices 1 2 3 4 5 6 
#
# 1 170.8797 34.2606 73.8218 0.0000 0.0000 0.0000
# 2 34.2606 46.4255 40.3797 0.0000 0.0000 0.0000
# 3 73.8218 40.3797 155.3584 0.0000 0.0000 0.0000
# 4 0.0000 0.0000 0.0000 7.9461 0.0000 0.0000
# 5 0.0000 0.0000 0.0000 0.0000 90.7729 0.0000
# 6 0.0000 0.0000 0.0000 0.0000 0.0000 26.4528
#
#
#
# Elastic Compliance Matrix: (Units=1/GPa)
#
#
# Indices 1 2 3 4 5 6 
#
# 1 0.007723 -0.003240 -0.002828 0.000000 0.000000 0.000000
# 2 -0.003240 0.029191 -0.006048 0.000000 0.000000 0.000000
# 3 -0.002828 -0.006048 0.009352 0.000000 0.000000 0.000000
# 4 0.000000 0.000000 0.000000 0.125848 0.000000 0.000000
# 5 0.000000 0.000000 0.000000 0.000000 0.011016 0.000000
# 6 0.000000 0.000000 0.000000 0.000000 0.000000 0.037803
#
#
# Mechanical properties :
#
#
# Convention : Reuss Voigt Hill
#
# Bulk Modulus (GPa) = 45.38076 74.39865 59.88971
# Shear Modulus (GPa) = 19.80118 39.98115 29.89116
#
# Velocity S-wave (km/s) = 3.15364 4.48120 3.87470
# Velocity P-wave (km/s) = 6.00449 8.00893 7.07802
#
# Compressibility (1/GPa) = 0.02203577
#
# Stress axis : x y z
#
# Youngs Moduli (GPa) = 129.47832 34.25725 106.92637
#
# Poissons Ratio (x) = 0.11099 0.30236
# Poissons Ratio (y) = 0.41952 0.64664
# Poissons Ratio (z) = 0.36613 0.20717
#
# Static dielectric constant tensor:
#      x y z
#    x 3.769730 0.000000 0.000000 
#    y 0.000000 3.370860 0.000000 
#    z 0.000000 0.000000 3.783330 
# 
# 
# High freq. dielectric constant tensor:
#      x y z
#    x 1.795070 0.000000 0.000000 
#    y 0.000000 1.756290 0.000000 
#    z 0.000000 0.000000 1.774020 
# 
# From -- ./inp_files/11834.got.cif
#   From: 2010.03.12/outbox.cif.g09.slc.cpg/sg35_6_cif.got.tgz:11834.got - 2010.04.14 02:02:04.
