data_PCOD8173000
_publ_section_title
;
Structure prediction by ZEFSAII (Michael W. Deem and Ramdas Pophale) SiO2 
 PCOD8173000
Probable space group: C M M 2
;
_chemical_formula_sum "Si O2"
_cell_formula_units_Z 56
_cell_length_a 19.094904
_cell_length_b 19.094854
_cell_length_c 9.022169
_cell_angle_alpha 90.000000
_cell_angle_beta 90.000000
_cell_angle_gamma 90.000000
_cell_volume 3289.612773
_symmetry_space_group_name_H-M "C M M 2"
_symmetry_group_IT_number 35
_symmetry_cell_setting 'orthorhombic'
loop_
_space_group_symop_operation_xyz
x,y,z
-x,-y,z
-x,y,z
x,-y,z
1/2+x,1/2+y,z
1/2-x,1/2-y,z
1/2-x,1/2+y,z
1/2+x,1/2-y,z
loop_
_atom_site_type_symbol
_atom_site_label
_atom_site_fract_x
_atom_site_fract_y
_atom_site_fract_z
Si Si1 0.298405 0.686036 0.191420
Si Si2 0.921231 0.283503 0.675529
Si Si3 0.581766 0.674990 0.424644
Si Si4 0.216497 0.421231 0.362441
Si Si5 0.674990 0.418234 0.613325
Si Si6 0.186036 0.201595 0.846550
Si Si7 0.579364 0.079364 0.518985
O O1 0.250000 0.750000 0.242886
O O2 0.372470 0.683789 0.276268
O O3 0.249388 0.620233 0.226560
O O4 0.314741 0.685259 0.018985
O O5 0.904614 0.244627 0.520657
O O6 0.879767 0.250612 0.811410
O O7 0.905902 0.366270 0.652675
O O8 0.000000 0.270491 0.723272
O O9 0.500000 0.665055 0.383198
O O10 0.607616 0.607616 0.518984
O O11 0.229508 0.500000 0.314697
O O12 0.255373 0.404614 0.517313
O O13 0.133730 0.405902 0.385295
O O14 0.665055 0.500000 0.654772
O O15 0.683789 0.372470 0.761701
O O16 0.250000 0.250000 0.795083
O O17 0.500000 0.090046 0.458050
O O18 0.590047 0.000000 0.579920
#
# Coordination Sequence:
#
# PCOD8173000 Si02
#       7
#     8   8   8   8   8   8   8
#     4  10  20  32  47  69  98 129 162 200 242 287
#     4   9  17  30  48  70  94 122 159 199 240 285
#     4   9  18  32  51  72  94 124 161 203 248 294
#     4   9  17  30  48  70  94 122 159 199 240 285
#     4   9  18  32  51  72  94 124 161 203 248 294
#     4  10  20  32  47  69  98 129 162 200 242 287
#     4   9  16  26  45  74 102 126 157 200 244 285
#
# _framework density 17.02328
#
# number of rings (size 3 to 8) (size 9 to 14) (size 15 to 20)
#    0.000    2.714    0.000    1.714    0.000    5.429 
#    0.000    0.000    0.000    1.714    0.000    4.000 
#    0.000    9.143    0.000    0.000    0.000    0.000 
#
# Total GULP energy -347068.231746 kJ/mol
# GULP energy per Si atom -12395.293991 kJ/mol
# Density = 1.698453 g / cm^3
# Si number density = 17.023280 Si / 1000 Ang^3
#
#
#
# Elastic Constant Matrix: (Units=GPa)
#
#
# Indices 1 2 3 4 5 6 
#
# 1 119.1037 66.0375 59.8004 0.0000 0.0000 0.0000
# 2 66.0375 119.1024 59.8004 0.0000 0.0000 0.0000
# 3 59.8004 59.8004 92.7957 0.0000 0.0000 0.0000
# 4 0.0000 0.0000 0.0000 21.2643 0.0000 0.0000
# 5 0.0000 0.0000 0.0000 0.0000 21.2650 0.0000
# 6 0.0000 0.0000 0.0000 0.0000 0.0000 26.5041
#
#
#
# Elastic Compliance Matrix: (Units=1/GPa)
#
#
# Indices 1 2 3 4 5 6 
#
# 1 0.014049 -0.004796 -0.005963 0.000000 0.000000 0.000000
# 2 -0.004796 0.014049 -0.005963 0.000000 0.000000 0.000000
# 3 -0.005963 -0.005963 0.018462 0.000000 0.000000 0.000000
# 4 0.000000 0.000000 0.000000 0.047027 0.000000 0.000000
# 5 0.000000 0.000000 0.000000 0.000000 0.047026 0.000000
# 6 0.000000 0.000000 0.000000 0.000000 0.000000 0.037730
#
#
# Mechanical properties :
#
#
# Convention : Reuss Voigt Hill
#
# Bulk Modulus (GPa) = 76.24148 78.03092 77.13620
# Shear Modulus (GPa) = 23.13105 23.49757 23.31431
#
# Velocity S-wave (km/s) = 3.69018 3.71930 3.70476
# Velocity P-wave (km/s) = 7.93980 8.02381 7.98191
#
# Compressibility (1/GPa) = 0.01311622
#
# Stress axis : x y z
#
# Youngs Moduli (GPa) = 71.17944 71.17834 54.16464
#
# Poissons Ratio (x) = 0.34134 0.32300
# Poissons Ratio (y) = 0.34134 0.32300
# Poissons Ratio (z) = 0.42446 0.42446
#
# Static dielectric constant tensor:
#      x y z
#    x 3.407760 0.000000 0.000000 
#    y 0.000000 3.407730 0.000000 
#    z 0.000000 0.000000 2.785500 
# 
# 
# High freq. dielectric constant tensor:
#      x y z
#    x 1.669930 0.000000 0.000000 
#    y 0.000000 1.669930 0.000000 
#    z 0.000000 0.000000 1.619360 
# 
# From -- ./inp_files/8657.got.cif
#   From: 2010.03.12/outbox.cif.g09.slc.cpg/sg35_5_cif.got.tgz:8657.got - 2010.04.14 02:02:04.
