data_PCOD8173997
_publ_section_title
;
Structure prediction by ZEFSAII (Michael W. Deem and Ramdas Pophale) SiO2 
 PCOD8173997
Probable space group: C M M 2
;
_chemical_formula_sum "Si O2"
_cell_formula_units_Z 48
_cell_length_a 17.641053
_cell_length_b 15.370590
_cell_length_c 8.353853
_cell_angle_alpha 90.000000
_cell_angle_beta 90.000000
_cell_angle_gamma 90.000000
_cell_volume 2265.175584
_symmetry_space_group_name_H-M "C M M 2"
_symmetry_group_IT_number 35
_symmetry_cell_setting 'orthorhombic'
loop_
_space_group_symop_operation_xyz
x,y,z
-x,-y,z
-x,y,z
x,-y,z
1/2+x,1/2+y,z
1/2-x,1/2-y,z
1/2-x,1/2+y,z
1/2+x,1/2-y,z
loop_
_atom_site_type_symbol
_atom_site_label
_atom_site_fract_x
_atom_site_fract_y
_atom_site_fract_z
Si Si1 0.087734 0.000000 0.524320
Si Si2 0.313443 0.000000 0.132148
Si Si3 0.089322 0.500000 0.450662
Si Si4 0.681357 0.189173 0.139652
Si Si5 0.087230 0.173537 0.995192
Si Si6 0.162593 0.164664 0.664451
Si Si7 0.363554 0.500000 0.167542
Si Si8 0.675285 0.161943 0.512869
O O1 0.111226 0.083664 0.622882
O O2 0.124156 0.000000 0.353665
O O3 0.000000 0.000000 0.502168
O O4 0.326315 0.094881 0.045803
O O5 0.225582 0.000000 0.167432
O O6 0.369919 0.000000 0.281008
O O7 0.115956 0.584998 0.548244
O O8 0.000000 0.500000 0.426894
O O9 0.750000 0.250000 0.076146
O O10 0.604633 0.244544 0.112554
O O11 0.697124 0.166819 0.325814
O O12 0.099656 0.083946 0.087619
O O13 0.000000 0.179307 0.938306
O O14 0.147327 0.181783 0.850987
O O15 0.250592 0.146019 0.623271
O O16 0.135264 0.248521 0.564260
#
# Coordination Sequence:
#
# PCOD8173997 Si02
#       8
#     4   4   4   8   8   8   4   8
#     4  12  23  38  64  94 130 172 214 272 337 403
#     4  10  22  37  68  94 124 172 216 273 333 393
#     4  10  22  39  63  96 134 162 216 288 339 390
#     4  11  20  41  68  98 132 166 231 282 331 408
#     4  12  27  42  64  99 142 178 216 286 364 417
#     4  11  23  42  65  92 133 171 225 277 335 421
#     4  12  23  42  67  96 132 172 234 283 335 420
#     4  10  22  41  69  96 119 174 233 279 332 400
#
# _framework density 21.190411000000001
#
# number of rings (size 3 to 8) (size 9 to 14) (size 15 to 20)
#    0.000    1.000    3.333    5.250    2.333    4.000 
#    0.000    0.833    0.000    0.000    0.000    0.000 
#    0.000    0.000    0.000    0.000    0.000    0.000 
#
# Total GULP energy -297433.433594 kJ/mol
# GULP energy per Si atom -12393.059733 kJ/mol
# Density = 2.114218 g / cm^3
# Si number density = 21.190411 Si / 1000 Ang^3
#
#
#
# Elastic Constant Matrix: (Units=GPa)
#
#
# Indices 1 2 3 4 5 6 
#
# 1 180.9379 95.5584 51.4428 0.0000 0.0000 0.0000
# 2 95.5584 247.2396 34.6129 0.0000 0.0000 0.0000
# 3 51.4428 34.6129 67.4901 0.0000 0.0000 0.0000
# 4 0.0000 0.0000 0.0000 22.5559 0.0000 0.0000
# 5 0.0000 0.0000 0.0000 0.0000 6.5896 0.0000
# 6 0.0000 0.0000 0.0000 0.0000 0.0000 -2.1510
#
#
#
# Elastic Compliance Matrix: (Units=1/GPa)
#
#
# Indices 1 2 3 4 5 6 
#
# 1 0.008273 -0.002494 -0.005027 0.000000 0.000000 0.000000
# 2 -0.002494 0.005109 -0.000719 0.000000 0.000000 0.000000
# 3 -0.005027 -0.000719 0.019018 0.000000 0.000000 0.000000
# 4 0.000000 0.000000 0.000000 0.044334 0.000000 0.000000
# 5 0.000000 0.000000 0.000000 0.000000 0.151754 0.000000
# 6 0.000000 0.000000 0.000000 0.000000 0.000000 -0.464894
#
#
# Mechanical properties :
#
#
# Convention : Reuss Voigt Hill
#
# Bulk Modulus (GPa) = 62.81619 95.43285 79.12452
# Shear Modulus (GPa) = -23.29721 26.33578 1.51929
#
# Velocity S-wave (km/s) = -3.31935 3.52918 0.84766
# Velocity P-wave (km/s) = 3.87521 7.85751 6.19507
#
# Compressibility (1/GPa) = 0.01591946
#
# Stress axis : x y z
#
# Youngs Moduli (GPa) = 120.87493 195.72407 52.58269
#
# Poissons Ratio (x) = 0.48809 0.26433
# Poissons Ratio (y) = 0.30143 0.03783
# Poissons Ratio (z) = 0.60763 0.14082
#
# Static dielectric constant tensor:
#      x y z
#    x 3.747120 0.000000 0.000000 
#    y 0.000000 4.684020 0.000000 
#    z 0.000000 0.000000 3.605750 
# 
# 
# High freq. dielectric constant tensor:
#      x y z
#    x 1.820640 0.000000 0.000000 
#    y 0.000000 1.863550 0.000000 
#    z 0.000000 0.000000 1.806590 
# 
# From -- ./inp_files/8418.got.cif
#   From: 2010.03.12/outbox.cif.g09.slc.cpg/sg35_5_cif.got.tgz:8418.got - 2010.04.14 02:02:04.
