data_PCOD8173870
_publ_section_title
;
Structure prediction by ZEFSAII (Michael W. Deem and Ramdas Pophale) SiO2 
 PCOD8173870
Probable space group: C M M 2
;
_chemical_formula_sum "Si O2"
_cell_formula_units_Z 48
_cell_length_a 17.256834
_cell_length_b 13.688542
_cell_length_c 9.994370
_cell_angle_alpha 90.000000
_cell_angle_beta 90.000000
_cell_angle_gamma 90.000000
_cell_volume 2360.879046
_symmetry_space_group_name_H-M "C M M 2"
_symmetry_group_IT_number 35
_symmetry_cell_setting 'orthorhombic'
loop_
_space_group_symop_operation_xyz
x,y,z
-x,-y,z
-x,y,z
x,-y,z
1/2+x,1/2+y,z
1/2-x,1/2-y,z
1/2-x,1/2+y,z
1/2+x,1/2-y,z
loop_
_atom_site_type_symbol
_atom_site_label
_atom_site_fract_x
_atom_site_fract_y
_atom_site_fract_z
Si Si1 0.911941 0.109687 0.825330
Si Si2 0.812347 0.111322 0.561139
Si Si3 0.410254 0.112250 0.222203
Si Si4 0.085993 0.609797 0.757777
Si Si5 0.660759 0.774493 0.982391
Si Si6 0.645446 0.814917 0.501966
O O1 0.850752 0.125399 0.706130
O O2 0.889361 0.178378 0.949226
O O3 0.000000 0.133150 0.777075
O O4 0.906721 0.000000 0.879936
O O5 0.721363 0.133649 0.566178
O O6 0.846880 0.198529 0.467610
O O7 0.828496 0.000000 0.507852
O O8 0.500000 0.139399 0.215873
O O9 0.379531 0.127738 0.371261
O O10 0.395874 0.000000 0.181190
O O11 0.364127 0.182894 0.124427
O O12 0.108649 0.500000 0.720493
O O13 0.147572 0.647032 0.865573
O O14 0.083883 0.672841 0.621456
O O15 0.000000 0.616495 0.821909
O O16 0.750000 0.750000 0.991844
#
# Coordination Sequence:
#
# PCOD8173870 Si02
#       6
#     8   8   8   8   8   8
#     4  10  21  39  63  92 127 166 208 256 311 372
#     4  10  21  37  62  94 131 167 205 255 315 377
#     4  11  25  45  67  92 127 169 211 263 325 381
#     4  11  22  38  64  96 126 160 211 269 320 377
#     4  12  25  40  62  92 124 168 210 262 317 377
#     4  11  22  38  65  97 128 165 210 261 318 378
#
# _framework density 20.331409000000001
#
# number of rings (size 3 to 8) (size 9 to 14) (size 15 to 20)
#    0.000    1.167    1.667    5.000    2.333    6.000 
#    0.000    0.833    0.000    1.000    0.000    0.000 
#    0.000    0.000    0.000    0.000    0.000    0.000 
#
# Total GULP energy -297540.590524 kJ/mol
# GULP energy per Si atom -12397.524605 kJ/mol
# Density = 2.028513 g / cm^3
# Si number density = 20.331409 Si / 1000 Ang^3
#
#
#
# Elastic Constant Matrix: (Units=GPa)
#
#
# Indices 1 2 3 4 5 6 
#
# 1 132.7690 50.2047 49.2241 0.0000 0.0000 0.0000
# 2 50.2047 134.8330 18.5559 0.0000 0.0000 0.0000
# 3 49.2241 18.5559 91.9687 0.0000 0.0000 0.0000
# 4 0.0000 0.0000 0.0000 37.6379 0.0000 0.0000
# 5 0.0000 0.0000 0.0000 0.0000 -6.0414 0.0000
# 6 0.0000 0.0000 0.0000 0.0000 0.0000 28.7091
#
#
#
# Elastic Compliance Matrix: (Units=1/GPa)
#
#
# Indices 1 2 3 4 5 6 
#
# 1 0.010633 -0.003267 -0.005032 0.000000 0.000000 0.000000
# 2 -0.003267 0.008632 0.000007 0.000000 0.000000 0.000000
# 3 -0.005032 0.000007 0.013565 0.000000 0.000000 0.000000
# 4 0.000000 0.000000 0.000000 0.026569 0.000000 0.000000
# 5 0.000000 0.000000 0.000000 0.000000 -0.165525 0.000000
# 6 0.000000 0.000000 0.000000 0.000000 0.000000 0.034832
#
#
# Mechanical properties :
#
#
# Convention : Reuss Voigt Hill
#
# Bulk Modulus (GPa) = 61.55207 66.17113 63.86160
# Shear Modulus (GPa) = -101.42946 28.16686 -36.63130
#
# Velocity S-wave (km/s) = -7.07081 3.72612 -4.24926
# Velocity P-wave (km/s) = 6.02675 7.15044 2.72095
#
# Compressibility (1/GPa) = 0.01624641
#
# Stress axis : x y z
#
# Youngs Moduli (GPa) = 94.05024 115.84875 73.71885
#
# Poissons Ratio (x) = 0.37843 0.37094
# Poissons Ratio (y) = 0.30722 -0.00050
# Poissons Ratio (z) = 0.47324 -0.00078
#
# Static dielectric constant tensor:
#      x y z
#    x 3.795210 0.000000 0.000000 
#    y 0.000000 4.120090 0.000000 
#    z 0.000000 0.000000 3.349920 
# 
# 
# High freq. dielectric constant tensor:
#      x y z
#    x 1.804230 0.000000 0.000000 
#    y 0.000000 1.817440 0.000000 
#    z 0.000000 0.000000 1.763580 
# 
# From -- ./inp_files/8371.got.cif
#   From: 2010.03.12/outbox.cif.g09.slc.cpg/sg35_5_cif.got.tgz:8371.got - 2010.04.14 02:02:04.
