data_PCOD8173056
_publ_section_title
;
Structure prediction by ZEFSAII (Michael W. Deem and Ramdas Pophale) SiO2 
 PCOD8173056
Probable space group: C M M 2
;
_chemical_formula_sum "Si O2"
_cell_formula_units_Z 48
_cell_length_a 19.892588
_cell_length_b 9.461112
_cell_length_c 15.150831
_cell_angle_alpha 90.000000
_cell_angle_beta 90.000000
_cell_angle_gamma 90.000000
_cell_volume 2851.477345
_symmetry_space_group_name_H-M "C M M 2"
_symmetry_group_IT_number 35
_symmetry_cell_setting 'orthorhombic'
loop_
_space_group_symop_operation_xyz
x,y,z
-x,-y,z
-x,y,z
x,-y,z
1/2+x,1/2+y,z
1/2-x,1/2-y,z
1/2-x,1/2+y,z
1/2+x,1/2-y,z
loop_
_atom_site_type_symbol
_atom_site_label
_atom_site_fract_x
_atom_site_fract_y
_atom_site_fract_z
Si Si1 0.579703 0.344405 0.050660
Si Si2 0.419954 0.156309 0.207037
Si Si3 0.421476 0.335020 0.852636
Si Si4 0.185180 0.336583 0.534917
Si Si5 0.074376 0.331531 0.400254
Si Si6 0.182910 0.334162 0.739658
O O1 0.500000 0.350048 0.059828
O O2 0.610036 0.500000 0.064657
O O3 0.611474 0.247059 0.127080
O O4 0.598021 0.290549 0.952629
O O5 0.500000 0.150576 0.200027
O O6 0.400706 0.220620 0.303241
O O7 0.389492 0.000000 0.196489
O O8 0.500000 0.308118 0.834645
O O9 0.404155 0.500000 0.835904
O O10 0.380186 0.232570 0.789346
O O11 0.199438 0.500000 0.514777
O O12 0.250000 0.250000 0.505884
O O13 0.123817 0.277076 0.476468
O O14 0.167403 0.312168 0.636734
O O15 0.071132 0.500000 0.398076
O O16 0.000000 0.270917 0.421023
O O17 0.191152 0.500000 0.763074
O O18 0.250000 0.250000 0.767540
#
# Coordination Sequence:
#
# PCOD8173056 Si02
#       6
#     8   8   8   8   8   8
#     4   8  14  25  41  62  90 122 150 178 220 271
#     4   8  13  22  39  63  88 114 146 184 222 260
#     4   9  18  32  49  70  97 126 154 190 237 280
#     4   9  18  32  49  67  89 119 152 186 225 272
#     4   8  14  26  45  68  92 118 149 185 224 263
#     4  10  20  33  50  70  92 122 159 196 234 279
#
# _framework density 16.833379000000001
#
# number of rings (size 3 to 8) (size 9 to 14) (size 15 to 20)
#    0.000    3.333    0.000    2.500    0.000    2.333 
#    0.000    4.167    0.000    2.500    0.000    4.667 
#    0.000    0.000    0.000    0.000    0.000    0.000 
#
# Total GULP energy -297442.513839 kJ/mol
# GULP energy per Si atom -12393.438077 kJ/mol
# Density = 1.679507 g / cm^3
# Si number density = 16.833379 Si / 1000 Ang^3
#
#
#
# Elastic Constant Matrix: (Units=GPa)
#
#
# Indices 1 2 3 4 5 6 
#
# 1 75.5527 46.8559 64.3162 0.0000 0.0000 0.0000
# 2 46.8559 75.6871 57.4525 0.0000 0.0000 0.0000
# 3 64.3162 57.4525 112.5848 0.0000 0.0000 0.0000
# 4 0.0000 0.0000 0.0000 24.0385 0.0000 0.0000
# 5 0.0000 0.0000 0.0000 0.0000 3.6254 0.0000
# 6 0.0000 0.0000 0.0000 0.0000 0.0000 22.6611
#
#
#
# Elastic Compliance Matrix: (Units=1/GPa)
#
#
# Indices 1 2 3 4 5 6 
#
# 1 0.028933 -0.008757 -0.012060 0.000000 0.000000 0.000000
# 2 -0.008757 0.024217 -0.007355 0.000000 0.000000 0.000000
# 3 -0.012060 -0.007355 0.019525 0.000000 0.000000 0.000000
# 4 0.000000 0.000000 0.000000 0.041600 0.000000 0.000000
# 5 0.000000 0.000000 0.000000 0.000000 0.275833 0.000000
# 6 0.000000 0.000000 0.000000 0.000000 0.000000 0.044129
#
#
# Mechanical properties :
#
#
# Convention : Reuss Voigt Hill
#
# Bulk Modulus (GPa) = 61.23547 66.78596 64.01072
# Shear Modulus (GPa) = 10.08016 16.41166 13.24591
#
# Velocity S-wave (km/s) = 2.44973 3.12580 2.80819
# Velocity P-wave (km/s) = 6.66768 7.26556 6.97303
#
# Compressibility (1/GPa) = 0.01633041
#
# Stress axis : x y z
#
# Youngs Moduli (GPa) = 34.56270 41.29338 51.21697
#
# Poissons Ratio (x) = 0.36163 0.61765
# Poissons Ratio (y) = 0.30268 0.37671
# Poissons Ratio (z) = 0.41681 0.30372
#
# Static dielectric constant tensor:
#      x y z
#    x 2.895540 0.000000 0.000000 
#    y 0.000000 3.198820 0.000000 
#    z 0.000000 0.000000 3.383760 
# 
# 
# High freq. dielectric constant tensor:
#      x y z
#    x 1.610430 0.000000 0.000000 
#    y 0.000000 1.634180 0.000000 
#    z 0.000000 0.000000 1.659070 
# 
# From -- ./inp_files/15381.got.cif
#   From: 2010.03.12/outbox.cif.g09.slc.cpg/sg35_8_cif.got.tgz:15381.got - 2010.04.14 02:02:04.
