data_PCOD8173505
_publ_section_title
;
Structure prediction by ZEFSAII (Michael W. Deem and Ramdas Pophale) SiO2 
 PCOD8173505
Probable space group: C M M 2
;
_chemical_formula_sum "Si O2"
_cell_formula_units_Z 40
_cell_length_a 18.128321
_cell_length_b 7.608560
_cell_length_c 14.356343
_cell_angle_alpha 90.000000
_cell_angle_beta 90.000000
_cell_angle_gamma 90.000000
_cell_volume 1980.176391
_symmetry_space_group_name_H-M "C M M 2"
_symmetry_group_IT_number 35
_symmetry_cell_setting 'orthorhombic'
loop_
_space_group_symop_operation_xyz
x,y,z
-x,-y,z
-x,y,z
x,-y,z
1/2+x,1/2+y,z
1/2-x,1/2-y,z
1/2-x,1/2+y,z
1/2+x,1/2-y,z
loop_
_atom_site_type_symbol
_atom_site_label
_atom_site_fract_x
_atom_site_fract_y
_atom_site_fract_z
Si Si1 0.085500 0.500000 0.523490
Si Si2 0.583584 0.800160 0.023976
Si Si3 0.414748 0.000000 0.304587
Si Si4 0.335420 0.706470 0.637217
Si Si5 0.165876 0.804598 0.198295
Si Si6 0.917129 0.206688 0.822197
O O1 0.097837 0.500000 0.413942
O O2 0.122093 0.678465 0.561190
O O3 0.000000 0.500000 0.550991
O O4 0.500000 0.726110 0.026555
O O5 0.634230 0.690055 0.093450
O O6 0.586211 0.000000 0.058837
O O7 0.613773 0.787660 0.918340
O O8 0.379074 0.824330 0.264279
O O9 0.500000 0.000000 0.276348
O O10 0.350774 0.500000 0.618240
O O11 0.250000 0.750000 0.630811
O O12 0.364090 0.766048 0.738686
O O13 0.250000 0.750000 0.193270
O O14 0.159175 0.000000 0.240631
O O15 0.000000 0.276672 0.801756
O O16 0.917479 0.000000 0.833224
#
# Coordination Sequence:
#
# PCOD8173505 Si02
#       6
#     4   8   4   8   8   8
#     4  11  26  46  71  97 128 167 213 273 329 384
#     4  10  20  35  59  92 131 173 216 261 312 378
#     4  11  26  48  69  99 130 161 217 273 323 392
#     4  11  23  42  65  97 133 172 217 264 324 385
#     4  12  24  43  67  96 132 173 214 264 327 382
#     4   9  19  35  57  88 127 172 218 261 310 375
#
# _framework density 20.200222
#
# number of rings (size 3 to 8) (size 9 to 14) (size 15 to 20)
#    0.000    1.400    3.000    1.800    1.400    6.000 
#    0.000    4.000    0.000    0.000    0.000    0.000 
#    0.000    0.000    0.000    0.000    0.000    0.000 
#
# Total GULP energy -248060.734800 kJ/mol
# GULP energy per Si atom -12403.036740 kJ/mol
# Density = 2.015425 g / cm^3
# Si number density = 20.200222 Si / 1000 Ang^3
#
#
#
# Elastic Constant Matrix: (Units=GPa)
#
#
# Indices 1 2 3 4 5 6 
#
# 1 148.2297 58.1056 81.6694 0.0000 0.0000 0.0000
# 2 58.1056 131.3919 52.6497 0.0000 0.0000 0.0000
# 3 81.6694 52.6497 110.7699 0.0000 0.0000 0.0000
# 4 0.0000 0.0000 0.0000 35.0650 0.0000 0.0000
# 5 0.0000 0.0000 0.0000 0.0000 5.7926 0.0000
# 6 0.0000 0.0000 0.0000 0.0000 0.0000 22.6731
#
#
#
# Elastic Compliance Matrix: (Units=1/GPa)
#
#
# Indices 1 2 3 4 5 6 
#
# 1 0.011832 -0.002145 -0.007704 0.000000 0.000000 0.000000
# 2 -0.002145 0.009790 -0.003072 0.000000 0.000000 0.000000
# 3 -0.007704 -0.003072 0.016168 0.000000 0.000000 0.000000
# 4 0.000000 0.000000 0.000000 0.028518 0.000000 0.000000
# 5 0.000000 0.000000 0.000000 0.000000 0.172633 0.000000
# 6 0.000000 0.000000 0.000000 0.000000 0.000000 0.044105
#
#
# Mechanical properties :
#
#
# Convention : Reuss Voigt Hill
#
# Bulk Modulus (GPa) = 83.69474 86.13787 84.91631
# Shear Modulus (GPa) = 15.98106 25.90395 20.94250
#
# Velocity S-wave (km/s) = 2.81576 3.58489 3.22335
# Velocity P-wave (km/s) = 7.21761 7.73756 7.48210
#
# Compressibility (1/GPa) = 0.01194818
#
# Stress axis : x y z
#
# Youngs Moduli (GPa) = 84.51831 102.14050 61.85232
#
# Poissons Ratio (x) = 0.21914 0.47649
# Poissons Ratio (y) = 0.18133 0.18999
# Poissons Ratio (z) = 0.65110 0.31374
#
# Static dielectric constant tensor:
#      x y z
#    x 3.759070 0.000000 0.000000 
#    y 0.000000 3.742180 0.000000 
#    z 0.000000 0.000000 3.682770 
# 
# 
# High freq. dielectric constant tensor:
#      x y z
#    x 1.789480 0.000000 0.000000 
#    y 0.000000 1.800220 0.000000 
#    z 0.000000 0.000000 1.788280 
# 
# From -- ./inp_files/16629.got.cif
#   From: 2010.03.12/outbox.cif.g09.slc.cpg/sg35_9_cif.got.tgz:16629.got - 2010.04.14 02:02:04.
