data_PCOD8173542
_publ_section_title
;
Structure prediction by ZEFSAII (Michael W. Deem and Ramdas Pophale) SiO2 
 PCOD8173542
Probable space group: C M M 2
;
_chemical_formula_sum "Si O2"
_cell_formula_units_Z 64
_cell_length_a 8.927592
_cell_length_b 29.185642
_cell_length_c 12.222411
_cell_angle_alpha 90.000000
_cell_angle_beta 90.000000
_cell_angle_gamma 90.000000
_cell_volume 3184.640903
_symmetry_space_group_name_H-M "C M M 2"
_symmetry_group_IT_number 35
_symmetry_cell_setting 'orthorhombic'
loop_
_space_group_symop_operation_xyz
x,y,z
-x,-y,z
-x,y,z
x,-y,z
1/2+x,1/2+y,z
1/2-x,1/2-y,z
1/2-x,1/2+y,z
1/2+x,1/2-y,z
loop_
_atom_site_type_symbol
_atom_site_label
_atom_site_fract_x
_atom_site_fract_y
_atom_site_fract_z
Si Si1 0.323450 0.570842 0.230730
Si Si2 0.828358 0.663233 0.281975
Si Si3 0.328304 0.949044 0.006095
Si Si4 0.327911 0.049658 0.448853
Si Si5 0.672675 0.292597 0.099087
Si Si6 0.171112 0.646567 0.529412
Si Si7 0.172554 0.135617 0.914775
Si Si8 0.822876 0.799856 0.719315
O O1 0.500000 0.565488 0.223309
O O2 0.279187 0.623278 0.240878
O O3 0.255530 0.549605 0.121522
O O4 0.264698 0.544629 0.337587
O O5 0.763757 0.705852 0.214072
O O6 0.812845 0.670650 0.411464
O O7 0.000000 0.653015 0.250451
O O8 0.500000 0.935796 0.026863
O O9 0.313812 0.000000 0.954071
O O10 0.260400 0.912360 0.920632
O O11 0.500000 0.059843 0.415987
O O12 0.275439 0.092893 0.522865
O O13 0.312548 0.000000 0.510135
O O14 0.500000 0.282073 0.120815
O O15 0.750000 0.250000 0.034793
O O16 0.694345 0.338609 0.029564
O O17 0.279352 0.674514 0.608027
O O18 0.000000 0.649606 0.571663
O O19 0.234879 0.168047 0.818271
O O20 0.000000 0.124011 0.892751
O O21 0.750000 0.750000 0.727009
O O22 0.000000 0.793017 0.724173
#
# Coordination Sequence:
#
# PCOD8173542 Si02
#       8
#     8   8   8   8   8   8   8   8
#     4  11  20  31  51  82 120 161 200 241 290 347
#     4  10  20  36  57  83 118 158 197 243 296 350
#     4  11  23  37  57  86 119 159 203 242 288 348
#     4   9  18  34  56  83 118 160 203 244 289 346
#     4  11  22  36  57  86 118 154 193 236 296 363
#     4   9  20  38  60  87 119 154 196 246 297 347
#     4  10  23  42  62  87 118 152 195 247 299 351
#     4  11  24  43  67  91 115 149 197 248 300 357
#
# _framework density 20.096457000000001
#
# number of rings (size 3 to 8) (size 9 to 14) (size 15 to 20)
#    0.000    1.750    1.250    4.125    0.000    7.250 
#    0.000    0.625    0.000    2.250    0.000    0.000 
#    0.000    0.000    0.000    0.000    0.000    0.000 
#
# Total GULP energy -396703.141966 kJ/mol
# GULP energy per Si atom -12396.973186 kJ/mol
# Density = 2.005072 g / cm^3
# Si number density = 20.096457 Si / 1000 Ang^3
#
#
#
# Elastic Constant Matrix: (Units=GPa)
#
#
# Indices 1 2 3 4 5 6 
#
# 1 108.2141 57.7133 43.2866 0.0000 0.0000 0.0000
# 2 57.7133 134.3945 49.6788 0.0000 0.0000 0.0000
# 3 43.2866 49.6788 84.7358 0.0000 0.0000 0.0000
# 4 0.0000 0.0000 0.0000 20.6045 0.0000 0.0000
# 5 0.0000 0.0000 0.0000 0.0000 27.4107 0.0000
# 6 0.0000 0.0000 0.0000 0.0000 0.0000 32.2630
#
#
#
# Elastic Compliance Matrix: (Units=1/GPa)
#
#
# Indices 1 2 3 4 5 6 
#
# 1 0.013129 -0.004033 -0.004342 0.000000 0.000000 0.000000
# 2 -0.004033 0.010738 -0.004235 0.000000 0.000000 0.000000
# 3 -0.004342 -0.004235 0.016503 0.000000 0.000000 0.000000
# 4 0.000000 0.000000 0.000000 0.048533 0.000000 0.000000
# 5 0.000000 0.000000 0.000000 0.000000 0.036482 0.000000
# 6 0.000000 0.000000 0.000000 0.000000 0.000000 0.030995
#
#
# Mechanical properties :
#
#
# Convention : Reuss Voigt Hill
#
# Bulk Modulus (GPa) = 66.01302 69.85574 67.93438
# Shear Modulus (GPa) = 26.78797 27.83334 27.31065
#
# Velocity S-wave (km/s) = 3.65495 3.72558 3.69043
# Velocity P-wave (km/s) = 7.12256 7.30358 7.21364
#
# Compressibility (1/GPa) = 0.01514853
#
# Stress axis : x y z
#
# Youngs Moduli (GPa) = 76.16909 93.12541 60.59561
#
# Poissons Ratio (x) = 0.37555 0.26313
# Poissons Ratio (y) = 0.30717 0.25665
# Poissons Ratio (z) = 0.33076 0.39443
#
# Static dielectric constant tensor:
#      x y z
#    x 3.617990 0.000000 0.000000 
#    y 0.000000 3.872060 0.000000 
#    z 0.000000 0.000000 3.442380 
# 
# 
# High freq. dielectric constant tensor:
#      x y z
#    x 1.787290 0.000000 0.000000 
#    y 0.000000 1.799970 0.000000 
#    z 0.000000 0.000000 1.756530 
# 
# From -- ./inp_files/11928.got.cif
#   From: 2010.03.12/outbox.cif.g09.slc.cpg/sg35_6_cif.got.tgz:11928.got - 2010.04.14 02:02:04.
