data_PCOD8173349
_publ_section_title
;
Structure prediction by ZEFSAII (Michael W. Deem and Ramdas Pophale) SiO2 
 PCOD8173349
Probable space group: C M M 2
;
_chemical_formula_sum "Si O2"
_cell_formula_units_Z 48
_cell_length_a 27.778870
_cell_length_b 8.900756
_cell_length_c 10.056280
_cell_angle_alpha 90.000000
_cell_angle_beta 90.000000
_cell_angle_gamma 90.000000
_cell_volume 2486.444834
_symmetry_space_group_name_H-M "C M M 2"
_symmetry_group_IT_number 35
_symmetry_cell_setting 'orthorhombic'
loop_
_space_group_symop_operation_xyz
x,y,z
-x,-y,z
-x,y,z
x,-y,z
1/2+x,1/2+y,z
1/2-x,1/2-y,z
1/2-x,1/2+y,z
1/2+x,1/2-y,z
loop_
_atom_site_type_symbol
_atom_site_label
_atom_site_fract_x
_atom_site_fract_y
_atom_site_fract_z
Si Si1 0.198560 0.822080 0.211530
Si Si2 0.700795 0.827639 0.710812
Si Si3 0.644367 0.826281 0.975204
Si Si4 0.445368 0.674937 0.880311
Si Si5 0.646699 0.824168 0.449806
Si Si6 0.053995 0.328694 0.603573
O O1 0.250000 0.750000 0.244711
O O2 0.160123 0.773331 0.322314
O O3 0.204213 0.000000 0.209196
O O4 0.179608 0.766145 0.070030
O O5 0.750000 0.750000 0.750302
O O6 0.662028 0.800235 0.825433
O O7 0.679221 0.767064 0.572732
O O8 0.713233 0.000000 0.694789
O O9 0.589835 0.764162 0.980442
O O10 0.645195 0.000000 0.018270
O O11 0.500000 0.712446 0.923429
O O12 0.433890 0.500000 0.893022
O O13 0.436801 0.721756 0.728179
O O14 0.590917 0.790794 0.484984
O O15 0.654934 0.000000 0.419622
O O16 0.062764 0.500000 0.652842
O O17 0.000000 0.307421 0.547158
#
# Coordination Sequence:
#
# PCOD8173349 Si02
#       6
#     8   8   8   8   8   8
#     4  12  26  43  61  85 116 159 201 243 300 359
#     4  10  21  35  55  84 113 144 189 242 293 344
#     4  11  22  40  62  86 115 155 201 246 294 351
#     4  10  20  34  56  89 125 157 192 239 296 353
#     4  10  20  38  59  86 118 153 197 244 291 350
#     4   9  17  33  59  88 119 155 195 240 291 349
#
# _framework density 19.304670999999999
#
# number of rings (size 3 to 8) (size 9 to 14) (size 15 to 20)
#    0.000    1.667    1.667    3.500    0.000    6.333 
#    0.000    0.833    0.000    3.000    0.000    0.000 
#    0.000    0.000    0.000    0.000    0.000    0.000 
#
# Total GULP energy -297674.480853 kJ/mol
# GULP energy per Si atom -12403.103369 kJ/mol
# Density = 1.926073 g / cm^3
# Si number density = 19.304671 Si / 1000 Ang^3
#
#
#
# Elastic Constant Matrix: (Units=GPa)
#
#
# Indices 1 2 3 4 5 6 
#
# 1 120.5873 46.8011 17.2851 0.0000 0.0000 0.0000
# 2 46.8011 97.5827 31.3343 0.0000 0.0000 0.0000
# 3 17.2851 31.3343 54.8668 0.0000 0.0000 0.0000
# 4 0.0000 0.0000 0.0000 31.8996 0.0000 0.0000
# 5 0.0000 0.0000 0.0000 0.0000 32.6323 0.0000
# 6 0.0000 0.0000 0.0000 0.0000 0.0000 28.1702
#
#
#
# Elastic Compliance Matrix: (Units=1/GPa)
#
#
# Indices 1 2 3 4 5 6 
#
# 1 0.010201 -0.004728 -0.000514 0.000000 0.000000 0.000000
# 2 -0.004728 0.014740 -0.006929 0.000000 0.000000 0.000000
# 3 -0.000514 -0.006929 0.022345 0.000000 0.000000 0.000000
# 4 0.000000 0.000000 0.000000 0.031348 0.000000 0.000000
# 5 0.000000 0.000000 0.000000 0.000000 0.030645 0.000000
# 6 0.000000 0.000000 0.000000 0.000000 0.000000 0.035498
#
#
# Mechanical properties :
#
#
# Convention : Reuss Voigt Hill
#
# Bulk Modulus (GPa) = 43.58082 51.54198 47.56140
# Shear Modulus (GPa) = 28.28603 30.38151 29.33377
#
# Velocity S-wave (km/s) = 3.83200 3.97141 3.90233
# Velocity P-wave (km/s) = 6.49640 6.91279 6.70783
#
# Compressibility (1/GPa) = 0.02294587
#
# Stress axis : x y z
#
# Youngs Moduli (GPa) = 98.02766 67.84327 44.75328
#
# Poissons Ratio (x) = 0.32073 0.02300
# Poissons Ratio (y) = 0.46343 0.31008
# Poissons Ratio (z) = 0.05037 0.47006
#
# Static dielectric constant tensor:
#      x y z
#    x 3.771940 0.000000 0.000000 
#    y 0.000000 3.529550 0.000000 
#    z 0.000000 0.000000 3.289430 
# 
# 
# High freq. dielectric constant tensor:
#      x y z
#    x 1.767930 0.000000 0.000000 
#    y 0.000000 1.750860 0.000000 
#    z 0.000000 0.000000 1.730240 
# 
# From -- ./inp_files/5296.got.cif
#   From: 2010.03.12/outbox.cif.g09.slc.cpg/sg35_3_cif.got.tgz:5296.got - 2010.04.14 02:02:04.
