data_PCOD8173960
_publ_section_title
;
Structure prediction by ZEFSAII (Michael W. Deem and Ramdas Pophale) SiO2 
 PCOD8173960
Probable space group: C M M 2
;
_chemical_formula_sum "Si O2"
_cell_formula_units_Z 56
_cell_length_a 30.158531
_cell_length_b 15.501238
_cell_length_c 5.114866
_cell_angle_alpha 90.000000
_cell_angle_beta 90.000000
_cell_angle_gamma 90.000000
_cell_volume 2391.172065
_symmetry_space_group_name_H-M "C M M 2"
_symmetry_group_IT_number 35
_symmetry_cell_setting 'orthorhombic'
loop_
_space_group_symop_operation_xyz
x,y,z
-x,-y,z
-x,y,z
x,-y,z
1/2+x,1/2+y,z
1/2-x,1/2-y,z
1/2-x,1/2+y,z
1/2+x,1/2-y,z
loop_
_atom_site_type_symbol
_atom_site_label
_atom_site_fract_x
_atom_site_fract_y
_atom_site_fract_z
Si Si1 0.548937 0.260504 0.762380
Si Si2 0.758008 0.652434 0.239340
Si Si3 0.950556 0.596698 0.396239
Si Si4 0.839995 0.150527 0.161872
Si Si5 0.389351 0.403556 0.649091
Si Si6 0.690276 0.098114 0.745566
Si Si7 0.619612 0.819188 0.062085
O O1 0.500000 0.281247 0.859771
O O2 0.551811 0.169845 0.613646
O O3 0.567288 0.343743 0.612518
O O4 0.580335 0.249421 0.011509
O O5 0.750000 0.750000 0.152859
O O6 0.708708 0.613725 0.226857
O O7 0.780584 0.645451 0.525465
O O8 0.787073 0.601193 0.029528
O O9 0.947795 0.500000 0.517311
O O10 0.905910 0.605640 0.219683
O O11 0.000000 0.606033 0.256560
O O12 0.868998 0.096440 0.362013
O O13 0.844303 0.256599 0.210499
O O14 0.853803 0.131133 0.862310
O O15 0.404167 0.500000 0.723669
O O16 0.683469 0.000000 0.655933
O O17 0.642052 0.142101 0.796845
#
# Coordination Sequence:
#
# PCOD8173960 Si02
#       7
#     8   8   8   8   8   8   8
#     4  10  23  42  66  97 137 179 225 281 344 410
#     4  12  26  46  70  98 135 185 228 283 344 419
#     4  10  21  39  66  99 135 178 228 281 341 410
#     4  11  24  43  72  98 133 179 229 282 338 408
#     4  11  24  43  70 104 136 179 231 281 341 406
#     4  12  28  44  69 104 139 177 229 284 349 412
#     4  11  23  42  66  98 133 181 224 282 342 413
#
# _framework density 23.419477000000001
#
# number of rings (size 3 to 8) (size 9 to 14) (size 15 to 20)
#    0.000    1.000    2.857    3.000    6.000    4.857 
#    0.000    1.429    0.000    1.714    0.000    0.000 
#    0.000    0.000    0.000    0.000    0.000    0.000 
#
# Total GULP energy -346916.358604 kJ/mol
# GULP energy per Si atom -12389.869950 kJ/mol
# Density = 2.336617 g / cm^3
# Si number density = 23.419477 Si / 1000 Ang^3
#
#
#
# Elastic Constant Matrix: (Units=GPa)
#
#
# Indices 1 2 3 4 5 6 
#
# 1 117.8332 15.4572 22.7711 0.0000 0.0000 0.0000
# 2 15.4572 120.4728 5.4436 0.0000 0.0000 0.0000
# 3 22.7711 5.4436 82.3272 0.0000 0.0000 0.0000
# 4 0.0000 0.0000 0.0000 27.2670 0.0000 0.0000
# 5 0.0000 0.0000 0.0000 0.0000 30.6596 0.0000
# 6 0.0000 0.0000 0.0000 0.0000 0.0000 20.0594
#
#
#
# Elastic Compliance Matrix: (Units=1/GPa)
#
#
# Indices 1 2 3 4 5 6 
#
# 1 0.009098 -0.001057 -0.002447 0.000000 0.000000 0.000000
# 2 -0.001057 0.008448 -0.000266 0.000000 0.000000 0.000000
# 3 -0.002447 -0.000266 0.012841 0.000000 0.000000 0.000000
# 4 0.000000 0.000000 0.000000 0.036674 0.000000 0.000000
# 5 0.000000 0.000000 0.000000 0.000000 0.032616 0.000000
# 6 0.000000 0.000000 0.000000 0.000000 0.000000 0.049852
#
#
# Mechanical properties :
#
#
# Convention : Reuss Voigt Hill
#
# Bulk Modulus (GPa) = 43.76765 45.33077 44.54921
# Shear Modulus (GPa) = 30.36102 34.06130 32.21116
#
# Velocity S-wave (km/s) = 3.60446 3.81780 3.71266
# Velocity P-wave (km/s) = 6.00433 6.23154 6.11899
#
# Compressibility (1/GPa) = 0.02284793
#
# Stress axis : x y z
#
# Youngs Moduli (GPa) = 109.91441 118.36767 77.87576
#
# Poissons Ratio (x) = 0.12509 0.19053
# Poissons Ratio (y) = 0.11615 0.02074
# Poissons Ratio (z) = 0.26891 0.03152
#
# Static dielectric constant tensor:
#      x y z
#    x 4.881130 0.000000 0.000000 
#    y 0.000000 4.220580 0.000000 
#    z 0.000000 0.000000 3.795170 
# 
# 
# High freq. dielectric constant tensor:
#      x y z
#    x 1.945570 0.000000 0.000000 
#    y 0.000000 1.927800 0.000000 
#    z 0.000000 0.000000 1.903430 
# 
# From -- ./inp_files/2068.got.cif
#   From: 2010.03.12/outbox.cif.g09.slc.cpg/sg35_2_cif.got.tgz:2068.got - 2010.04.14 02:02:04.
