data_PCOD8173127
_publ_section_title
;
Structure prediction by ZEFSAII (Michael W. Deem and Ramdas Pophale) SiO2 
 PCOD8173127
Probable space group: C M M 2
;
_chemical_formula_sum "Si O2"
_cell_formula_units_Z 64
_cell_length_a 9.112168
_cell_length_b 29.325752
_cell_length_c 12.341954
_cell_angle_alpha 90.000000
_cell_angle_beta 90.000000
_cell_angle_gamma 90.000000
_cell_volume 3298.031498
_symmetry_space_group_name_H-M "C M M 2"
_symmetry_group_IT_number 35
_symmetry_cell_setting 'orthorhombic'
loop_
_space_group_symop_operation_xyz
x,y,z
-x,-y,z
-x,y,z
x,-y,z
1/2+x,1/2+y,z
1/2-x,1/2-y,z
1/2-x,1/2+y,z
1/2+x,1/2-y,z
loop_
_atom_site_type_symbol
_atom_site_label
_atom_site_fract_x
_atom_site_fract_y
_atom_site_fract_z
Si Si1 0.338199 0.568202 0.223060
Si Si2 0.663676 0.668274 0.298284
Si Si3 0.173412 0.949828 0.989486
Si Si4 0.173221 0.050283 0.457143
Si Si5 0.668131 0.292430 0.081842
Si Si6 0.171595 0.640244 0.506346
Si Si7 0.170167 0.141709 0.891882
Si Si8 0.672865 0.799129 0.712974
O O1 0.500000 0.546213 0.218830
O O2 0.347019 0.622081 0.230785
O O3 0.262771 0.549612 0.333771
O O4 0.255932 0.554468 0.110918
O O5 0.500000 0.681578 0.340221
O O6 0.724546 0.702345 0.206198
O O7 0.773569 0.665716 0.398547
O O8 0.227367 0.910764 0.905502
O O9 0.000000 0.942213 0.002166
O O10 0.211974 0.000000 0.942044
O O11 0.251098 0.090846 0.524234
O O12 0.000000 0.061836 0.455632
O O13 0.202645 0.000000 0.509025
O O14 0.500000 0.279138 0.084208
O O15 0.750000 0.250000 0.026610
O O16 0.694025 0.337067 0.010285
O O17 0.211022 0.674362 0.602894
O O18 0.000000 0.631042 0.497180
O O19 0.270067 0.168482 0.807868
O O20 0.000000 0.144390 0.854550
O O21 0.500000 0.791284 0.727190
O O22 0.750000 0.750000 0.713927
#
# Coordination Sequence:
#
# PCOD8173127 Si02
#       8
#     8   8   8   8   8   8   8   8
#     4   8  12  23  45  75 110 146 181 218 259 307
#     4   9  17  32  53  77 111 148 181 221 272 329
#     4   9  15  25  48  82 115 147 184 224 266 315
#     4   9  17  30  53  85 117 152 192 229 267 318
#     4  10  20  33  51  79 112 145 179 220 277 341
#     4  10  22  38  56  81 112 145 185 232 285 337
#     4  10  20  36  58  84 115 146 183 231 280 330
#     4  11  25  44  64  83 104 138 187 239 290 340
#
# _framework density 19.405517
#
# number of rings (size 3 to 8) (size 9 to 14) (size 15 to 20)
#    0.000    2.500    1.250    2.250    0.000    6.250 
#    0.000    3.125    0.000    2.625    0.000    0.000 
#    0.000    0.000    0.000    0.000    0.000    0.000 
#
# Total GULP energy -396479.675177 kJ/mol
# GULP energy per Si atom -12389.989849 kJ/mol
# Density = 1.936135 g / cm^3
# Si number density = 19.405517 Si / 1000 Ang^3
#
#
#
# Elastic Constant Matrix: (Units=GPa)
#
#
# Indices 1 2 3 4 5 6 
#
# 1 59.6911 50.0623 47.0730 0.0000 0.0000 0.0000
# 2 50.0623 146.5026 60.3531 0.0000 0.0000 0.0000
# 3 47.0730 60.3531 93.2898 0.0000 0.0000 0.0000
# 4 0.0000 0.0000 0.0000 20.2463 0.0000 0.0000
# 5 0.0000 0.0000 0.0000 0.0000 23.9057 0.0000
# 6 0.0000 0.0000 0.0000 0.0000 0.0000 22.5106
#
#
#
# Elastic Compliance Matrix: (Units=1/GPa)
#
#
# Indices 1 2 3 4 5 6 
#
# 1 0.030902 -0.005639 -0.011945 0.000000 0.000000 0.000000
# 2 -0.005639 0.010335 -0.003841 0.000000 0.000000 0.000000
# 3 -0.011945 -0.003841 0.019231 0.000000 0.000000 0.000000
# 4 0.000000 0.000000 0.000000 0.049392 0.000000 0.000000
# 5 0.000000 0.000000 0.000000 0.000000 0.041831 0.000000
# 6 0.000000 0.000000 0.000000 0.000000 0.000000 0.044424
#
#
# Mechanical properties :
#
#
# Convention : Reuss Voigt Hill
#
# Bulk Modulus (GPa) = 56.75605 68.27338 62.51472
# Shear Modulus (GPa) = 20.42177 22.79884 21.61030
#
# Velocity S-wave (km/s) = 3.24754 3.43135 3.34071
# Velocity P-wave (km/s) = 6.58581 7.13847 6.86770
#
# Compressibility (1/GPa) = 0.01761927
#
# Stress axis : x y z
#
# Youngs Moduli (GPa) = 32.36033 96.75858 51.99873
#
# Poissons Ratio (x) = 0.54562 0.62111
# Poissons Ratio (y) = 0.18248 0.19972
# Poissons Ratio (z) = 0.38654 0.37163
#
# Static dielectric constant tensor:
#      x y z
#    x 3.223030 0.000000 0.000000 
#    y 0.000000 3.759170 0.000000 
#    z 0.000000 0.000000 3.468450 
# 
# 
# High freq. dielectric constant tensor:
#      x y z
#    x 1.712080 0.000000 0.000000 
#    y 0.000000 1.770040 0.000000 
#    z 0.000000 0.000000 1.741060 
# 
# From -- ./inp_files/11930.got.cif
#   From: 2010.03.12/outbox.cif.g09.slc.cpg/sg35_6_cif.got.tgz:11930.got - 2010.04.14 02:02:04.
