data_PCOD8173201
_publ_section_title
;
Structure prediction by ZEFSAII (Michael W. Deem and Ramdas Pophale) SiO2 
 PCOD8173201
Probable space group: C M M 2
;
_chemical_formula_sum "Si O2"
_cell_formula_units_Z 40
_cell_length_a 14.722779
_cell_length_b 9.063945
_cell_length_c 16.517124
_cell_angle_alpha 90.000000
_cell_angle_beta 90.000000
_cell_angle_gamma 90.000000
_cell_volume 2204.151712
_symmetry_space_group_name_H-M "C M M 2"
_symmetry_group_IT_number 35
_symmetry_cell_setting 'orthorhombic'
loop_
_space_group_symop_operation_xyz
x,y,z
-x,-y,z
-x,y,z
x,-y,z
1/2+x,1/2+y,z
1/2-x,1/2-y,z
1/2-x,1/2+y,z
1/2+x,1/2-y,z
loop_
_atom_site_type_symbol
_atom_site_label
_atom_site_fract_x
_atom_site_fract_y
_atom_site_fract_z
Si Si1 0.000000 0.174169 0.524060
Si Si2 0.000000 0.675230 0.107060
Si Si3 0.657067 0.829245 0.993511
Si Si4 0.500000 0.669809 0.276397
Si Si5 0.000000 0.824625 0.710519
Si Si6 0.654650 0.827042 0.810153
Si Si7 0.152459 0.827435 0.405205
O O1 0.907327 0.232917 0.481335
O O2 0.000000 0.221501 0.616819
O O3 0.000000 0.000000 0.510661
O O4 0.000000 0.729770 0.197897
O O5 0.000000 0.500000 0.106159
O O6 0.086460 0.735928 0.057948
O O7 0.750000 0.750000 0.010987
O O8 0.621156 0.802143 0.902217
O O9 0.674419 0.000000 0.008005
O O10 0.500000 0.500000 0.250066
O O11 0.408311 0.706123 0.325979
O O12 0.912186 0.753737 0.749753
O O13 0.000000 0.000000 0.722539
O O14 0.750000 0.750000 0.796217
O O15 0.660695 0.000000 0.789203
O O16 0.250000 0.750000 0.400136
O O17 0.172002 0.000000 0.413842
#
# Coordination Sequence:
#
# PCOD8173201 Si02
#       7
#     4   4   8   4   4   8   8
#     4   8  18  36  54  75 105 136 167 206 252 307
#     4  10  20  34  52  75 104 134 166 209 256 298
#     4   9  19  35  53  73 100 136 175 214 255 301
#     4   9  20  36  52  74 104 134 165 202 249 306
#     4  11  21  34  54  80 109 140 174 215 265 313
#     4  10  20  36  55  76 105 141 181 221 262 309
#     4   9  18  36  58  76  99 133 168 204 250 302
#
# _framework density 18.147572
#
# number of rings (size 3 to 8) (size 9 to 14) (size 15 to 20)
#    0.000    2.600    0.000    2.700    0.000    5.600 
#    0.000   10.500    0.000    0.000    0.000    0.000 
#    0.000    0.000    0.000    0.000    0.000    0.000 
#
# Total GULP energy -247941.472673 kJ/mol
# GULP energy per Si atom -12397.073634 kJ/mol
# Density = 1.810627 g / cm^3
# Si number density = 18.147572 Si / 1000 Ang^3
#
#
#
# Elastic Constant Matrix: (Units=GPa)
#
#
# Indices 1 2 3 4 5 6 
#
# 1 143.5031 56.4708 78.5195 0.0000 0.0000 0.0000
# 2 56.4708 66.6307 53.3818 0.0000 0.0000 0.0000
# 3 78.5195 53.3818 129.4691 0.0000 0.0000 0.0000
# 4 0.0000 0.0000 0.0000 28.5711 0.0000 0.0000
# 5 0.0000 0.0000 0.0000 0.0000 29.3302 0.0000
# 6 0.0000 0.0000 0.0000 0.0000 0.0000 35.5685
#
#
#
# Elastic Compliance Matrix: (Units=1/GPa)
#
#
# Indices 1 2 3 4 5 6 
#
# 1 0.012067 -0.006516 -0.004631 0.000000 0.000000 0.000000
# 2 -0.006516 0.025930 -0.006739 0.000000 0.000000 0.000000
# 3 -0.004631 -0.006739 0.013311 0.000000 0.000000 0.000000
# 4 0.000000 0.000000 0.000000 0.035000 0.000000 0.000000
# 5 0.000000 0.000000 0.000000 0.000000 0.034095 0.000000
# 6 0.000000 0.000000 0.000000 0.000000 0.000000 0.028115
#
#
# Mechanical properties :
#
#
# Convention : Reuss Voigt Hill
#
# Bulk Modulus (GPa) = 64.37447 79.59412 71.98430
# Shear Modulus (GPa) = 26.38929 28.77602 27.58266
#
# Velocity S-wave (km/s) = 3.81747 3.98636 3.90283
# Velocity P-wave (km/s) = 7.41489 8.07110 7.74994
#
# Compressibility (1/GPa) = 0.01553411
#
# Stress axis : x y z
#
# Youngs Moduli (GPa) = 82.87071 38.56514 75.12343
#
# Poissons Ratio (x) = 0.25131 0.34793
# Poissons Ratio (y) = 0.54002 0.50628
# Poissons Ratio (z) = 0.38381 0.25990
#
# Static dielectric constant tensor:
#      x y z
#    x 3.395800 0.000000 0.000000 
#    y 0.000000 3.222870 0.000000 
#    z 0.000000 0.000000 3.444490 
# 
# 
# High freq. dielectric constant tensor:
#      x y z
#    x 1.714230 0.000000 0.000000 
#    y 0.000000 1.693020 0.000000 
#    z 0.000000 0.000000 1.704700 
# 
# From -- ./inp_files/14843.got.cif
#   From: 2010.03.12/outbox.cif.g09.slc.cpg/sg35_8_cif.got.tgz:14843.got - 2010.04.14 02:02:04.
