data_PCOD8173904
_publ_section_title
;
Structure prediction by ZEFSAII (Michael W. Deem and Ramdas Pophale) SiO2 
 PCOD8173904
Probable space group: C M M 2
;
_chemical_formula_sum "Si O2"
_cell_formula_units_Z 48
_cell_length_a 8.875595
_cell_length_b 15.496351
_cell_length_c 17.070101
_cell_angle_alpha 90.000000
_cell_angle_beta 90.000000
_cell_angle_gamma 90.000000
_cell_volume 2347.810348
_symmetry_space_group_name_H-M "C M M 2"
_symmetry_group_IT_number 35
_symmetry_cell_setting 'orthorhombic'
loop_
_space_group_symop_operation_xyz
x,y,z
-x,-y,z
-x,y,z
x,-y,z
1/2+x,1/2+y,z
1/2-x,1/2-y,z
1/2-x,1/2+y,z
1/2+x,1/2-y,z
loop_
_atom_site_type_symbol
_atom_site_label
_atom_site_fract_x
_atom_site_fract_y
_atom_site_fract_z
Si Si1 0.831969 0.102692 0.413370
Si Si2 0.821212 0.338597 0.088393
Si Si3 0.675873 0.398772 0.240365
Si Si4 0.821051 0.000000 0.000954
Si Si5 0.322881 0.163306 0.730020
Si Si6 0.822907 0.500000 0.834227
Si Si7 0.322316 0.902515 0.566046
O O1 0.774956 0.132722 0.327543
O O2 0.732309 0.140806 0.484500
O O3 0.000000 0.136740 0.427519
O O4 0.827712 0.000000 0.413074
O O5 0.750000 0.250000 0.055724
O O6 0.779819 0.347334 0.179923
O O7 0.748774 0.415825 0.040066
O O8 0.000000 0.338129 0.076872
O O9 0.500000 0.378236 0.225291
O O10 0.705595 0.500000 0.229168
O O11 0.000000 0.000000 0.013203
O O12 0.779924 0.000000 0.910229
O O13 0.500000 0.174983 0.728817
O O14 0.250000 0.250000 0.764673
O O15 0.260235 0.148240 0.641735
O O16 0.277550 0.083628 0.784424
O O17 0.000000 0.500000 0.855896
O O18 0.500000 0.902863 0.567029
O O19 0.260091 0.000000 0.571597
#
# Coordination Sequence:
#
# PCOD8173904 Si02
#       7
#     8   8   8   4   8   4   8
#     4   8  15  27  47  79 115 155 199 247 301 349
#     4  12  25  42  66  96 127 164 208 252 306 367
#     4   9  17  33  57  84 121 164 205 253 308 361
#     4  12  26  46  70  97 128 159 198 249 306 371
#     4  10  21  38  61  88 120 157 198 245 300 358
#     4  10  22  44  68  89 120 159 196 239 300 369
#     4   9  16  30  52  78 111 155 202 246 294 350
#
# _framework density 20.444582
#
# number of rings (size 3 to 8) (size 9 to 14) (size 15 to 20)
#    0.000    2.167    1.667    3.250    0.000    2.667 
#    0.000    4.167    0.000    2.000    0.000    0.000 
#    0.000    0.000    0.000    0.000    0.000    0.000 
#
# Total GULP energy -297551.916693 kJ/mol
# GULP energy per Si atom -12397.996529 kJ/mol
# Density = 2.039805 g / cm^3
# Si number density = 20.444582 Si / 1000 Ang^3
#
#
#
# Elastic Constant Matrix: (Units=GPa)
#
#
# Indices 1 2 3 4 5 6 
#
# 1 94.9473 53.1170 54.6375 0.0000 0.0000 0.0000
# 2 53.1170 124.6086 59.4889 0.0000 0.0000 0.0000
# 3 54.6375 59.4889 139.5837 0.0000 0.0000 0.0000
# 4 0.0000 0.0000 0.0000 -3.2564 0.0000 0.0000
# 5 0.0000 0.0000 0.0000 0.0000 37.1455 0.0000
# 6 0.0000 0.0000 0.0000 0.0000 0.0000 28.3184
#
#
#
# Elastic Compliance Matrix: (Units=1/GPa)
#
#
# Indices 1 2 3 4 5 6 
#
# 1 0.015481 -0.004653 -0.004077 0.000000 0.000000 0.000000
# 2 -0.004653 0.011473 -0.003069 0.000000 0.000000 0.000000
# 3 -0.004077 -0.003069 0.010068 0.000000 0.000000 0.000000
# 4 0.000000 0.000000 0.000000 -0.307091 0.000000 0.000000
# 5 0.000000 0.000000 0.000000 0.000000 0.026921 0.000000
# 6 0.000000 0.000000 0.000000 0.000000 0.000000 0.035313
#
#
# Mechanical properties :
#
#
# Convention : Reuss Voigt Hill
#
# Bulk Modulus (GPa) = 74.48321 77.06960 75.77641
# Shear Modulus (GPa) = -27.81439 25.23458 -1.28990
#
# Velocity S-wave (km/s) = -3.69247 3.51706 -0.79517
# Velocity P-wave (km/s) = 4.28156 7.36693 6.02509
#
# Compressibility (1/GPa) = 0.01342584
#
# Stress axis : x y z
#
# Youngs Moduli (GPa) = 64.59470 87.15765 99.32711
#
# Poissons Ratio (x) = 0.40553 0.40494
# Poissons Ratio (y) = 0.30055 0.30479
# Poissons Ratio (z) = 0.26334 0.26745
#
# Static dielectric constant tensor:
#      x y z
#    x 3.558210 0.000000 0.000000 
#    y 0.000000 3.667430 0.000000 
#    z 0.000000 0.000000 3.995220 
# 
# 
# High freq. dielectric constant tensor:
#      x y z
#    x 1.784120 0.000000 0.000000 
#    y 0.000000 1.788310 0.000000 
#    z 0.000000 0.000000 1.807810 
# 
# From -- ./inp_files/17861.got.cif
#   From: 2010.03.12/outbox.cif.g09.slc.cpg/sg35_9_cif.got.tgz:17861.got - 2010.04.14 02:02:04.
