data_PCOD8173221
_publ_section_title
;
Structure prediction by ZEFSAII (Michael W. Deem and Ramdas Pophale) SiO2 
 PCOD8173221
Probable space group: C M M 2
;
_chemical_formula_sum "Si O2"
_cell_formula_units_Z 56
_cell_length_a 9.139016
_cell_length_b 19.472976
_cell_length_c 17.405734
_cell_angle_alpha 90.000000
_cell_angle_beta 90.000000
_cell_angle_gamma 90.000000
_cell_volume 3097.591247
_symmetry_space_group_name_H-M "C M M 2"
_symmetry_group_IT_number 35
_symmetry_cell_setting 'orthorhombic'
loop_
_space_group_symop_operation_xyz
x,y,z
-x,-y,z
-x,y,z
x,-y,z
1/2+x,1/2+y,z
1/2-x,1/2-y,z
1/2-x,1/2+y,z
1/2+x,1/2-y,z
loop_
_atom_site_type_symbol
_atom_site_label
_atom_site_fract_x
_atom_site_fract_y
_atom_site_fract_z
Si Si1 0.328313 0.679156 0.641280
Si Si2 0.333011 0.418896 0.112400
Si Si3 0.172171 0.680884 0.221587
Si Si4 0.330501 0.817719 0.396633
Si Si5 0.670669 0.318794 0.817784
Si Si6 0.326618 0.575380 0.941292
Si Si7 0.829018 0.579549 0.528489
O O1 0.500000 0.687355 0.624597
O O2 0.250000 0.750000 0.616610
O O3 0.295919 0.661640 0.729945
O O4 0.264125 0.615016 0.595207
O O5 0.500000 0.396781 0.129271
O O6 0.315099 0.500000 0.121890
O O7 0.225305 0.382971 0.171819
O O8 0.286338 0.396525 0.026089
O O9 0.250000 0.750000 0.192156
O O10 0.217389 0.665661 0.309645
O O11 0.000000 0.689926 0.211840
O O12 0.500000 0.800142 0.401317
O O13 0.250000 0.750000 0.428564
O O14 0.290335 0.883681 0.447981
O O15 0.500000 0.307919 0.831594
O O16 0.750000 0.250000 0.842327
O O17 0.736225 0.376747 0.873949
O O18 0.500000 0.569895 0.934894
O O19 0.257420 0.500000 0.929130
O O20 0.782936 0.500000 0.521857
O O21 0.000000 0.587078 0.548176
#
# Coordination Sequence:
#
# PCOD8173221 Si02
#       7
#     8   8   8   8   8   8   8
#     4  10  20  34  53  76 102 133 169 207 248 296
#     4   9  18  33  52  74 102 135 169 205 248 298
#     4  10  20  34  53  76 102 131 166 208 250 295
#     4   9  19  35  54  74  97 130 168 204 246 297
#     4   9  18  32  51  74  99 128 163 204 246 290
#     4   8  15  30  51  72  96 130 168 202 241 291
#     4  10  21  36  53  75 104 134 164 202 249 298
#
# _framework density 18.078564
#
# number of rings (size 3 to 8) (size 9 to 14) (size 15 to 20)
#    0.000    2.714    0.000    2.143    0.000    5.143 
#    0.000    5.000    0.000    1.286    0.000    0.000 
#    0.000    0.000    0.000    0.000    0.000    0.000 
#
# Total GULP energy -347201.236278 kJ/mol
# GULP energy per Si atom -12400.044153 kJ/mol
# Density = 1.803742 g / cm^3
# Si number density = 18.078564 Si / 1000 Ang^3
#
#
#
# Elastic Constant Matrix: (Units=GPa)
#
#
# Indices 1 2 3 4 5 6 
#
# 1 58.6707 50.9547 44.6705 0.0000 0.0000 0.0000
# 2 50.9547 129.4687 79.0329 0.0000 0.0000 0.0000
# 3 44.6705 79.0329 107.1486 0.0000 0.0000 0.0000
# 4 0.0000 0.0000 0.0000 35.1094 0.0000 0.0000
# 5 0.0000 0.0000 0.0000 0.0000 18.9532 0.0000
# 6 0.0000 0.0000 0.0000 0.0000 0.0000 30.9105
#
#
#
# Elastic Compliance Matrix: (Units=1/GPa)
#
#
# Indices 1 2 3 4 5 6 
#
# 1 0.028175 -0.007128 -0.006489 0.000000 0.000000 0.000000
# 2 -0.007128 0.015853 -0.008722 0.000000 0.000000 0.000000
# 3 -0.006489 -0.008722 0.018471 0.000000 0.000000 0.000000
# 4 0.000000 0.000000 0.000000 0.028482 0.000000 0.000000
# 5 0.000000 0.000000 0.000000 0.000000 0.052762 0.000000
# 6 0.000000 0.000000 0.000000 0.000000 0.000000 0.032352
#
#
# Mechanical properties :
#
#
# Convention : Reuss Voigt Hill
#
# Bulk Modulus (GPa) = 56.10783 71.62269 63.86526
# Shear Modulus (GPa) = 22.05435 25.03661 23.54548
#
# Velocity S-wave (km/s) = 3.49652 3.72543 3.61279
# Velocity P-wave (km/s) = 6.88504 7.62946 7.26679
#
# Compressibility (1/GPa) = 0.01782282
#
# Stress axis : x y z
#
# Youngs Moduli (GPa) = 35.49244 63.07845 54.13820
#
# Poissons Ratio (x) = 0.44961 0.35129
# Poissons Ratio (y) = 0.25298 0.47218
# Poissons Ratio (z) = 0.23030 0.55016
#
# Static dielectric constant tensor:
#      x y z
#    x 3.193760 0.000000 0.000000 
#    y 0.000000 3.454020 0.000000 
#    z 0.000000 0.000000 3.509980 
# 
# 
# High freq. dielectric constant tensor:
#      x y z
#    x 1.685330 0.000000 0.000000 
#    y 0.000000 1.697890 0.000000 
#    z 0.000000 0.000000 1.707810 
# 
# From -- ./inp_files/15610.got.cif
#   From: 2010.03.12/outbox.cif.g09.slc.cpg/sg35_8_cif.got.tgz:15610.got - 2010.04.14 02:02:04.
