data_PCOD8173106
_publ_section_title
;
Structure prediction by ZEFSAII (Michael W. Deem and Ramdas Pophale) SiO2 
 PCOD8173106
Probable space group: C M M 2
;
_chemical_formula_sum "Si O2"
_cell_formula_units_Z 48
_cell_length_a 31.332273
_cell_length_b 8.999101
_cell_length_c 9.370126
_cell_angle_alpha 90.000000
_cell_angle_beta 90.000000
_cell_angle_gamma 90.000000
_cell_volume 2642.022178
_symmetry_space_group_name_H-M "C M M 2"
_symmetry_group_IT_number 35
_symmetry_cell_setting 'orthorhombic'
loop_
_space_group_symop_operation_xyz
x,y,z
-x,-y,z
-x,y,z
x,-y,z
1/2+x,1/2+y,z
1/2-x,1/2-y,z
1/2-x,1/2+y,z
1/2+x,1/2-y,z
loop_
_atom_site_type_symbol
_atom_site_label
_atom_site_fract_x
_atom_site_fract_y
_atom_site_fract_z
Si Si1 0.953051 0.172725 0.120180
Si Si2 0.954506 0.668369 0.829106
Si Si3 0.792745 0.172946 0.624134
Si Si4 0.293575 0.675121 0.297283
Si Si5 0.869100 0.670684 0.133171
Si Si6 0.363540 0.166753 0.794504
O O1 0.914861 0.268486 0.190522
O O2 0.000000 0.207033 0.189253
O O3 0.941706 0.000000 0.136924
O O4 0.955535 0.211934 0.953945
O O5 0.950361 0.500000 0.893773
O O6 0.911979 0.695404 0.733958
O O7 0.000000 0.681924 0.743519
O O8 0.750000 0.250000 0.682367
O O9 0.801979 0.219894 0.461511
O O10 0.832473 0.217426 0.721274
O O11 0.785294 0.000000 0.639272
O O12 0.289353 0.500000 0.276786
O O13 0.250000 0.750000 0.242287
O O14 0.332224 0.734387 0.204611
O O15 0.864611 0.500000 0.179323
O O16 0.864882 0.692220 0.963882
O O17 0.348153 0.000000 0.757677
#
# Coordination Sequence:
#
# PCOD8173106 Si02
#       6
#     8   8   8   8   8   8
#     4   9  16  26  43  69 100 132 164 200 243 289
#     4   8  14  26  44  67  97 131 164 198 237 285
#     4  10  21  36  54  73  95 127 165 202 244 295
#     4  10  21  37  55  74  96 126 165 205 248 299
#     4  10  20  33  51  76 103 132 166 204 246 290
#     4   9  18  31  49  75 103 129 161 201 243 285
#
# _framework density 18.167902000000002
#
# number of rings (size 3 to 8) (size 9 to 14) (size 15 to 20)
#    0.000    2.667    0.000    3.000    0.000    7.000 
#    0.000    0.000    0.000    1.000    0.000    4.667 
#    0.000    0.000    0.000    0.000    0.000    0.000 
#
# Total GULP energy -297408.420444 kJ/mol
# GULP energy per Si atom -12392.017519 kJ/mol
# Density = 1.812655 g / cm^3
# Si number density = 18.167902 Si / 1000 Ang^3
#
#
#
# Elastic Constant Matrix: (Units=GPa)
#
#
# Indices 1 2 3 4 5 6 
#
# 1 171.0216 53.5915 38.3300 0.0000 0.0000 0.0000
# 2 53.5915 77.4232 20.9642 0.0000 0.0000 0.0000
# 3 38.3300 20.9642 28.2719 0.0000 0.0000 0.0000
# 4 0.0000 0.0000 0.0000 21.5942 0.0000 0.0000
# 5 0.0000 0.0000 0.0000 0.0000 -13.9897 0.0000
# 6 0.0000 0.0000 0.0000 0.0000 0.0000 36.5745
#
#
#
# Elastic Compliance Matrix: (Units=1/GPa)
#
#
# Indices 1 2 3 4 5 6 
#
# 1 0.009190 -0.003738 -0.009687 0.000000 0.000000 0.000000
# 2 -0.003738 0.017681 -0.008043 0.000000 0.000000 0.000000
# 3 -0.009687 -0.008043 0.054469 0.000000 0.000000 0.000000
# 4 0.000000 0.000000 0.000000 0.046309 0.000000 0.000000
# 5 0.000000 0.000000 0.000000 0.000000 -0.071481 0.000000
# 6 0.000000 0.000000 0.000000 0.000000 0.000000 0.027341
#
#
# Mechanical properties :
#
#
# Convention : Reuss Voigt Hill
#
# Bulk Modulus (GPa) = 26.03985 55.83203 40.93594
# Shear Modulus (GPa) = 35.90750 19.75787 27.83269
#
# Velocity S-wave (km/s) = 4.45052 3.30133 3.91829
# Velocity P-wave (km/s) = 6.38542 6.73272 6.56137
#
# Compressibility (1/GPa) = 0.03840267
#
# Stress axis : x y z
#
# Youngs Moduli (GPa) = 108.81768 56.55690 18.35915
#
# Poissons Ratio (x) = 0.21141 0.17785
# Poissons Ratio (y) = 0.40675 0.14767
# Poissons Ratio (z) = 1.05415 0.45491
#
# Static dielectric constant tensor:
#      x y z
#    x 3.845100 0.000000 0.000000 
#    y 0.000000 3.404110 0.000000 
#    z 0.000000 0.000000 2.858450 
# 
# 
# High freq. dielectric constant tensor:
#      x y z
#    x 1.732800 0.000000 0.000000 
#    y 0.000000 1.715020 0.000000 
#    z 0.000000 0.000000 1.639510 
# 
# From -- ./inp_files/5280.got.cif
#   From: 2010.03.12/outbox.cif.g09.slc.cpg/sg35_3_cif.got.tgz:5280.got - 2010.04.14 02:02:04.
