data_PCOD8173370
_publ_section_title
;
Structure prediction by ZEFSAII (Michael W. Deem and Ramdas Pophale) SiO2 
 PCOD8173370
Probable space group: C M M 2
;
_chemical_formula_sum "Si O2"
_cell_formula_units_Z 56
_cell_length_a 19.113306
_cell_length_b 8.802245
_cell_length_c 17.734194
_cell_angle_alpha 90.000000
_cell_angle_beta 90.000000
_cell_angle_gamma 90.000000
_cell_volume 2983.600837
_symmetry_space_group_name_H-M "C M M 2"
_symmetry_group_IT_number 35
_symmetry_cell_setting 'orthorhombic'
loop_
_space_group_symop_operation_xyz
x,y,z
-x,-y,z
-x,y,z
x,-y,z
1/2+x,1/2+y,z
1/2-x,1/2-y,z
1/2-x,1/2+y,z
1/2+x,1/2-y,z
loop_
_atom_site_type_symbol
_atom_site_label
_atom_site_fract_x
_atom_site_fract_y
_atom_site_fract_z
Si Si1 0.581178 0.827845 0.747900
Si Si2 0.174926 0.319392 0.021773
Si Si3 0.675703 0.321671 0.866539
Si Si4 0.673696 0.320794 0.450881
Si Si5 0.579833 0.177992 0.159425
Si Si6 0.420202 0.823402 0.574050
Si Si7 0.579211 0.679790 0.313800
O O1 0.500000 0.808512 0.766426
O O2 0.622943 0.709500 0.798651
O O3 0.596054 0.789107 0.661075
O O4 0.605187 0.000000 0.765770
O O5 0.179799 0.500000 0.015830
O O6 0.250000 0.250000 0.040313
O O7 0.123501 0.265411 0.087825
O O8 0.145893 0.253338 0.943105
O O9 0.684578 0.500000 0.878928
O O10 0.750000 0.250000 0.845345
O O11 0.681636 0.500000 0.447798
O O12 0.750000 0.250000 0.449067
O O13 0.633467 0.276568 0.526772
O O14 0.629042 0.258394 0.380024
O O15 0.500000 0.225424 0.144350
O O16 0.608617 0.258509 0.234595
O O17 0.588203 0.000000 0.171661
O O18 0.500000 0.776551 0.554743
O O19 0.408561 0.000000 0.555845
O O20 0.500000 0.739889 0.327835
O O21 0.580135 0.500000 0.311602
#
# Coordination Sequence:
#
# PCOD8173370 Si02
#       7
#     8   8   8   8   8   8   8
#     4   9  19  37  59  82 109 140 175 218 268 319
#     4  10  20  35  54  76 105 140 177 217 264 317
#     4  11  22  36  55  79 108 143 183 222 265 318
#     4  11  23  37  54  79 111 144 180 222 267 315
#     4   9  19  35  55  79 104 134 174 216 260 313
#     4   9  19  37  60  83 107 139 178 218 265 321
#     4   9  19  36  56  77 103 137 175 216 265 317
#
# _framework density 18.769266999999999
#
# number of rings (size 3 to 8) (size 9 to 14) (size 15 to 20)
#    0.000    2.286    0.000    4.286    0.000    5.714 
#    0.000    7.143    0.000    0.000    0.000    0.000 
#    0.000    0.000    0.000    0.000    0.000    0.000 
#
# Total GULP energy -347264.864420 kJ/mol
# GULP energy per Si atom -12402.316586 kJ/mol
# Density = 1.872655 g / cm^3
# Si number density = 18.769267 Si / 1000 Ang^3
#
#
#
# Elastic Constant Matrix: (Units=GPa)
#
#
# Indices 1 2 3 4 5 6 
#
# 1 101.6302 40.1609 81.3478 0.0000 0.0000 0.0000
# 2 40.1609 70.6886 46.2233 0.0000 0.0000 0.0000
# 3 81.3478 46.2233 134.4911 0.0000 0.0000 0.0000
# 4 0.0000 0.0000 0.0000 33.9401 0.0000 0.0000
# 5 0.0000 0.0000 0.0000 0.0000 25.8654 0.0000
# 6 0.0000 0.0000 0.0000 0.0000 0.0000 26.1852
#
#
#
# Elastic Compliance Matrix: (Units=1/GPa)
#
#
# Indices 1 2 3 4 5 6 
#
# 1 0.020117 -0.004479 -0.010628 0.000000 0.000000 0.000000
# 2 -0.004479 0.019245 -0.003905 0.000000 0.000000 0.000000
# 3 -0.010628 -0.003905 0.015206 0.000000 0.000000 0.000000
# 4 0.000000 0.000000 0.000000 0.029464 0.000000 0.000000
# 5 0.000000 0.000000 0.000000 0.000000 0.038662 0.000000
# 6 0.000000 0.000000 0.000000 0.000000 0.000000 0.038190
#
#
# Mechanical properties :
#
#
# Convention : Reuss Voigt Hill
#
# Bulk Modulus (GPa) = 60.44950 71.36378 65.90664
# Shear Modulus (GPa) = 24.45918 26.47000 25.46459
#
# Velocity S-wave (km/s) = 3.61383 3.75945 3.68736
# Velocity P-wave (km/s) = 7.04909 7.54644 7.30200
#
# Compressibility (1/GPa) = 0.01654273
#
# Stress axis : x y z
#
# Youngs Moduli (GPa) = 49.70942 51.96198 65.76287
#
# Poissons Ratio (x) = 0.23275 0.69895
# Poissons Ratio (y) = 0.22266 0.25680
# Poissons Ratio (z) = 0.52833 0.20291
#
# Static dielectric constant tensor:
#      x y z
#    x 3.436340 0.000000 0.000000 
#    y 0.000000 3.351600 0.000000 
#    z 0.000000 0.000000 3.564530 
# 
# 
# High freq. dielectric constant tensor:
#      x y z
#    x 1.725020 0.000000 0.000000 
#    y 0.000000 1.727190 0.000000 
#    z 0.000000 0.000000 1.739240 
# 
# From -- ./inp_files/17399.got.cif
#   From: 2010.03.12/outbox.cif.g09.slc.cpg/sg35_9_cif.got.tgz:17399.got - 2010.04.14 02:02:04.
