data_PCOD8173134
_publ_section_title
;
Structure prediction by ZEFSAII (Michael W. Deem and Ramdas Pophale) SiO2 
 PCOD8173134
Probable space group: C M M 2
;
_chemical_formula_sum "Si O2"
_cell_formula_units_Z 48
_cell_length_a 8.888336
_cell_length_b 19.165242
_cell_length_c 15.526336
_cell_angle_alpha 90.000000
_cell_angle_beta 90.000000
_cell_angle_gamma 90.000000
_cell_volume 2644.866473
_symmetry_space_group_name_H-M "C M M 2"
_symmetry_group_IT_number 35
_symmetry_cell_setting 'orthorhombic'
loop_
_space_group_symop_operation_xyz
x,y,z
-x,-y,z
-x,y,z
x,-y,z
1/2+x,1/2+y,z
1/2-x,1/2-y,z
1/2-x,1/2+y,z
1/2+x,1/2-y,z
loop_
_atom_site_type_symbol
_atom_site_label
_atom_site_fract_x
_atom_site_fract_y
_atom_site_fract_z
Si Si1 0.173038 0.082046 0.046900
Si Si2 0.678082 0.826327 0.904291
Si Si3 0.824317 0.824862 0.736277
Si Si4 0.333635 0.917333 0.216841
Si Si5 0.323446 0.079782 0.406767
Si Si6 0.825536 0.175390 0.546805
O O1 0.216293 0.106149 0.143690
O O2 0.000000 0.101329 0.030580
O O3 0.203099 0.000000 0.034610
O O4 0.278535 0.123451 0.982055
O O5 0.500000 0.818924 0.899364
O O6 0.750000 0.750000 0.917867
O O7 0.741258 0.863063 0.816229
O O8 0.750000 0.750000 0.731345
O O9 0.797330 0.858883 0.642056
O O10 0.000000 0.819138 0.758195
O O11 0.500000 0.887818 0.194245
O O12 0.281966 0.890729 0.311342
O O13 0.343844 0.000000 0.222804
O O14 0.500000 0.087560 0.423273
O O15 0.234261 0.122575 0.476926
O O16 0.271871 0.000000 0.416054
O O17 0.750000 0.250000 0.536262
O O18 0.000000 0.188031 0.531648
#
# Coordination Sequence:
#
# PCOD8173134 Si02
#       6
#     8   8   8   8   8   8
#     4  10  20  34  53  77 104 133 166 206 250 296
#     4  11  21  34  54  77 102 132 167 207 250 298
#     4   9  17  31  50  72  98 130 168 206 247 296
#     4   8  15  30  51  73  98 131 169 205 245 296
#     4   9  18  33  53  76 103 134 167 206 250 296
#     4  10  20  33  52  76 102 133 168 208 250 296
#
# _framework density 18.148363
#
# number of rings (size 3 to 8) (size 9 to 14) (size 15 to 20)
#    0.000    2.500    0.000    5.000    0.000    4.000 
#    0.000    3.333    0.000    5.000    0.000    0.000 
#    0.000    0.000    0.000    0.000    0.000    0.000 
#
# Total GULP energy -297436.536288 kJ/mol
# GULP energy per Si atom -12393.189012 kJ/mol
# Density = 1.810706 g / cm^3
# Si number density = 18.148363 Si / 1000 Ang^3
#
#
#
# Elastic Constant Matrix: (Units=GPa)
#
#
# Indices 1 2 3 4 5 6 
#
# 1 122.3295 39.1104 75.1743 0.0000 0.0000 0.0000
# 2 39.1104 45.7472 48.1671 0.0000 0.0000 0.0000
# 3 75.1743 48.1671 159.1701 0.0000 0.0000 0.0000
# 4 0.0000 0.0000 0.0000 28.2365 0.0000 0.0000
# 5 0.0000 0.0000 0.0000 0.0000 35.9055 0.0000
# 6 0.0000 0.0000 0.0000 0.0000 0.0000 26.1696
#
#
#
# Elastic Compliance Matrix: (Units=1/GPa)
#
#
# Indices 1 2 3 4 5 6 
#
# 1 0.012782 -0.006709 -0.004006 0.000000 0.000000 0.000000
# 2 -0.006709 0.035602 -0.007605 0.000000 0.000000 0.000000
# 3 -0.004006 -0.007605 0.010476 0.000000 0.000000 0.000000
# 4 0.000000 0.000000 0.000000 0.035415 0.000000 0.000000
# 5 0.000000 0.000000 0.000000 0.000000 0.027851 0.000000
# 6 0.000000 0.000000 0.000000 0.000000 0.000000 0.038212
#
#
# Mechanical properties :
#
#
# Convention : Reuss Voigt Hill
#
# Bulk Modulus (GPa) = 45.00637 72.46116 58.73377
# Shear Modulus (GPa) = 24.46350 29.04866 26.75608
#
# Velocity S-wave (km/s) = 3.67546 4.00512 3.84382
# Velocity P-wave (km/s) = 6.54713 7.83593 7.22034
#
# Compressibility (1/GPa) = 0.02221908
#
# Stress axis : x y z
#
# Youngs Moduli (GPa) = 78.23733 28.08794 95.45446
#
# Poissons Ratio (x) = 0.18844 0.38243
# Poissons Ratio (y) = 0.52490 0.72595
# Poissons Ratio (z) = 0.31345 0.21361
#
# Static dielectric constant tensor:
#      x y z
#    x 3.431730 0.000000 0.000000 
#    y 0.000000 2.909290 0.000000 
#    z 0.000000 0.000000 4.054750 
# 
# 
# High freq. dielectric constant tensor:
#      x y z
#    x 1.713540 0.000000 0.000000 
#    y 0.000000 1.654220 0.000000 
#    z 0.000000 0.000000 1.726320 
# 
# From -- ./inp_files/15141.got.cif
#   From: 2010.03.12/outbox.cif.g09.slc.cpg/sg35_8_cif.got.tgz:15141.got - 2010.04.14 02:02:04.
