data_PCOD8173491
_publ_section_title
;
Structure prediction by ZEFSAII (Michael W. Deem and Ramdas Pophale) SiO2 
 PCOD8173491
Probable space group: C M M 2
;
_chemical_formula_sum "Si O2"
_cell_formula_units_Z 48
_cell_length_a 27.671218
_cell_length_b 8.921819
_cell_length_c 9.977049
_cell_angle_alpha 90.000000
_cell_angle_beta 90.000000
_cell_angle_gamma 90.000000
_cell_volume 2463.109897
_symmetry_space_group_name_H-M "C M M 2"
_symmetry_group_IT_number 35
_symmetry_cell_setting 'orthorhombic'
loop_
_space_group_symop_operation_xyz
x,y,z
-x,-y,z
-x,y,z
x,-y,z
1/2+x,1/2+y,z
1/2-x,1/2-y,z
1/2-x,1/2+y,z
1/2+x,1/2-y,z
loop_
_atom_site_type_symbol
_atom_site_label
_atom_site_fract_x
_atom_site_fract_y
_atom_site_fract_z
Si Si1 0.445382 0.826083 0.226900
Si Si2 0.945350 0.826585 0.941316
Si Si3 0.856691 0.171852 0.327135
Si Si4 0.299274 0.672170 0.057947
Si Si5 0.857231 0.673832 0.825910
Si Si6 0.299941 0.173781 0.559444
O O1 0.500000 0.802402 0.279431
O O2 0.409337 0.749756 0.333531
O O3 0.432404 0.000000 0.213136
O O4 0.438409 0.751165 0.083391
O O5 0.909792 0.750734 0.834271
O O6 0.000000 0.806978 0.888214
O O7 0.931415 0.000000 0.959061
O O8 0.837604 0.188191 0.176497
O O9 0.819579 0.253313 0.424388
O O10 0.861683 0.000000 0.371442
O O11 0.288691 0.500000 0.023349
O O12 0.250000 0.750000 0.103695
O O13 0.319632 0.751116 0.926511
O O14 0.861783 0.500000 0.862514
O O15 0.838884 0.698796 0.675782
O O16 0.250000 0.250000 0.602639
O O17 0.290012 0.000000 0.532232
#
# Coordination Sequence:
#
# PCOD8173491 Si02
#       6
#     8   8   8   8   8   8
#     4  10  20  35  59  90 123 158 196 243 297 352
#     4  10  20  35  58  89 123 157 196 244 297 354
#     4  11  23  39  61  89 119 157 200 246 298 353
#     4  11  23  37  57  86 117 150 194 247 298 352
#     4  11  23  39  61  88 118 156 200 247 299 354
#     4  11  25  43  62  86 118 160 204 247 299 359
#
# _framework density 19.487559000000001
#
# number of rings (size 3 to 8) (size 9 to 14) (size 15 to 20)
#    0.000    1.333    1.667    4.000    0.000    9.333 
#    0.000    0.833    0.000    1.000    0.000    0.000 
#    0.000    0.000    0.000    0.000    0.000    0.000 
#
# Total GULP energy -297742.227942 kJ/mol
# GULP energy per Si atom -12405.926164 kJ/mol
# Density = 1.944320 g / cm^3
# Si number density = 19.487559 Si / 1000 Ang^3
#
#
#
# Elastic Constant Matrix: (Units=GPa)
#
#
# Indices 1 2 3 4 5 6 
#
# 1 120.9452 65.5762 16.4591 0.0000 0.0000 0.0000
# 2 65.5762 158.7820 39.0314 0.0000 0.0000 0.0000
# 3 16.4591 39.0314 47.8287 0.0000 0.0000 0.0000
# 4 0.0000 0.0000 0.0000 26.4512 0.0000 0.0000
# 5 0.0000 0.0000 0.0000 0.0000 31.2759 0.0000
# 6 0.0000 0.0000 0.0000 0.0000 0.0000 39.3290
#
#
#
# Elastic Compliance Matrix: (Units=1/GPa)
#
#
# Indices 1 2 3 4 5 6 
#
# 1 0.010654 -0.004377 -0.000095 0.000000 0.000000 0.000000
# 2 -0.004377 0.009676 -0.006390 0.000000 0.000000 0.000000
# 3 -0.000095 -0.006390 0.026156 0.000000 0.000000 0.000000
# 4 0.000000 0.000000 0.000000 0.037805 0.000000 0.000000
# 5 0.000000 0.000000 0.000000 0.000000 0.031974 0.000000
# 6 0.000000 0.000000 0.000000 0.000000 0.000000 0.025427
#
#
# Mechanical properties :
#
#
# Convention : Reuss Voigt Hill
#
# Bulk Modulus (GPa) = 40.38374 63.29882 51.84128
# Shear Modulus (GPa) = 29.12571 33.17716 31.15144
#
# Velocity S-wave (km/s) = 3.87017 4.13059 4.00250
# Velocity P-wave (km/s) = 6.38270 7.43648 6.92965
#
# Compressibility (1/GPa) = 0.02476244
#
# Stress axis : x y z
#
# Youngs Moduli (GPa) = 93.85949 103.34351 38.23283
#
# Poissons Ratio (x) = 0.45232 0.00361
# Poissons Ratio (y) = 0.41081 0.24432
# Poissons Ratio (z) = 0.00887 0.66041
#
# Static dielectric constant tensor:
#      x y z
#    x 3.798340 0.000000 0.000000 
#    y 0.000000 3.809310 0.000000 
#    z 0.000000 0.000000 3.218460 
# 
# 
# High freq. dielectric constant tensor:
#      x y z
#    x 1.775530 0.000000 0.000000 
#    y 0.000000 1.780920 0.000000 
#    z 0.000000 0.000000 1.733620 
# 
# From -- ./inp_files/5295.got.cif
#   From: 2010.03.12/outbox.cif.g09.slc.cpg/sg35_3_cif.got.tgz:5295.got - 2010.04.14 02:02:04.
