data_PCOD8173862
_publ_section_title
;
Structure prediction by ZEFSAII (Michael W. Deem and Ramdas Pophale) SiO2 
 PCOD8173862
Probable space group: C M M 2
;
_chemical_formula_sum "Si O2"
_cell_formula_units_Z 64
_cell_length_a 22.654517
_cell_length_b 14.613768
_cell_length_c 9.647940
_cell_angle_alpha 90.000000
_cell_angle_beta 90.000000
_cell_angle_gamma 90.000000
_cell_volume 3194.122807
_symmetry_space_group_name_H-M "C M M 2"
_symmetry_group_IT_number 35
_symmetry_cell_setting 'orthorhombic'
loop_
_space_group_symop_operation_xyz
x,y,z
-x,-y,z
-x,y,z
x,-y,z
1/2+x,1/2+y,z
1/2-x,1/2-y,z
1/2-x,1/2+y,z
1/2+x,1/2-y,z
loop_
_atom_site_type_symbol
_atom_site_label
_atom_site_fract_x
_atom_site_fract_y
_atom_site_fract_z
Si Si1 0.067299 0.244551 0.201980
Si Si2 0.320780 0.397244 0.589287
Si Si3 0.329719 0.396982 0.142804
Si Si4 0.767592 0.851328 0.862365
Si Si5 0.632052 0.777056 0.460502
Si Si6 0.645305 0.897254 0.732662
Si Si7 0.932230 0.603407 0.983213
Si Si8 0.268394 0.102575 0.362484
O O1 0.112647 0.166699 0.150239
O O2 0.074101 0.273800 0.363763
O O3 0.081581 0.335238 0.115475
O O4 0.000000 0.210809 0.178078
O O5 0.348230 0.500000 0.590531
O O6 0.317417 0.355116 0.743194
O O7 0.359907 0.329402 0.497870
O O8 0.255693 0.400006 0.520508
O O9 0.351393 0.500000 0.172942
O O10 0.283317 0.366063 0.259356
O O11 0.295342 0.398138 0.996556
O O12 0.750000 0.750000 0.904499
O O13 0.711236 0.900822 0.795226
O O14 0.630594 0.837059 0.598400
O O15 0.681987 0.819442 0.358515
O O16 0.627238 0.000000 0.691407
O O17 0.603899 0.857596 0.853329
O O18 0.912206 0.500000 0.019604
O O19 0.000000 0.607237 0.939825
O O20 0.291783 0.000000 0.323799
#
# Coordination Sequence:
#
# PCOD8173862 Si02
#       8
#     8   8   8   8   8   8   8   8
#     4  11  26  44  65  89 120 169 224 267 310 363
#     4  11  21  37  57  84 125 164 197 238 308 381
#     4  11  25  41  62  94 128 164 209 258 313 375
#     4  12  22  36  60  93 130 162 194 251 316 381
#     4  12  23  38  61  90 127 164 201 257 312 368
#     4  11  22  37  60  93 126 161 203 251 316 385
#     4   9  21  43  64  85 120 164 209 259 310 362
#     4  10  21  37  59  91 128 164 195 242 315 385
#
# _framework density 20.036799999999999
#
# number of rings (size 3 to 8) (size 9 to 14) (size 15 to 20)
#    0.000    1.125    3.750    2.625    3.500    1.750 
#    0.000    0.000    0.000    0.000    0.000    0.000 
#    0.000    0.000    0.000    0.000    0.000    0.000 
#
# Total GULP energy -396659.620504 kJ/mol
# GULP energy per Si atom -12395.613141 kJ/mol
# Density = 1.999120 g / cm^3
# Si number density = 20.036800 Si / 1000 Ang^3
#
#
#
# Elastic Constant Matrix: (Units=GPa)
#
#
# Indices 1 2 3 4 5 6 
#
# 1 72.9168 43.1070 55.6937 0.0000 0.0000 0.0000
# 2 43.1070 102.3680 38.2798 0.0000 0.0000 0.0000
# 3 55.6937 38.2798 122.7589 0.0000 0.0000 0.0000
# 4 0.0000 0.0000 0.0000 27.9090 0.0000 0.0000
# 5 0.0000 0.0000 0.0000 0.0000 27.5005 0.0000
# 6 0.0000 0.0000 0.0000 0.0000 0.0000 20.0589
#
#
#
# Elastic Compliance Matrix: (Units=1/GPa)
#
#
# Indices 1 2 3 4 5 6 
#
# 1 0.024800 -0.007059 -0.009050 0.000000 0.000000 0.000000
# 2 -0.007059 0.013067 -0.000872 0.000000 0.000000 0.000000
# 3 -0.009050 -0.000872 0.012524 0.000000 0.000000 0.000000
# 4 0.000000 0.000000 0.000000 0.035831 0.000000 0.000000
# 5 0.000000 0.000000 0.000000 0.000000 0.036363 0.000000
# 6 0.000000 0.000000 0.000000 0.000000 0.000000 0.049853
#
#
# Mechanical properties :
#
#
# Convention : Reuss Voigt Hill
#
# Bulk Modulus (GPa) = 60.86976 63.57831 62.22403
# Shear Modulus (GPa) = 23.59863 25.82457 24.71160
#
# Velocity S-wave (km/s) = 3.43558 3.59396 3.51566
# Velocity P-wave (km/s) = 6.79577 7.00155 6.89943
#
# Compressibility (1/GPa) = 0.01642852
#
# Stress axis : x y z
#
# Youngs Moduli (GPa) = 40.32292 76.52657 79.84720
#
# Poissons Ratio (x) = 0.54020 0.72262
# Poissons Ratio (y) = 0.28464 0.06965
# Poissons Ratio (z) = 0.36493 0.06675
#
# Static dielectric constant tensor:
#      x y z
#    x 3.344880 0.000000 0.000000 
#    y 0.000000 3.750780 0.000000 
#    z 0.000000 0.000000 3.774300 
# 
# 
# High freq. dielectric constant tensor:
#      x y z
#    x 1.740830 0.000000 0.000000 
#    y 0.000000 1.796250 0.000000 
#    z 0.000000 0.000000 1.797560 
# 
# From -- ./inp_files/7841.got.cif
#   From: 2010.03.12/outbox.cif.g09.slc.cpg/sg35_4_cif.got.tgz:7841.got - 2010.04.14 02:02:04.
