data_PCOD8173404
_publ_section_title
;
Structure prediction by ZEFSAII (Michael W. Deem and Ramdas Pophale) SiO2 
 PCOD8173404
Probable space group: C M M 2
;
_chemical_formula_sum "Si O2"
_cell_formula_units_Z 64
_cell_length_a 9.107974
_cell_length_b 27.963864
_cell_length_c 12.984652
_cell_angle_alpha 90.000000
_cell_angle_beta 90.000000
_cell_angle_gamma 90.000000
_cell_volume 3307.114856
_symmetry_space_group_name_H-M "C M M 2"
_symmetry_group_IT_number 35
_symmetry_cell_setting 'orthorhombic'
loop_
_space_group_symop_operation_xyz
x,y,z
-x,-y,z
-x,y,z
x,-y,z
1/2+x,1/2+y,z
1/2-x,1/2-y,z
1/2-x,1/2+y,z
1/2+x,1/2-y,z
loop_
_atom_site_type_symbol
_atom_site_label
_atom_site_fract_x
_atom_site_fract_y
_atom_site_fract_z
Si Si1 0.827038 0.896398 0.470100
Si Si2 0.668014 0.701494 0.157300
Si Si3 0.674737 0.890393 0.862135
Si Si4 0.336372 0.943185 0.285209
Si Si5 0.670838 0.443814 0.680570
Si Si6 0.825712 0.801299 0.932231
Si Si7 0.670428 0.700021 0.380504
Si Si8 0.674428 0.946920 0.060713
O O1 0.767465 0.927050 0.376127
O O2 0.771177 0.917714 0.577627
O O3 0.777927 0.840626 0.461264
O O4 0.000000 0.900883 0.462666
O O5 0.500000 0.715381 0.147604
O O6 0.750000 0.750000 0.172083
O O7 0.700460 0.675299 0.266678
O O8 0.712951 0.677973 0.047860
O O9 0.500000 0.884545 0.856275
O O10 0.728880 0.924605 0.771836
O O11 0.752588 0.838587 0.852876
O O12 0.730220 0.913422 0.969008
O O13 0.500000 0.922668 0.304661
O O14 0.276282 0.925827 0.172494
O O15 0.341428 0.000000 0.281481
O O16 0.500000 0.432338 0.702177
O O17 0.697161 0.500000 0.667602
O O18 0.750000 0.750000 0.915563
O O19 0.000000 0.797281 0.911882
O O20 0.500000 0.711725 0.393076
O O21 0.750000 0.750000 0.402272
O O22 0.500000 0.950208 0.059589
O O23 0.740804 0.000000 0.043177
#
# Coordination Sequence:
#
# PCOD8173404 Si02
#       8
#     8   8   8   8   8   8   8   8
#     4  10  21  36  57  82 111 146 187 232 284 338
#     4   8  15  28  47  72 105 144 181 219 263 315
#     4  11  22  36  58  85 111 146 192 237 287 341
#     4   9  18  33  53  79 111 144 178 221 277 342
#     4  10  22  41  61  81 109 147 190 237 289 342
#     4  10  20  35  55  81 116 153 190 234 281 333
#     4   9  18  33  52  78 111 147 185 226 270 324
#     4   8  16  32  52  77 111 145 177 221 280 342
#
# _framework density 19.352215000000001
#
# number of rings (size 3 to 8) (size 9 to 14) (size 15 to 20)
#    0.000    2.625    0.000    2.250    1.750    3.000 
#    0.000    1.250    0.000    3.000    0.000    0.000 
#    0.000    0.000    0.000    0.000    0.000    0.000 
#
# Total GULP energy -396488.335316 kJ/mol
# GULP energy per Si atom -12390.260479 kJ/mol
# Density = 1.930817 g / cm^3
# Si number density = 19.352215 Si / 1000 Ang^3
#
#
#
# Elastic Constant Matrix: (Units=GPa)
#
#
# Indices 1 2 3 4 5 6 
#
# 1 47.5766 33.8375 36.9958 0.0000 0.0000 0.0000
# 2 33.8375 88.3423 54.9875 0.0000 0.0000 0.0000
# 3 36.9958 54.9875 111.4288 0.0000 0.0000 0.0000
# 4 0.0000 0.0000 0.0000 33.2212 0.0000 0.0000
# 5 0.0000 0.0000 0.0000 0.0000 28.4120 0.0000
# 6 0.0000 0.0000 0.0000 0.0000 0.0000 27.0719
#
#
#
# Elastic Compliance Matrix: (Units=1/GPa)
#
#
# Indices 1 2 3 4 5 6 
#
# 1 0.031921 -0.008126 -0.006588 0.000000 0.000000 0.000000
# 2 -0.008126 0.018406 -0.006385 0.000000 0.000000 0.000000
# 3 -0.006588 -0.006385 0.014313 0.000000 0.000000 0.000000
# 4 0.000000 0.000000 0.000000 0.030101 0.000000 0.000000
# 5 0.000000 0.000000 0.000000 0.000000 0.035196 0.000000
# 6 0.000000 0.000000 0.000000 0.000000 0.000000 0.036939
#
#
# Mechanical properties :
#
#
# Convention : Reuss Voigt Hill
#
# Bulk Modulus (GPa) = 44.56040 55.44327 50.00183
# Shear Modulus (GPa) = 23.08870 25.84280 24.46575
#
# Velocity S-wave (km/s) = 3.45784 3.65827 3.55947
# Velocity P-wave (km/s) = 6.24646 6.82317 6.54117
#
# Compressibility (1/GPa) = 0.02244145
#
# Stress axis : x y z
#
# Youngs Moduli (GPa) = 31.32717 54.32878 69.86797
#
# Poissons Ratio (x) = 0.44147 0.46031
# Poissons Ratio (y) = 0.25456 0.44612
# Poissons Ratio (z) = 0.20639 0.34690
#
# Static dielectric constant tensor:
#      x y z
#    x 3.279780 0.000000 0.000000 
#    y 0.000000 3.461160 0.000000 
#    z 0.000000 0.000000 3.797850 
# 
# 
# High freq. dielectric constant tensor:
#      x y z
#    x 1.739010 0.000000 0.000000 
#    y 0.000000 1.750890 0.000000 
#    z 0.000000 0.000000 1.749040 
# 
# From -- ./inp_files/11867.got.cif
#   From: 2010.03.12/outbox.cif.g09.slc.cpg/sg35_6_cif.got.tgz:11867.got - 2010.04.14 02:02:04.
