data_PCOD8173524
_publ_section_title
;
Structure prediction by ZEFSAII (Michael W. Deem and Ramdas Pophale) SiO2 
 PCOD8173524
Probable space group: C M M 2
;
_chemical_formula_sum "Si O2"
_cell_formula_units_Z 48
_cell_length_a 34.556979
_cell_length_b 8.498373
_cell_length_c 8.014731
_cell_angle_alpha 90.000000
_cell_angle_beta 90.000000
_cell_angle_gamma 90.000000
_cell_volume 2353.750950
_symmetry_space_group_name_H-M "C M M 2"
_symmetry_group_IT_number 35
_symmetry_cell_setting 'orthorhombic'
loop_
_space_group_symop_operation_xyz
x,y,z
-x,-y,z
-x,y,z
x,-y,z
1/2+x,1/2+y,z
1/2-x,1/2-y,z
1/2-x,1/2+y,z
1/2+x,1/2-y,z
loop_
_atom_site_type_symbol
_atom_site_label
_atom_site_fract_x
_atom_site_fract_y
_atom_site_fract_z
Si Si1 0.661961 0.312963 0.488830
Si Si2 0.000000 0.827790 0.017768
Si Si3 0.339729 0.818521 0.122788
Si Si4 0.292696 0.186698 0.801768
Si Si5 0.500000 0.328388 0.638599
Si Si6 0.422958 0.680080 0.504246
Si Si7 0.926611 0.320059 0.161504
O O1 0.662321 0.500000 0.492580
O O2 0.672115 0.262958 0.298399
O O3 0.691801 0.248215 0.624146
O O4 0.619355 0.245100 0.542282
O O5 0.961989 0.722460 0.043114
O O6 0.000000 0.000000 0.110349
O O7 0.000000 0.867341 0.827913
O O8 0.384908 0.794537 0.075244
O O9 0.329281 0.000000 0.147723
O O10 0.316693 0.749665 0.962700
O O11 0.250000 0.250000 0.826312
O O12 0.293475 0.000000 0.796026
O O13 0.500000 0.500000 0.543633
O O14 0.539821 0.235364 0.590920
O O15 0.421773 0.500000 0.561911
O O16 0.430145 0.695811 0.309082
O O17 0.930396 0.500000 0.224344
#
# Coordination Sequence:
#
# PCOD8173524 Si02
#       7
#     8   4   8   8   4   8   8
#     4  10  21  37  62  93 123 158 199 246 296 352
#     4  11  22  33  50  78 112 153 190 235 288 336
#     4   9  21  41  63  87 120 161 201 244 297 355
#     4  11  24  42  64  90 120 156 195 242 299 359
#     4   9  19  33  50  76 110 147 190 235 278 326
#     4   9  18  35  57  81 110 149 194 236 281 336
#     4  10  20  36  56  80 110 147 192 239 286 340
#
# _framework density 20.392980999999999
#
# number of rings (size 3 to 8) (size 9 to 14) (size 15 to 20)
#    0.000    2.167    0.000    2.250    2.333    4.000 
#    0.000    3.333    0.000    0.000    0.000    0.000 
#    0.000    0.000    0.000    0.000    0.000    0.000 
#
# Total GULP energy -297327.611050 kJ/mol
# GULP energy per Si atom -12388.650460 kJ/mol
# Density = 2.034657 g / cm^3
# Si number density = 20.392981 Si / 1000 Ang^3
#
#
#
# Elastic Constant Matrix: (Units=GPa)
#
#
# Indices 1 2 3 4 5 6 
#
# 1 152.6031 33.8609 75.2092 0.0000 0.0000 0.0000
# 2 33.8609 52.6143 25.9298 0.0000 0.0000 0.0000
# 3 75.2092 25.9298 110.0521 0.0000 0.0000 0.0000
# 4 0.0000 0.0000 0.0000 24.1115 0.0000 0.0000
# 5 0.0000 0.0000 0.0000 0.0000 38.8081 0.0000
# 6 0.0000 0.0000 0.0000 0.0000 0.0000 -212.4139
#
#
#
# Elastic Compliance Matrix: (Units=1/GPa)
#
#
# Indices 1 2 3 4 5 6 
#
# 1 0.010460 -0.003630 -0.006293 0.000000 0.000000 0.000000
# 2 -0.003630 0.022763 -0.002882 0.000000 0.000000 0.000000
# 3 -0.006293 -0.002882 0.014066 0.000000 0.000000 0.000000
# 4 0.000000 0.000000 0.000000 0.041474 0.000000 0.000000
# 5 0.000000 0.000000 0.000000 0.000000 0.025768 0.000000
# 6 0.000000 0.000000 0.000000 0.000000 0.000000 -0.004708
#
#
# Mechanical properties :
#
#
# Convention : Reuss Voigt Hill
#
# Bulk Modulus (GPa) = 46.12951 65.02994 55.57972
# Shear Modulus (GPa) = 35.04827 -17.88089 8.58369
#
# Velocity S-wave (km/s) = 4.15015 -2.96432 2.05384
# Velocity P-wave (km/s) = 6.75532 4.49904 5.73915
#
# Compressibility (1/GPa) = 0.02167810
#
# Stress axis : x y z
#
# Youngs Moduli (GPa) = 95.60350 43.93077 71.09209
#
# Poissons Ratio (x) = 0.15948 0.44737
# Poissons Ratio (y) = 0.34707 0.20491
# Poissons Ratio (z) = 0.60162 0.12662
#
# Static dielectric constant tensor:
#      x y z
#    x 5.190380 0.000000 0.000000 
#    y 0.000000 3.594000 0.000000 
#    z 0.000000 0.000000 3.601680 
# 
# 
# High freq. dielectric constant tensor:
#      x y z
#    x 1.810440 0.000000 0.000000 
#    y 0.000000 1.782010 0.000000 
#    z 0.000000 0.000000 1.788630 
# 
# From -- ./inp_files/10499.got.cif
#   From: 2010.03.12/outbox.cif.g09.slc.cpg/sg35_6_cif.got.tgz:10499.got - 2010.04.14 02:02:04.
