data_PCOD8173991
_publ_section_title
;
Structure prediction by ZEFSAII (Michael W. Deem and Ramdas Pophale) SiO2 
 PCOD8173991
Probable space group: C M M 2
;
_chemical_formula_sum "Si O2"
_cell_formula_units_Z 48
_cell_length_a 17.229189
_cell_length_b 20.738302
_cell_length_c 7.426482
_cell_angle_alpha 90.000000
_cell_angle_beta 90.000000
_cell_angle_gamma 90.000000
_cell_volume 2653.512651
_symmetry_space_group_name_H-M "C M M 2"
_symmetry_group_IT_number 35
_symmetry_cell_setting 'orthorhombic'
loop_
_space_group_symop_operation_xyz
x,y,z
-x,-y,z
-x,y,z
x,-y,z
1/2+x,1/2+y,z
1/2-x,1/2-y,z
1/2-x,1/2+y,z
1/2+x,1/2-y,z
loop_
_atom_site_type_symbol
_atom_site_label
_atom_site_fract_x
_atom_site_fract_y
_atom_site_fract_z
Si Si1 0.703198 0.573308 0.706610
Si Si2 0.340312 0.371038 0.357789
Si Si3 0.191907 0.310156 0.785109
Si Si4 0.413031 0.425666 0.017502
Si Si5 0.198150 0.686608 0.192796
Si Si6 0.408199 0.762246 0.478562
O O1 0.731644 0.500000 0.743822
O O2 0.660598 0.574450 0.512617
O O3 0.773025 0.624414 0.700703
O O4 0.644445 0.597799 0.861309
O O5 0.401224 0.386587 0.201267
O O6 0.254545 0.369364 0.267038
O O7 0.366178 0.306051 0.456945
O O8 0.250000 0.250000 0.770729
O O9 0.115393 0.292548 0.671185
O O10 0.168591 0.325792 0.990363
O O11 0.500000 0.412534 0.948371
O O12 0.398708 0.500000 0.061337
O O13 0.250000 0.750000 0.199836
O O14 0.122213 0.691751 0.317809
O O15 0.500000 0.755617 0.467960
#
# Coordination Sequence:
#
# PCOD8173991 Si02
#       6
#     8   8   8   8   8   8
#     4  11  22  36  59  86 113 152 196 235 279 337
#     4  11  19  37  57  83 113 154 193 229 278 341
#     4  11  19  39  59  80 112 149 192 235 282 336
#     4  10  22  37  52  81 123 157 190 231 277 338
#     4   9  19  33  57  78 108 148 187 232 277 334
#     4  11  22  34  55  88 118 144 188 242 289 334
#
# _framework density 18.089231000000002
#
# number of rings (size 3 to 8) (size 9 to 14) (size 15 to 20)
#    0.000    1.500    5.000    1.500    0.000    2.000 
#    0.000    1.667    0.000    0.500    0.000    0.000 
#    0.000    0.000    0.000    0.000    0.000    0.000 
#
# Total GULP energy -297568.106536 kJ/mol
# GULP energy per Si atom -12398.671106 kJ/mol
# Density = 1.804806 g / cm^3
# Si number density = 18.089231 Si / 1000 Ang^3
#
#
#
# Elastic Constant Matrix: (Units=GPa)
#
#
# Indices 1 2 3 4 5 6 
#
# 1 65.7256 20.9729 38.5606 0.0000 0.0000 0.0000
# 2 20.9729 62.8398 21.8592 0.0000 0.0000 0.0000
# 3 38.5606 21.8592 135.2336 0.0000 0.0000 0.0000
# 4 0.0000 0.0000 0.0000 25.0238 0.0000 0.0000
# 5 0.0000 0.0000 0.0000 0.0000 28.9468 0.0000
# 6 0.0000 0.0000 0.0000 0.0000 0.0000 16.0771
#
#
#
# Elastic Compliance Matrix: (Units=1/GPa)
#
#
# Indices 1 2 3 4 5 6 
#
# 1 0.019582 -0.004867 -0.004797 0.000000 0.000000 0.000000
# 2 -0.004867 0.018071 -0.001533 0.000000 0.000000 0.000000
# 3 -0.004797 -0.001533 0.009010 0.000000 0.000000 0.000000
# 4 0.000000 0.000000 0.000000 0.039962 0.000000 0.000000
# 5 0.000000 0.000000 0.000000 0.000000 0.034546 0.000000
# 6 0.000000 0.000000 0.000000 0.000000 0.000000 0.062200
#
#
# Mechanical properties :
#
#
# Convention : Reuss Voigt Hill
#
# Bulk Modulus (GPa) = 41.20442 47.39829 44.30135
# Shear Modulus (GPa) = 23.38020 26.16995 24.77507
#
# Velocity S-wave (km/s) = 3.59903 3.80770 3.70483
# Velocity P-wave (km/s) = 6.33234 6.75209 6.54558
#
# Compressibility (1/GPa) = 0.02426924
#
# Stress axis : x y z
#
# Youngs Moduli (GPa) = 51.06693 55.33667 110.98452
#
# Poissons Ratio (x) = 0.26932 0.53239
# Poissons Ratio (y) = 0.24854 0.17017
# Poissons Ratio (z) = 0.24497 0.08485
#
# Static dielectric constant tensor:
#      x y z
#    x 3.082850 0.000000 0.000000 
#    y 0.000000 3.210880 0.000000 
#    z 0.000000 0.000000 3.654940 
# 
# 
# High freq. dielectric constant tensor:
#      x y z
#    x 1.667910 0.000000 0.000000 
#    y 0.000000 1.680050 0.000000 
#    z 0.000000 0.000000 1.725570 
# 
# From -- ./inp_files/7474.got.cif
#   From: 2010.03.12/outbox.cif.g09.slc.cpg/sg35_4_cif.got.tgz:7474.got - 2010.04.14 02:02:04.
