data_PCOD8173769
_publ_section_title
;
Structure prediction by ZEFSAII (Michael W. Deem and Ramdas Pophale) SiO2 
 PCOD8173769
Probable space group: C M M 2
;
_chemical_formula_sum "Si O2"
_cell_formula_units_Z 64
_cell_length_a 8.836152
_cell_length_b 18.930009
_cell_length_c 20.588599
_cell_angle_alpha 90.000000
_cell_angle_beta 90.000000
_cell_angle_gamma 90.000000
_cell_volume 3443.822772
_symmetry_space_group_name_H-M "C M M 2"
_symmetry_group_IT_number 35
_symmetry_cell_setting 'orthorhombic'
loop_
_space_group_symop_operation_xyz
x,y,z
-x,-y,z
-x,y,z
x,-y,z
1/2+x,1/2+y,z
1/2-x,1/2-y,z
1/2-x,1/2+y,z
1/2+x,1/2-y,z
loop_
_atom_site_type_symbol
_atom_site_label
_atom_site_fract_x
_atom_site_fract_y
_atom_site_fract_z
Si Si1 0.179079 0.676631 0.833230
Si Si2 0.672201 0.415900 0.583224
Si Si3 0.179851 0.172815 0.184853
Si Si4 0.823029 0.417645 0.072514
Si Si5 0.320605 0.421789 0.443850
Si Si6 0.823572 0.678092 0.685347
Si Si7 0.328098 0.583019 0.938463
Si Si8 0.820310 0.080356 0.303691
O O1 0.250000 0.750000 0.857495
O O2 0.227720 0.661692 0.758914
O O3 0.248879 0.614424 0.875353
O O4 0.000000 0.679100 0.842079
O O5 0.500000 0.392125 0.596447
O O6 0.685444 0.500000 0.582951
O O7 0.730310 0.385809 0.512242
O O8 0.776576 0.386431 0.639890
O O9 0.250000 0.250000 0.182807
O O10 0.229376 0.128502 0.122755
O O11 0.244134 0.131887 0.248287
O O12 0.000000 0.179264 0.185744
O O13 0.788218 0.500000 0.085439
O O14 0.000000 0.400870 0.078597
O O15 0.766791 0.394484 0.001570
O O16 0.500000 0.427002 0.447073
O O17 0.251216 0.500000 0.441571
O O18 0.271173 0.386913 0.374727
O O19 0.750000 0.750000 0.659258
O O20 0.000000 0.688932 0.681724
O O21 0.500000 0.610681 0.945481
O O22 0.324961 0.500000 0.928797
O O23 0.000000 0.077773 0.298844
O O24 0.758384 0.000000 0.294221
#
# Coordination Sequence:
#
# PCOD8173769 Si02
#       8
#     8   8   8   8   8   8   8   8
#     4  10  21  37  56  77 103 137 176 215 258 308
#     4   9  17  30  51  78 106 136 171 213 259 308
#     4  11  22  35  52  76 107 140 175 215 258 304
#     4  10  21  38  59  81 106 136 170 210 256 306
#     4   7  11  23  45  73 101 129 166 210 255 305
#     4  10  21  36  53  73 101 138 177 217 259 307
#     4  10  21  37  58  84 111 137 168 208 252 301
#     4   8  14  27  50  76  99 129 171 215 258 307
#
# _framework density 18.584001000000001
#
# number of rings (size 3 to 8) (size 9 to 14) (size 15 to 20)
#    0.000    2.625    0.000    3.750    0.000    4.750 
#    0.000    5.625    0.000    3.000    0.000    3.500 
#    0.000    0.000    0.000    0.000    0.000    0.000 
#
# Total GULP energy -396596.082746 kJ/mol
# GULP energy per Si atom -12393.627586 kJ/mol
# Density = 1.854170 g / cm^3
# Si number density = 18.584001 Si / 1000 Ang^3
#
#
#
# Elastic Constant Matrix: (Units=GPa)
#
#
# Indices 1 2 3 4 5 6 
#
# 1 60.7798 28.8944 36.7929 0.0000 0.0000 0.0000
# 2 28.8944 59.7873 56.7373 0.0000 0.0000 0.0000
# 3 36.7929 56.7373 134.9104 0.0000 0.0000 0.0000
# 4 0.0000 0.0000 0.0000 7.1651 0.0000 0.0000
# 5 0.0000 0.0000 0.0000 0.0000 19.8997 0.0000
# 6 0.0000 0.0000 0.0000 0.0000 0.0000 23.6939
#
#
#
# Elastic Compliance Matrix: (Units=1/GPa)
#
#
# Indices 1 2 3 4 5 6 
#
# 1 0.021867 -0.008169 -0.002528 0.000000 0.000000 0.000000
# 2 -0.008169 0.030886 -0.010762 0.000000 0.000000 0.000000
# 3 -0.002528 -0.010762 0.012628 0.000000 0.000000 0.000000
# 4 0.000000 0.000000 0.000000 0.139566 0.000000 0.000000
# 5 0.000000 0.000000 0.000000 0.000000 0.050252 0.000000
# 6 0.000000 0.000000 0.000000 0.000000 0.000000 0.042205
#
#
# Mechanical properties :
#
#
# Convention : Reuss Voigt Hill
#
# Bulk Modulus (GPa) = 44.51616 55.59187 50.05401
# Shear Modulus (GPa) = 14.37572 19.02192 16.69882
#
# Velocity S-wave (km/s) = 2.78430 3.20279 3.00085
# Velocity P-wave (km/s) = 5.86024 6.60726 6.24493
#
# Compressibility (1/GPa) = 0.02246375
#
# Stress axis : x y z
#
# Youngs Moduli (GPa) = 45.73190 32.37665 79.19117
#
# Poissons Ratio (x) = 0.26448 0.20020
# Poissons Ratio (y) = 0.37357 0.85223
# Poissons Ratio (z) = 0.11561 0.34843
#
# Static dielectric constant tensor:
#      x y z
#    x 3.254270 0.000000 0.000000 
#    y 0.000000 3.234430 0.000000 
#    z 0.000000 0.000000 3.813610 
# 
# 
# High freq. dielectric constant tensor:
#      x y z
#    x 1.704500 0.000000 0.000000 
#    y 0.000000 1.697910 0.000000 
#    z 0.000000 0.000000 1.741480 
# 
# From -- ./inp_files/18375.got.cif
#   From: 2010.03.12/outbox.cif.g09.slc.cpg/sg35_10_cif.got.tgz:18375.got - 2010.04.14 02:02:04.
