data_PCOD8173269
_publ_section_title
;
Structure prediction by ZEFSAII (Michael W. Deem and Ramdas Pophale) SiO2 
 PCOD8173269
Probable space group: C M M 2
;
_chemical_formula_sum "Si O2"
_cell_formula_units_Z 48
_cell_length_a 18.866298
_cell_length_b 9.005110
_cell_length_c 15.228477
_cell_angle_alpha 90.000000
_cell_angle_beta 90.000000
_cell_angle_gamma 90.000000
_cell_volume 2587.212995
_symmetry_space_group_name_H-M "C M M 2"
_symmetry_group_IT_number 35
_symmetry_cell_setting 'orthorhombic'
loop_
_space_group_symop_operation_xyz
x,y,z
-x,-y,z
-x,y,z
x,-y,z
1/2+x,1/2+y,z
1/2-x,1/2-y,z
1/2-x,1/2+y,z
1/2+x,1/2-y,z
loop_
_atom_site_type_symbol
_atom_site_label
_atom_site_fract_x
_atom_site_fract_y
_atom_site_fract_z
Si Si1 0.082855 0.327267 0.451830
Si Si2 0.677554 0.826079 0.105572
Si Si3 0.824294 0.325814 0.906155
Si Si4 0.673784 0.674860 0.597925
Si Si5 0.577353 0.824619 0.255440
Si Si6 0.918055 0.173396 0.766277
O O1 0.095657 0.500000 0.473080
O O2 0.132493 0.227918 0.512149
O O3 0.107224 0.288646 0.352417
O O4 0.000000 0.287637 0.465654
O O5 0.750000 0.750000 0.129453
O O6 0.623337 0.757570 0.176242
O O7 0.687013 0.000000 0.118421
O O8 0.654071 0.788616 0.006318
O O9 0.815034 0.500000 0.890149
O O10 0.750000 0.250000 0.879999
O O11 0.888304 0.264385 0.848356
O O12 0.685248 0.500000 0.591880
O O13 0.750000 0.750000 0.606700
O O14 0.626088 0.720445 0.680873
O O15 0.500000 0.752223 0.245886
O O16 0.571527 0.000000 0.244581
O O17 0.000000 0.216755 0.751244
O O18 0.909714 0.000000 0.786532
#
# Coordination Sequence:
#
# PCOD8173269 Si02
#       6
#     8   8   8   8   8   8
#     4   9  18  34  56  80 106 138 175 214 258 307
#     4   9  18  32  51  75 104 137 172 211 254 301
#     4  10  20  34  54  79 106 139 177 216 258 304
#     4  11  23  38  56  78 105 137 173 213 259 310
#     4   8  15  30  52  76 103 136 172 210 253 301
#     4  10  22  39  57  78 105 136 169 210 262 314
#
# _framework density 18.552783999999999
#
# number of rings (size 3 to 8) (size 9 to 14) (size 15 to 20)
#    0.000    2.500    0.000    3.000    0.000    6.000 
#    0.000    4.167    0.000    1.500    0.000    0.000 
#    0.000    0.000    0.000    0.000    0.000    0.000 
#
# Total GULP energy -297572.229821 kJ/mol
# GULP energy per Si atom -12398.842909 kJ/mol
# Density = 1.851056 g / cm^3
# Si number density = 18.552784 Si / 1000 Ang^3
#
#
#
# Elastic Constant Matrix: (Units=GPa)
#
#
# Indices 1 2 3 4 5 6 
#
# 1 138.8161 52.9731 94.8456 0.0000 0.0000 0.0000
# 2 52.9731 50.6391 48.0871 0.0000 0.0000 0.0000
# 3 94.8456 48.0871 142.0627 0.0000 0.0000 0.0000
# 4 0.0000 0.0000 0.0000 21.5656 0.0000 0.0000
# 5 0.0000 0.0000 0.0000 0.0000 39.1223 0.0000
# 6 0.0000 0.0000 0.0000 0.0000 0.0000 26.5291
#
#
#
# Elastic Compliance Matrix: (Units=1/GPa)
#
#
# Indices 1 2 3 4 5 6 
#
# 1 0.015918 -0.009668 -0.007355 0.000000 0.000000 0.000000
# 2 -0.009668 0.034973 -0.005384 0.000000 0.000000 0.000000
# 3 -0.007355 -0.005384 0.013772 0.000000 0.000000 0.000000
# 4 0.000000 0.000000 0.000000 0.046370 0.000000 0.000000
# 5 0.000000 0.000000 0.000000 0.000000 0.025561 0.000000
# 6 0.000000 0.000000 0.000000 0.000000 0.000000 0.037694
#
#
# Mechanical properties :
#
#
# Convention : Reuss Voigt Hill
#
# Bulk Modulus (GPa) = 50.37644 80.36995 65.37319
# Shear Modulus (GPa) = 22.15141 26.48420 24.31780
#
# Velocity S-wave (km/s) = 3.45913 3.78233 3.62434
# Velocity P-wave (km/s) = 6.57009 7.90496 7.26824
#
# Compressibility (1/GPa) = 0.01985055
#
# Stress axis : x y z
#
# Youngs Moduli (GPa) = 62.82024 28.59333 72.61036
#
# Poissons Ratio (x) = 0.27643 0.53407
# Poissons Ratio (y) = 0.60732 0.39092
# Poissons Ratio (z) = 0.46206 0.15394
#
# Static dielectric constant tensor:
#      x y z
#    x 3.706900 0.000000 0.000000 
#    y 0.000000 3.216030 0.000000 
#    z 0.000000 0.000000 3.618520 
# 
# 
# High freq. dielectric constant tensor:
#      x y z
#    x 1.721030 0.000000 0.000000 
#    y 0.000000 1.702950 0.000000 
#    z 0.000000 0.000000 1.733390 
# 
# From -- ./inp_files/15080.got.cif
#   From: 2010.03.12/outbox.cif.g09.slc.cpg/sg35_8_cif.got.tgz:15080.got - 2010.04.14 02:02:04.
