data_PCOD8173068
_publ_section_title
;
Structure prediction by ZEFSAII (Michael W. Deem and Ramdas Pophale) SiO2 
 PCOD8173068
Probable space group: C M M 2
;
_chemical_formula_sum "Si O2"
_cell_formula_units_Z 56
_cell_length_a 9.001973
_cell_length_b 19.177549
_cell_length_c 18.268902
_cell_angle_alpha 90.000000
_cell_angle_beta 90.000000
_cell_angle_gamma 90.000000
_cell_volume 3153.866116
_symmetry_space_group_name_H-M "C M M 2"
_symmetry_group_IT_number 35
_symmetry_cell_setting 'orthorhombic'
loop_
_space_group_symop_operation_xyz
x,y,z
-x,-y,z
-x,y,z
x,-y,z
1/2+x,1/2+y,z
1/2-x,1/2-y,z
1/2-x,1/2+y,z
1/2+x,1/2-y,z
loop_
_atom_site_type_symbol
_atom_site_label
_atom_site_fract_x
_atom_site_fract_y
_atom_site_fract_z
Si Si1 0.672465 0.582098 0.434430
Si Si2 0.332301 0.917090 0.288698
Si Si3 0.173172 0.823747 0.012453
Si Si4 0.171766 0.675882 0.715796
Si Si5 0.325383 0.419942 0.143426
Si Si6 0.326908 0.824730 0.553397
Si Si7 0.173620 0.175089 0.851573
O O1 0.500000 0.601530 0.435313
O O2 0.698910 0.500000 0.443135
O O3 0.741096 0.610374 0.358546
O O4 0.754427 0.619184 0.500697
O O5 0.500000 0.888512 0.293217
O O6 0.256106 0.888840 0.214778
O O7 0.328611 0.000000 0.287811
O O8 0.250000 0.750000 0.023822
O O9 0.231915 0.877750 0.072877
O O10 0.000000 0.809848 0.022271
O O11 0.204116 0.857843 0.931924
O O12 0.250000 0.750000 0.711967
O O13 0.193579 0.642791 0.635287
O O14 0.250478 0.632919 0.783101
O O15 0.000000 0.684620 0.735158
O O16 0.500000 0.411748 0.156177
O O17 0.281409 0.500000 0.130046
O O18 0.500000 0.815197 0.534846
O O19 0.250000 0.750000 0.544031
O O20 0.250000 0.250000 0.853324
O O21 0.000000 0.181654 0.835805
#
# Coordination Sequence:
#
# PCOD8173068 Si02
#       7
#     8   8   8   8   8   8   8
#     4  10  20  34  53  75  98 126 161 199 239 285
#     4   9  17  30  49  72  95 120 155 196 235 278
#     4   9  18  30  45  68  95 123 153 189 234 277
#     4   9  16  26  42  65  91 121 156 192 231 273
#     4   9  17  31  50  69  91 120 155 193 232 277
#     4  10  20  33  50  73 101 130 160 198 243 288
#     4   9  15  24  40  62  88 118 153 191 229 271
#
# _framework density 17.755986
#
# number of rings (size 3 to 8) (size 9 to 14) (size 15 to 20)
#    0.000    2.714    0.000    3.000    0.000    5.429 
#    0.000    0.714    0.000    2.571    0.000    2.000 
#    0.000    0.000    0.000    0.000    0.000    0.000 
#
# Total GULP energy -346972.276618 kJ/mol
# GULP energy per Si atom -12391.867022 kJ/mol
# Density = 1.771557 g / cm^3
# Si number density = 17.755986 Si / 1000 Ang^3
#
#
#
# Elastic Constant Matrix: (Units=GPa)
#
#
# Indices 1 2 3 4 5 6 
#
# 1 120.4889 31.9089 87.3616 0.0000 0.0000 0.0000
# 2 31.9089 35.6977 47.5717 0.0000 0.0000 0.0000
# 3 87.3616 47.5717 193.4160 0.0000 0.0000 0.0000
# 4 0.0000 0.0000 0.0000 10.9796 0.0000 0.0000
# 5 0.0000 0.0000 0.0000 0.0000 35.0233 0.0000
# 6 0.0000 0.0000 0.0000 0.0000 0.0000 19.3276
#
#
#
# Elastic Compliance Matrix: (Units=1/GPa)
#
#
# Indices 1 2 3 4 5 6 
#
# 1 0.013071 -0.005677 -0.004508 0.000000 0.000000 0.000000
# 2 -0.005677 0.044137 -0.008292 0.000000 0.000000 0.000000
# 3 -0.004508 -0.008292 0.009246 0.000000 0.000000 0.000000
# 4 0.000000 0.000000 0.000000 0.091078 0.000000 0.000000
# 5 0.000000 0.000000 0.000000 0.000000 0.028552 0.000000
# 6 0.000000 0.000000 0.000000 0.000000 0.000000 0.051740
#
#
# Mechanical properties :
#
#
# Convention : Reuss Voigt Hill
#
# Bulk Modulus (GPa) = 33.89665 75.92078 54.90872
# Shear Modulus (GPa) = 17.56792 25.25012 21.40902
#
# Velocity S-wave (km/s) = 3.14890 3.77512 3.47614
# Velocity P-wave (km/s) = 5.68792 7.86465 6.86313
#
# Compressibility (1/GPa) = 0.02950144
#
# Stress axis : x y z
#
# Youngs Moduli (GPa) = 76.50342 22.65678 108.15930
#
# Poissons Ratio (x) = 0.12862 0.48756
# Poissons Ratio (y) = 0.43430 0.89681
# Poissons Ratio (z) = 0.34486 0.18786
#
# Static dielectric constant tensor:
#      x y z
#    x 3.440260 0.000000 0.000000 
#    y 0.000000 2.773520 0.000000 
#    z 0.000000 0.000000 4.327310 
# 
# 
# High freq. dielectric constant tensor:
#      x y z
#    x 1.700640 0.000000 0.000000 
#    y 0.000000 1.620550 0.000000 
#    z 0.000000 0.000000 1.715670 
# 
# From -- ./inp_files/18247.got.cif
#   From: 2010.03.12/outbox.cif.g09.slc.cpg/sg35_10_cif.got.tgz:18247.got - 2010.04.14 02:02:04.
