data_PCOD8174068
_publ_section_title
;
Structure prediction by ZEFSAII (Michael W. Deem and Ramdas Pophale) SiO2 
 PCOD8174068
Probable space group: C M M 2
;
_chemical_formula_sum "Si O2"
_cell_formula_units_Z 48
_cell_length_a 15.804685
_cell_length_b 8.717225
_cell_length_c 16.787402
_cell_angle_alpha 90.000000
_cell_angle_beta 90.000000
_cell_angle_gamma 90.000000
_cell_volume 2312.850655
_symmetry_space_group_name_H-M "C M M 2"
_symmetry_group_IT_number 35
_symmetry_cell_setting 'orthorhombic'
loop_
_space_group_symop_operation_xyz
x,y,z
-x,-y,z
-x,y,z
x,-y,z
1/2+x,1/2+y,z
1/2-x,1/2-y,z
1/2-x,1/2+y,z
1/2+x,1/2-y,z
loop_
_atom_site_type_symbol
_atom_site_label
_atom_site_fract_x
_atom_site_fract_y
_atom_site_fract_z
Si Si1 0.661143 0.818029 0.113730
Si Si2 0.839172 0.681646 0.449014
Si Si3 0.500000 0.180567 0.854563
Si Si4 0.905705 0.681843 0.281540
Si Si5 0.000000 0.180760 0.025699
Si Si6 0.163966 0.319700 0.752997
Si Si7 0.404661 0.326177 0.599941
O O1 0.750000 0.750000 0.082619
O O2 0.649591 0.766871 0.205767
O O3 0.584152 0.752563 0.062983
O O4 0.661790 0.000000 0.103595
O O5 0.836540 0.500000 0.447120
O O6 0.750000 0.750000 0.474124
O O7 0.865443 0.748393 0.362545
O O8 0.904251 0.737687 0.515858
O O9 0.416337 0.227794 0.805934
O O10 0.500000 0.000000 0.875054
O O11 0.500000 0.282136 0.932949
O O12 0.910512 0.500000 0.286519
O O13 0.000000 0.749607 0.271521
O O14 0.000000 0.000000 0.040188
O O15 0.173122 0.500000 0.748052
O O16 0.250000 0.250000 0.790863
O O17 0.154908 0.255362 0.663908
O O18 0.500000 0.320988 0.632498
O O19 0.373076 0.500000 0.587756
#
# Coordination Sequence:
#
# PCOD8174068 Si02
#       7
#     8   8   4   8   4   8   8
#     4  11  22  41  68  96 132 171 215 267 321 383
#     4  11  22  36  56  83 121 163 212 262 312 370
#     4  10  24  46  70  95 128 167 206 257 318 381
#     4   9  18  35  60  88 119 163 211 260 317 372
#     4  12  26  44  68  99 132 169 212 259 320 387
#     4  11  23  42  68  97 128 165 210 256 312 375
#     4  11  23  39  60  87 122 163 210 261 314 369
#
# _framework density 20.753610999999999
#
# number of rings (size 3 to 8) (size 9 to 14) (size 15 to 20)
#    0.000    1.333    1.667    4.250    0.000    3.667 
#    0.000    4.167    0.000    0.000    0.000    0.000 
#    0.000    0.000    0.000    0.000    0.000    0.000 
#
# Total GULP energy -297683.532609 kJ/mol
# GULP energy per Si atom -12403.480525 kJ/mol
# Density = 2.070637 g / cm^3
# Si number density = 20.753611 Si / 1000 Ang^3
#
#
#
# Elastic Constant Matrix: (Units=GPa)
#
#
# Indices 1 2 3 4 5 6 
#
# 1 159.2056 54.2969 54.9911 0.0000 0.0000 0.0000
# 2 54.2969 103.0222 51.9008 0.0000 0.0000 0.0000
# 3 54.9911 51.9008 123.1936 0.0000 0.0000 0.0000
# 4 0.0000 0.0000 0.0000 27.3781 0.0000 0.0000
# 5 0.0000 0.0000 0.0000 0.0000 21.6399 0.0000
# 6 0.0000 0.0000 0.0000 0.0000 0.0000 30.6397
#
#
#
# Elastic Compliance Matrix: (Units=1/GPa)
#
#
# Indices 1 2 3 4 5 6 
#
# 1 0.008149 -0.003126 -0.002321 0.000000 0.000000 0.000000
# 2 -0.003126 0.013521 -0.004301 0.000000 0.000000 0.000000
# 3 -0.002321 -0.004301 0.010965 0.000000 0.000000 0.000000
# 4 0.000000 0.000000 0.000000 0.036525 0.000000 0.000000
# 5 0.000000 0.000000 0.000000 0.000000 0.046211 0.000000
# 6 0.000000 0.000000 0.000000 0.000000 0.000000 0.032637
#
#
# Mechanical properties :
#
#
# Convention : Reuss Voigt Hill
#
# Bulk Modulus (GPa) = 76.10259 78.64433 77.37346
# Shear Modulus (GPa) = 29.08954 30.88039 29.98496
#
# Velocity S-wave (km/s) = 3.74794 3.86158 3.80519
# Velocity P-wave (km/s) = 7.44839 7.60651 7.52787
#
# Compressibility (1/GPa) = 0.01314016
#
# Stress axis : x y z
#
# Youngs Moduli (GPa) = 122.71836 73.96045 91.19788
#
# Poissons Ratio (x) = 0.23117 0.21164
# Poissons Ratio (y) = 0.38357 0.39224
# Poissons Ratio (z) = 0.28478 0.31810
#
# Static dielectric constant tensor:
#      x y z
#    x 3.905930 0.000000 0.000000 
#    y 0.000000 3.602380 0.000000 
#    z 0.000000 0.000000 3.789540 
# 
# 
# High freq. dielectric constant tensor:
#      x y z
#    x 1.827730 0.000000 0.000000 
#    y 0.000000 1.803150 0.000000 
#    z 0.000000 0.000000 1.812210 
# 
# From -- ./inp_files/18769.got.cif
#   From: 2010.03.12/outbox.cif.g09.slc.cpg/sg35_10_cif.got.tgz:18769.got - 2010.04.14 02:02:04.
