data_PCOD8174192
_publ_section_title
;
Structure prediction by ZEFSAII (Michael W. Deem and Ramdas Pophale) SiO2 
 PCOD8174192
Probable space group: C M C 21
;
_chemical_formula_sum "Si O2"
_cell_formula_units_Z 64
_cell_length_a 8.769333
_cell_length_b 19.221990
_cell_length_c 21.057404
_cell_angle_alpha 90.000000
_cell_angle_beta 90.000000
_cell_angle_gamma 90.000000
_cell_volume 3549.520906
_symmetry_space_group_name_H-M "C M C 21"
_symmetry_group_IT_number 36
_symmetry_cell_setting 'orthorhombic'
loop_
_space_group_symop_operation_xyz
x,y,z
-x,-y,1/2+z
x,-y,1/2+z
-x,y,z
1/2+x,1/2+y,z
1/2-x,1/2-y,1/2+z
1/2+x,1/2-y,1/2+z
1/2-x,1/2+y,z
loop_
_atom_site_type_symbol
_atom_site_label
_atom_site_fract_x
_atom_site_fract_y
_atom_site_fract_z
Si Si1 0.827962 0.210506 0.023080
Si Si2 0.819265 0.803508 0.777891
Si Si3 0.680021 0.792510 0.394420
Si Si4 0.830833 0.954894 0.513109
Si Si5 0.178533 0.551265 0.887908
Si Si6 0.679324 0.796341 0.650264
Si Si7 0.818000 0.544606 0.274840
Si Si8 0.320092 0.446340 0.649268
O O1 0.742201 0.239549 0.085828
O O2 0.000000 0.238145 0.025017
O O3 0.749084 0.239157 0.959212
O O4 0.820350 0.127451 0.023425
O O5 0.768959 0.755423 0.836349
O O6 0.760390 0.765548 0.713501
O O7 0.738852 0.877510 0.787614
O O8 0.000000 0.813738 0.774534
O O9 0.500000 0.794914 0.402767
O O10 0.744795 0.870459 0.381891
O O11 0.720301 0.980571 0.457140
O O12 0.789737 0.987545 0.582701
O O13 0.000000 0.977312 0.492533
O O14 0.244435 0.502896 0.832354
O O15 0.000000 0.552893 0.881504
O O16 0.500000 0.783977 0.654499
O O17 0.718180 0.877471 0.649605
O O18 0.740354 0.511905 0.210932
O O19 0.000000 0.543269 0.268832
O O20 0.500000 0.427978 0.655092
#
# Coordination Sequence:
#
# PCOD8174192 Si02
#       8
#     8   8   8   8   8   8   8   8
#     4   9  16  27  44  67  93 118 149 190 232 272
#     4  10  19  31  48  69  94 123 155 191 230 272
#     4   9  18  32  49  69  93 122 155 190 229 272
#     4   8  15  26  42  65  89 114 147 186 226 266
#     4   9  18  31  47  68  93 120 151 186 224 270
#     4  10  17  26  43  66  92 120 153 191 228 269
#     4  10  19  30  46  69  95 122 152 186 227 274
#     4   9  16  27  43  65  91 117 150 190 230 269
#
# _framework density 18.030601999999998
#
# number of rings (size 3 to 8) (size 9 to 14) (size 15 to 20)
#    0.000    2.750    0.000    4.875    0.000    5.500 
#    0.000    0.000    0.000    1.500    0.000    5.250 
#    0.000    0.000    0.000    0.000    0.000    0.000 
#
# Total GULP energy -396540.316709 kJ/mol
# GULP energy per Si atom -12391.884897 kJ/mol
# Density = 1.798956 g / cm^3
# Si number density = 18.030602 Si / 1000 Ang^3
#
#
#
# Elastic Constant Matrix: (Units=GPa)
#
#
# Indices 1 2 3 4 5 6 
#
# 1 60.9529 14.6722 39.8818 0.0000 0.0000 0.0000
# 2 14.6722 31.3746 38.9106 0.0000 0.0000 0.0000
# 3 39.8818 38.9106 176.4133 0.0000 0.0000 0.0000
# 4 0.0000 0.0000 0.0000 26.6444 0.0000 0.0000
# 5 0.0000 0.0000 0.0000 0.0000 36.9893 0.0000
# 6 0.0000 0.0000 0.0000 0.0000 0.0000 13.0503
#
#
#
# Elastic Compliance Matrix: (Units=1/GPa)
#
#
# Indices 1 2 3 4 5 6 
#
# 1 0.019833 -0.005113 -0.003356 0.000000 0.000000 0.000000
# 2 -0.005113 0.045192 -0.008812 0.000000 0.000000 0.000000
# 3 -0.003356 -0.008812 0.008371 0.000000 0.000000 0.000000
# 4 0.000000 0.000000 0.000000 0.037531 0.000000 0.000000
# 5 0.000000 0.000000 0.000000 0.000000 0.027035 0.000000
# 6 0.000000 0.000000 0.000000 0.000000 0.000000 0.076627
#
#
# Mechanical properties :
#
#
# Convention : Reuss Voigt Hill
#
# Bulk Modulus (GPa) = 25.75020 50.63001 38.19010
# Shear Modulus (GPa) = 19.07708 27.02187 23.04947
#
# Velocity S-wave (km/s) = 3.25628 3.87546 3.57929
# Velocity P-wave (km/s) = 5.33387 6.94022 6.18938
#
# Compressibility (1/GPa) = 0.03883465
#
# Stress axis : x y z
#
# Youngs Moduli (GPa) = 50.42211 22.12759 119.46277
#
# Poissons Ratio (x) = 0.11313 0.40090
# Poissons Ratio (y) = 0.25779 1.05271
# Poissons Ratio (z) = 0.16921 0.19499
#
# Static dielectric constant tensor:
#      x y z
#    x 3.307710 0.000000 0.000000 
#    y 0.000000 2.839270 0.000000 
#    z 0.000000 0.000000 4.085020 
# 
# 
# High freq. dielectric constant tensor:
#      x y z
#    x 1.702970 0.000000 0.000000 
#    y 0.000000 1.621450 0.000000 
#    z 0.000000 0.000000 1.728690 
# 
# From -- ./inp_files/15813.got.cif
#   From: 2010.03.12/outbox.cif.g09.slc.cpg/sg36_8_cif.got.tgz:15813.got - 2010.04.14 02:13:53.
