data_PCOD8174607
_publ_section_title
;
Structure prediction by ZEFSAII (Michael W. Deem and Ramdas Pophale) SiO2 
 PCOD8174607
Probable space group: C M C 21
;
_chemical_formula_sum "Si O2"
_cell_formula_units_Z 64
_cell_length_a 9.001624
_cell_length_b 24.126153
_cell_length_c 14.648957
_cell_angle_alpha 90.000000
_cell_angle_beta 90.000000
_cell_angle_gamma 90.000000
_cell_volume 3181.380760
_symmetry_space_group_name_H-M "C M C 21"
_symmetry_group_IT_number 36
_symmetry_cell_setting 'orthorhombic'
loop_
_space_group_symop_operation_xyz
x,y,z
-x,-y,1/2+z
x,-y,1/2+z
-x,y,z
1/2+x,1/2+y,z
1/2-x,1/2-y,1/2+z
1/2+x,1/2-y,1/2+z
1/2-x,1/2+y,z
loop_
_atom_site_type_symbol
_atom_site_label
_atom_site_fract_x
_atom_site_fract_y
_atom_site_fract_z
Si Si1 0.824223 0.999819 0.253600
Si Si2 0.335175 0.344698 0.669684
Si Si3 0.668676 0.451715 0.561766
Si Si4 0.331189 0.780648 0.158569
Si Si5 0.675630 0.196869 0.465163
Si Si6 0.824777 0.702848 0.858529
Si Si7 0.826606 0.422949 0.385540
Si Si8 0.328107 0.104402 0.327022
O O1 0.774884 0.011417 0.148282
O O2 0.771094 0.049598 0.319424
O O3 0.000000 0.995519 0.259424
O O4 0.750732 0.943732 0.291779
O O5 0.500000 0.352683 0.714326
O O6 0.318020 0.387093 0.586657
O O7 0.316257 0.283622 0.631278
O O8 0.207622 0.354559 0.743722
O O9 0.500000 0.467945 0.536997
O O10 0.768753 0.459199 0.471733
O O11 0.500000 0.799900 0.169590
O O12 0.254747 0.794321 0.255566
O O13 0.263614 0.810928 0.069245
O O14 0.500000 0.208843 0.463669
O O15 0.751790 0.249507 0.418410
O O16 0.713494 0.138491 0.417790
O O17 0.789860 0.642000 0.898548
O O18 0.000000 0.714970 0.856336
O O19 0.000000 0.433716 0.375669
O O20 0.500000 0.087239 0.324378
#
# Coordination Sequence:
#
# PCOD8174607 Si02
#       8
#     8   8   8   8   8   8   8   8
#     4  10  22  41  63  82 109 150 196 241 284 343
#     4   9  16  30  55  79 105 147 192 228 269 330
#     4   9  19  36  60  87 109 146 197 239 285 340
#     4   9  17  32  53  77 111 153 188 218 271 343
#     4  10  20  34  55  83 114 149 188 230 279 338
#     4  10  21  37  57  82 117 155 189 229 281 341
#     4  11  23  38  58  88 119 151 189 239 298 344
#     4  10  19  32  53  82 112 137 179 238 289 331
#
# _framework density 20.117052999999999
#
# number of rings (size 3 to 8) (size 9 to 14) (size 15 to 20)
#    0.000    2.250    1.250    2.625    0.000    5.000 
#    2.250    1.250    0.000    0.000    0.000    0.000 
#    0.000    0.000    0.000    0.000    0.000    0.000 
#
# Total GULP energy -396614.335857 kJ/mol
# GULP energy per Si atom -12394.197996 kJ/mol
# Density = 2.007127 g / cm^3
# Si number density = 20.117053 Si / 1000 Ang^3
#
#
#
# Elastic Constant Matrix: (Units=GPa)
#
#
# Indices 1 2 3 4 5 6 
#
# 1 56.0570 19.6797 23.3747 0.0000 0.0000 0.0000
# 2 19.6797 36.4353 12.7661 0.0000 0.0000 0.0000
# 3 23.3747 12.7661 102.2630 0.0000 0.0000 0.0000
# 4 0.0000 0.0000 0.0000 24.7389 0.0000 0.0000
# 5 0.0000 0.0000 0.0000 0.0000 29.0102 0.0000
# 6 0.0000 0.0000 0.0000 0.0000 0.0000 28.2844
#
#
#
# Elastic Compliance Matrix: (Units=1/GPa)
#
#
# Indices 1 2 3 4 5 6 
#
# 1 0.023446 -0.011280 -0.003951 0.000000 0.000000 0.000000
# 2 -0.011280 0.034128 -0.001682 0.000000 0.000000 0.000000
# 3 -0.003951 -0.001682 0.010892 0.000000 0.000000 0.000000
# 4 0.000000 0.000000 0.000000 0.040422 0.000000 0.000000
# 5 0.000000 0.000000 0.000000 0.000000 0.034471 0.000000
# 6 0.000000 0.000000 0.000000 0.000000 0.000000 0.035355
#
#
# Mechanical properties :
#
#
# Convention : Reuss Voigt Hill
#
# Bulk Modulus (GPa) = 28.86824 34.04403 31.45613
# Shear Modulus (GPa) = 22.31281 25.66901 23.99091
#
# Velocity S-wave (km/s) = 3.33400 3.57597 3.45710
# Velocity P-wave (km/s) = 5.40389 5.83179 5.62191
#
# Compressibility (1/GPa) = 0.03464014
#
# Stress axis : x y z
#
# Youngs Moduli (GPa) = 42.65045 29.30171 91.81192
#
# Poissons Ratio (x) = 0.33051 0.36276
# Poissons Ratio (y) = 0.48108 0.15444
# Poissons Ratio (z) = 0.16852 0.04929
#
# Static dielectric constant tensor:
#      x y z
#    x 3.497320 0.000000 0.000000 
#    y 0.000000 3.571520 0.000000 
#    z 0.000000 0.000000 3.790480 
# 
# 
# High freq. dielectric constant tensor:
#      x y z
#    x 1.765770 0.000000 0.000000 
#    y 0.000000 1.774470 0.000000 
#    z 0.000000 0.000000 1.789530 
# 
# From -- ./inp_files/11048.got.cif
#   From: 2010.03.12/outbox.cif.g09.slc.cpg/sg36_6_cif.got.tgz:11048.got - 2010.04.14 02:13:53.
