data_PCOD8174628
_publ_section_title
;
Structure prediction by ZEFSAII (Michael W. Deem and Ramdas Pophale) SiO2 
 PCOD8174628
Probable space group: C M C 21
;
_chemical_formula_sum "Si O2"
_cell_formula_units_Z 64
_cell_length_a 8.874646
_cell_length_b 15.562953
_cell_length_c 23.982484
_cell_angle_alpha 90.000000
_cell_angle_beta 90.000000
_cell_angle_gamma 90.000000
_cell_volume 3312.357532
_symmetry_space_group_name_H-M "C M C 21"
_symmetry_group_IT_number 36
_symmetry_cell_setting 'orthorhombic'
loop_
_space_group_symop_operation_xyz
x,y,z
-x,-y,1/2+z
x,-y,1/2+z
-x,y,z
1/2+x,1/2+y,z
1/2-x,1/2-y,1/2+z
1/2+x,1/2-y,1/2+z
1/2-x,1/2+y,z
loop_
_atom_site_type_symbol
_atom_site_label
_atom_site_fract_x
_atom_site_fract_y
_atom_site_fract_z
Si Si1 0.326826 0.286646 0.871500
Si Si2 0.677556 0.042610 0.747246
Si Si3 0.324925 0.769610 0.250359
Si Si4 0.321141 0.783922 0.985079
Si Si5 0.820287 0.363688 0.555751
Si Si6 0.325931 0.021704 0.484919
Si Si7 0.174202 0.463082 0.860778
Si Si8 0.678436 0.880434 0.682022
O O1 0.500000 0.283859 0.890335
O O2 0.299026 0.229002 0.816961
O O3 0.228163 0.252827 0.923421
O O4 0.281756 0.382172 0.854045
O O5 0.500000 0.039851 0.740942
O O6 0.732875 0.137137 0.728828
O O7 0.720351 0.028274 0.812041
O O8 0.747664 0.968536 0.707777
O O9 0.500000 0.753411 0.236537
O O10 0.227775 0.698959 0.219451
O O11 0.500000 0.779357 0.989144
O O12 0.260641 0.881965 0.995009
O O13 0.248805 0.723248 0.031321
O O14 0.753705 0.447948 0.523951
O O15 0.763456 0.370271 0.619157
O O16 0.000000 0.358552 0.550552
O O17 0.500000 0.026420 0.500132
O O18 0.299784 0.992655 0.420855
O O19 0.000000 0.432648 0.855601
O O20 0.500000 0.884146 0.683375
#
# Coordination Sequence:
#
# PCOD8174628 Si02
#       8
#     8   8   8   8   8   8   8   8
#     4  10  19  32  54  83 117 147 177 225 281 330
#     4   9  18  33  55  80 106 143 187 225 267 326
#     4  10  21  35  56  84 111 146 188 228 273 324
#     4  10  21  37  57  83 111 146 184 226 276 327
#     4  10  21  37  58  81 106 143 186 228 276 330
#     4   8  17  33  55  80 106 140 181 221 265 323
#     4   9  16  31  56  79 108 144 181 225 271 324
#     4  10  21  38  57  78 109 145 182 228 279 328
#
# _framework density 19.321587000000001
#
# number of rings (size 3 to 8) (size 9 to 14) (size 15 to 20)
#    0.000    2.500    1.250    1.500    1.750    2.000 
#    0.000    6.875    0.000    0.000    0.000    0.000 
#    0.000    0.000    0.000    0.000    0.000    0.000 
#
# Total GULP energy -396660.633664 kJ/mol
# GULP energy per Si atom -12395.644802 kJ/mol
# Density = 1.927761 g / cm^3
# Si number density = 19.321587 Si / 1000 Ang^3
#
#
#
# Elastic Constant Matrix: (Units=GPa)
#
#
# Indices 1 2 3 4 5 6 
#
# 1 24.6328 9.6891 19.5091 0.0000 0.0000 0.0000
# 2 9.6891 92.7624 37.4539 0.0000 0.0000 0.0000
# 3 19.5091 37.4539 95.2007 0.0000 0.0000 0.0000
# 4 0.0000 0.0000 0.0000 25.5326 0.0000 0.0000
# 5 0.0000 0.0000 0.0000 0.0000 23.4620 0.0000
# 6 0.0000 0.0000 0.0000 0.0000 0.0000 22.9476
#
#
#
# Elastic Compliance Matrix: (Units=1/GPa)
#
#
# Indices 1 2 3 4 5 6 
#
# 1 0.048584 -0.001254 -0.009463 0.000000 0.000000 0.000000
# 2 -0.001254 0.012848 -0.004798 0.000000 0.000000 0.000000
# 3 -0.009463 -0.004798 0.014331 0.000000 0.000000 0.000000
# 4 0.000000 0.000000 0.000000 0.039166 0.000000 0.000000
# 5 0.000000 0.000000 0.000000 0.000000 0.042622 0.000000
# 6 0.000000 0.000000 0.000000 0.000000 0.000000 0.043578
#
#
# Mechanical properties :
#
#
# Convention : Reuss Voigt Hill
#
# Bulk Modulus (GPa) = 22.35431 38.43334 30.39383
# Shear Modulus (GPa) = 20.23726 24.11803 22.17765
#
# Velocity S-wave (km/s) = 3.23985 3.53688 3.39162
# Velocity P-wave (km/s) = 5.05868 6.05095 5.57693
#
# Compressibility (1/GPa) = 0.04473411
#
# Stress axis : x y z
#
# Youngs Moduli (GPa) = 20.58290 77.83065 69.77937
#
# Poissons Ratio (x) = 0.09760 0.66031
# Poissons Ratio (y) = 0.02581 0.33479
# Poissons Ratio (z) = 0.19477 0.37342
#
# Static dielectric constant tensor:
#      x y z
#    x 3.211450 0.000000 0.000000 
#    y 0.000000 3.779100 0.000000 
#    z 0.000000 0.000000 3.742360 
# 
# 
# High freq. dielectric constant tensor:
#      x y z
#    x 1.717020 0.000000 0.000000 
#    y 0.000000 1.756740 0.000000 
#    z 0.000000 0.000000 1.753930 
# 
# From -- ./inp_files/16562.got.cif
#   From: 2010.03.12/outbox.cif.g09.slc.cpg/sg36_9_cif.got.tgz:16562.got - 2010.04.14 02:13:53.
