data_PCOD8174399
_publ_section_title
;
Structure prediction by ZEFSAII (Michael W. Deem and Ramdas Pophale) SiO2 
 PCOD8174399
Probable space group: C M C 21
;
_chemical_formula_sum "Si O2"
_cell_formula_units_Z 64
_cell_length_a 8.922643
_cell_length_b 23.762722
_cell_length_c 14.434943
_cell_angle_alpha 90.000000
_cell_angle_beta 90.000000
_cell_angle_gamma 90.000000
_cell_volume 3060.587340
_symmetry_space_group_name_H-M "C M C 21"
_symmetry_group_IT_number 36
_symmetry_cell_setting 'orthorhombic'
loop_
_space_group_symop_operation_xyz
x,y,z
-x,-y,1/2+z
x,-y,1/2+z
-x,y,z
1/2+x,1/2+y,z
1/2-x,1/2-y,1/2+z
1/2+x,1/2-y,1/2+z
1/2-x,1/2+y,z
loop_
_atom_site_type_symbol
_atom_site_label
_atom_site_fract_x
_atom_site_fract_y
_atom_site_fract_z
Si Si1 0.824253 0.440668 0.560220
Si Si2 0.667165 0.912754 0.888414
Si Si3 0.832559 0.350095 0.704698
Si Si4 0.169561 0.809655 0.965734
Si Si5 0.322318 0.954006 0.185339
Si Si6 0.327576 0.246205 0.788612
Si Si7 0.171428 0.838907 0.164782
Si Si8 0.324431 0.475177 0.381751
O O1 0.788054 0.381363 0.610153
O O2 0.769289 0.494105 0.621246
O O3 0.732870 0.435809 0.464883
O O4 0.000000 0.446384 0.539549
O O5 0.500000 0.931195 0.920135
O O6 0.668795 0.900227 0.779488
O O7 0.711826 0.857618 0.944036
O O8 0.784019 0.961449 0.911563
O O9 0.715996 0.301567 0.730074
O O10 0.000000 0.323544 0.699123
O O11 0.204090 0.756245 0.898709
O O12 0.000000 0.830298 0.943505
O O13 0.185688 0.796794 0.075442
O O14 0.500000 0.951588 0.191829
O O15 0.260400 0.896055 0.142055
O O16 0.258762 0.959186 0.288154
O O17 0.500000 0.233142 0.769124
O O18 0.234398 0.192386 0.755319
O O19 0.000000 0.854726 0.184724
O O20 0.500000 0.467909 0.367568
#
# Coordination Sequence:
#
# PCOD8174399 Si02
#       8
#     8   8   8   8   8   8   8   8
#     4  10  21  39  62  88 120 159 202 245 299 364
#     4  10  18  33  58  86 116 152 197 244 292 349
#     4   9  18  36  60  85 112 147 192 244 297 347
#     4   9  20  38  61  90 119 153 200 249 304 358
#     4  11  23  42  64  89 122 162 204 250 303 361
#     4  10  21  39  62  89 118 155 200 249 300 358
#     4  11  23  41  62  88 122 160 202 251 306 362
#     4  12  24  36  55  87 125 162 199 242 299 361
#
# _framework density 20.911020000000001
#
# number of rings (size 3 to 8) (size 9 to 14) (size 15 to 20)
#    0.000    1.750    1.250    3.375    0.000    5.500 
#    2.250    0.000    0.000    0.000    0.000    0.000 
#    0.000    0.000    0.000    0.000    0.000    0.000 
#
# Total GULP energy -396800.275671 kJ/mol
# GULP energy per Si atom -12400.008615 kJ/mol
# Density = 2.086343 g / cm^3
# Si number density = 20.911020 Si / 1000 Ang^3
#
#
#
# Elastic Constant Matrix: (Units=GPa)
#
#
# Indices 1 2 3 4 5 6 
#
# 1 91.4032 13.2113 32.6267 0.0000 0.0000 0.0000
# 2 13.2113 35.6023 2.2438 0.0000 0.0000 0.0000
# 3 32.6267 2.2438 92.1553 0.0000 0.0000 0.0000
# 4 0.0000 0.0000 0.0000 23.0569 0.0000 0.0000
# 5 0.0000 0.0000 0.0000 0.0000 26.9563 0.0000
# 6 0.0000 0.0000 0.0000 0.0000 0.0000 33.1286
#
#
#
# Elastic Compliance Matrix: (Units=1/GPa)
#
#
# Indices 1 2 3 4 5 6 
#
# 1 0.013242 -0.004626 -0.004576 0.000000 0.000000 0.000000
# 2 -0.004626 0.029747 0.000913 0.000000 0.000000 0.000000
# 3 -0.004576 0.000913 0.012449 0.000000 0.000000 0.000000
# 4 0.000000 0.000000 0.000000 0.043371 0.000000 0.000000
# 5 0.000000 0.000000 0.000000 0.000000 0.037097 0.000000
# 6 0.000000 0.000000 0.000000 0.000000 0.000000 0.030185
#
#
# Mechanical properties :
#
#
# Convention : Reuss Voigt Hill
#
# Bulk Modulus (GPa) = 25.73175 35.03603 30.38389
# Shear Modulus (GPa) = 25.55950 28.03364 26.79657
#
# Velocity S-wave (km/s) = 3.49993 3.66541 3.58363
# Velocity P-wave (km/s) = 5.35395 5.89108 5.62893
#
# Compressibility (1/GPa) = 0.03886250
#
# Stress axis : x y z
#
# Youngs Moduli (GPa) = 75.51484 33.61685 80.32774
#
# Poissons Ratio (x) = 0.15550 0.36756
# Poissons Ratio (y) = 0.34930 -0.07337
# Poissons Ratio (z) = 0.34554 -0.03071
#
# Static dielectric constant tensor:
#      x y z
#    x 3.752180 0.000000 0.000000 
#    y 0.000000 3.547970 0.000000 
#    z 0.000000 0.000000 3.927200 
# 
# 
# High freq. dielectric constant tensor:
#      x y z
#    x 1.818180 0.000000 0.000000 
#    y 0.000000 1.798640 0.000000 
#    z 0.000000 0.000000 1.826430 
# 
# From -- ./inp_files/10868.got.cif
#   From: 2010.03.12/outbox.cif.g09.slc.cpg/sg36_6_cif.got.tgz:10868.got - 2010.04.14 02:13:53.
