data_PCOD8174368
_publ_section_title
;
Structure prediction by ZEFSAII (Michael W. Deem and Ramdas Pophale) SiO2 
 PCOD8174368
Probable space group: C M C 21
;
_chemical_formula_sum "Si O2"
_cell_formula_units_Z 64
_cell_length_a 8.844421
_cell_length_b 15.447875
_cell_length_c 24.052786
_cell_angle_alpha 90.000000
_cell_angle_beta 90.000000
_cell_angle_gamma 90.000000
_cell_volume 3286.272261
_symmetry_space_group_name_H-M "C M C 21"
_symmetry_group_IT_number 36
_symmetry_cell_setting 'orthorhombic'
loop_
_space_group_symop_operation_xyz
x,y,z
-x,-y,1/2+z
x,-y,1/2+z
-x,y,z
1/2+x,1/2+y,z
1/2-x,1/2-y,1/2+z
1/2+x,1/2-y,1/2+z
1/2-x,1/2+y,z
loop_
_atom_site_type_symbol
_atom_site_label
_atom_site_fract_x
_atom_site_fract_y
_atom_site_fract_z
Si Si1 0.174385 0.737639 0.625000
Si Si2 0.178643 0.129240 0.324015
Si Si3 0.680159 0.606485 0.198483
Si Si4 0.179274 0.025493 0.898386
Si Si5 0.326004 0.284713 0.384866
Si Si6 0.676570 0.534394 0.515495
Si Si7 0.320686 0.042028 0.629941
Si Si8 0.172112 0.710420 0.502739
O O1 0.248305 0.812842 0.662831
O O2 0.239976 0.641120 0.637101
O O3 0.199339 0.762797 0.560193
O O4 0.000000 0.734688 0.640984
O O5 0.236976 0.119668 0.261274
O O6 0.226921 0.221492 0.347868
O O7 0.000000 0.124363 0.325401
O O8 0.250046 0.051904 0.361313
O O9 0.500000 0.600769 0.193676
O O10 0.748621 0.516126 0.177852
O O11 0.227382 0.117358 0.871926
O O12 0.000000 0.016145 0.898298
O O13 0.233420 0.020957 0.962461
O O14 0.500000 0.269844 0.368822
O O15 0.301108 0.272567 0.450748
O O16 0.500000 0.521032 0.527769
O O17 0.768839 0.505778 0.569911
O O18 0.708086 0.633509 0.499132
O O19 0.500000 0.037671 0.633427
O O20 0.000000 0.673060 0.503319
#
# Coordination Sequence:
#
# PCOD8174368 Si02
#       8
#     8   8   8   8   8   8   8   8
#     4   8  17  34  54  77 107 143 179 220 274 332
#     4  10  21  39  56  79 114 146 185 234 273 318
#     4  10  21  37  60  81 105 149 194 226 269 332
#     4   9  19  34  54  80 111 147 179 219 275 332
#     4  10  20  34  55  80 105 144 185 218 271 334
#     4  10  18  32  57  81 111 147 181 218 274 337
#     4  10  21  37  55  80 114 143 179 232 279 324
#     4   9  17  31  53  78 109 139 176 225 271 323
#
# _framework density 19.474954
#
# number of rings (size 3 to 8) (size 9 to 14) (size 15 to 20)
#    0.000    2.500    1.250    1.500    1.750    1.500 
#    0.000    5.000    0.000    0.000    0.000    0.000 
#    0.000    0.000    0.000    0.000    0.000    0.000 
#
# Total GULP energy -396697.991670 kJ/mol
# GULP energy per Si atom -12396.812240 kJ/mol
# Density = 1.943063 g / cm^3
# Si number density = 19.474954 Si / 1000 Ang^3
#
#
#
# Elastic Constant Matrix: (Units=GPa)
#
#
# Indices 1 2 3 4 5 6 
#
# 1 22.4646 11.7163 23.5688 0.0000 0.0000 0.0000
# 2 11.7163 90.2002 45.4586 0.0000 0.0000 0.0000
# 3 23.5688 45.4586 112.1684 0.0000 0.0000 0.0000
# 4 0.0000 0.0000 0.0000 27.7484 0.0000 0.0000
# 5 0.0000 0.0000 0.0000 0.0000 22.0166 0.0000
# 6 0.0000 0.0000 0.0000 0.0000 0.0000 25.0870
#
#
#
# Elastic Compliance Matrix: (Units=1/GPa)
#
#
# Indices 1 2 3 4 5 6 
#
# 1 0.057316 -0.001728 -0.011343 0.000000 0.000000 0.000000
# 2 -0.001728 0.013984 -0.005304 0.000000 0.000000 0.000000
# 3 -0.011343 -0.005304 0.013448 0.000000 0.000000 0.000000
# 4 0.000000 0.000000 0.000000 0.036038 0.000000 0.000000
# 5 0.000000 0.000000 0.000000 0.000000 0.045420 0.000000
# 6 0.000000 0.000000 0.000000 0.000000 0.000000 0.039861
#
#
# Mechanical properties :
#
#
# Convention : Reuss Voigt Hill
#
# Bulk Modulus (GPa) = 20.83434 42.92451 31.87942
# Shear Modulus (GPa) = 19.31856 24.57636 21.94746
#
# Velocity S-wave (km/s) = 3.15297 3.55624 3.36066
# Velocity P-wave (km/s) = 4.89655 6.24109 5.60925
#
# Compressibility (1/GPa) = 0.04799769
#
# Stress axis : x y z
#
# Youngs Moduli (GPa) = 17.44704 71.50966 74.35973
#
# Poissons Ratio (x) = 0.12360 0.84345
# Poissons Ratio (y) = 0.03016 0.39442
# Poissons Ratio (z) = 0.19790 0.37930
#
# Static dielectric constant tensor:
#      x y z
#    x 3.220410 0.000000 0.000000 
#    y 0.000000 3.652260 0.000000 
#    z 0.000000 0.000000 3.724370 
# 
# 
# High freq. dielectric constant tensor:
#      x y z
#    x 1.723240 0.000000 0.000000 
#    y 0.000000 1.759480 0.000000 
#    z 0.000000 0.000000 1.761540 
# 
# From -- ./inp_files/16615.got.cif
#   From: 2010.03.12/outbox.cif.g09.slc.cpg/sg36_9_cif.got.tgz:16615.got - 2010.04.14 02:13:53.
