data_PCOD8174119
_publ_section_title
;
Structure prediction by ZEFSAII (Michael W. Deem and Ramdas Pophale) SiO2 
 PCOD8174119
Probable space group: C M M 2
;
_chemical_formula_sum "Si O2"
_cell_formula_units_Z 48
_cell_length_a 8.333630
_cell_length_b 30.319411
_cell_length_c 9.398155
_cell_angle_alpha 90.000000
_cell_angle_beta 90.000000
_cell_angle_gamma 90.000000
_cell_volume 2374.638902
_symmetry_space_group_name_H-M "C M M 2"
_symmetry_group_IT_number 35
_symmetry_cell_setting 'orthorhombic'
loop_
_space_group_symop_operation_xyz
x,y,z
-x,-y,z
-x,y,z
x,-y,z
1/2+x,1/2+y,z
1/2-x,1/2-y,z
1/2-x,1/2+y,z
1/2+x,1/2-y,z
loop_
_atom_site_type_symbol
_atom_site_label
_atom_site_fract_x
_atom_site_fract_y
_atom_site_fract_z
Si Si1 0.182791 0.370515 0.633440
Si Si2 0.186845 0.050718 0.463449
Si Si3 0.809210 0.951305 0.143669
Si Si4 0.314339 0.703276 0.441351
Si Si5 0.312643 0.798625 0.136282
Si Si6 0.813029 0.873998 0.944027
O O1 0.215786 0.418888 0.571345
O O2 0.294248 0.333762 0.560884
O O3 0.214194 0.371052 0.800301
O O4 0.000000 0.357219 0.605489
O O5 0.249821 0.059895 0.303321
O O6 0.000000 0.062495 0.476404
O O7 0.217729 0.000000 0.505774
O O8 0.000000 0.950807 0.145838
O O9 0.747413 0.000000 0.098609
O O10 0.742898 0.915485 0.033058
O O11 0.500000 0.708301 0.400815
O O12 0.250000 0.750000 0.500303
O O13 0.218785 0.688798 0.300308
O O14 0.500000 0.802860 0.101943
O O15 0.250000 0.750000 0.103783
O O16 0.211598 0.830269 0.035197
O O17 0.000000 0.880298 0.909149
#
# Coordination Sequence:
#
# PCOD8174119 Si02
#       6
#     8   8   8   8   8   8
#     4  12  25  39  55  82 120 158 195 240 295 348
#     4   9  18  36  62  88 113 147 193 242 292 348
#     4   8  16  33  59  87 111 140 185 237 283 333
#     4  11  22  40  64  89 115 148 192 239 289 345
#     4  11  22  39  62  89 118 150 190 236 287 341
#     4  11  22  37  58  85 117 155 196 238 287 343
#
# _framework density 20.2136
#
# number of rings (size 3 to 8) (size 9 to 14) (size 15 to 20)
#    0.000    1.667    0.000    8.000    0.000    3.000 
#    0.000    5.833    0.000    3.500    0.000    0.000 
#    0.000    0.000    0.000    0.000    0.000    0.000 
#
# Total GULP energy -297697.837268 kJ/mol
# GULP energy per Si atom -12404.076553 kJ/mol
# Density = 2.016759 g / cm^3
# Si number density = 20.213600 Si / 1000 Ang^3
#
#
#
# Elastic Constant Matrix: (Units=GPa)
#
#
# Indices 1 2 3 4 5 6 
#
# 1 66.6942 14.5235 0.0750 0.0000 0.0000 0.0000
# 2 14.5235 121.3296 72.2351 0.0000 0.0000 0.0000
# 3 0.0750 72.2351 104.7658 0.0000 0.0000 0.0000
# 4 0.0000 0.0000 0.0000 11.6068 0.0000 0.0000
# 5 0.0000 0.0000 0.0000 0.0000 28.7878 0.0000
# 6 0.0000 0.0000 0.0000 0.0000 0.0000 27.5398
#
#
#
# Elastic Compliance Matrix: (Units=1/GPa)
#
#
# Indices 1 2 3 4 5 6 
#
# 1 0.015682 -0.003173 0.002177 0.000000 0.000000 0.000000
# 2 -0.003173 0.014623 -0.010080 0.000000 0.000000 0.000000
# 3 0.002177 -0.010080 0.016494 0.000000 0.000000 0.000000
# 4 0.000000 0.000000 0.000000 0.086157 0.000000 0.000000
# 5 0.000000 0.000000 0.000000 0.000000 0.034737 0.000000
# 6 0.000000 0.000000 0.000000 0.000000 0.000000 0.036311
#
#
# Mechanical properties :
#
#
# Convention : Reuss Voigt Hill
#
# Bulk Modulus (GPa) = 40.57489 51.82854 46.20171
# Shear Modulus (GPa) = 21.33350 27.31726 24.32538
#
# Velocity S-wave (km/s) = 3.25222 3.68017 3.47279
# Velocity P-wave (km/s) = 5.84972 6.61470 6.24394
#
# Compressibility (1/GPa) = 0.02464579
#
# Stress axis : x y z
#
# Youngs Moduli (GPa) = 63.76596 68.38387 60.62855
#
# Poissons Ratio (x) = 0.21699 -0.13196
# Poissons Ratio (y) = 0.20233 0.61116
# Poissons Ratio (z) = -0.13879 0.68934
#
# Static dielectric constant tensor:
#      x y z
#    x 3.472010 0.000000 0.000000 
#    y 0.000000 3.870400 0.000000 
#    z 0.000000 0.000000 3.585220 
# 
# 
# High freq. dielectric constant tensor:
#      x y z
#    x 1.779360 0.000000 0.000000 
#    y 0.000000 1.802300 0.000000 
#    z 0.000000 0.000000 1.783070 
# 
# From -- ./inp_files/5299.got.cif
#   From: 2010.03.12/outbox.cif.g09.slc.cpg/sg35_3_cif.got.tgz:5299.got - 2010.04.14 02:02:04.
