data_PCOD8174078
_publ_section_title
;
Structure prediction by ZEFSAII (Michael W. Deem and Ramdas Pophale) SiO2 
 PCOD8174078
Probable space group: C M M 2
;
_chemical_formula_sum "Si O2"
_cell_formula_units_Z 48
_cell_length_a 30.676372
_cell_length_b 8.931695
_cell_length_c 9.983387
_cell_angle_alpha 90.000000
_cell_angle_beta 90.000000
_cell_angle_gamma 90.000000
_cell_volume 2735.368155
_symmetry_space_group_name_H-M "C M M 2"
_symmetry_group_IT_number 35
_symmetry_cell_setting 'orthorhombic'
loop_
_space_group_symop_operation_xyz
x,y,z
-x,-y,z
-x,y,z
x,-y,z
1/2+x,1/2+y,z
1/2-x,1/2-y,z
1/2-x,1/2+y,z
1/2+x,1/2-y,z
loop_
_atom_site_type_symbol
_atom_site_label
_atom_site_fract_x
_atom_site_fract_y
_atom_site_fract_z
Si Si1 0.952051 0.822811 0.432150
Si Si2 0.117529 0.322693 0.928700
Si Si3 0.614665 0.679817 0.211982
Si Si4 0.051047 0.826677 0.734450
Si Si5 0.209347 0.836556 0.227538
Si Si6 0.292543 0.667594 0.910290
O O1 0.918916 0.758349 0.322166
O O2 0.937489 0.780303 0.582008
O O3 0.000000 0.756153 0.401792
O O4 0.953870 0.000000 0.419718
O O5 0.121975 0.500000 0.941795
O O6 0.079254 0.281225 0.826874
O O7 0.163460 0.257640 0.875334
O O8 0.103376 0.253379 0.070532
O O9 0.614136 0.500000 0.194232
O O10 0.662391 0.735131 0.262154
O O11 0.000000 0.800305 0.763325
O O12 0.063122 0.000000 0.761367
O O13 0.250000 0.750000 0.292271
O O14 0.211843 0.000000 0.291686
O O15 0.213594 0.843136 0.068443
O O16 0.295933 0.500000 0.849592
O O17 0.250000 0.750000 0.848107
#
# Coordination Sequence:
#
# PCOD8174078 Si02
#       6
#     8   8   8   8   8   8
#     4   8  15  30  53  75  91 115 157 203 246 295
#     4  11  21  31  46  72 104 134 164 199 240 287
#     4   9  17  30  48  72  98 122 155 201 247 286
#     4   9  18  34  54  72  91 122 165 208 250 297
#     4   8  14  23  38  61  90 121 150 183 224 271
#     4   9  16  28  46  69  97 128 162 200 242 286
#
# _framework density 17.547912
#
# number of rings (size 3 to 8) (size 9 to 14) (size 15 to 20)
#    0.000    3.000    0.000    4.000    0.000    5.000 
#    0.000    2.500    0.000    2.000    0.000    2.333 
#    0.000    0.000    0.000    0.000    0.000    0.000 
#
# Total GULP energy -297448.657343 kJ/mol
# GULP energy per Si atom -12393.694056 kJ/mol
# Density = 1.750797 g / cm^3
# Si number density = 17.547912 Si / 1000 Ang^3
#
#
#
# Elastic Constant Matrix: (Units=GPa)
#
#
# Indices 1 2 3 4 5 6 
#
# 1 129.9915 45.4051 68.7727 0.0000 0.0000 0.0000
# 2 45.4051 77.8490 31.6475 0.0000 0.0000 0.0000
# 3 68.7727 31.6475 75.2769 0.0000 0.0000 0.0000
# 4 0.0000 0.0000 0.0000 9.1239 0.0000 0.0000
# 5 0.0000 0.0000 0.0000 0.0000 2.6824 0.0000
# 6 0.0000 0.0000 0.0000 0.0000 0.0000 29.1743
#
#
#
# Elastic Compliance Matrix: (Units=1/GPa)
#
#
# Indices 1 2 3 4 5 6 
#
# 1 0.015886 -0.004059 -0.012807 0.000000 0.000000 0.000000
# 2 -0.004059 0.016531 -0.003241 0.000000 0.000000 0.000000
# 3 -0.012807 -0.003241 0.026347 0.000000 0.000000 0.000000
# 4 0.000000 0.000000 0.000000 0.109603 0.000000 0.000000
# 5 0.000000 0.000000 0.000000 0.000000 0.372795 0.000000
# 6 0.000000 0.000000 0.000000 0.000000 0.000000 0.034277
#
#
# Mechanical properties :
#
#
# Convention : Reuss Voigt Hill
#
# Bulk Modulus (GPa) = 53.91054 63.86311 58.88682
# Shear Modulus (GPa) = 8.04069 17.34894 12.69481
#
# Velocity S-wave (km/s) = 2.14291 3.14771 2.69260
# Velocity P-wave (km/s) = 6.07547 7.04864 6.58007
#
# Compressibility (1/GPa) = 0.01854925
#
# Stress axis : x y z
#
# Youngs Moduli (GPa) = 62.94709 60.49413 37.95429
#
# Poissons Ratio (x) = 0.24556 0.48609
# Poissons Ratio (y) = 0.25552 0.12302
# Poissons Ratio (z) = 0.80617 0.19607
#
# Static dielectric constant tensor:
#      x y z
#    x 3.689480 0.000000 0.000000 
#    y 0.000000 3.169600 0.000000 
#    z 0.000000 0.000000 2.961310 
# 
# 
# High freq. dielectric constant tensor:
#      x y z
#    x 1.693760 0.000000 0.000000 
#    y 0.000000 1.659330 0.000000 
#    z 0.000000 0.000000 1.635310 
# 
# From -- ./inp_files/11478.got.cif
#   From: 2010.03.12/outbox.cif.g09.slc.cpg/sg35_6_cif.got.tgz:11478.got - 2010.04.14 02:02:04.
