data_PCOD8174423
_publ_section_title
;
Structure prediction by ZEFSAII (Michael W. Deem and Ramdas Pophale) SiO2 
 PCOD8174423
Probable space group: C M C 21
;
_chemical_formula_sum "Si O2"
_cell_formula_units_Z 64
_cell_length_a 8.930395
_cell_length_b 15.471415
_cell_length_c 23.870174
_cell_angle_alpha 90.000000
_cell_angle_beta 90.000000
_cell_angle_gamma 90.000000
_cell_volume 3298.042813
_symmetry_space_group_name_H-M "C M C 21"
_symmetry_group_IT_number 36
_symmetry_cell_setting 'orthorhombic'
loop_
_space_group_symop_operation_xyz
x,y,z
-x,-y,1/2+z
x,-y,1/2+z
-x,y,z
1/2+x,1/2+y,z
1/2-x,1/2-y,1/2+z
1/2+x,1/2-y,1/2+z
1/2-x,1/2+y,z
loop_
_atom_site_type_symbol
_atom_site_label
_atom_site_fract_x
_atom_site_fract_y
_atom_site_fract_z
Si Si1 0.322819 0.082039 0.771380
Si Si2 0.323885 0.910774 0.036246
Si Si3 0.822458 0.351229 0.154235
Si Si4 0.675689 0.104092 0.033221
Si Si5 0.825939 0.092558 0.268084
Si Si6 0.675024 0.653683 0.145770
Si Si7 0.677816 0.753099 0.962301
Si Si8 0.176661 0.745711 0.842546
O O1 0.500000 0.077032 0.769243
O O2 0.255715 0.103917 0.709844
O O3 0.272332 0.155763 0.814785
O O4 0.259688 0.990565 0.792283
O O5 0.500000 0.897074 0.041213
O O6 0.256103 0.897138 0.098682
O O7 0.285681 0.006268 0.013622
O O8 0.259617 0.838180 0.994251
O O9 0.773344 0.251911 0.153451
O O10 0.000000 0.357825 0.157026
O O11 0.500000 0.123257 0.028426
O O12 0.725939 0.111836 0.097341
O O13 0.764657 0.167748 0.993078
O O14 0.788036 0.103318 0.202698
O O15 0.773418 0.177172 0.301532
O O16 0.000000 0.077373 0.277566
O O17 0.500000 0.648224 0.129825
O O18 0.500000 0.750598 0.962106
O O19 0.736808 0.757059 0.899909
O O20 0.000000 0.746906 0.853775
#
# Coordination Sequence:
#
# PCOD8174423 Si02
#       8
#     8   8   8   8   8   8   8   8
#     4  10  20  36  61  86 112 152 194 229 279 346
#     4   9  19  35  58  83 111 147 187 227 277 343
#     4   9  15  31  59  84 109 149 190 223 269 340
#     4  11  22  37  59  89 118 147 188 238 285 339
#     4  10  21  37  59  87 119 152 188 237 290 334
#     4  10  18  34  60  86 117 155 189 227 284 346
#     4  11  23  41  62  82 109 152 197 240 288 339
#     4  10  22  41  60  81 113 154 195 237 286 339
#
# _framework density 19.405449000000001
#
# number of rings (size 3 to 8) (size 9 to 14) (size 15 to 20)
#    0.000    2.000    2.500    1.500    0.000    3.500 
#    0.000    6.875    0.000    0.000    0.000    0.000 
#    0.000    0.000    0.000    0.000    0.000    0.000 
#
# Total GULP energy -396824.304579 kJ/mol
# GULP energy per Si atom -12400.759518 kJ/mol
# Density = 1.936128 g / cm^3
# Si number density = 19.405449 Si / 1000 Ang^3
#
#
#
# Elastic Constant Matrix: (Units=GPa)
#
#
# Indices 1 2 3 4 5 6 
#
# 1 36.7011 35.3885 37.9747 0.0000 0.0000 0.0000
# 2 35.3885 128.1242 33.5662 0.0000 0.0000 0.0000
# 3 37.9747 33.5662 94.7838 0.0000 0.0000 0.0000
# 4 0.0000 0.0000 0.0000 14.9212 0.0000 0.0000
# 5 0.0000 0.0000 0.0000 0.0000 33.0309 0.0000
# 6 0.0000 0.0000 0.0000 0.0000 0.0000 26.9799
#
#
#
# Elastic Compliance Matrix: (Units=1/GPa)
#
#
# Indices 1 2 3 4 5 6 
#
# 1 0.057652 -0.010882 -0.019244 0.000000 0.000000 0.000000
# 2 -0.010882 0.010657 0.000586 0.000000 0.000000 0.000000
# 3 -0.019244 0.000586 0.018053 0.000000 0.000000 0.000000
# 4 0.000000 0.000000 0.000000 0.067019 0.000000 0.000000
# 5 0.000000 0.000000 0.000000 0.000000 0.030275 0.000000
# 6 0.000000 0.000000 0.000000 0.000000 0.000000 0.037065
#
#
# Mechanical properties :
#
#
# Convention : Reuss Voigt Hill
#
# Bulk Modulus (GPa) = 36.65551 52.60755 44.63153
# Shear Modulus (GPa) = 17.30733 25.16506 21.23619
#
# Velocity S-wave (km/s) = 2.98968 3.60502 3.31167
# Velocity P-wave (km/s) = 5.55408 6.67059 6.13778
#
# Compressibility (1/GPa) = 0.02728102
#
# Stress axis : x y z
#
# Youngs Moduli (GPa) = 17.34544 93.83383 55.39246
#
# Poissons Ratio (x) = 1.02111 1.06599
# Poissons Ratio (y) = 0.18875 -0.03245
# Poissons Ratio (z) = 0.33380 -0.05497
#
# Static dielectric constant tensor:
#      x y z
#    x 3.195120 0.000000 0.000000 
#    y 0.000000 3.750830 0.000000 
#    z 0.000000 0.000000 3.673780 
# 
# 
# High freq. dielectric constant tensor:
#      x y z
#    x 1.723770 0.000000 0.000000 
#    y 0.000000 1.772120 0.000000 
#    z 0.000000 0.000000 1.757410 
# 
# From -- ./inp_files/16599.got.cif
#   From: 2010.03.12/outbox.cif.g09.slc.cpg/sg36_9_cif.got.tgz:16599.got - 2010.04.14 02:13:53.
