data_PCOD8174931
_publ_section_title
;
Structure prediction by ZEFSAII (Michael W. Deem and Ramdas Pophale) SiO2 
 PCOD8174931
Probable space group: C M C 21
;
_chemical_formula_sum "Si O2"
_cell_formula_units_Z 48
_cell_length_a 14.762697
_cell_length_b 31.745968
_cell_length_c 4.926031
_cell_angle_alpha 90.000000
_cell_angle_beta 90.000000
_cell_angle_gamma 90.000000
_cell_volume 2308.614509
_symmetry_space_group_name_H-M "C M C 21"
_symmetry_group_IT_number 36
_symmetry_cell_setting 'orthorhombic'
loop_
_space_group_symop_operation_xyz
x,y,z
-x,-y,1/2+z
x,-y,1/2+z
-x,y,z
1/2+x,1/2+y,z
1/2-x,1/2-y,1/2+z
1/2+x,1/2-y,1/2+z
1/2-x,1/2+y,z
loop_
_atom_site_type_symbol
_atom_site_label
_atom_site_fract_x
_atom_site_fract_y
_atom_site_fract_z
Si Si1 0.310569 0.471125 0.197310
Si Si2 0.835352 0.592418 0.790032
Si Si3 0.207356 0.773451 0.739364
Si Si4 0.500000 0.801858 0.755584
Si Si5 0.674820 0.852067 0.788622
Si Si6 0.500000 0.252445 0.761287
Si Si7 0.500000 0.970038 0.301363
Si Si8 0.000000 0.973056 0.067315
O O1 0.297095 0.489361 0.497618
O O2 0.242705 0.433676 0.142465
O O3 0.408609 0.448936 0.151158
O O4 0.856920 0.629495 0.578489
O O5 0.915615 0.560166 0.847973
O O6 0.801434 0.611327 0.074820
O O7 0.255996 0.760010 0.459407
O O8 0.240462 0.820396 0.819350
O O9 0.096911 0.776186 0.708988
O O10 0.587897 0.827992 0.672820
O O11 0.500000 0.759628 0.576608
O O12 0.500000 0.788767 0.070625
O O13 0.500000 0.009642 0.503868
O O14 0.000000 0.016477 0.247729
#
# Coordination Sequence:
#
# PCOD8174931 Si02
#       8
#     8   8   8   4   8   4   4   4
#     4  10  19  36  58  83 111 153 204 249 296 369
#     4  12  24  39  58  89 126 166 203 253 333 379
#     4  12  23  43  66  96 126 166 218 271 328 389
#     4  12  22  39  66  89 118 163 214 263 320 366
#     4  12  24  40  60  92 129 161 206 272 319 386
#     4  12  22  41  68  97 118 167 216 267 316 380
#     4  12  24  42  64  90 126 170 218 268 314 388
#     4   8  16  30  54  80 102 130 190 250 282 332
#
# _framework density 20.791689000000002
#
# number of rings (size 3 to 8) (size 9 to 14) (size 15 to 20)
#    0.000    0.667    3.333    6.000    0.000    0.000 
#    0.000    1.667    0.000    0.000    0.000    0.000 
#    0.000    0.000    0.000    0.000    0.000    0.000 
#
# Total GULP energy -297531.298274 kJ/mol
# GULP energy per Si atom -12397.137428 kJ/mol
# Density = 2.074437 g / cm^3
# Si number density = 20.791689 Si / 1000 Ang^3
#
#
#
# Elastic Constant Matrix: (Units=GPa)
#
#
# Indices 1 2 3 4 5 6 
#
# 1 145.0220 38.4085 5.5614 0.0000 0.0000 0.0000
# 2 38.4085 79.4625 13.4350 0.0000 0.0000 0.0000
# 3 5.5614 13.4350 84.9402 0.0000 0.0000 0.0000
# 4 0.0000 0.0000 0.0000 30.3123 0.0000 0.0000
# 5 0.0000 0.0000 0.0000 0.0000 26.7734 0.0000
# 6 0.0000 0.0000 0.0000 0.0000 0.0000 56.9666
#
#
#
# Elastic Compliance Matrix: (Units=1/GPa)
#
#
# Indices 1 2 3 4 5 6 
#
# 1 0.007908 -0.003838 0.000089 0.000000 0.000000 0.000000
# 2 -0.003838 0.014793 -0.002088 0.000000 0.000000 0.000000
# 3 0.000089 -0.002088 0.012097 0.000000 0.000000 0.000000
# 4 0.000000 0.000000 0.000000 0.032990 0.000000 0.000000
# 5 0.000000 0.000000 0.000000 0.000000 0.037351 0.000000
# 6 0.000000 0.000000 0.000000 0.000000 0.000000 0.017554
#
#
# Mechanical properties :
#
#
# Convention : Reuss Voigt Hill
#
# Bulk Modulus (GPa) = 43.24389 47.13719 45.19054
# Shear Modulus (GPa) = 35.19263 39.61179 37.40221
#
# Velocity S-wave (km/s) = 4.11862 4.36957 4.24595
# Velocity P-wave (km/s) = 6.59251 6.94103 6.76901
#
# Compressibility (1/GPa) = 0.02312466
#
# Stress axis : x y z
#
# Youngs Moduli (GPa) = 126.44659 67.60135 82.66183
#
# Poissons Ratio (x) = 0.25943 -0.00737
# Poissons Ratio (y) = 0.48526 0.17264
# Poissons Ratio (z) = -0.01128 0.14118
#
# Static dielectric constant tensor:
#      x y z
#    x 3.858240 0.000000 0.000000 
#    y 0.000000 3.462580 0.000000 
#    z 0.000000 0.000000 3.761790 
# 
# 
# High freq. dielectric constant tensor:
#      x y z
#    x 1.827670 0.000000 0.000000 
#    y 0.000000 1.782490 0.000000 
#    z 0.000000 0.000000 1.832720 
# 
# From -- ./inp_files/861.got.cif
#   From: 2010.03.12/outbox.cif.g09.slc.cpg/sg36_1_cif.got.tgz:861.got - 2010.04.14 02:13:53.
