data_PCOD8174986
_publ_section_title
;
Structure prediction by ZEFSAII (Michael W. Deem and Ramdas Pophale) SiO2 
 PCOD8174986
Probable space group: C M C 21
;
_chemical_formula_sum "Si O2"
_cell_formula_units_Z 64
_cell_length_a 8.742316
_cell_length_b 24.176537
_cell_length_c 15.501597
_cell_angle_alpha 90.000000
_cell_angle_beta 90.000000
_cell_angle_gamma 90.000000
_cell_volume 3276.400897
_symmetry_space_group_name_H-M "C M C 21"
_symmetry_group_IT_number 36
_symmetry_cell_setting 'orthorhombic'
loop_
_space_group_symop_operation_xyz
x,y,z
-x,-y,1/2+z
x,-y,1/2+z
-x,y,z
1/2+x,1/2+y,z
1/2-x,1/2-y,1/2+z
1/2+x,1/2-y,1/2+z
1/2-x,1/2+y,z
loop_
_atom_site_type_symbol
_atom_site_label
_atom_site_fract_x
_atom_site_fract_y
_atom_site_fract_z
Si Si1 0.680365 0.376704 0.538870
Si Si2 0.326966 0.880221 0.717891
Si Si3 0.180878 0.006394 0.976499
Si Si4 0.681751 0.064382 0.626896
Si Si5 0.673406 0.240536 0.280350
Si Si6 0.182437 0.762885 0.468286
Si Si7 0.181026 0.691208 0.627228
Si Si8 0.319619 0.489866 0.778479
O O1 0.500000 0.379500 0.533941
O O2 0.731460 0.365607 0.634684
O O3 0.747781 0.434469 0.505744
O O4 0.742235 0.325022 0.484603
O O5 0.500000 0.898284 0.695272
O O6 0.323475 0.825290 0.773864
O O7 0.243064 0.928548 0.768249
O O8 0.000000 0.000653 0.990219
O O9 0.225504 0.004152 0.876221
O O10 0.260476 0.960105 0.035721
O O11 0.500000 0.060499 0.628944
O O12 0.739552 0.127910 0.632454
O O13 0.746316 0.031721 0.709576
O O14 0.500000 0.262924 0.274976
O O15 0.747821 0.249680 0.374123
O O16 0.768148 0.273699 0.209678
O O17 0.247327 0.720445 0.540583
O O18 0.000000 0.759502 0.469803
O O19 0.000000 0.692088 0.624885
O O20 0.500000 0.491159 0.762894
#
# Coordination Sequence:
#
# PCOD8174986 Si02
#       8
#     8   8   8   8   8   8   8   8
#     4  10  19  37  64  85 111 153 201 245 293 351
#     4  11  22  37  60  90 120 151 196 250 301 347
#     4  10  23  40  61  90 117 156 204 247 296 352
#     4  11  24  40  61  89 122 160 197 246 304 352
#     4  10  22  38  61  89 117 154 198 242 292 349
#     4   9  19  37  61  85 114 157 196 233 289 353
#     4  10  22  40  60  85 120 157 194 236 293 355
#     4  11  24  41  62  87 119 160 204 245 294 357
#
# _framework density 19.533629999999999
#
# number of rings (size 3 to 8) (size 9 to 14) (size 15 to 20)
#    0.000    1.750    2.500    1.125    3.500    2.500 
#    0.000    1.250    0.000    0.000    0.000    0.000 
#    0.000    0.000    0.000    0.000    0.000    0.000 
#
# Total GULP energy -396734.018497 kJ/mol
# GULP energy per Si atom -12397.938078 kJ/mol
# Density = 1.948917 g / cm^3
# Si number density = 19.533630 Si / 1000 Ang^3
#
#
#
# Elastic Constant Matrix: (Units=GPa)
#
#
# Indices 1 2 3 4 5 6 
#
# 1 33.2197 25.3076 24.8651 0.0000 0.0000 0.0000
# 2 25.3076 143.6023 52.4904 0.0000 0.0000 0.0000
# 3 24.8651 52.4904 144.1783 0.0000 0.0000 0.0000
# 4 0.0000 0.0000 0.0000 32.8348 0.0000 0.0000
# 5 0.0000 0.0000 0.0000 0.0000 22.2443 0.0000
# 6 0.0000 0.0000 0.0000 0.0000 0.0000 22.8207
#
#
#
# Elastic Compliance Matrix: (Units=1/GPa)
#
#
# Indices 1 2 3 4 5 6 
#
# 1 0.037301 -0.004870 -0.004660 0.000000 0.000000 0.000000
# 2 -0.004870 0.008669 -0.002316 0.000000 0.000000 0.000000
# 3 -0.004660 -0.002316 0.008583 0.000000 0.000000 0.000000
# 4 0.000000 0.000000 0.000000 0.030456 0.000000 0.000000
# 5 0.000000 0.000000 0.000000 0.000000 0.044955 0.000000
# 6 0.000000 0.000000 0.000000 0.000000 0.000000 0.043820
#
#
# Mechanical properties :
#
#
# Convention : Reuss Voigt Hill
#
# Bulk Modulus (GPa) = 32.40467 58.48072 45.44270
# Shear Modulus (GPa) = 24.06602 30.13576 27.10089
#
# Velocity S-wave (km/s) = 3.51384 3.93206 3.72882
# Velocity P-wave (km/s) = 5.75221 7.11465 6.46940
#
# Compressibility (1/GPa) = 0.03085975
#
# Stress axis : x y z
#
# Youngs Moduli (GPa) = 26.80899 115.35941 116.51402
#
# Poissons Ratio (x) = 0.56185 0.54293
# Poissons Ratio (y) = 0.13057 0.26984
# Poissons Ratio (z) = 0.12492 0.26717
#
# Static dielectric constant tensor:
#      x y z
#    x 3.429040 0.000000 0.000000 
#    y 0.000000 3.852050 0.000000 
#    z 0.000000 0.000000 3.672280 
# 
# 
# High freq. dielectric constant tensor:
#      x y z
#    x 1.743150 0.000000 0.000000 
#    y 0.000000 1.778430 0.000000 
#    z 0.000000 0.000000 1.771990 
# 
# From -- ./inp_files/10954.got.cif
#   From: 2010.03.12/outbox.cif.g09.slc.cpg/sg36_6_cif.got.tgz:10954.got - 2010.04.14 02:13:53.
