data_PCOD8174274
_publ_section_title
;
Structure prediction by ZEFSAII (Michael W. Deem and Ramdas Pophale) SiO2 
 PCOD8174274
Probable space group: C M C 21
;
_chemical_formula_sum "Si O2"
_cell_formula_units_Z 64
_cell_length_a 9.348279
_cell_length_b 20.000539
_cell_length_c 19.891550
_cell_angle_alpha 90.000000
_cell_angle_beta 90.000000
_cell_angle_gamma 90.000000
_cell_volume 3719.135411
_symmetry_space_group_name_H-M "C M C 21"
_symmetry_group_IT_number 36
_symmetry_cell_setting 'orthorhombic'
loop_
_space_group_symop_operation_xyz
x,y,z
-x,-y,1/2+z
x,-y,1/2+z
-x,y,z
1/2+x,1/2+y,z
1/2-x,1/2-y,1/2+z
1/2+x,1/2-y,1/2+z
1/2-x,1/2+y,z
loop_
_atom_site_type_symbol
_atom_site_label
_atom_site_fract_x
_atom_site_fract_y
_atom_site_fract_z
Si Si1 0.836668 0.054119 0.750000
Si Si2 0.336183 0.579981 0.903587
Si Si3 0.666820 0.166401 0.519821
Si Si4 0.667120 0.953960 0.926960
Si Si5 0.336433 0.413543 0.798436
Si Si6 0.335021 0.264975 0.778797
Si Si7 0.667607 0.729766 0.912182
Si Si8 0.669277 0.841074 0.169346
O O1 0.800590 0.080689 0.824460
O O2 0.735097 0.090432 0.697220
O O3 0.000000 0.070247 0.731006
O O4 0.805069 0.974359 0.746961
O O5 0.500000 0.558860 0.915178
O O6 0.237412 0.526056 0.941328
O O7 0.304260 0.653083 0.933618
O O8 0.500000 0.181318 0.523999
O O9 0.697220 0.092533 0.491232
O O10 0.732787 0.223137 0.470729
O O11 0.732008 0.171637 0.594620
O O12 0.500000 0.963633 0.913479
O O13 0.734003 0.917597 0.862515
O O14 0.500000 0.420003 0.824454
O O15 0.311108 0.343159 0.760933
O O16 0.500000 0.249945 0.795416
O O17 0.243989 0.245066 0.842748
O O18 0.284282 0.221941 0.714811
O O19 0.500000 0.743361 0.900512
O O20 0.500000 0.851031 0.167659
#
# Coordination Sequence:
#
# PCOD8174274 Si02
#       8
#     8   8   8   8   8   8   8   8
#     4   9  17  31  49  71 100 131 163 203 250 300
#     4   9  18  31  50  75 103 128 158 209 258 294
#     4   9  19  34  51  73 101 136 172 207 251 304
#     4  10  18  30  51  74  97 129 169 207 246 298
#     4   9  18  32  49  73 104 128 159 209 258 292
#     4  10  19  31  51  77 102 131 167 213 255 292
#     4  10  18  33  54  74 100 134 170 207 251 304
#     4  10  20  34  51  73 103 135 170 209 253 304
#
# _framework density 17.208300000000001
#
# number of rings (size 3 to 8) (size 9 to 14) (size 15 to 20)
#    0.000    2.500    2.500    1.125    0.000    2.500 
#    0.000    3.125    0.000    3.000    0.000    0.000 
#    0.000    0.000    0.000    0.000    0.000    0.000 
#
# Total GULP energy -396745.716310 kJ/mol
# GULP energy per Si atom -12398.303635 kJ/mol
# Density = 1.716913 g / cm^3
# Si number density = 17.208300 Si / 1000 Ang^3
#
#
#
# Elastic Constant Matrix: (Units=GPa)
#
#
# Indices 1 2 3 4 5 6 
#
# 1 53.1861 48.9148 44.3451 0.0000 0.0000 0.0000
# 2 48.9148 133.7646 69.9284 0.0000 0.0000 0.0000
# 3 44.3451 69.9284 117.4066 0.0000 0.0000 0.0000
# 4 0.0000 0.0000 0.0000 24.1998 0.0000 0.0000
# 5 0.0000 0.0000 0.0000 0.0000 18.4050 0.0000
# 6 0.0000 0.0000 0.0000 0.0000 0.0000 26.7522
#
#
#
# Elastic Compliance Matrix: (Units=1/GPa)
#
#
# Indices 1 2 3 4 5 6 
#
# 1 0.032321 -0.007896 -0.007505 0.000000 0.000000 0.000000
# 2 -0.007896 0.012785 -0.004633 0.000000 0.000000 0.000000
# 3 -0.007505 -0.004633 0.014111 0.000000 0.000000 0.000000
# 4 0.000000 0.000000 0.000000 0.041323 0.000000 0.000000
# 5 0.000000 0.000000 0.000000 0.000000 0.054333 0.000000
# 6 0.000000 0.000000 0.000000 0.000000 0.000000 0.037380
#
#
# Mechanical properties :
#
#
# Convention : Reuss Voigt Hill
#
# Bulk Modulus (GPa) = 52.21773 70.08158 61.14965
# Shear Modulus (GPa) = 20.94652 23.28266 22.11459
#
# Velocity S-wave (km/s) = 3.49267 3.68229 3.58873
# Velocity P-wave (km/s) = 6.83194 7.67417 7.26527
#
# Compressibility (1/GPa) = 0.01915058
#
# Stress axis : x y z
#
# Youngs Moduli (GPa) = 30.93966 78.21765 70.86509
#
# Poissons Ratio (x) = 0.61758 0.53185
# Poissons Ratio (y) = 0.24429 0.32829
# Poissons Ratio (z) = 0.23221 0.36235
#
# Static dielectric constant tensor:
#      x y z
#    x 3.104710 0.000000 0.000000 
#    y 0.000000 3.549730 0.000000 
#    z 0.000000 0.000000 3.093760 
# 
# 
# High freq. dielectric constant tensor:
#      x y z
#    x 1.651990 0.000000 0.000000 
#    y 0.000000 1.681360 0.000000 
#    z 0.000000 0.000000 1.632760 
# 
# From -- ./inp_files/13883.got.cif
#   From: 2010.03.12/outbox.cif.g09.slc.cpg/sg36_7_cif.got.tgz:13883.got - 2010.04.14 02:13:53.
