data_PCOD8174645
_publ_section_title
;
Structure prediction by ZEFSAII (Michael W. Deem and Ramdas Pophale) SiO2 
 PCOD8174645
Probable space group: C M C 21
;
_chemical_formula_sum "Si O2"
_cell_formula_units_Z 64
_cell_length_a 8.723957
_cell_length_b 15.444630
_cell_length_c 23.821245
_cell_angle_alpha 90.000000
_cell_angle_beta 90.000000
_cell_angle_gamma 90.000000
_cell_volume 3209.633769
_symmetry_space_group_name_H-M "C M C 21"
_symmetry_group_IT_number 36
_symmetry_cell_setting 'orthorhombic'
loop_
_space_group_symop_operation_xyz
x,y,z
-x,-y,1/2+z
x,-y,1/2+z
-x,y,z
1/2+x,1/2+y,z
1/2-x,1/2-y,1/2+z
1/2+x,1/2-y,1/2+z
1/2-x,1/2+y,z
loop_
_atom_site_type_symbol
_atom_site_label
_atom_site_fract_x
_atom_site_fract_y
_atom_site_fract_z
Si Si1 0.318826 0.108476 0.327510
Si Si2 0.180324 0.865554 0.707459
Si Si3 0.321072 0.279751 0.526158
Si Si4 0.821723 0.763977 0.401576
Si Si5 0.177857 0.488198 0.135359
Si Si6 0.319348 0.798242 0.140251
Si Si7 0.180714 0.040669 0.898589
Si Si8 0.824812 0.460427 0.513200
O O1 0.500000 0.105954 0.333803
O O2 0.273367 0.114918 0.263176
O O3 0.247776 0.191272 0.361003
O O4 0.253980 0.018985 0.351244
O O5 0.244244 0.774517 0.682807
O O6 0.000000 0.862696 0.720190
O O7 0.213120 0.940207 0.662248
O O8 0.500000 0.306025 0.531356
O O9 0.291452 0.234547 0.465913
O O10 0.264823 0.217719 0.576188
O O11 0.219147 0.364453 0.531534
O O12 0.754839 0.860775 0.390924
O O13 0.000000 0.768616 0.388343
O O14 0.229807 0.394370 0.159659
O O15 0.201340 0.481022 0.068219
O O16 0.000000 0.508712 0.149477
O O17 0.500000 0.790460 0.140517
O O18 0.000000 0.037847 0.891955
O O19 0.224093 0.006391 0.960772
O O20 0.000000 0.464092 0.493338
#
# Coordination Sequence:
#
# PCOD8174645 Si02
#       8
#     8   8   8   8   8   8   8   8
#     4  11  23  40  62  86 113 151 196 241 289 344
#     4  11  23  41  60  82 115 154 195 239 289 345
#     4   9  16  33  59  83 115 154 190 233 289 348
#     4   8  18  35  59  85 114 151 190 231 285 343
#     4  10  21  37  59  87 117 154 197 241 289 344
#     4   9  19  35  59  85 112 151 195 237 289 344
#     4  10  21  39  60  86 119 155 194 236 288 348
#     4  10  19  32  56  88 123 154 189 238 292 344
#
# _framework density 19.939971
#
# number of rings (size 3 to 8) (size 9 to 14) (size 15 to 20)
#    0.000    2.250    1.250    2.250    1.750    1.500 
#    0.000   10.625    0.000    0.000    0.000    0.000 
#    0.000    0.000    0.000    0.000    0.000    0.000 
#
# Total GULP energy -396704.182182 kJ/mol
# GULP energy per Si atom -12397.005693 kJ/mol
# Density = 1.989459 g / cm^3
# Si number density = 19.939971 Si / 1000 Ang^3
#
#
#
# Elastic Constant Matrix: (Units=GPa)
#
#
# Indices 1 2 3 4 5 6 
#
# 1 45.8602 16.7777 18.0666 0.0000 0.0000 0.0000
# 2 16.7777 81.3326 23.3394 0.0000 0.0000 0.0000
# 3 18.0666 23.3394 81.0031 0.0000 0.0000 0.0000
# 4 0.0000 0.0000 0.0000 27.7882 0.0000 0.0000
# 5 0.0000 0.0000 0.0000 0.0000 29.0133 0.0000
# 6 0.0000 0.0000 0.0000 0.0000 0.0000 22.3522
#
#
#
# Elastic Compliance Matrix: (Units=1/GPa)
#
#
# Indices 1 2 3 4 5 6 
#
# 1 0.024978 -0.003874 -0.004455 0.000000 0.000000 0.000000
# 2 -0.003874 0.014004 -0.003171 0.000000 0.000000 0.000000
# 3 -0.004455 -0.003171 0.014252 0.000000 0.000000 0.000000
# 4 0.000000 0.000000 0.000000 0.035986 0.000000 0.000000
# 5 0.000000 0.000000 0.000000 0.000000 0.034467 0.000000
# 6 0.000000 0.000000 0.000000 0.000000 0.000000 0.044738
#
#
# Mechanical properties :
#
#
# Convention : Reuss Voigt Hill
#
# Bulk Modulus (GPa) = 33.07451 36.06259 34.56855
# Shear Modulus (GPa) = 24.81339 25.83155 25.32247
#
# Velocity S-wave (km/s) = 3.53144 3.60316 3.56748
# Velocity P-wave (km/s) = 5.76638 5.95275 5.86030
#
# Compressibility (1/GPa) = 0.03023476
#
# Stress axis : x y z
#
# Youngs Moduli (GPa) = 40.03576 71.40643 70.16361
#
# Poissons Ratio (x) = 0.27664 0.31255
# Poissons Ratio (y) = 0.15511 0.22249
# Poissons Ratio (z) = 0.17834 0.22643
#
# Static dielectric constant tensor:
#      x y z
#    x 3.357220 0.000000 0.000000 
#    y 0.000000 3.917270 0.000000 
#    z 0.000000 0.000000 3.713610 
# 
# 
# High freq. dielectric constant tensor:
#      x y z
#    x 1.752310 0.000000 0.000000 
#    y 0.000000 1.780940 0.000000 
#    z 0.000000 0.000000 1.778310 
# 
# From -- ./inp_files/16559.got.cif
#   From: 2010.03.12/outbox.cif.g09.slc.cpg/sg36_9_cif.got.tgz:16559.got - 2010.04.14 02:13:53.
