data_PCOD8174953
_publ_section_title
;
Structure prediction by ZEFSAII (Michael W. Deem and Ramdas Pophale) SiO2 
 PCOD8174953
Probable space group: C M C 21
;
_chemical_formula_sum "Si O2"
_cell_formula_units_Z 64
_cell_length_a 9.054876
_cell_length_b 23.703980
_cell_length_c 15.315379
_cell_angle_alpha 90.000000
_cell_angle_beta 90.000000
_cell_angle_gamma 90.000000
_cell_volume 3287.240870
_symmetry_space_group_name_H-M "C M C 21"
_symmetry_group_IT_number 36
_symmetry_cell_setting 'orthorhombic'
loop_
_space_group_symop_operation_xyz
x,y,z
-x,-y,1/2+z
x,-y,1/2+z
-x,y,z
1/2+x,1/2+y,z
1/2-x,1/2-y,1/2+z
1/2+x,1/2-y,1/2+z
1/2-x,1/2+y,z
loop_
_atom_site_type_symbol
_atom_site_label
_atom_site_fract_x
_atom_site_fract_y
_atom_site_fract_z
Si Si1 0.325190 0.249971 0.595240
Si Si2 0.173017 0.435444 0.690028
Si Si3 0.827536 0.254091 0.292056
Si Si4 0.171454 0.566682 0.695739
Si Si5 0.827219 0.128642 0.347215
Si Si6 0.174433 0.632403 0.522902
Si Si7 0.829432 0.871930 0.539974
Si Si8 0.669967 0.636571 0.843238
O O1 0.500000 0.247980 0.598164
O O2 0.264432 0.246679 0.693701
O O3 0.267948 0.196047 0.541091
O O4 0.270396 0.307846 0.551512
O O5 0.209488 0.501191 0.694656
O O6 0.255311 0.404931 0.768312
O O7 0.231301 0.413537 0.597370
O O8 0.000000 0.423247 0.697118
O O9 0.793414 0.194622 0.336645
O O10 0.742937 0.301921 0.345163
O O11 0.000000 0.268454 0.292857
O O12 0.221188 0.593535 0.604146
O O13 0.257589 0.594651 0.774918
O O14 0.000000 0.578881 0.711749
O O15 0.756689 0.108146 0.438047
O O16 0.000000 0.115485 0.347042
O O17 0.000000 0.630107 0.506050
O O18 0.811081 0.890053 0.439495
O O19 0.000000 0.875858 0.570599
O O20 0.500000 0.644200 0.818791
#
# Coordination Sequence:
#
# PCOD8174953 Si02
#       8
#     8   8   8   8   8   8   8   8
#     4   9  16  33  61  85 114 156 191 230 292 352
#     4  11  24  41  62  87 113 153 208 252 288 343
#     4  10  19  36  61  86 118 161 196 232 292 356
#     4  10  23  43  63  83 116 160 201 246 297 346
#     4  11  23  39  61  89 123 158 192 239 301 355
#     4  10  20  38  63  87 115 153 198 244 292 350
#     4  10  21  39  60  87 122 156 189 237 302 356
#     4  11  23  37  61  94 123 153 193 242 296 352
#
# _framework density 19.469217
#
# number of rings (size 3 to 8) (size 9 to 14) (size 15 to 20)
#    0.000    1.750    2.500    1.875    0.000    5.500 
#    0.000    4.375    0.000    0.000    0.000    0.000 
#    0.000    0.000    0.000    0.000    0.000    0.000 
#
# Total GULP energy -396909.222474 kJ/mol
# GULP energy per Si atom -12403.413202 kJ/mol
# Density = 1.942490 g / cm^3
# Si number density = 19.469217 Si / 1000 Ang^3
#
#
#
# Elastic Constant Matrix: (Units=GPa)
#
#
# Indices 1 2 3 4 5 6 
#
# 1 82.0581 68.0294 62.9981 0.0000 0.0000 0.0000
# 2 68.0294 117.8833 58.9273 0.0000 0.0000 0.0000
# 3 62.9981 58.9273 139.7945 0.0000 0.0000 0.0000
# 4 0.0000 0.0000 0.0000 -4.2952 0.0000 0.0000
# 5 0.0000 0.0000 0.0000 0.0000 35.6565 0.0000
# 6 0.0000 0.0000 0.0000 0.0000 0.0000 28.4870
#
#
#
# Elastic Compliance Matrix: (Units=1/GPa)
#
#
# Indices 1 2 3 4 5 6 
#
# 1 0.028424 -0.012670 -0.007469 0.000000 0.000000 0.000000
# 2 -0.012670 0.016395 -0.001201 0.000000 0.000000 0.000000
# 3 -0.007469 -0.001201 0.011025 0.000000 0.000000 0.000000
# 4 0.000000 0.000000 0.000000 -0.232817 0.000000 0.000000
# 5 0.000000 0.000000 0.000000 0.000000 0.028045 0.000000
# 6 0.000000 0.000000 0.000000 0.000000 0.000000 0.035104
#
#
# Mechanical properties :
#
#
# Convention : Reuss Voigt Hill
#
# Bulk Modulus (GPa) = 75.95837 79.96062 77.95949
# Shear Modulus (GPa) = -74.90136 21.95505 -26.47315
#
# Velocity S-wave (km/s) = -6.20928 3.36174 -3.69147
# Velocity P-wave (km/s) = 3.50822 7.49852 4.68616
#
# Compressibility (1/GPa) = 0.01316511
#
# Stress axis : x y z
#
# Youngs Moduli (GPa) = 35.18120 60.99328 90.69921
#
# Poissons Ratio (x) = 0.77279 0.67739
# Poissons Ratio (y) = 0.44575 0.10896
# Poissons Ratio (z) = 0.26275 0.07327
#
# Static dielectric constant tensor:
#      x y z
#    x 3.394760 0.000000 0.000000 
#    y 0.000000 3.612200 0.000000 
#    z 0.000000 0.000000 3.615020 
# 
# 
# High freq. dielectric constant tensor:
#      x y z
#    x 1.744510 0.000000 0.000000 
#    y 0.000000 1.757530 0.000000 
#    z 0.000000 0.000000 1.772530 
# 
# From -- ./inp_files/10976.got.cif
#   From: 2010.03.12/outbox.cif.g09.slc.cpg/sg36_6_cif.got.tgz:10976.got - 2010.04.14 02:13:53.
