data_PCOD8174518
_publ_section_title
;
Structure prediction by ZEFSAII (Michael W. Deem and Ramdas Pophale) SiO2 
 PCOD8174518
Probable space group: C M C 21
;
_chemical_formula_sum "Si O2"
_cell_formula_units_Z 64
_cell_length_a 13.556674
_cell_length_b 27.915311
_cell_length_c 9.984242
_cell_angle_alpha 90.000000
_cell_angle_beta 90.000000
_cell_angle_gamma 90.000000
_cell_volume 3778.424270
_symmetry_space_group_name_H-M "C M C 21"
_symmetry_group_IT_number 36
_symmetry_cell_setting 'orthorhombic'
loop_
_space_group_symop_operation_xyz
x,y,z
-x,-y,1/2+z
x,-y,1/2+z
-x,y,z
1/2+x,1/2+y,z
1/2-x,1/2-y,1/2+z
1/2+x,1/2-y,1/2+z
1/2-x,1/2+y,z
loop_
_atom_site_type_symbol
_atom_site_label
_atom_site_fract_x
_atom_site_fract_y
_atom_site_fract_z
Si Si1 0.612959 0.548450 0.246050
Si Si2 0.391602 0.215918 0.268816
Si Si3 0.808358 0.787204 0.895360
Si Si4 0.611156 0.677318 0.661504
Si Si5 0.115888 0.150684 0.165968
Si Si6 0.114458 0.684170 0.978074
Si Si7 0.115121 0.972024 0.451177
Si Si8 0.789726 0.872499 0.399805
O O1 0.500000 0.556956 0.281822
O O2 0.661368 0.601244 0.228996
O O3 0.657361 0.517677 0.369037
O O4 0.625177 0.517808 0.109273
O O5 0.500000 0.204551 0.329444
O O6 0.310078 0.207831 0.382899
O O7 0.387286 0.270033 0.220333
O O8 0.371961 0.182752 0.138900
O O9 0.856734 0.804019 0.755957
O O10 0.841527 0.732951 0.917008
O O11 0.842563 0.822321 0.013323
O O12 0.500000 0.657501 0.650759
O O13 0.674568 0.642557 0.753368
O O14 0.000000 0.145218 0.150283
O O15 0.156763 0.158589 0.016074
O O16 0.172946 0.639046 0.914533
O O17 0.000000 0.680182 0.938187
O O18 0.185969 0.928122 0.413891
O O19 0.000000 0.960372 0.415151
#
# Coordination Sequence:
#
# PCOD8174518 Si02
#       8
#     8   8   8   8   8   8   8   8
#     4   8  16  29  44  68 100 126 156 201 246 294
#     4   9  18  33  50  67  95 135 170 208 249 286
#     4  11  19  33  50  71  98 137 173 208 246 292
#     4  10  20  32  46  69 102 130 163 207 248 288
#     4  10  19  31  50  74  98 131 174 209 239 297
#     4  10  20  34  50  71 101 134 171 214 249 287
#     4   9  17  30  49  72  99 129 161 198 246 304
#     4  11  19  32  50  72 101 136 169 201 248 304
#
# _framework density 16.938276999999999
#
# number of rings (size 3 to 8) (size 9 to 14) (size 15 to 20)
#    0.000    2.250    2.500    3.750    0.000    1.000 
#    0.000    3.125    0.000    0.000    0.000    4.375 
#    0.000    0.000    0.000    0.000    0.000    0.000 
#
# Total GULP energy -396677.140197 kJ/mol
# GULP energy per Si atom -12396.160631 kJ/mol
# Density = 1.689973 g / cm^3
# Si number density = 16.938277 Si / 1000 Ang^3
#
#
#
# Elastic Constant Matrix: (Units=GPa)
#
#
# Indices 1 2 3 4 5 6 
#
# 1 107.1516 15.5852 24.7205 0.0000 0.0000 0.0000
# 2 15.5852 33.6470 3.3513 0.0000 0.0000 0.0000
# 3 24.7205 3.3513 48.2554 0.0000 0.0000 0.0000
# 4 0.0000 0.0000 0.0000 19.5267 0.0000 0.0000
# 5 0.0000 0.0000 0.0000 0.0000 26.5523 0.0000
# 6 0.0000 0.0000 0.0000 0.0000 0.0000 18.4851
#
#
#
# Elastic Compliance Matrix: (Units=1/GPa)
#
#
# Indices 1 2 3 4 5 6 
#
# 1 0.011270 -0.004678 -0.005449 0.000000 0.000000 0.000000
# 2 -0.004678 0.031869 0.000183 0.000000 0.000000 0.000000
# 3 -0.005449 0.000183 0.023502 0.000000 0.000000 0.000000
# 4 0.000000 0.000000 0.000000 0.051212 0.000000 0.000000
# 5 0.000000 0.000000 0.000000 0.000000 0.037662 0.000000
# 6 0.000000 0.000000 0.000000 0.000000 0.000000 0.054098
#
#
# Mechanical properties :
#
#
# Convention : Reuss Voigt Hill
#
# Bulk Modulus (GPa) = 21.38853 30.70754 26.04804
# Shear Modulus (GPa) = 20.40130 22.60594 21.50362
#
# Velocity S-wave (km/s) = 3.47428 3.65719 3.56691
# Velocity P-wave (km/s) = 5.36180 6.00015 5.68994
#
# Compressibility (1/GPa) = 0.04675403
#
# Stress axis : x y z
#
# Youngs Moduli (GPa) = 88.73167 31.37871 42.55029
#
# Poissons Ratio (x) = 0.14677 0.23184
# Poissons Ratio (y) = 0.41504 -0.00778
# Poissons Ratio (z) = 0.48346 -0.00574
#
# Static dielectric constant tensor:
#      x y z
#    x 3.176040 0.000000 0.000000 
#    y 0.000000 3.074340 0.000000 
#    z 0.000000 0.000000 3.326490 
# 
# 
# High freq. dielectric constant tensor:
#      x y z
#    x 1.631390 0.000000 0.000000 
#    y 0.000000 1.625710 0.000000 
#    z 0.000000 0.000000 1.655660 
# 
# From -- ./inp_files/4445.got.cif
#   From: 2010.03.12/outbox.cif.g09.slc.cpg/sg36_3_cif.got.tgz:4445.got - 2010.04.14 02:13:53.
