data_PCOD8174725
_publ_section_title
;
Structure prediction by ZEFSAII (Michael W. Deem and Ramdas Pophale) SiO2 
 PCOD8174725
Probable space group: C M C 21
;
_chemical_formula_sum "Si O2"
_cell_formula_units_Z 64
_cell_length_a 8.576329
_cell_length_b 20.079904
_cell_length_c 19.231603
_cell_angle_alpha 90.000000
_cell_angle_beta 90.000000
_cell_angle_gamma 90.000000
_cell_volume 3311.910181
_symmetry_space_group_name_H-M "C M C 21"
_symmetry_group_IT_number 36
_symmetry_cell_setting 'orthorhombic'
loop_
_space_group_symop_operation_xyz
x,y,z
-x,-y,1/2+z
x,-y,1/2+z
-x,y,z
1/2+x,1/2+y,z
1/2-x,1/2-y,1/2+z
1/2+x,1/2-y,1/2+z
1/2-x,1/2+y,z
loop_
_atom_site_type_symbol
_atom_site_label
_atom_site_fract_x
_atom_site_fract_y
_atom_site_fract_z
Si Si1 0.678175 0.808896 0.578280
Si Si2 0.818561 0.928599 0.660289
Si Si3 0.681369 0.051174 0.581919
Si Si4 0.681801 0.253841 0.447598
Si Si5 0.815814 0.392972 0.799842
Si Si6 0.319358 0.256211 0.292727
Si Si7 0.179140 0.172978 0.659434
Si Si8 0.183287 0.107706 0.445070
O O1 0.500000 0.833261 0.575747
O O2 0.774827 0.858797 0.625560
O O3 0.749300 0.807853 0.500713
O O4 0.693267 0.735250 0.608375
O O5 0.729527 0.937938 0.733880
O O6 0.000000 0.929821 0.676314
O O7 0.774673 0.987838 0.609208
O O8 0.500000 0.034704 0.584134
O O9 0.715198 0.114303 0.630484
O O10 0.733102 0.063382 0.503049
O O11 0.500000 0.240833 0.461870
O O12 0.708423 0.284059 0.370370
O O13 0.770031 0.184272 0.455071
O O14 0.750009 0.318237 0.786240
O O15 0.735111 0.420339 0.869886
O O16 0.000000 0.392977 0.812308
O O17 0.500000 0.249672 0.273563
O O18 0.249878 0.306427 0.235086
O O19 0.000000 0.148316 0.663859
O O20 0.000000 0.100722 0.455043
#
# Coordination Sequence:
#
# PCOD8174725 Si02
#       8
#     8   8   8   8   8   8   8   8
#     4  11  21  36  60  87 120 156 194 245 302 356
#     4  12  25  41  61  88 121 158 203 252 302 360
#     4  12  25  41  60  86 120 160 204 251 303 358
#     4  10  19  33  56  87 119 155 200 248 300 354
#     4  10  19  37  61  88 119 155 197 242 297 358
#     4   8  16  32  56  84 116 152 190 238 293 348
#     4  10  19  36  60  86 117 153 194 242 299 354
#     4  11  21  36  58  88 120 155 198 246 300 356
#
# _framework density 19.324195
#
# number of rings (size 3 to 8) (size 9 to 14) (size 15 to 20)
#    0.000    1.500    2.500    5.250    0.000    0.500 
#    0.000    2.500    0.000    1.500    0.000    0.000 
#    0.000    0.000    0.000    0.000    0.000    0.000 
#
# Total GULP energy -396862.605375 kJ/mol
# GULP energy per Si atom -12401.956418 kJ/mol
# Density = 1.928021 g / cm^3
# Si number density = 19.324195 Si / 1000 Ang^3
#
#
#
# Elastic Constant Matrix: (Units=GPa)
#
#
# Indices 1 2 3 4 5 6 
#
# 1 68.2431 15.0139 16.8203 0.0000 0.0000 0.0000
# 2 15.0139 35.4254 16.1784 0.0000 0.0000 0.0000
# 3 16.8203 16.1784 130.1553 0.0000 0.0000 0.0000
# 4 0.0000 0.0000 0.0000 24.3508 0.0000 0.0000
# 5 0.0000 0.0000 0.0000 0.0000 33.0310 0.0000
# 6 0.0000 0.0000 0.0000 0.0000 0.0000 27.0718
#
#
#
# Elastic Compliance Matrix: (Units=1/GPa)
#
#
# Indices 1 2 3 4 5 6 
#
# 1 0.016374 -0.006333 -0.001329 0.000000 0.000000 0.000000
# 2 -0.006333 0.032376 -0.003206 0.000000 0.000000 0.000000
# 3 -0.001329 -0.003206 0.008253 0.000000 0.000000 0.000000
# 4 0.000000 0.000000 0.000000 0.041066 0.000000 0.000000
# 5 0.000000 0.000000 0.000000 0.000000 0.030275 0.000000
# 6 0.000000 0.000000 0.000000 0.000000 0.000000 0.036939
#
#
# Mechanical properties :
#
#
# Convention : Reuss Voigt Hill
#
# Bulk Modulus (GPa) = 28.35380 36.64990 32.50185
# Shear Modulus (GPa) = 25.15399 29.27814 27.21607
#
# Velocity S-wave (km/s) = 3.61180 3.89665 3.75693
# Velocity P-wave (km/s) = 5.66551 6.26516 5.97286
#
# Compressibility (1/GPa) = 0.03526864
#
# Stress axis : x y z
#
# Youngs Moduli (GPa) = 61.07129 30.88666 121.16250
#
# Poissons Ratio (x) = 0.19560 0.16102
# Poissons Ratio (y) = 0.38675 0.38845
# Poissons Ratio (z) = 0.08116 0.09902
#
# Static dielectric constant tensor:
#      x y z
#    x 3.494570 0.000000 0.000000 
#    y 0.000000 3.272210 0.000000 
#    z 0.000000 0.000000 3.901820 
# 
# 
# High freq. dielectric constant tensor:
#      x y z
#    x 1.751710 0.000000 0.000000 
#    y 0.000000 1.716040 0.000000 
#    z 0.000000 0.000000 1.774190 
# 
# From -- ./inp_files/14108.got.cif
#   From: 2010.03.12/outbox.cif.g09.slc.cpg/sg36_8_cif.got.tgz:14108.got - 2010.04.14 02:13:53.
