data_PCOD8174424
_publ_section_title
;
Structure prediction by ZEFSAII (Michael W. Deem and Ramdas Pophale) SiO2 
 PCOD8174424
Probable space group: C M C 21
;
_chemical_formula_sum "Si O2"
_cell_formula_units_Z 64
_cell_length_a 8.923954
_cell_length_b 15.303545
_cell_length_c 23.717833
_cell_angle_alpha 90.000000
_cell_angle_beta 90.000000
_cell_angle_gamma 90.000000
_cell_volume 3239.100139
_symmetry_space_group_name_H-M "C M C 21"
_symmetry_group_IT_number 36
_symmetry_cell_setting 'orthorhombic'
loop_
_space_group_symop_operation_xyz
x,y,z
-x,-y,1/2+z
x,-y,1/2+z
-x,y,z
1/2+x,1/2+y,z
1/2-x,1/2-y,1/2+z
1/2+x,1/2-y,1/2+z
1/2-x,1/2+y,z
loop_
_atom_site_type_symbol
_atom_site_label
_atom_site_fract_x
_atom_site_fract_y
_atom_site_fract_z
Si Si1 0.322967 0.499436 0.024250
Si Si2 0.175461 0.665477 0.214475
Si Si3 0.172957 0.844512 0.945241
Si Si4 0.175233 0.392972 0.833806
Si Si5 0.177493 0.503899 0.144164
Si Si6 0.171725 0.350056 0.458641
Si Si7 0.324658 0.638866 0.721526
Si Si8 0.326097 0.904536 0.334043
O O1 0.500000 0.495522 0.030295
O O2 0.253335 0.484999 0.085093
O O3 0.261559 0.420797 0.985054
O O4 0.275957 0.592108 0.998474
O O5 0.246343 0.643405 0.275610
O O6 0.235397 0.597960 0.167273
O O7 0.210526 0.764758 0.196432
O O8 0.000000 0.649036 0.220740
O O9 0.253370 0.841359 0.885406
O O10 0.196297 0.751002 0.975666
O O11 0.000000 0.862601 0.933147
O O12 0.215193 0.494291 0.838657
O O13 0.000000 0.375647 0.836784
O O14 0.224718 0.429942 0.188283
O O15 0.000000 0.501793 0.136810
O O16 0.215282 0.360747 0.393333
O O17 0.000000 0.379262 0.468374
O O18 0.500000 0.616297 0.715715
O O19 0.278102 0.639602 0.786989
O O20 0.500000 0.890698 0.318085
#
# Coordination Sequence:
#
# PCOD8174424 Si02
#       8
#     8   8   8   8   8   8   8   8
#     4  11  24  41  59  85 117 149 194 248 293 340
#     4   9  20  38  59  84 116 152 186 229 289 345
#     4  10  22  38  58  86 121 153 188 236 294 345
#     4  10  18  34  60  87 117 152 193 233 279 343
#     4  11  23  43  64  81 111 155 198 239 289 347
#     4  10  21  39  61  86 116 157 196 232 285 349
#     4  11  22  37  60  89 118 149 188 235 288 342
#     4  10  19  34  59  88 120 153 191 232 279 345
#
# _framework density 19.758572999999998
#
# number of rings (size 3 to 8) (size 9 to 14) (size 15 to 20)
#    0.000    1.750    2.500    1.875    0.000    3.000 
#    0.000    8.125    0.000    0.000    0.000    0.000 
#    0.000    0.000    0.000    0.000    0.000    0.000 
#
# Total GULP energy -396886.253359 kJ/mol
# GULP energy per Si atom -12402.695417 kJ/mol
# Density = 1.971360 g / cm^3
# Si number density = 19.758573 Si / 1000 Ang^3
#
#
#
# Elastic Constant Matrix: (Units=GPa)
#
#
# Indices 1 2 3 4 5 6 
#
# 1 46.7682 19.8192 21.0797 0.0000 0.0000 0.0000
# 2 19.8192 83.3197 17.4874 0.0000 0.0000 0.0000
# 3 21.0797 17.4874 83.1678 0.0000 0.0000 0.0000
# 4 0.0000 0.0000 0.0000 15.6632 0.0000 0.0000
# 5 0.0000 0.0000 0.0000 0.0000 34.8525 0.0000
# 6 0.0000 0.0000 0.0000 0.0000 0.0000 26.3664
#
#
#
# Elastic Compliance Matrix: (Units=1/GPa)
#
#
# Indices 1 2 3 4 5 6 
#
# 1 0.026006 -0.005024 -0.005535 0.000000 0.000000 0.000000
# 2 -0.005024 0.013527 -0.001571 0.000000 0.000000 0.000000
# 3 -0.005535 -0.001571 0.013757 0.000000 0.000000 0.000000
# 4 0.000000 0.000000 0.000000 0.063844 0.000000 0.000000
# 5 0.000000 0.000000 0.000000 0.000000 0.028692 0.000000
# 6 0.000000 0.000000 0.000000 0.000000 0.000000 0.037927
#
#
# Mechanical properties :
#
#
# Convention : Reuss Voigt Hill
#
# Bulk Modulus (GPa) = 34.44758 36.66982 35.55870
# Shear Modulus (GPa) = 22.96844 25.70105 24.33475
#
# Velocity S-wave (km/s) = 3.41318 3.61051 3.51323
# Velocity P-wave (km/s) = 5.74501 5.99836 5.87305
#
# Compressibility (1/GPa) = 0.02902961
#
# Stress axis : x y z
#
# Youngs Moduli (GPa) = 38.45268 73.92755 72.68989
#
# Poissons Ratio (x) = 0.37143 0.40234
# Poissons Ratio (y) = 0.19320 0.11418
# Poissons Ratio (z) = 0.21284 0.11612
#
# Static dielectric constant tensor:
#      x y z
#    x 3.393520 0.000000 0.000000 
#    y 0.000000 3.760590 0.000000 
#    z 0.000000 0.000000 3.605710 
# 
# 
# High freq. dielectric constant tensor:
#      x y z
#    x 1.753730 0.000000 0.000000 
#    y 0.000000 1.784260 0.000000 
#    z 0.000000 0.000000 1.768090 
# 
# From -- ./inp_files/16590.got.cif
#   From: 2010.03.12/outbox.cif.g09.slc.cpg/sg36_9_cif.got.tgz:16590.got - 2010.04.14 02:13:53.
