data_PCOD8174530
_publ_section_title
;
Structure prediction by ZEFSAII (Michael W. Deem and Ramdas Pophale) SiO2 
 PCOD8174530
Probable space group: C M C 21
;
_chemical_formula_sum "Si O2"
_cell_formula_units_Z 48
_cell_length_a 8.881889
_cell_length_b 30.641402
_cell_length_c 9.579472
_cell_angle_alpha 90.000000
_cell_angle_beta 90.000000
_cell_angle_gamma 90.000000
_cell_volume 2607.087133
_symmetry_space_group_name_H-M "C M C 21"
_symmetry_group_IT_number 36
_symmetry_cell_setting 'orthorhombic'
loop_
_space_group_symop_operation_xyz
x,y,z
-x,-y,1/2+z
x,-y,1/2+z
-x,y,z
1/2+x,1/2+y,z
1/2-x,1/2-y,1/2+z
1/2+x,1/2-y,1/2+z
1/2-x,1/2+y,z
loop_
_atom_site_type_symbol
_atom_site_label
_atom_site_fract_x
_atom_site_fract_y
_atom_site_fract_z
Si Si1 0.822696 0.042208 0.031640
Si Si2 0.177520 0.278798 0.616845
Si Si3 0.176751 0.795450 0.909812
Si Si4 0.820645 0.475734 0.826810
Si Si5 0.833766 0.628170 0.055572
Si Si6 0.665375 0.118715 0.385350
O O1 0.733582 0.026043 0.167362
O O2 0.783911 0.092796 0.996755
O O3 0.000000 0.037122 0.054632
O O4 0.767790 0.014627 0.899931
O O5 0.232712 0.236598 0.532053
O O6 0.256210 0.278320 0.765840
O O7 0.220495 0.322165 0.525762
O O8 0.000000 0.278562 0.643880
O O9 0.225540 0.844790 0.950697
O O10 0.000000 0.794443 0.894525
O O11 0.777944 0.430943 0.909725
O O12 0.000000 0.483364 0.827880
O O13 0.844358 0.625009 0.221107
O O14 0.000000 0.619084 0.991179
O O15 0.500000 0.125068 0.452190
#
# Coordination Sequence:
#
# PCOD8174530 Si02
#       6
#     8   8   8   8   8   8
#     4  11  21  33  52  80 106 127 163 216 260 290
#     4   9  19  34  50  72 101 131 165 203 242 293
#     4  10  19  31  51  76  99 128 165 205 249 290
#     4  10  20  36  55  74 100 138 174 200 243 309
#     4   8  15  31  51  68  94 134 171 199 237 298
#     4   8  16  31  51  72  96 130 168 201 237 292
#
# _framework density 18.411352000000001
#
# number of rings (size 3 to 8) (size 9 to 14) (size 15 to 20)
#    0.000    2.667    0.000    4.500    0.000    8.000 
#    0.000    1.667    0.000    6.000    0.000    0.000 
#    0.000    0.000    0.000    0.000    0.000    0.000 
#
# Total GULP energy -297464.695940 kJ/mol
# GULP energy per Si atom -12394.362331 kJ/mol
# Density = 1.836945 g / cm^3
# Si number density = 18.411352 Si / 1000 Ang^3
#
#
#
# Elastic Constant Matrix: (Units=GPa)
#
#
# Indices 1 2 3 4 5 6 
#
# 1 68.8532 17.1871 10.3645 0.0000 0.0000 0.0000
# 2 17.1871 36.6559 -7.7551 0.0000 0.0000 0.0000
# 3 10.3645 -7.7551 20.3073 0.0000 0.0000 0.0000
# 4 0.0000 0.0000 0.0000 28.0951 0.0000 0.0000
# 5 0.0000 0.0000 0.0000 0.0000 23.5243 0.0000
# 6 0.0000 0.0000 0.0000 0.0000 0.0000 32.1378
#
#
#
# Elastic Compliance Matrix: (Units=1/GPa)
#
#
# Indices 1 2 3 4 5 6 
#
# 1 0.019883 -0.012478 -0.014913 0.000000 0.000000 0.000000
# 2 -0.012478 0.037509 0.020693 0.000000 0.000000 0.000000
# 3 -0.014913 0.020693 0.064757 0.000000 0.000000 0.000000
# 4 0.000000 0.000000 0.000000 0.035593 0.000000 0.000000
# 5 0.000000 0.000000 0.000000 0.000000 0.042509 0.000000
# 6 0.000000 0.000000 0.000000 0.000000 0.000000 0.031116
#
#
# Mechanical properties :
#
#
# Convention : Reuss Voigt Hill
#
# Bulk Modulus (GPa) = 9.19512 18.37881 13.78696
# Shear Modulus (GPa) = 17.79257 23.81944 20.80600
#
# Velocity S-wave (km/s) = 3.11206 3.60076 3.36529
# Velocity P-wave (km/s) = 4.23300 5.22410 4.75445
#
# Compressibility (1/GPa) = 0.10875330
#
# Stress axis : x y z
#
# Youngs Moduli (GPa) = 50.29351 26.66008 15.44227
#
# Poissons Ratio (x) = 0.33266 0.23029
# Poissons Ratio (y) = 0.62756 -0.31955
# Poissons Ratio (z) = 0.75004 -0.55168
#
# Static dielectric constant tensor:
#      x y z
#    x 3.363460 0.000000 0.000000 
#    y 0.000000 4.115330 0.000000 
#    z 0.000000 0.000000 2.964650 
# 
# 
# High freq. dielectric constant tensor:
#      x y z
#    x 1.713200 0.000000 0.000000 
#    y 0.000000 1.732450 0.000000 
#    z 0.000000 0.000000 1.668000 
# 
# From -- ./inp_files/2664.got.cif
#   From: 2010.03.12/outbox.cif.g09.slc.cpg/sg36_2_cif.got.tgz:2664.got - 2010.04.14 02:13:53.
