data_PCOD8174540
_publ_section_title
;
Structure prediction by ZEFSAII (Michael W. Deem and Ramdas Pophale) SiO2 
 PCOD8174540
Probable space group: C M C 21
;
_chemical_formula_sum "Si O2"
_cell_formula_units_Z 64
_cell_length_a 8.942632
_cell_length_b 28.382559
_cell_length_c 14.037726
_cell_angle_alpha 90.000000
_cell_angle_beta 90.000000
_cell_angle_gamma 90.000000
_cell_volume 3562.982341
_symmetry_space_group_name_H-M "C M C 21"
_symmetry_group_IT_number 36
_symmetry_cell_setting 'orthorhombic'
loop_
_space_group_symop_operation_xyz
x,y,z
-x,-y,1/2+z
x,-y,1/2+z
-x,y,z
1/2+x,1/2+y,z
1/2-x,1/2-y,1/2+z
1/2+x,1/2-y,1/2+z
1/2-x,1/2+y,z
loop_
_atom_site_type_symbol
_atom_site_label
_atom_site_fract_x
_atom_site_fract_y
_atom_site_fract_z
Si Si1 0.825569 0.324668 0.037530
Si Si2 0.326155 0.263502 0.887663
Si Si3 0.831971 0.094521 0.919276
Si Si4 0.173644 0.676582 0.019495
Si Si5 0.326588 0.737420 0.168943
Si Si6 0.832244 0.991446 0.902875
Si Si7 0.177466 0.076317 0.567384
Si Si8 0.676536 0.952033 0.257935
O O1 0.790112 0.287309 0.120490
O O2 0.732680 0.370535 0.063449
O O3 0.000000 0.337067 0.031564
O O4 0.771238 0.304355 0.936361
O O5 0.500000 0.276534 0.899493
O O6 0.277385 0.259701 0.778343
O O7 0.290305 0.213463 0.935657
O O8 0.740276 0.092636 0.818928
O O9 0.000000 0.112670 0.898755
O O10 0.834294 0.041162 0.961446
O O11 0.754004 0.127817 0.995798
O O12 0.233552 0.695852 0.119780
O O13 0.000000 0.666335 0.029951
O O14 0.500000 0.724928 0.157613
O O15 0.000000 0.979455 0.867317
O O16 0.725932 0.998872 0.810064
O O17 0.771610 0.950144 0.970634
O O18 0.253666 0.048713 0.653660
O O19 0.000000 0.074539 0.580069
O O20 0.500000 0.948194 0.251087
#
# Coordination Sequence:
#
# PCOD8174540 Si02
#       8
#     8   8   8   8   8   8   8   8
#     4  10  21  35  54  84 113 142 184 234 280 322
#     4   9  19  36  54  74 107 147 183 221 275 333
#     4   9  18  35  54  77 105 138 176 217 266 323
#     4  10  19  31  52  81 107 137 178 229 275 320
#     4   9  19  35  53  74 106 147 184 223 274 334
#     4   8  19  37  55  77 107 142 180 222 269 327
#     4  11  21  37  59  82 112 150 187 225 273 334
#     4  10  20  34  55  83 111 137 176 227 274 319
#
# _framework density 17.962479999999999
#
# number of rings (size 3 to 8) (size 9 to 14) (size 15 to 20)
#    0.750    1.750    0.000    2.250    1.750    2.500 
#    0.000    1.250    0.000    3.000    0.000    0.000 
#    0.000    0.000    0.000    0.000    0.000    0.000 
#
# Total GULP energy -396691.969358 kJ/mol
# GULP energy per Si atom -12396.624042 kJ/mol
# Density = 1.792160 g / cm^3
# Si number density = 17.962480 Si / 1000 Ang^3
#
#
#
# Elastic Constant Matrix: (Units=GPa)
#
#
# Indices 1 2 3 4 5 6 
#
# 1 98.4752 29.5398 42.2839 0.0000 0.0000 0.0000
# 2 29.5398 43.1211 26.6366 0.0000 0.0000 0.0000
# 3 42.2839 26.6366 107.0914 0.0000 0.0000 0.0000
# 4 0.0000 0.0000 0.0000 21.2980 0.0000 0.0000
# 5 0.0000 0.0000 0.0000 0.0000 28.8996 0.0000
# 6 0.0000 0.0000 0.0000 0.0000 0.0000 27.4191
#
#
#
# Elastic Compliance Matrix: (Units=1/GPa)
#
#
# Indices 1 2 3 4 5 6 
#
# 1 0.013915 -0.007253 -0.003690 0.000000 0.000000 0.000000
# 2 -0.007253 0.031181 -0.004892 0.000000 0.000000 0.000000
# 3 -0.003690 -0.004892 0.012012 0.000000 0.000000 0.000000
# 4 0.000000 0.000000 0.000000 0.046953 0.000000 0.000000
# 5 0.000000 0.000000 0.000000 0.000000 0.034603 0.000000
# 6 0.000000 0.000000 0.000000 0.000000 0.000000 0.036471
#
#
# Mechanical properties :
#
#
# Convention : Reuss Voigt Hill
#
# Bulk Modulus (GPa) = 39.31186 49.51204 44.41195
# Shear Modulus (GPa) = 23.22526 25.53849 24.38188
#
# Velocity S-wave (km/s) = 3.59971 3.77473 3.68826
# Velocity P-wave (km/s) = 6.26181 6.82803 6.55104
#
# Compressibility (1/GPa) = 0.02543762
#
# Stress axis : x y z
#
# Youngs Moduli (GPa) = 71.86472 32.07097 83.25288
#
# Poissons Ratio (x) = 0.23261 0.30722
# Poissons Ratio (y) = 0.52123 0.40726
# Poissons Ratio (z) = 0.26520 0.15689
#
# Static dielectric constant tensor:
#      x y z
#    x 3.331300 0.000000 0.000000 
#    y 0.000000 3.154970 0.000000 
#    z 0.000000 0.000000 3.249440 
# 
# 
# High freq. dielectric constant tensor:
#      x y z
#    x 1.704320 0.000000 0.000000 
#    y 0.000000 1.679110 0.000000 
#    z 0.000000 0.000000 1.684760 
# 
# From -- ./inp_files/11044.got.cif
#   From: 2010.03.12/outbox.cif.g09.slc.cpg/sg36_6_cif.got.tgz:11044.got - 2010.04.14 02:13:53.
