data_PCOD8174902
_publ_section_title
;
Structure prediction by ZEFSAII (Michael W. Deem and Ramdas Pophale) SiO2 
 PCOD8174902
Probable space group: C M C 21
;
_chemical_formula_sum "Si O2"
_cell_formula_units_Z 64
_cell_length_a 9.465545
_cell_length_b 31.775905
_cell_length_c 10.850267
_cell_angle_alpha 90.000000
_cell_angle_beta 90.000000
_cell_angle_gamma 90.000000
_cell_volume 3263.502714
_symmetry_space_group_name_H-M "C M C 21"
_symmetry_group_IT_number 36
_symmetry_cell_setting 'orthorhombic'
loop_
_space_group_symop_operation_xyz
x,y,z
-x,-y,1/2+z
x,-y,1/2+z
-x,y,z
1/2+x,1/2+y,z
1/2-x,1/2-y,1/2+z
1/2+x,1/2-y,1/2+z
1/2-x,1/2+y,z
loop_
_atom_site_type_symbol
_atom_site_label
_atom_site_fract_x
_atom_site_fract_y
_atom_site_fract_z
Si Si1 0.834500 0.833491 0.031770
Si Si2 0.340882 0.267713 0.237139
Si Si3 0.157549 0.609026 0.686784
Si Si4 0.663011 0.530931 0.053337
Si Si5 0.663999 0.532318 0.773026
Si Si6 0.655412 0.178327 0.890207
Si Si7 0.657804 0.823551 0.799334
Si Si8 0.162382 0.614774 0.087628
O O1 0.796486 0.793220 0.115615
O O2 0.752914 0.876232 0.071577
O O3 0.000000 0.843729 0.029765
O O4 0.781357 0.821648 0.897580
O O5 0.500000 0.279661 0.272156
O O6 0.249438 0.281390 0.356247
O O7 0.322935 0.217826 0.212729
O O8 0.236697 0.572675 0.761896
O O9 0.141963 0.649280 0.771516
O O10 0.000000 0.594072 0.644815
O O11 0.500000 0.542625 0.070405
O O12 0.708734 0.498553 0.161057
O O13 0.750834 0.572559 0.077066
O O14 0.689277 0.513639 0.912541
O O15 0.500000 0.545225 0.758351
O O16 0.500000 0.194514 0.931427
O O17 0.725994 0.150524 0.997789
O O18 0.500000 0.822264 0.859130
O O19 0.674102 0.866672 0.724290
O O20 0.000000 0.605313 0.050238
#
# Coordination Sequence:
#
# PCOD8174902 Si02
#       8
#     8   8   8   8   8   8   8   8
#     4  10  21  37  57  82 114 151 193 239 290 352
#     4   9  20  36  55  80 110 148 190 237 288 339
#     4  10  19  35  60  86 111 144 188 236 287 345
#     4  10  22  39  60  86 120 156 200 249 302 360
#     4  10  21  38  59  86 118 155 195 247 300 356
#     4   9  18  33  57  83 109 142 185 233 279 335
#     4  10  22  38  55  80 117 153 191 244 297 347
#     4  10  21  38  59  83 115 153 192 239 293 348
#
# _framework density 19.610831999999998
#
# number of rings (size 3 to 8) (size 9 to 14) (size 15 to 20)
#    0.000    2.250    1.250    0.750    1.750    4.000 
#    0.000    1.250    0.000    0.000    0.000    0.000 
#    0.000    0.000    0.000    0.000    0.000    0.000 
#
# Total GULP energy -396644.413999 kJ/mol
# GULP energy per Si atom -12395.137937 kJ/mol
# Density = 1.956620 g / cm^3
# Si number density = 19.610832 Si / 1000 Ang^3
#
#
#
# Elastic Constant Matrix: (Units=GPa)
#
#
# Indices 1 2 3 4 5 6 
#
# 1 79.7750 32.3003 38.2323 0.0000 0.0000 0.0000
# 2 32.3003 64.1867 33.8846 0.0000 0.0000 0.0000
# 3 38.2323 33.8846 94.9886 0.0000 0.0000 0.0000
# 4 0.0000 0.0000 0.0000 29.1515 0.0000 0.0000
# 5 0.0000 0.0000 0.0000 0.0000 25.8946 0.0000
# 6 0.0000 0.0000 0.0000 0.0000 0.0000 29.4513
#
#
#
# Elastic Compliance Matrix: (Units=1/GPa)
#
#
# Indices 1 2 3 4 5 6 
#
# 1 0.017330 -0.006208 -0.004761 0.000000 0.000000 0.000000
# 2 -0.006208 0.021418 -0.005142 0.000000 0.000000 0.000000
# 3 -0.004761 -0.005142 0.014278 0.000000 0.000000 0.000000
# 4 0.000000 0.000000 0.000000 0.034304 0.000000 0.000000
# 5 0.000000 0.000000 0.000000 0.000000 0.038618 0.000000
# 6 0.000000 0.000000 0.000000 0.000000 0.000000 0.033954
#
#
# Mechanical properties :
#
#
# Convention : Reuss Voigt Hill
#
# Bulk Modulus (GPa) = 48.06421 49.75386 48.90904
# Shear Modulus (GPa) = 25.11830 25.86833 25.49332
#
# Velocity S-wave (km/s) = 3.58276 3.63586 3.60941
# Velocity P-wave (km/s) = 6.45578 6.56138 6.50879
#
# Compressibility (1/GPa) = 0.02080550
#
# Stress axis : x y z
#
# Youngs Moduli (GPa) = 57.70195 46.69022 70.03803
#
# Poissons Ratio (x) = 0.28984 0.33345
# Poissons Ratio (y) = 0.35820 0.36011
# Poissons Ratio (z) = 0.27472 0.24006
#
# Static dielectric constant tensor:
#      x y z
#    x 3.736360 0.000000 0.000000 
#    y 0.000000 3.403600 0.000000 
#    z 0.000000 0.000000 3.619720 
# 
# 
# High freq. dielectric constant tensor:
#      x y z
#    x 1.764420 0.000000 0.000000 
#    y 0.000000 1.749580 0.000000 
#    z 0.000000 0.000000 1.761360 
# 
# From -- ./inp_files/7256.got.cif
#   From: 2010.03.12/outbox.cif.g09.slc.cpg/sg36_4_cif.got.tgz:7256.got - 2010.04.14 02:13:53.
