data_PCOD8174560
_publ_section_title
;
Structure prediction by ZEFSAII (Michael W. Deem and Ramdas Pophale) SiO2 
 PCOD8174560
Probable space group: C M C 21
;
_chemical_formula_sum "Si O2"
_cell_formula_units_Z 64
_cell_length_a 8.386691
_cell_length_b 28.688359
_cell_length_c 14.283342
_cell_angle_alpha 90.000000
_cell_angle_beta 90.000000
_cell_angle_gamma 90.000000
_cell_volume 3436.577830
_symmetry_space_group_name_H-M "C M C 21"
_symmetry_group_IT_number 36
_symmetry_cell_setting 'orthorhombic'
loop_
_space_group_symop_operation_xyz
x,y,z
-x,-y,1/2+z
x,-y,1/2+z
-x,y,z
1/2+x,1/2+y,z
1/2-x,1/2-y,1/2+z
1/2+x,1/2-y,1/2+z
1/2-x,1/2+y,z
loop_
_atom_site_type_symbol
_atom_site_label
_atom_site_fract_x
_atom_site_fract_y
_atom_site_fract_z
Si Si1 0.313806 0.750062 0.583440
Si Si2 0.812787 0.320148 0.935697
Si Si3 0.189862 0.499128 0.077461
Si Si4 0.313980 0.252610 0.789246
Si Si5 0.688548 0.176787 0.932619
Si Si6 0.189988 0.499200 0.785055
Si Si7 0.310262 0.073440 0.931361
Si Si8 0.310579 0.925042 0.930940
O O1 0.500000 0.751633 0.606381
O O2 0.276552 0.704822 0.521278
O O3 0.218160 0.748655 0.679727
O O4 0.257097 0.795728 0.525975
O O5 0.778265 0.295954 0.835873
O O6 0.743589 0.372651 0.930893
O O7 0.000000 0.319474 0.956369
O O8 0.264557 0.499932 0.181236
O O9 0.000000 0.499015 0.081779
O O10 0.248772 0.545349 0.022931
O O11 0.248490 0.452631 0.023528
O O12 0.500000 0.260419 0.808044
O O13 0.255697 0.205128 0.840446
O O14 0.500000 0.172389 0.932574
O O15 0.766054 0.125234 0.931610
O O16 0.247586 0.545711 0.839118
O O17 0.251097 0.453045 0.839365
O O18 0.000000 0.498527 0.780951
O O19 0.500000 0.076480 0.931829
O O20 0.500000 0.923827 0.928870
#
# Coordination Sequence:
#
# PCOD8174560 Si02
#       8
#     8   8   8   8   8   8   8   8
#     4  10  20  34  50  70  97 126 162 204 245 289
#     4  10  19  32  50  71  99 132 163 196 238 289
#     4   8  13  21  34  55  87 121 148 181 227 278
#     4  10  20  34  50  70  97 126 162 204 245 289
#     4   8  16  29  44  64  91 122 153 190 236 287
#     4   8  13  21  34  55  87 121 148 181 227 278
#     4   8  13  22  36  55  83 118 149 177 223 281
#     4   8  15  25  37  60  91 122 155 187 227 283
#
# _framework density 18.623179
#
# number of rings (size 3 to 8) (size 9 to 14) (size 15 to 20)
#    0.000    3.250    0.000    3.375    0.000    2.000 
#    0.000    7.500    0.000    0.000    0.000    0.000 
#    0.000   76.000    0.000    0.000    0.000    0.000 
#
# Total GULP energy -396615.042050 kJ/mol
# GULP energy per Si atom -12394.220064 kJ/mol
# Density = 1.858079 g / cm^3
# Si number density = 18.623179 Si / 1000 Ang^3
#
#
#
# Elastic Constant Matrix: (Units=GPa)
#
#
# Indices 1 2 3 4 5 6 
#
# 1 17.7436 7.5844 1.8950 0.0000 0.0000 0.0000
# 2 7.5844 192.3079 84.9334 0.0000 0.0000 0.0000
# 3 1.8950 84.9334 167.5175 0.0000 0.0000 0.0000
# 4 0.0000 0.0000 0.0000 14.9793 0.0000 0.0000
# 5 0.0000 0.0000 0.0000 0.0000 16.9627 0.0000
# 6 0.0000 0.0000 0.0000 0.0000 0.0000 16.1165
#
#
#
# Elastic Compliance Matrix: (Units=1/GPa)
#
#
# Indices 1 2 3 4 5 6 
#
# 1 0.057378 -0.002546 0.000642 0.000000 0.000000 0.000000
# 2 -0.002546 0.006813 -0.003426 0.000000 0.000000 0.000000
# 3 0.000642 -0.003426 0.007699 0.000000 0.000000 0.000000
# 4 0.000000 0.000000 0.000000 0.066759 0.000000 0.000000
# 5 0.000000 0.000000 0.000000 0.000000 0.058953 0.000000
# 6 0.000000 0.000000 0.000000 0.000000 0.000000 0.062048
#
#
# Mechanical properties :
#
#
# Convention : Reuss Voigt Hill
#
# Bulk Modulus (GPa) = 16.33171 62.93273 39.63222
# Shear Modulus (GPa) = 17.19862 28.48878 22.84370
#
# Velocity S-wave (km/s) = 3.04222 3.91544 3.50612
# Velocity P-wave (km/s) = 4.59660 7.36933 6.14149
#
# Compressibility (1/GPa) = 0.06123056
#
# Stress axis : x y z
#
# Youngs Moduli (GPa) = 17.42818 146.77007 129.88508
#
# Poissons Ratio (x) = 0.37375 -0.08339
# Poissons Ratio (y) = 0.04438 0.44494
# Poissons Ratio (z) = -0.01119 0.50278
#
# Static dielectric constant tensor:
#      x y z
#    x 2.847820 0.000000 0.000000 
#    y 0.000000 3.828250 0.000000 
#    z 0.000000 0.000000 3.606180 
# 
# 
# High freq. dielectric constant tensor:
#      x y z
#    x 1.668900 0.000000 0.000000 
#    y 0.000000 1.728550 0.000000 
#    z 0.000000 0.000000 1.726530 
# 
# From -- ./inp_files/11205.got.cif
#   From: 2010.03.12/outbox.cif.g09.slc.cpg/sg36_6_cif.got.tgz:11205.got - 2010.04.14 02:13:53.
