data_PCOD8174692
_publ_section_title
;
Structure prediction by ZEFSAII (Michael W. Deem and Ramdas Pophale) SiO2 
 PCOD8174692
Probable space group: C M C 21
;
_chemical_formula_sum "Si O2"
_cell_formula_units_Z 48
_cell_length_a 8.678150
_cell_length_b 19.045278
_cell_length_c 15.358858
_cell_angle_alpha 90.000000
_cell_angle_beta 90.000000
_cell_angle_gamma 90.000000
_cell_volume 2538.477942
_symmetry_space_group_name_H-M "C M C 21"
_symmetry_group_IT_number 36
_symmetry_cell_setting 'orthorhombic'
loop_
_space_group_symop_operation_xyz
x,y,z
-x,-y,1/2+z
x,-y,1/2+z
-x,y,z
1/2+x,1/2+y,z
1/2-x,1/2-y,1/2+z
1/2+x,1/2-y,1/2+z
1/2-x,1/2+y,z
loop_
_atom_site_type_symbol
_atom_site_label
_atom_site_fract_x
_atom_site_fract_y
_atom_site_fract_z
Si Si1 0.816824 0.921344 0.717220
Si Si2 0.817541 0.921096 0.215184
Si Si3 0.682007 0.678693 0.869035
Si Si4 0.181681 0.172104 0.378458
Si Si5 0.682029 0.831540 0.062573
Si Si6 0.818315 0.173918 0.063974
O O1 0.764729 0.881791 0.804225
O O2 0.746304 0.880620 0.633151
O O3 0.000000 0.923057 0.710473
O O4 0.749893 0.000160 0.719352
O O5 0.760617 0.879282 0.300492
O O6 0.758742 0.885229 0.128158
O O7 0.000000 0.922676 0.212761
O O8 0.500000 0.693379 0.862912
O O9 0.770113 0.750432 0.847612
O O10 0.726734 0.651456 0.965700
O O11 0.268256 0.147814 0.465380
O O12 0.000000 0.169690 0.394353
O O13 0.500000 0.836740 0.070714
O O14 0.742448 0.752731 0.083048
O O15 0.000000 0.174539 0.075107
#
# Coordination Sequence:
#
# PCOD8174692 Si02
#       6
#     8   8   8   8   8   8
#     4   9  18  31  50  77 104 132 169 209 249 298
#     4  10  20  33  51  77 106 136 171 209 251 305
#     4   9  18  32  51  76 105 135 166 207 259 306
#     4  10  19  33  55  79 101 132 175 216 252 299
#     4  10  20  35  54  75 101 135 173 216 264 304
#     4   8  15  30  51  72  97 132 170 207 249 298
#
# _framework density 18.90897
#
# number of rings (size 3 to 8) (size 9 to 14) (size 15 to 20)
#    0.000    2.667    0.000    3.000    0.000    3.333 
#    0.000    6.667    0.000   10.000    0.000    0.000 
#    0.000    0.000    0.000    0.000    0.000    0.000 
#
# Total GULP energy -297574.451299 kJ/mol
# GULP energy per Si atom -12398.935471 kJ/mol
# Density = 1.886593 g / cm^3
# Si number density = 18.908970 Si / 1000 Ang^3
#
#
#
# Elastic Constant Matrix: (Units=GPa)
#
#
# Indices 1 2 3 4 5 6 
#
# 1 -17.8908 1.4261 -17.0779 0.0000 0.0000 0.0000
# 2 1.4261 151.4124 98.8445 0.0000 0.0000 0.0000
# 3 -17.0779 98.8445 128.9808 0.0000 0.0000 0.0000
# 4 0.0000 0.0000 0.0000 19.5875 0.0000 0.0000
# 5 0.0000 0.0000 0.0000 0.0000 21.9894 0.0000
# 6 0.0000 0.0000 0.0000 0.0000 0.0000 20.5140
#
#
#
# Elastic Compliance Matrix: (Units=1/GPa)
#
#
# Indices 1 2 3 4 5 6 
#
# 1 -0.043599 0.008363 -0.012182 0.000000 0.000000 0.000000
# 2 0.008363 0.011612 -0.007792 0.000000 0.000000 0.000000
# 3 -0.012182 -0.007792 0.012111 0.000000 0.000000 0.000000
# 4 0.000000 0.000000 0.000000 0.051053 0.000000 0.000000
# 5 0.000000 0.000000 0.000000 0.000000 0.045476 0.000000
# 6 0.000000 0.000000 0.000000 0.000000 0.000000 0.048747
#
#
# Mechanical properties :
#
#
# Convention : Reuss Voigt Hill
#
# Bulk Modulus (GPa) = -23.20358 47.65419 12.22531
# Shear Modulus (GPa) = 37.24226 24.37217 30.80721
#
# Velocity S-wave (km/s) = 4.44278 3.59405 4.04076
# Velocity P-wave (km/s) = 3.74432 6.51763 5.31505
#
# Compressibility (1/GPa) = -0.04309680
#
# Stress axis : x y z
#
# Youngs Moduli (GPa) = -22.93610 86.11596 82.56779
#
# Poissons Ratio (x) = -0.72021 1.00585
# Poissons Ratio (y) = 0.19182 0.64334
# Poissons Ratio (z) = -0.27941 0.67099
#
# Static dielectric constant tensor:
#      x y z
#    x 3.117440 0.000000 0.000000 
#    y 0.000000 3.717490 0.000000 
#    z 0.000000 0.000000 3.693640 
# 
# 
# High freq. dielectric constant tensor:
#      x y z
#    x 1.700750 0.000000 0.000000 
#    y 0.000000 1.732580 0.000000 
#    z 0.000000 0.000000 1.750220 
# 
# From -- ./inp_files/10403.got.cif
#   From: 2010.03.12/outbox.cif.g09.slc.cpg/sg36_6_cif.got.tgz:10403.got - 2010.04.14 02:13:53.
