data_PCOD8174040
_publ_section_title
;
Structure prediction by ZEFSAII (Michael W. Deem and Ramdas Pophale) SiO2 
 PCOD8174040
Probable space group: C M M 2
;
_chemical_formula_sum "Si O2"
_cell_formula_units_Z 40
_cell_length_a 16.369398
_cell_length_b 21.510476
_cell_length_c 5.169213
_cell_angle_alpha 90.000000
_cell_angle_beta 90.000000
_cell_angle_gamma 90.000000
_cell_volume 1820.149903
_symmetry_space_group_name_H-M "C M M 2"
_symmetry_group_IT_number 35
_symmetry_cell_setting 'orthorhombic'
loop_
_space_group_symop_operation_xyz
x,y,z
-x,-y,z
-x,y,z
x,-y,z
1/2+x,1/2+y,z
1/2-x,1/2-y,z
1/2-x,1/2+y,z
1/2+x,1/2-y,z
loop_
_atom_site_type_symbol
_atom_site_label
_atom_site_fract_x
_atom_site_fract_y
_atom_site_fract_z
Si Si1 0.185187 0.664423 0.904860
Si Si2 0.409238 0.931705 0.197263
Si Si3 0.748359 0.930533 0.521978
Si Si4 0.594750 0.284021 0.715236
Si Si5 0.833863 0.159690 0.202446
O O1 0.250560 0.622849 0.740791
O O2 0.149669 0.723245 0.759062
O O3 0.109876 0.621312 0.988792
O O4 0.242548 0.687730 0.143006
O O5 0.500000 0.919895 0.309475
O O6 0.345163 0.929187 0.428707
O O7 0.403947 0.000000 0.063115
O O8 0.813950 0.911330 0.297872
O O9 0.770973 0.000000 0.621475
O O10 0.500000 0.266199 0.714569
O O11 0.618757 0.306066 0.430963
O O12 0.610648 0.334607 0.943524
#
# Coordination Sequence:
#
# PCOD8174040 Si02
#       5
#     8   8   8   8   8
#     4  11  23  38  69  95 136 177 222 269 331 404
#     4   9  19  35  56  92 139 180 220 267 321 390
#     4  10  22  41  68  98 129 176 229 277 335 400
#     4  12  27  44  68 101 138 179 223 277 338 401
#     4  11  25  45  68  98 135 173 225 280 330 396
#
# _framework density 21.976209000000001
#
# number of rings (size 3 to 8) (size 9 to 14) (size 15 to 20)
#    0.000    1.400    2.000    2.400    8.400    2.400 
#    0.000    2.000    0.000    3.600    0.000    0.000 
#    0.000    0.000    0.000    0.000    0.000    0.000 
#
# Total GULP energy -247761.079558 kJ/mol
# GULP energy per Si atom -12388.053978 kJ/mol
# Density = 2.192619 g / cm^3
# Si number density = 21.976209 Si / 1000 Ang^3
#
#
#
# Elastic Constant Matrix: (Units=GPa)
#
#
# Indices 1 2 3 4 5 6 
#
# 1 91.5969 26.7992 30.1082 0.0000 0.0000 0.0000
# 2 26.7992 71.6913 26.3266 0.0000 0.0000 0.0000
# 3 30.1082 26.3266 96.6005 0.0000 0.0000 0.0000
# 4 0.0000 0.0000 0.0000 29.3325 0.0000 0.0000
# 5 0.0000 0.0000 0.0000 0.0000 32.0406 0.0000
# 6 0.0000 0.0000 0.0000 0.0000 0.0000 26.6382
#
#
#
# Elastic Compliance Matrix: (Units=1/GPa)
#
#
# Indices 1 2 3 4 5 6 
#
# 1 0.013012 -0.003750 -0.003033 0.000000 0.000000 0.000000
# 2 -0.003750 0.016581 -0.003350 0.000000 0.000000 0.000000
# 3 -0.003033 -0.003350 0.012210 0.000000 0.000000 0.000000
# 4 0.000000 0.000000 0.000000 0.034092 0.000000 0.000000
# 5 0.000000 0.000000 0.000000 0.000000 0.031210 0.000000
# 6 0.000000 0.000000 0.000000 0.000000 0.000000 0.037540
#
#
# Mechanical properties :
#
#
# Convention : Reuss Voigt Hill
#
# Bulk Modulus (GPa) = 46.43414 47.37297 46.90355
# Shear Modulus (GPa) = 29.05449 29.37924 29.21687
#
# Velocity S-wave (km/s) = 3.64000 3.66028 3.65016
# Velocity P-wave (km/s) = 6.23228 6.28226 6.25732
#
# Compressibility (1/GPa) = 0.02153588
#
# Stress axis : x y z
#
# Youngs Moduli (GPa) = 76.85404 60.31116 81.89780
#
# Poissons Ratio (x) = 0.22617 0.24843
# Poissons Ratio (y) = 0.28820 0.27435
# Poissons Ratio (z) = 0.23313 0.20204
#
# Static dielectric constant tensor:
#      x y z
#    x 3.930630 0.000000 0.000000 
#    y 0.000000 4.165830 0.000000 
#    z 0.000000 0.000000 4.015270 
# 
# 
# High freq. dielectric constant tensor:
#      x y z
#    x 1.852670 0.000000 0.000000 
#    y 0.000000 1.859130 0.000000 
#    z 0.000000 0.000000 1.862550 
# 
# From -- ./inp_files/1763.got.cif
#   From: 2010.03.12/outbox.cif.g09.slc.cpg/sg35_1_cif.got.tgz:1763.got - 2010.04.14 02:02:04.
