data_PCOD8174270
_publ_section_title
;
Structure prediction by ZEFSAII (Michael W. Deem and Ramdas Pophale) SiO2 
 PCOD8174270
Probable space group: C M C 21
;
_chemical_formula_sum "Si O2"
_cell_formula_units_Z 64
_cell_length_a 8.793769
_cell_length_b 20.853822
_cell_length_c 19.306569
_cell_angle_alpha 90.000000
_cell_angle_beta 90.000000
_cell_angle_gamma 90.000000
_cell_volume 3540.509931
_symmetry_space_group_name_H-M "C M C 21"
_symmetry_group_IT_number 36
_symmetry_cell_setting 'orthorhombic'
loop_
_space_group_symop_operation_xyz
x,y,z
-x,-y,1/2+z
x,-y,1/2+z
-x,y,z
1/2+x,1/2+y,z
1/2-x,1/2-y,1/2+z
1/2+x,1/2-y,1/2+z
1/2-x,1/2+y,z
loop_
_atom_site_type_symbol
_atom_site_label
_atom_site_fract_x
_atom_site_fract_y
_atom_site_fract_z
Si Si1 0.323293 0.187550 0.570120
Si Si2 0.820819 0.385477 0.283209
Si Si3 0.180391 0.063897 0.071161
Si Si4 0.181190 0.440333 0.140902
Si Si5 0.180008 0.386656 0.437023
Si Si6 0.179480 0.189626 0.147142
Si Si7 0.678345 0.259125 0.790955
Si Si8 0.323747 0.249667 0.430187
O O1 0.500000 0.186958 0.589413
O O2 0.256660 0.120165 0.596460
O O3 0.248162 0.248148 0.609722
O O4 0.294383 0.195728 0.488339
O O5 0.762175 0.430615 0.220702
O O6 0.768016 0.409290 0.359571
O O7 0.765957 0.312429 0.270831
O O8 0.000000 0.385273 0.279729
O O9 0.245867 0.125003 0.113547
O O10 0.000000 0.063002 0.068677
O O11 0.238767 0.002026 0.110507
O O12 0.242719 0.066424 0.992689
O O13 0.000000 0.448408 0.135609
O O14 0.230827 0.313510 0.448986
O O15 0.000000 0.390744 0.445428
O O16 0.219183 0.192493 0.228710
O O17 0.000000 0.190209 0.135195
O O18 0.500000 0.259380 0.808136
O O19 0.768823 0.282254 0.858693
O O20 0.500000 0.268983 0.426834
#
# Coordination Sequence:
#
# PCOD8174270 Si02
#       8
#     8   8   8   8   8   8   8   8
#     4   9  16  30  55  78  98 135 178 213 258 315
#     4   8  15  29  53  78  98 125 170 222 261 302
#     4  11  22  36  53  78 112 145 176 219 276 322
#     4  10  19  35  57  78 102 137 183 224 258 313
#     4  10  19  33  54  80 105 138 183 221 260 319
#     4   9  16  31  55  76  98 135 178 214 256 316
#     4   9  16  30  53  78 101 133 179 222 260 314
#     4  10  18  30  50  80 112 138 169 219 277 319
#
# _framework density 18.076491999999998
#
# number of rings (size 3 to 8) (size 9 to 14) (size 15 to 20)
#    0.000    2.500    2.500    1.875    0.000    0.000 
#    0.000    6.875    0.000    4.500    0.000    0.000 
#    0.000    0.000    0.000    0.000    0.000    0.000 
#
# Total GULP energy -396641.874330 kJ/mol
# GULP energy per Si atom -12395.058573 kJ/mol
# Density = 1.803535 g / cm^3
# Si number density = 18.076492 Si / 1000 Ang^3
#
#
#
# Elastic Constant Matrix: (Units=GPa)
#
#
# Indices 1 2 3 4 5 6 
#
# 1 43.5038 28.7177 40.4729 0.0000 0.0000 0.0000
# 2 28.7177 114.3140 78.6621 0.0000 0.0000 0.0000
# 3 40.4729 78.6621 162.2333 0.0000 0.0000 0.0000
# 4 0.0000 0.0000 0.0000 30.0492 0.0000 0.0000
# 5 0.0000 0.0000 0.0000 0.0000 25.8015 0.0000
# 6 0.0000 0.0000 0.0000 0.0000 0.0000 19.9363
#
#
#
# Elastic Compliance Matrix: (Units=1/GPa)
#
#
# Indices 1 2 3 4 5 6 
#
# 1 0.030939 -0.003694 -0.005928 0.000000 0.000000 0.000000
# 2 -0.003694 0.013569 -0.005658 0.000000 0.000000 0.000000
# 3 -0.005928 -0.005658 0.010386 0.000000 0.000000 0.000000
# 4 0.000000 0.000000 0.000000 0.033279 0.000000 0.000000
# 5 0.000000 0.000000 0.000000 0.000000 0.038757 0.000000
# 6 0.000000 0.000000 0.000000 0.000000 0.000000 0.050160
#
#
# Mechanical properties :
#
#
# Convention : Reuss Voigt Hill
#
# Bulk Modulus (GPa) = 41.09069 68.41740 54.75404
# Shear Modulus (GPa) = 23.17389 26.63731 24.90560
#
# Velocity S-wave (km/s) = 3.58437 3.84290 3.71589
# Velocity P-wave (km/s) = 6.31753 7.59088 6.98329
#
# Compressibility (1/GPa) = 0.02433641
#
# Stress axis : x y z
#
# Youngs Moduli (GPa) = 32.32131 73.69778 96.28332
#
# Poissons Ratio (x) = 0.27221 0.57073
# Poissons Ratio (y) = 0.11938 0.54474
# Poissons Ratio (z) = 0.19159 0.41696
#
# Static dielectric constant tensor:
#      x y z
#    x 3.034600 0.000000 0.000000 
#    y 0.000000 3.206300 0.000000 
#    z 0.000000 0.000000 3.731390 
# 
# 
# High freq. dielectric constant tensor:
#      x y z
#    x 1.667310 0.000000 0.000000 
#    y 0.000000 1.671280 0.000000 
#    z 0.000000 0.000000 1.720290 
# 
# From -- ./inp_files/14029.got.cif
#   From: 2010.03.12/outbox.cif.g09.slc.cpg/sg36_8_cif.got.tgz:14029.got - 2010.04.14 02:13:53.
