data_PCOD8174689
_publ_section_title
;
Structure prediction by ZEFSAII (Michael W. Deem and Ramdas Pophale) SiO2 
 PCOD8174689
Probable space group: C M C 21
;
_chemical_formula_sum "Si O2"
_cell_formula_units_Z 64
_cell_length_a 8.897155
_cell_length_b 20.802543
_cell_length_c 18.597697
_cell_angle_alpha 90.000000
_cell_angle_beta 90.000000
_cell_angle_gamma 90.000000
_cell_volume 3442.125913
_symmetry_space_group_name_H-M "C M C 21"
_symmetry_group_IT_number 36
_symmetry_cell_setting 'orthorhombic'
loop_
_space_group_symop_operation_xyz
x,y,z
-x,-y,1/2+z
x,-y,1/2+z
-x,y,z
1/2+x,1/2+y,z
1/2-x,1/2-y,1/2+z
1/2+x,1/2-y,1/2+z
1/2-x,1/2+y,z
loop_
_atom_site_type_symbol
_atom_site_label
_atom_site_fract_x
_atom_site_fract_y
_atom_site_fract_z
Si Si1 0.177998 0.627453 0.017800
Si Si2 0.673700 0.993250 0.859050
Si Si3 0.173615 0.633758 0.854810
Si Si4 0.322705 0.746658 0.094678
Si Si5 0.178662 0.254623 0.256812
Si Si6 0.326968 0.642232 0.508058
Si Si7 0.675435 0.370308 0.840609
Si Si8 0.673660 0.499789 0.509658
O O1 0.245275 0.682329 0.067131
O O2 0.231381 0.557288 0.047245
O O3 0.000000 0.629831 0.021486
O O4 0.239208 0.636716 0.936030
O O5 0.500000 0.984009 0.881857
O O6 0.731971 0.932929 0.812108
O O7 0.694316 0.062429 0.820060
O O8 0.781063 0.994509 0.927235
O O9 0.250214 0.686020 0.802285
O O10 0.000000 0.651661 0.861867
O O11 0.500000 0.736478 0.092327
O O12 0.263002 0.758656 0.175398
O O13 0.280374 0.807822 0.047172
O O14 0.233788 0.188716 0.292952
O O15 0.000000 0.258704 0.258272
O O16 0.500000 0.662713 0.519221
O O17 0.287415 0.644453 0.423639
O O18 0.297436 0.571190 0.542283
O O19 0.500000 0.383622 0.829022
O O20 0.500000 0.481141 0.515563
#
# Coordination Sequence:
#
# PCOD8174689 Si02
#       8
#     8   8   8   8   8   8   8   8
#     4  10  19  33  55  78 101 130 165 209 257 301
#     4   9  16  27  48  78 105 126 156 204 257 300
#     4   8  15  30  52  73  93 124 163 200 240 289
#     4  11  22  33  49  73 102 136 170 207 249 299
#     4   9  18  33  50  69  96 131 170 206 244 293
#     4   9  18  33  54  76  99 130 164 204 251 296
#     4   9  17  32  54  74  95 129 169 207 249 297
#     4   9  17  31  52  77 103 130 165 207 251 299
#
# _framework density 18.593160000000001
#
# number of rings (size 3 to 8) (size 9 to 14) (size 15 to 20)
#    0.000    2.750    0.000    3.750    0.000    4.500 
#    0.000    2.500    0.000   13.500    0.000    0.000 
#    0.000    0.000    0.000    0.000    0.000    0.000 
#
# Total GULP energy -396581.749644 kJ/mol
# GULP energy per Si atom -12393.179676 kJ/mol
# Density = 1.855084 g / cm^3
# Si number density = 18.593160 Si / 1000 Ang^3
#
#
#
# Elastic Constant Matrix: (Units=GPa)
#
#
# Indices 1 2 3 4 5 6 
#
# 1 53.4412 37.8031 21.3863 0.0000 0.0000 0.0000
# 2 37.8031 130.3837 35.9264 0.0000 0.0000 0.0000
# 3 21.3863 35.9264 56.8835 0.0000 0.0000 0.0000
# 4 0.0000 0.0000 0.0000 4.1222 0.0000 0.0000
# 5 0.0000 0.0000 0.0000 0.0000 15.8099 0.0000
# 6 0.0000 0.0000 0.0000 0.0000 0.0000 35.4405
#
#
#
# Elastic Compliance Matrix: (Units=1/GPa)
#
#
# Indices 1 2 3 4 5 6 
#
# 1 0.025050 -0.005651 -0.005849 0.000000 0.000000 0.000000
# 2 -0.005651 0.010561 -0.004545 0.000000 0.000000 0.000000
# 3 -0.005849 -0.004545 0.022649 0.000000 0.000000 0.000000
# 4 0.000000 0.000000 0.000000 0.242589 0.000000 0.000000
# 5 0.000000 0.000000 0.000000 0.000000 0.063251 0.000000
# 6 0.000000 0.000000 0.000000 0.000000 0.000000 0.028216
#
#
# Mechanical properties :
#
#
# Convention : Reuss Voigt Hill
#
# Bulk Modulus (GPa) = 38.21214 47.88221 43.04718
# Shear Modulus (GPa) = 11.54385 20.78069 16.16227
#
# Velocity S-wave (km/s) = 2.49442 3.34676 2.95152
# Velocity P-wave (km/s) = 5.37518 6.38302 5.90065
#
# Compressibility (1/GPa) = 0.02616969
#
# Stress axis : x y z
#
# Youngs Moduli (GPa) = 39.91944 94.69149 44.15143
#
# Poissons Ratio (x) = 0.53515 0.25823
# Poissons Ratio (y) = 0.22560 0.20067
# Poissons Ratio (z) = 0.23348 0.43038
#
# Static dielectric constant tensor:
#      x y z
#    x 3.231590 0.000000 0.000000 
#    y 0.000000 3.987910 0.000000 
#    z 0.000000 0.000000 3.213480 
# 
# 
# High freq. dielectric constant tensor:
#      x y z
#    x 1.702700 0.000000 0.000000 
#    y 0.000000 1.747540 0.000000 
#    z 0.000000 0.000000 1.678300 
# 
# From -- ./inp_files/15823.got.cif
#   From: 2010.03.12/outbox.cif.g09.slc.cpg/sg36_8_cif.got.tgz:15823.got - 2010.04.14 02:13:53.
