data_PCOD8174913
_publ_section_title
;
Structure prediction by ZEFSAII (Michael W. Deem and Ramdas Pophale) SiO2 
 PCOD8174913
Probable space group: C M C 21
;
_chemical_formula_sum "Si O2"
_cell_formula_units_Z 56
_cell_length_a 14.266745
_cell_length_b 20.974816
_cell_length_c 9.436172
_cell_angle_alpha 90.000000
_cell_angle_beta 90.000000
_cell_angle_gamma 90.000000
_cell_volume 2823.702296
_symmetry_space_group_name_H-M "C M C 21"
_symmetry_group_IT_number 36
_symmetry_cell_setting 'orthorhombic'
loop_
_space_group_symop_operation_xyz
x,y,z
-x,-y,1/2+z
x,-y,1/2+z
-x,y,z
1/2+x,1/2+y,z
1/2-x,1/2-y,1/2+z
1/2+x,1/2-y,1/2+z
1/2-x,1/2+y,z
loop_
_atom_site_type_symbol
_atom_site_label
_atom_site_fract_x
_atom_site_fract_y
_atom_site_fract_z
Si Si1 0.718253 0.588451 0.238990
Si Si2 0.790962 0.223982 0.706077
Si Si3 0.106979 0.341712 0.829993
Si Si4 0.098848 0.257095 0.089662
Si Si5 0.108010 0.138449 0.493252
Si Si6 0.896358 0.035610 0.730423
Si Si7 0.843332 0.862180 0.445593
O O1 0.823714 0.598260 0.300235
O O2 0.644172 0.627651 0.334106
O O3 0.687776 0.514677 0.244351
O O4 0.716838 0.611746 0.076858
O O5 0.860917 0.281537 0.737374
O O6 0.686959 0.252580 0.690999
O O7 0.829116 0.193970 0.560861
O O8 0.777438 0.171232 0.828289
O O9 0.000000 0.360823 0.790595
O O10 0.113711 0.320288 0.993749
O O11 0.000000 0.265033 0.173561
O O12 0.086000 0.193337 0.994771
O O13 0.119725 0.074427 0.585855
O O14 0.000000 0.159947 0.489052
O O15 0.898282 0.080753 0.868932
O O16 0.000000 0.002738 0.725302
#
# Coordination Sequence:
#
# PCOD8174913 Si02
#       7
#     8   8   8   8   8   8   8
#     4  12  21  35  57  85 118 156 199 245 291 351
#     4  10  19  39  58  85 121 158 195 240 300 360
#     4  10  21  37  58  83 117 159 195 236 297 358
#     4  10  19  35  61  89 119 156 194 240 296 359
#     4  10  21  36  58  86 117 155 199 243 297 356
#     4  10  22  39  58  85 122 159 194 244 306 356
#     4  10  22  37  59  87 126 153 193 246 302 356
#
# _framework density 19.832118999999999
#
# number of rings (size 3 to 8) (size 9 to 14) (size 15 to 20)
#    0.000    1.714    2.857    2.143    0.000    6.857 
#    0.000    0.714    0.000    6.857    0.000    0.000 
#    0.000    0.000    0.000    0.000    0.000    0.000 
#
# Total GULP energy -347034.237246 kJ/mol
# GULP energy per Si atom -12394.079902 kJ/mol
# Density = 1.978698 g / cm^3
# Si number density = 19.832119 Si / 1000 Ang^3
#
#
#
# Elastic Constant Matrix: (Units=GPa)
#
#
# Indices 1 2 3 4 5 6 
#
# 1 147.0754 39.4286 21.3157 0.0000 0.0000 0.0000
# 2 39.4286 77.2972 11.2143 0.0000 0.0000 0.0000
# 3 21.3157 11.2143 75.3690 0.0000 0.0000 0.0000
# 4 0.0000 0.0000 0.0000 18.3472 0.0000 0.0000
# 5 0.0000 0.0000 0.0000 0.0000 18.2767 0.0000
# 6 0.0000 0.0000 0.0000 0.0000 0.0000 25.0669
#
#
#
# Elastic Compliance Matrix: (Units=1/GPa)
#
#
# Indices 1 2 3 4 5 6 
#
# 1 0.008086 -0.003877 -0.001710 0.000000 0.000000 0.000000
# 2 -0.003877 0.015081 -0.001148 0.000000 0.000000 0.000000
# 3 -0.001710 -0.001148 0.013922 0.000000 0.000000 0.000000
# 4 0.000000 0.000000 0.000000 0.054504 0.000000 0.000000
# 5 0.000000 0.000000 0.000000 0.000000 0.054714 0.000000
# 6 0.000000 0.000000 0.000000 0.000000 0.000000 0.039893
#
#
# Mechanical properties :
#
#
# Convention : Reuss Voigt Hill
#
# Bulk Modulus (GPa) = 42.33500 49.29541 45.81521
# Shear Modulus (GPa) = 24.09128 27.52371 25.80749
#
# Velocity S-wave (km/s) = 3.48912 3.72941 3.61126
# Velocity P-wave (km/s) = 6.13392 6.59204 6.36710
#
# Compressibility (1/GPa) = 0.02362112
#
# Stress axis : x y z
#
# Youngs Moduli (GPa) = 123.66506 66.30851 71.82640
#
# Poissons Ratio (x) = 0.25706 0.12283
# Poissons Ratio (y) = 0.47941 0.08242
# Poissons Ratio (z) = 0.21149 0.07609
#
# Static dielectric constant tensor:
#      x y z
#    x 3.537660 0.000000 0.000000 
#    y 0.000000 3.545170 0.000000 
#    z 0.000000 0.000000 3.643780 
# 
# 
# High freq. dielectric constant tensor:
#      x y z
#    x 1.762580 0.000000 0.000000 
#    y 0.000000 1.756280 0.000000 
#    z 0.000000 0.000000 1.774290 
# 
# From -- ./inp_files/4202.got.cif
#   From: 2010.03.12/outbox.cif.g09.slc.cpg/sg36_3_cif.got.tgz:4202.got - 2010.04.14 02:13:53.
