data_PCOD8174610
_publ_section_title
;
Structure prediction by ZEFSAII (Michael W. Deem and Ramdas Pophale) SiO2 
 PCOD8174610
Probable space group: C M C 21
;
_chemical_formula_sum "Si O2"
_cell_formula_units_Z 64
_cell_length_a 11.159856
_cell_length_b 23.321059
_cell_length_c 12.843772
_cell_angle_alpha 90.000000
_cell_angle_beta 90.000000
_cell_angle_gamma 90.000000
_cell_volume 3342.715737
_symmetry_space_group_name_H-M "C M C 21"
_symmetry_group_IT_number 36
_symmetry_cell_setting 'orthorhombic'
loop_
_space_group_symop_operation_xyz
x,y,z
-x,-y,1/2+z
x,-y,1/2+z
-x,y,z
1/2+x,1/2+y,z
1/2-x,1/2-y,1/2+z
1/2+x,1/2-y,1/2+z
1/2-x,1/2+y,z
loop_
_atom_site_type_symbol
_atom_site_label
_atom_site_fract_x
_atom_site_fract_y
_atom_site_fract_z
Si Si1 0.258348 0.644811 0.984350
Si Si2 0.868138 0.828492 0.268904
Si Si3 0.864868 0.068586 0.153636
Si Si4 0.135539 0.430716 0.997724
Si Si5 0.363493 0.115627 0.279050
Si Si6 0.706562 0.444208 0.185752
Si Si7 0.864695 0.723406 0.147475
Si Si8 0.865537 0.545379 0.884792
O O1 0.311803 0.673947 0.882590
O O2 0.148730 0.605165 0.945869
O O3 0.351718 0.602582 0.044096
O O4 0.214982 0.696928 0.055747
O O5 0.877925 0.892806 0.224210
O O6 0.806498 0.783564 0.187670
O O7 0.000000 0.803329 0.282839
O O8 0.747924 0.083893 0.222707
O O9 0.000000 0.084332 0.197173
O O10 0.864976 0.999302 0.142055
O O11 0.160870 0.387855 0.901982
O O12 0.167338 0.495436 0.964997
O O13 0.000000 0.425601 0.036017
O O14 0.216424 0.414557 0.095207
O O15 0.500000 0.090003 0.254541
O O16 0.362032 0.181457 0.246767
O O17 0.785889 0.463030 0.283355
O O18 0.000000 0.731237 0.104662
O O19 0.000000 0.539471 0.844878
#
# Coordination Sequence:
#
# PCOD8174610 Si02
#       8
#     8   8   8   8   8   8   8   8
#     4  10  20  36  59  82 111 150 190 237 294 347
#     4  10  22  39  57  79 113 155 196 236 283 346
#     4  11  21  34  54  84 117 148 189 233 285 348
#     4  10  19  32  53  82 115 146 182 235 293 345
#     4   9  19  36  58  84 110 142 190 241 289 340
#     4  11  21  34  51  81 118 155 185 230 287 347
#     4   9  19  37  61  83 104 141 196 246 285 337
#     4  10  19  32  53  83 114 145 185 236 288 346
#
# _framework density 19.146108999999999
#
# number of rings (size 3 to 8) (size 9 to 14) (size 15 to 20)
#    0.000    2.000    2.500    1.500    0.000    2.000 
#    0.000    2.500    0.000   23.250    0.000    0.000 
#    0.000    0.000    0.000    0.000    0.000    0.000 
#
# Total GULP energy -396463.256322 kJ/mol
# GULP energy per Si atom -12389.476760 kJ/mol
# Density = 1.910253 g / cm^3
# Si number density = 19.146109 Si / 1000 Ang^3
#
#
#
# Elastic Constant Matrix: (Units=GPa)
#
#
# Indices 1 2 3 4 5 6 
#
# 1 90.4993 29.5587 38.3761 0.0000 0.0000 0.0000
# 2 29.5587 95.9750 30.3965 0.0000 0.0000 0.0000
# 3 38.3761 30.3965 86.4495 0.0000 0.0000 0.0000
# 4 0.0000 0.0000 0.0000 27.6593 0.0000 0.0000
# 5 0.0000 0.0000 0.0000 0.0000 11.5878 0.0000
# 6 0.0000 0.0000 0.0000 0.0000 0.0000 15.4572
#
#
#
# Elastic Compliance Matrix: (Units=1/GPa)
#
#
# Indices 1 2 3 4 5 6 
#
# 1 0.014197 -0.002674 -0.005362 0.000000 0.000000 0.000000
# 2 -0.002674 0.012229 -0.003113 0.000000 0.000000 0.000000
# 3 -0.005362 -0.003113 0.015042 0.000000 0.000000 0.000000
# 4 0.000000 0.000000 0.000000 0.036154 0.000000 0.000000
# 5 0.000000 0.000000 0.000000 0.000000 0.086297 0.000000
# 6 0.000000 0.000000 0.000000 0.000000 0.000000 0.064695
#
#
# Mechanical properties :
#
#
# Convention : Reuss Voigt Hill
#
# Bulk Modulus (GPa) = 52.16409 52.17626 52.17018
# Shear Modulus (GPa) = 19.43242 22.58037 21.00640
#
# Velocity S-wave (km/s) = 3.18929 3.43792 3.31594
# Velocity P-wave (km/s) = 6.39269 6.56276 6.47829
#
# Compressibility (1/GPa) = 0.01917028
#
# Stress axis : x y z
#
# Youngs Moduli (GPa) = 70.43748 81.77404 66.47995
#
# Poissons Ratio (x) = 0.21868 0.35646
# Poissons Ratio (y) = 0.18837 0.20693
# Poissons Ratio (z) = 0.37768 0.25453
#
# Static dielectric constant tensor:
#      x y z
#    x 3.434410 0.000000 0.000000 
#    y 0.000000 3.550280 0.000000 
#    z 0.000000 0.000000 3.427220 
# 
# 
# High freq. dielectric constant tensor:
#      x y z
#    x 1.734370 0.000000 0.000000 
#    y 0.000000 1.739730 0.000000 
#    z 0.000000 0.000000 1.741280 
# 
# From -- ./inp_files/8067.got.cif
#   From: 2010.03.12/outbox.cif.g09.slc.cpg/sg36_5_cif.got.tgz:8067.got - 2010.04.14 02:13:53.
