data_PCOD8174440
_publ_section_title
;
Structure prediction by ZEFSAII (Michael W. Deem and Ramdas Pophale) SiO2 
 PCOD8174440
Probable space group: C M C 21
;
_chemical_formula_sum "Si O2"
_cell_formula_units_Z 64
_cell_length_a 9.034818
_cell_length_b 15.358087
_cell_length_c 23.581732
_cell_angle_alpha 90.000000
_cell_angle_beta 90.000000
_cell_angle_gamma 90.000000
_cell_volume 3272.142670
_symmetry_space_group_name_H-M "C M C 21"
_symmetry_group_IT_number 36
_symmetry_cell_setting 'orthorhombic'
loop_
_space_group_symop_operation_xyz
x,y,z
-x,-y,1/2+z
x,-y,1/2+z
-x,y,z
1/2+x,1/2+y,z
1/2-x,1/2-y,1/2+z
1/2+x,1/2-y,1/2+z
1/2-x,1/2+y,z
loop_
_atom_site_type_symbol
_atom_site_label
_atom_site_fract_x
_atom_site_fract_y
_atom_site_fract_z
Si Si1 0.830861 0.922443 0.168770
Si Si2 0.670662 0.340013 0.049470
Si Si3 0.325793 0.660308 0.046496
Si Si4 0.324788 0.395784 0.420884
Si Si5 0.327590 0.909705 0.651855
Si Si6 0.324124 0.253060 0.851792
Si Si7 0.327267 0.750770 0.733685
Si Si8 0.674964 0.409760 0.929673
O O1 0.809630 0.903221 0.102422
O O2 0.780033 0.840851 0.206423
O O3 0.000000 0.945665 0.182435
O O4 0.730512 0.005048 0.185071
O O5 0.500000 0.309165 0.043686
O O6 0.771956 0.256939 0.059365
O O7 0.726743 0.390682 0.993804
O O8 0.500000 0.653849 0.054052
O O9 0.253193 0.594964 0.091370
O O10 0.276706 0.632856 0.983662
O O11 0.500000 0.386601 0.412150
O O12 0.243361 0.336253 0.375183
O O13 0.268846 0.494858 0.410784
O O14 0.500000 0.918572 0.640625
O O15 0.289689 0.825209 0.688618
O O16 0.500000 0.246993 0.854584
O O17 0.272097 0.268163 0.788130
O O18 0.262876 0.334841 0.888291
O O19 0.500000 0.751937 0.750160
O O20 0.500000 0.410186 0.927652
#
# Coordination Sequence:
#
# PCOD8174440 Si02
#       8
#     8   8   8   8   8   8   8   8
#     4  10  21  39  63  88 116 156 197 237 295 360
#     4  10  18  36  62  86 120 157 193 238 295 358
#     4  11  21  34  59  92 123 155 195 241 293 354
#     4  10  21  39  61  86 118 157 196 236 291 358
#     4  11  23  40  62  89 121 157 196 243 297 351
#     4  11  23  39  61  87 114 150 200 253 294 338
#     4  10  23  43  62  81 115 160 198 239 297 355
#     4   9  19  36  60  85 115 154 191 233 290 352
#
# _framework density 19.559049000000002
#
# number of rings (size 3 to 8) (size 9 to 14) (size 15 to 20)
#    0.000    1.750    2.500    1.875    0.000    5.500 
#    0.000    5.625    0.000    0.000    0.000    0.000 
#    0.000    0.000    0.000    0.000    0.000    0.000 
#
# Total GULP energy -396911.165799 kJ/mol
# GULP energy per Si atom -12403.473931 kJ/mol
# Density = 1.951453 g / cm^3
# Si number density = 19.559049 Si / 1000 Ang^3
#
#
#
# Elastic Constant Matrix: (Units=GPa)
#
#
# Indices 1 2 3 4 5 6 
#
# 1 50.2717 30.0960 30.6895 0.0000 0.0000 0.0000
# 2 30.0960 110.2172 9.7777 0.0000 0.0000 0.0000
# 3 30.6895 9.7777 72.2877 0.0000 0.0000 0.0000
# 4 0.0000 0.0000 0.0000 13.8107 0.0000 0.0000
# 5 0.0000 0.0000 0.0000 0.0000 33.1504 0.0000
# 6 0.0000 0.0000 0.0000 0.0000 0.0000 31.4936
#
#
#
# Elastic Compliance Matrix: (Units=1/GPa)
#
#
# Indices 1 2 3 4 5 6 
#
# 1 0.032195 -0.007671 -0.012631 0.000000 0.000000 0.000000
# 2 -0.007671 0.011011 0.001767 0.000000 0.000000 0.000000
# 3 -0.012631 0.001767 0.018957 0.000000 0.000000 0.000000
# 4 0.000000 0.000000 0.000000 0.072408 0.000000 0.000000
# 5 0.000000 0.000000 0.000000 0.000000 0.030166 0.000000
# 6 0.000000 0.000000 0.000000 0.000000 0.000000 0.031752
#
#
# Mechanical properties :
#
#
# Convention : Reuss Voigt Hill
#
# Bulk Modulus (GPa) = 39.84971 41.54476 40.69724
# Shear Modulus (GPa) = 20.66790 26.50516 23.58653
#
# Velocity S-wave (km/s) = 3.25421 3.68521 3.47639
# Velocity P-wave (km/s) = 5.87691 6.27650 6.07999
#
# Compressibility (1/GPa) = 0.02509429
#
# Stress axis : x y z
#
# Youngs Moduli (GPa) = 31.06094 90.82016 52.75122
#
# Poissons Ratio (x) = 0.69665 0.66628
# Poissons Ratio (y) = 0.23826 -0.09322
# Poissons Ratio (z) = 0.39232 -0.16050
#
# Static dielectric constant tensor:
#      x y z
#    x 3.377570 0.000000 0.000000 
#    y 0.000000 3.749720 0.000000 
#    z 0.000000 0.000000 3.588230 
# 
# 
# High freq. dielectric constant tensor:
#      x y z
#    x 1.744980 0.000000 0.000000 
#    y 0.000000 1.776020 0.000000 
#    z 0.000000 0.000000 1.761130 
# 
# From -- ./inp_files/16620.got.cif
#   From: 2010.03.12/outbox.cif.g09.slc.cpg/sg36_9_cif.got.tgz:16620.got - 2010.04.14 02:13:53.
