data_PCOD8174866
_publ_section_title
;
Structure prediction by ZEFSAII (Michael W. Deem and Ramdas Pophale) SiO2 
 PCOD8174866
Probable space group: C M C 21
;
_chemical_formula_sum "Si O2"
_cell_formula_units_Z 64
_cell_length_a 26.938711
_cell_length_b 9.253383
_cell_length_c 13.158713
_cell_angle_alpha 90.000000
_cell_angle_beta 90.000000
_cell_angle_gamma 90.000000
_cell_volume 3280.127793
_symmetry_space_group_name_H-M "C M C 21"
_symmetry_group_IT_number 36
_symmetry_cell_setting 'orthorhombic'
loop_
_space_group_symop_operation_xyz
x,y,z
-x,-y,1/2+z
x,-y,1/2+z
-x,y,z
1/2+x,1/2+y,z
1/2-x,1/2-y,1/2+z
1/2+x,1/2-y,1/2+z
1/2-x,1/2+y,z
loop_
_atom_site_type_symbol
_atom_site_label
_atom_site_fract_x
_atom_site_fract_y
_atom_site_fract_z
Si Si1 0.943399 0.256240 0.907330
Si Si2 0.805765 0.828793 0.557725
Si Si3 0.375794 0.171314 0.933871
Si Si4 0.122931 0.997242 0.912319
Si Si5 0.708239 0.475369 0.768753
Si Si6 0.880818 0.416660 0.076595
Si Si7 0.766290 0.295876 0.376315
Si Si8 0.557627 0.979299 0.276056
O O1 0.936237 0.350738 0.804283
O O2 0.000000 0.252373 0.941336
O O3 0.926045 0.091333 0.889475
O O4 0.913693 0.329004 0.997819
O O5 0.788375 0.920877 0.654281
O O6 0.829886 0.675235 0.592040
O O7 0.757549 0.806198 0.487874
O O8 0.844799 0.922818 0.496310
O O9 0.388685 0.338581 0.957197
O O10 0.323523 0.153288 0.875165
O O11 0.422097 0.113717 0.869700
O O12 0.370143 0.078553 0.036891
O O13 0.150982 0.986888 0.803963
O O14 0.736624 0.625805 0.785155
O O15 0.736854 0.371371 0.847174
O O16 0.910119 0.434250 0.180396
O O17 0.500000 0.940828 0.257351
#
# Coordination Sequence:
#
# PCOD8174866 Si02
#       8
#     8   8   8   8   8   8   8   8
#     4   9  19  36  57  80 111 148 183 233 294 342
#     4  10  21  37  56  79 115 153 183 232 291 340
#     4  10  21  36  57  82 110 144 188 237 280 331
#     4   9  20  37  54  80 111 143 187 229 280 348
#     4  10  21  36  55  78 111 147 186 233 281 335
#     4  10  19  35  58  82 111 147 189 233 283 344
#     4  10  21  36  54  82 111 145 193 233 277 345
#     4  10  21  37  58  83 109 143 188 234 282 339
#
# _framework density 19.511434000000001
#
# number of rings (size 3 to 8) (size 9 to 14) (size 15 to 20)
#    0.000    2.250    0.000    2.625    0.000    8.000 
#    0.000    0.000    0.000    3.750    0.000    0.000 
#    0.000    0.000    0.000    0.000    0.000    0.000 
#
# Total GULP energy -396708.108004 kJ/mol
# GULP energy per Si atom -12397.128375 kJ/mol
# Density = 1.946702 g / cm^3
# Si number density = 19.511434 Si / 1000 Ang^3
#
#
#
# Elastic Constant Matrix: (Units=GPa)
#
#
# Indices 1 2 3 4 5 6 
#
# 1 75.1696 31.6933 16.8479 0.0000 0.0000 0.0000
# 2 31.6933 103.2682 9.5265 0.0000 0.0000 0.0000
# 3 16.8479 9.5265 81.5368 0.0000 0.0000 0.0000
# 4 0.0000 0.0000 0.0000 22.0310 0.0000 0.0000
# 5 0.0000 0.0000 0.0000 0.0000 24.0359 0.0000
# 6 0.0000 0.0000 0.0000 0.0000 0.0000 32.1754
#
#
#
# Elastic Compliance Matrix: (Units=1/GPa)
#
#
# Indices 1 2 3 4 5 6 
#
# 1 0.015863 -0.004616 -0.002739 0.000000 0.000000 0.000000
# 2 -0.004616 0.011132 -0.000347 0.000000 0.000000 0.000000
# 3 -0.002739 -0.000347 0.012871 0.000000 0.000000 0.000000
# 4 0.000000 0.000000 0.000000 0.045391 0.000000 0.000000
# 5 0.000000 0.000000 0.000000 0.000000 0.041604 0.000000
# 6 0.000000 0.000000 0.000000 0.000000 0.000000 0.031080
#
#
# Mechanical properties :
#
#
# Convention : Reuss Voigt Hill
#
# Bulk Modulus (GPa) = 40.87691 41.79000 41.33345
# Shear Modulus (GPa) = 27.54856 29.10892 28.32874
#
# Velocity S-wave (km/s) = 3.76163 3.86669 3.81452
# Velocity P-wave (km/s) = 6.31365 6.43426 6.37424
#
# Compressibility (1/GPa) = 0.02446369
#
# Stress axis : x y z
#
# Youngs Moduli (GPa) = 63.03905 89.83005 77.69529
#
# Poissons Ratio (x) = 0.41464 0.21277
# Poissons Ratio (y) = 0.29098 0.02695
# Poissons Ratio (z) = 0.17263 0.03116
#
# Static dielectric constant tensor:
#      x y z
#    x 3.553560 0.000000 0.000000 
#    y 0.000000 3.833530 0.000000 
#    z 0.000000 0.000000 3.406020 
# 
# 
# High freq. dielectric constant tensor:
#      x y z
#    x 1.756960 0.000000 0.000000 
#    y 0.000000 1.769930 0.000000 
#    z 0.000000 0.000000 1.748880 
# 
# From -- ./inp_files/9743.got.cif
#   From: 2010.03.12/outbox.cif.g09.slc.cpg/sg36_5_cif.got.tgz:9743.got - 2010.04.14 02:13:53.
