data_PCOD8174601
_publ_section_title
;
Structure prediction by ZEFSAII (Michael W. Deem and Ramdas Pophale) SiO2 
 PCOD8174601
Probable space group: C M C 21
;
_chemical_formula_sum "Si O2"
_cell_formula_units_Z 48
_cell_length_a 16.125374
_cell_length_b 18.258345
_cell_length_c 8.894606
_cell_angle_alpha 90.000000
_cell_angle_beta 90.000000
_cell_angle_gamma 90.000000
_cell_volume 2618.773396
_symmetry_space_group_name_H-M "C M C 21"
_symmetry_group_IT_number 36
_symmetry_cell_setting 'orthorhombic'
loop_
_space_group_symop_operation_xyz
x,y,z
-x,-y,1/2+z
x,-y,1/2+z
-x,y,z
1/2+x,1/2+y,z
1/2-x,1/2-y,1/2+z
1/2+x,1/2-y,1/2+z
1/2-x,1/2+y,z
loop_
_atom_site_type_symbol
_atom_site_label
_atom_site_fract_x
_atom_site_fract_y
_atom_site_fract_z
Si Si1 0.673414 0.454554 0.050170
Si Si2 0.228611 0.175836 0.090920
Si Si3 0.093211 0.579121 0.774065
Si Si4 0.750488 0.329424 0.237666
Si Si5 0.665412 0.042533 0.077534
Si Si6 0.903446 0.082697 0.232785
O O1 0.687926 0.386257 0.160738
O O2 0.759816 0.494180 0.006681
O O3 0.612657 0.510127 0.135493
O O4 0.630998 0.426634 0.899917
O O5 0.258503 0.252893 0.154043
O O6 0.294449 0.115351 0.150258
O O7 0.138911 0.153507 0.155695
O O8 0.225051 0.178083 0.910788
O O9 0.155006 0.642620 0.718926
O O10 0.114624 0.501102 0.701311
O O11 0.000000 0.603220 0.733102
O O12 0.100846 0.566755 0.951150
O O13 0.000000 0.099569 0.239971
#
# Coordination Sequence:
#
# PCOD8174601 Si02
#       6
#     8   8   8   8   8   8
#     4  10  19  35  55  79 106 140 180 216 263 323
#     4  10  20  36  55  77 105 141 182 218 260 318
#     4  10  19  32  53  79 105 130 164 213 261 304
#     4  10  21  36  56  77 105 143 181 217 259 320
#     4   9  18  33  53  76 102 135 171 207 251 311
#     4  11  21  34  56  82 109 137 174 227 276 318
#
# _framework density 18.329191000000002
#
# number of rings (size 3 to 8) (size 9 to 14) (size 15 to 20)
#    0.000    2.000    0.000    7.000    0.000    2.000 
#    0.000    0.833    0.000    8.000    0.000    0.000 
#    0.000    0.000    0.000    0.000    0.000    0.000 
#
# Total GULP energy -297642.333672 kJ/mol
# GULP energy per Si atom -12401.763903 kJ/mol
# Density = 1.828747 g / cm^3
# Si number density = 18.329191 Si / 1000 Ang^3
#
#
#
# Elastic Constant Matrix: (Units=GPa)
#
#
# Indices 1 2 3 4 5 6 
#
# 1 79.1189 0.5042 16.7578 0.0000 0.0000 0.0000
# 2 0.5042 82.2895 18.7566 0.0000 0.0000 0.0000
# 3 16.7578 18.7566 79.5131 0.0000 0.0000 0.0000
# 4 0.0000 0.0000 0.0000 32.4168 0.0000 0.0000
# 5 0.0000 0.0000 0.0000 0.0000 22.9284 0.0000
# 6 0.0000 0.0000 0.0000 0.0000 0.0000 15.6076
#
#
#
# Elastic Compliance Matrix: (Units=1/GPa)
#
#
# Indices 1 2 3 4 5 6 
#
# 1 0.013257 0.000587 -0.002932 0.000000 0.000000 0.000000
# 2 0.000587 0.012869 -0.003159 0.000000 0.000000 0.000000
# 3 -0.002932 -0.003159 0.013940 0.000000 0.000000 0.000000
# 4 0.000000 0.000000 0.000000 0.030848 0.000000 0.000000
# 5 0.000000 0.000000 0.000000 0.000000 0.043614 0.000000
# 6 0.000000 0.000000 0.000000 0.000000 0.000000 0.064071
#
#
# Mechanical properties :
#
#
# Convention : Reuss Voigt Hill
#
# Bulk Modulus (GPa) = 34.41640 34.77317 34.59479
# Shear Modulus (GPa) = 25.08863 27.85074 26.46969
#
# Velocity S-wave (km/s) = 3.70372 3.90227 3.80429
# Velocity P-wave (km/s) = 6.09160 6.27027 6.18158
#
# Compressibility (1/GPa) = 0.02905591
#
# Stress axis : x y z
#
# Youngs Moduli (GPa) = 75.43434 77.70760 71.73683
#
# Poissons Ratio (x) = -0.04563 0.21036
# Poissons Ratio (y) = -0.04429 0.22665
# Poissons Ratio (z) = 0.22120 0.24551
#
# Static dielectric constant tensor:
#      x y z
#    x 3.277370 0.000000 0.000000 
#    y 0.000000 3.415090 0.000000 
#    z 0.000000 0.000000 3.409430 
# 
# 
# High freq. dielectric constant tensor:
#      x y z
#    x 1.697140 0.000000 0.000000 
#    y 0.000000 1.708550 0.000000 
#    z 0.000000 0.000000 1.719210 
# 
# From -- ./inp_files/3976.got.cif
#   From: 2010.03.12/outbox.cif.g09.slc.cpg/sg36_2_cif.got.tgz:3976.got - 2010.04.14 02:13:53.
