data_PCOD8174564
_publ_section_title
;
Structure prediction by ZEFSAII (Michael W. Deem and Ramdas Pophale) SiO2 
 PCOD8174564
Probable space group: C M C 21
;
_chemical_formula_sum "Si O2"
_cell_formula_units_Z 64
_cell_length_a 8.855133
_cell_length_b 28.825053
_cell_length_c 14.143876
_cell_angle_alpha 90.000000
_cell_angle_beta 90.000000
_cell_angle_gamma 90.000000
_cell_volume 3610.219795
_symmetry_space_group_name_H-M "C M C 21"
_symmetry_group_IT_number 36
_symmetry_cell_setting 'orthorhombic'
loop_
_space_group_symop_operation_xyz
x,y,z
-x,-y,1/2+z
x,-y,1/2+z
-x,y,z
1/2+x,1/2+y,z
1/2-x,1/2-y,1/2+z
1/2+x,1/2-y,1/2+z
1/2-x,1/2+y,z
loop_
_atom_site_type_symbol
_atom_site_label
_atom_site_fract_x
_atom_site_fract_y
_atom_site_fract_z
Si Si1 0.822252 0.179701 0.993760
Si Si2 0.330081 0.404236 0.116901
Si Si3 0.177804 0.550318 0.779220
Si Si4 0.678642 0.426543 0.473203
Si Si5 0.820242 0.241639 0.374089
Si Si6 0.321294 0.821036 0.025039
Si Si7 0.669841 0.494222 0.634166
Si Si8 0.322773 0.741639 0.163087
O O1 0.771966 0.126630 0.984694
O O2 0.733949 0.209405 0.916004
O O3 0.000000 0.186683 0.976477
O O4 0.777282 0.197415 0.098748
O O5 0.500000 0.384797 0.128310
O O6 0.251128 0.406332 0.221032
O O7 0.236087 0.372750 0.044890
O O8 0.331077 0.456879 0.075805
O O9 0.238079 0.550420 0.885208
O O10 0.226729 0.501709 0.727953
O O11 0.000000 0.555709 0.778753
O O12 0.500000 0.431974 0.459413
O O13 0.733580 0.453796 0.566962
O O14 0.752344 0.197782 0.429136
O O15 0.753587 0.237793 0.267664
O O16 0.000000 0.239257 0.378247
O O17 0.500000 0.820651 0.012506
O O18 0.266611 0.788494 0.111582
O O19 0.500000 0.481941 0.667652
O O20 0.500000 0.744411 0.174609
#
# Coordination Sequence:
#
# PCOD8174564 Si02
#       8
#     8   8   8   8   8   8   8   8
#     4   9  19  35  54  78 104 136 180 226 268 314
#     4   9  18  34  53  76 102 131 172 217 259 312
#     4  10  20  33  52  79 109 138 171 215 268 320
#     4  10  19  35  58  80 105 140 181 227 272 319
#     4  10  19  32  50  73 104 141 178 218 264 322
#     4  10  19  33  52  76 104 137 174 218 267 316
#     4   8  18  35  53  75 105 137 176 222 266 315
#     4   8  17  33  50  71 103 136 172 215 264 314
#
# _framework density 17.727453000000001
#
# number of rings (size 3 to 8) (size 9 to 14) (size 15 to 20)
#    0.750    2.000    0.000    2.625    1.750    1.000 
#    0.000    6.875    0.000    4.500    0.000    0.000 
#    0.000    0.000    0.000    0.000    0.000    0.000 
#
# Total GULP energy -396590.002513 kJ/mol
# GULP energy per Si atom -12393.437579 kJ/mol
# Density = 1.768710 g / cm^3
# Si number density = 17.727453 Si / 1000 Ang^3
#
#
#
# Elastic Constant Matrix: (Units=GPa)
#
#
# Indices 1 2 3 4 5 6 
#
# 1 71.3071 21.1928 33.9519 0.0000 0.0000 0.0000
# 2 21.1928 55.7712 26.7807 0.0000 0.0000 0.0000
# 3 33.9519 26.7807 109.2071 0.0000 0.0000 0.0000
# 4 0.0000 0.0000 0.0000 22.0141 0.0000 0.0000
# 5 0.0000 0.0000 0.0000 0.0000 22.6248 0.0000
# 6 0.0000 0.0000 0.0000 0.0000 0.0000 21.8091
#
#
#
# Elastic Compliance Matrix: (Units=1/GPa)
#
#
# Indices 1 2 3 4 5 6 
#
# 1 0.017426 -0.004557 -0.004300 0.000000 0.000000 0.000000
# 2 -0.004557 0.021515 -0.003859 0.000000 0.000000 0.000000
# 3 -0.004300 -0.003859 0.011440 0.000000 0.000000 0.000000
# 4 0.000000 0.000000 0.000000 0.045425 0.000000 0.000000
# 5 0.000000 0.000000 0.000000 0.000000 0.044199 0.000000
# 6 0.000000 0.000000 0.000000 0.000000 0.000000 0.045852
#
#
# Mechanical properties :
#
#
# Convention : Reuss Voigt Hill
#
# Bulk Modulus (GPa) = 40.08276 44.45958 42.27117
# Shear Modulus (GPa) = 22.76797 23.58029 23.17413
#
# Velocity S-wave (km/s) = 3.58765 3.65109 3.61951
# Velocity P-wave (km/s) = 6.31041 6.55041 6.43153
#
# Compressibility (1/GPa) = 0.02494838
#
# Stress axis : x y z
#
# Youngs Moduli (GPa) = 57.38701 46.47875 87.41080
#
# Poissons Ratio (x) = 0.21179 0.37587
# Poissons Ratio (y) = 0.26150 0.33736
# Poissons Ratio (z) = 0.24677 0.17938
#
# Static dielectric constant tensor:
#      x y z
#    x 3.139990 0.000000 0.000000 
#    y 0.000000 3.206500 0.000000 
#    z 0.000000 0.000000 3.328760 
# 
# 
# High freq. dielectric constant tensor:
#      x y z
#    x 1.678930 0.000000 0.000000 
#    y 0.000000 1.671670 0.000000 
#    z 0.000000 0.000000 1.676670 
# 
# From -- ./inp_files/11202.got.cif
#   From: 2010.03.12/outbox.cif.g09.slc.cpg/sg36_6_cif.got.tgz:11202.got - 2010.04.14 02:13:53.
