data_PCOD8174228
_publ_section_title
;
Structure prediction by ZEFSAII (Michael W. Deem and Ramdas Pophale) SiO2 
 PCOD8174228
Probable space group: C M C 21
;
_chemical_formula_sum "Si O2"
_cell_formula_units_Z 48
_cell_length_a 9.164490
_cell_length_b 19.211798
_cell_length_c 15.367224
_cell_angle_alpha 90.000000
_cell_angle_beta 90.000000
_cell_angle_gamma 90.000000
_cell_volume 2705.650742
_symmetry_space_group_name_H-M "C M C 21"
_symmetry_group_IT_number 36
_symmetry_cell_setting 'orthorhombic'
loop_
_space_group_symop_operation_xyz
x,y,z
-x,-y,1/2+z
x,-y,1/2+z
-x,y,z
1/2+x,1/2+y,z
1/2-x,1/2-y,1/2+z
1/2+x,1/2-y,1/2+z
1/2-x,1/2+y,z
loop_
_atom_site_type_symbol
_atom_site_label
_atom_site_fract_x
_atom_site_fract_y
_atom_site_fract_z
Si Si1 0.171184 0.977540 0.418110
Si Si2 0.165476 0.822353 0.367533
Si Si3 0.328292 0.430934 0.755733
Si Si4 0.665919 0.311109 0.555658
Si Si5 0.327190 0.950201 0.585749
Si Si6 0.834537 0.228117 0.238539
O O1 0.217348 0.901613 0.381912
O O2 0.259371 0.995531 0.506521
O O3 0.000000 0.979423 0.439305
O O4 0.215645 0.034735 0.347008
O O5 0.187393 0.779419 0.458832
O O6 0.250934 0.786810 0.290211
O O7 0.000000 0.821247 0.336696
O O8 0.500000 0.437952 0.736975
O O9 0.242534 0.471509 0.678785
O O10 0.279246 0.350083 0.759054
O O11 0.500000 0.342949 0.561392
O O12 0.785216 0.370512 0.568432
O O13 0.684990 0.256131 0.634552
O O14 0.500000 0.960546 0.588673
O O15 0.000000 0.234868 0.268456
#
# Coordination Sequence:
#
# PCOD8174228 Si02
#       6
#     8   8   8   8   8   8
#     4   9  18  34  53  69  91 128 167 195 225 278
#     4   9  17  30  49  71  93 120 155 194 233 273
#     4   9  18  34  53  69  91 128 167 195 225 278
#     4   8  16  32  49  64  89 129 167 187 217 282
#     4  10  18  28  47  74  99 121 151 197 245 282
#     4   9  17  30  49  71  93 120 155 194 233 273
#
# _framework density 17.740648
#
# number of rings (size 3 to 8) (size 9 to 14) (size 15 to 20)
#    0.000    3.000    0.000    3.500    0.000    6.000 
#    0.000    1.667    0.000    6.000    0.000    0.000 
#    0.000    0.000    0.000    0.000    0.000    0.000 
#
# Total GULP energy -297376.627769 kJ/mol
# GULP energy per Si atom -12390.692824 kJ/mol
# Density = 1.770027 g / cm^3
# Si number density = 17.740648 Si / 1000 Ang^3
#
#
#
# Elastic Constant Matrix: (Units=GPa)
#
#
# Indices 1 2 3 4 5 6 
#
# 1 55.3334 2.9133 11.4345 0.0000 0.0000 0.0000
# 2 2.9133 19.7378 -7.9981 0.0000 0.0000 0.0000
# 3 11.4345 -7.9981 29.4580 0.0000 0.0000 0.0000
# 4 0.0000 0.0000 0.0000 33.0796 0.0000 0.0000
# 5 0.0000 0.0000 0.0000 0.0000 32.0523 0.0000
# 6 0.0000 0.0000 0.0000 0.0000 0.0000 20.1409
#
#
#
# Elastic Compliance Matrix: (Units=1/GPa)
#
#
# Indices 1 2 3 4 5 6 
#
# 1 0.020478 -0.007015 -0.009853 0.000000 0.000000 0.000000
# 2 -0.007015 0.059330 0.018832 0.000000 0.000000 0.000000
# 3 -0.009853 0.018832 0.042884 0.000000 0.000000 0.000000
# 4 0.000000 0.000000 0.000000 0.030230 0.000000 0.000000
# 5 0.000000 0.000000 0.000000 0.000000 0.031199 0.000000
# 6 0.000000 0.000000 0.000000 0.000000 0.000000 0.049650
#
#
# Mechanical properties :
#
#
# Convention : Reuss Voigt Hill
#
# Bulk Modulus (GPa) = 7.89774 13.02540 10.46157
# Shear Modulus (GPa) = 18.37886 23.59987 20.98937
#
# Velocity S-wave (km/s) = 3.22215 3.65124 3.44339
# Velocity P-wave (km/s) = 4.27837 5.01333 4.66036
#
# Compressibility (1/GPa) = 0.12661852
#
# Stress axis : x y z
#
# Youngs Moduli (GPa) = 48.83344 16.85478 23.31861
#
# Poissons Ratio (x) = 0.11824 0.22977
# Poissons Ratio (y) = 0.34258 -0.43913
# Poissons Ratio (z) = 0.48117 -0.31740
#
# Static dielectric constant tensor:
#      x y z
#    x 3.122890 0.000000 0.000000 
#    y 0.000000 2.875330 0.000000 
#    z 0.000000 0.000000 3.702010 
# 
# 
# High freq. dielectric constant tensor:
#      x y z
#    x 1.676080 0.000000 0.000000 
#    y 0.000000 1.633570 0.000000 
#    z 0.000000 0.000000 1.706830 
# 
# From -- ./inp_files/10379.got.cif
#   From: 2010.03.12/outbox.cif.g09.slc.cpg/sg36_6_cif.got.tgz:10379.got - 2010.04.14 02:13:53.
