data_PCOD8174916
_publ_section_title
;
Structure prediction by ZEFSAII (Michael W. Deem and Ramdas Pophale) SiO2 
 PCOD8174916
Probable space group: C M C 21
;
_chemical_formula_sum "Si O2"
_cell_formula_units_Z 36
_cell_length_a 7.601384
_cell_length_b 18.065410
_cell_length_c 11.607297
_cell_angle_alpha 90.000000
_cell_angle_beta 90.000000
_cell_angle_gamma 90.000000
_cell_volume 1593.938614
_symmetry_space_group_name_H-M "C M C 21"
_symmetry_group_IT_number 36
_symmetry_cell_setting 'orthorhombic'
loop_
_space_group_symop_operation_xyz
x,y,z
-x,-y,1/2+z
x,-y,1/2+z
-x,y,z
1/2+x,1/2+y,z
1/2-x,1/2-y,1/2+z
1/2+x,1/2-y,1/2+z
1/2-x,1/2+y,z
loop_
_atom_site_type_symbol
_atom_site_label
_atom_site_fract_x
_atom_site_fract_y
_atom_site_fract_z
Si Si1 0.000000 0.125181 0.806421
Si Si2 0.698168 0.377931 0.722612
Si Si3 0.000000 0.277517 0.710282
Si Si4 0.196482 0.851237 0.990259
Si Si5 0.797063 0.457141 0.189584
Si Si6 0.000000 0.747302 0.464216
O O1 0.000000 0.187637 0.703334
O O2 0.824352 0.076429 0.791802
O O3 0.000000 0.164459 0.933190
O O4 0.500000 0.358717 0.680979
O O5 0.821612 0.315662 0.662551
O O6 0.710032 0.379697 0.860199
O O7 0.759304 0.456662 0.674947
O O8 0.000000 0.298887 0.845243
O O9 0.322243 0.781904 0.025665
O O10 0.000000 0.820714 0.013077
O O11 0.245152 0.921458 0.068023
O O12 0.000000 0.441855 0.221242
#
# Coordination Sequence:
#
# PCOD8174916 Si02
#       6
#     4   8   4   8   8   4
#     4  10  22  38  54  88 124 145 207 253 284 353
#     4  10  19  35  62  88 113 156 200 247 294 353
#     4   8  18  35  57  78 114 149 193 233 291 349
#     4  10  19  35  62  88 112 160 205 232 299 371
#     4  12  22  34  62  91 122 156 201 247 296 349
#     4   8  18  35  57  78 112 150 194 240 281 354
#
# _framework density 22.585563
#
# number of rings (size 3 to 8) (size 9 to 14) (size 15 to 20)
#    0.667    1.333    4.444    0.000    0.000    1.778 
#    0.000    0.000    4.889    0.000    0.000    0.000 
#    0.000    0.000    0.000    0.000    0.000    0.000 
#
# Total GULP energy -223037.741176 kJ/mol
# GULP energy per Si atom -12390.985621 kJ/mol
# Density = 2.253416 g / cm^3
# Si number density = 22.585563 Si / 1000 Ang^3
#
#
#
# Elastic Constant Matrix: (Units=GPa)
#
#
# Indices 1 2 3 4 5 6 
#
# 1 203.6055 42.1319 -3.5239 0.0000 0.0000 0.0000
# 2 42.1319 79.7200 -16.0824 0.0000 0.0000 0.0000
# 3 -3.5239 -16.0824 24.7225 0.0000 0.0000 0.0000
# 4 0.0000 0.0000 0.0000 34.9392 0.0000 0.0000
# 5 0.0000 0.0000 0.0000 0.0000 9.8936 0.0000
# 6 0.0000 0.0000 0.0000 0.0000 0.0000 18.2057
#
#
#
# Elastic Compliance Matrix: (Units=1/GPa)
#
#
# Indices 1 2 3 4 5 6 
#
# 1 0.005550 -0.003192 -0.001286 0.000000 0.000000 0.000000
# 2 -0.003192 0.016275 0.010132 0.000000 0.000000 0.000000
# 3 -0.001286 0.010132 0.046857 0.000000 0.000000 0.000000
# 4 0.000000 0.000000 0.000000 0.028621 0.000000 0.000000
# 5 0.000000 0.000000 0.000000 0.000000 0.101076 0.000000
# 6 0.000000 0.000000 0.000000 0.000000 0.000000 0.054928
#
#
# Mechanical properties :
#
#
# Convention : Reuss Voigt Hill
#
# Bulk Modulus (GPa) = 12.50159 39.23326 25.86742
# Shear Modulus (GPa) = 18.61077 31.64253 25.12665
#
# Velocity S-wave (km/s) = 2.87367 3.74706 3.33905
# Velocity P-wave (km/s) = 4.06914 6.01077 5.13260
#
# Compressibility (1/GPa) = 0.07998984
#
# Stress axis : x y z
#
# Youngs Moduli (GPa) = 180.18625 61.44352 21.34162
#
# Poissons Ratio (x) = 0.19615 0.02744
# Poissons Ratio (y) = 0.57523 -0.21624
# Poissons Ratio (z) = 0.23166 -0.62256
#
# Static dielectric constant tensor:
#      x y z
#    x 4.546280 0.000000 0.000000 
#    y 0.000000 3.781090 0.000000 
#    z 0.000000 0.000000 3.704270 
# 
# 
# High freq. dielectric constant tensor:
#      x y z
#    x 1.911640 0.000000 0.000000 
#    y 0.000000 1.884620 0.000000 
#    z 0.000000 0.000000 1.866580 
# 
# From -- ./inp_files/10229.got.cif
#   From: 2010.03.12/outbox.cif.g09.slc.cpg/sg36_6_cif.got.tgz:10229.got - 2010.04.14 02:13:53.
