data_PCOD8174812
_publ_section_title
;
Structure prediction by ZEFSAII (Michael W. Deem and Ramdas Pophale) SiO2 
 PCOD8174812
Probable space group: C M C 21
;
_chemical_formula_sum "Si O2"
_cell_formula_units_Z 44
_cell_length_a 25.738926
_cell_length_b 16.206570
_cell_length_c 5.248861
_cell_angle_alpha 90.000000
_cell_angle_beta 90.000000
_cell_angle_gamma 90.000000
_cell_volume 2189.508334
_symmetry_space_group_name_H-M "C M C 21"
_symmetry_group_IT_number 36
_symmetry_cell_setting 'orthorhombic'
loop_
_space_group_symop_operation_xyz
x,y,z
-x,-y,1/2+z
x,-y,1/2+z
-x,y,z
1/2+x,1/2+y,z
1/2-x,1/2-y,1/2+z
1/2+x,1/2-y,1/2+z
1/2-x,1/2+y,z
loop_
_atom_site_type_symbol
_atom_site_label
_atom_site_fract_x
_atom_site_fract_y
_atom_site_fract_z
Si Si1 0.758792 0.027389 0.712100
Si Si2 0.355744 0.957888 0.733347
Si Si3 0.382832 0.233647 0.229686
Si Si4 0.000000 0.944239 0.740800
Si Si5 0.557224 0.715613 0.228049
Si Si6 0.229753 0.211142 0.770564
O O1 0.746749 0.123443 0.690117
O O2 0.791068 0.994387 0.468182
O O3 0.706047 0.973528 0.737634
O O4 0.366712 0.861354 0.740538
O O5 0.381090 0.998793 0.481705
O O6 0.422102 0.255212 0.454824
O O7 0.332330 0.290400 0.266875
O O8 0.406230 0.253810 0.954433
O O9 0.948942 0.884589 0.731326
O O10 0.000000 0.005290 0.502272
O O11 0.500000 0.756131 0.263904
O O12 0.251351 0.273109 0.557921
#
# Coordination Sequence:
#
# PCOD8174812 Si02
#       6
#     8   8   8   4   8   8
#     4  10  20  36  53  79 120 163 202 250 308 356
#     4  10  19  34  57  85 118 166 217 250 303 373
#     4  12  22  40  66  96 126 172 223 265 322 396
#     4  10  20  42  72  96 124 162 204 260 340 402
#     4  10  24  42  68  97 128 163 215 269 337 384
#     4  12  23  38  61  92 130 169 220 267 314 383
#
# _framework density 20.095835000000001
#
# number of rings (size 3 to 8) (size 9 to 14) (size 15 to 20)
#    0.545    0.727    0.000    9.273    0.000    0.000 
#    0.000    5.455    0.000   10.909    0.000    0.000 
#    0.000    0.000    0.000    0.000    0.000    0.000 
#
# Total GULP energy -272682.836299 kJ/mol
# GULP energy per Si atom -12394.674377 kJ/mol
# Density = 2.005010 g / cm^3
# Si number density = 20.095835 Si / 1000 Ang^3
#
#
#
# Elastic Constant Matrix: (Units=GPa)
#
#
# Indices 1 2 3 4 5 6 
#
# 1 68.3888 20.5516 11.6044 0.0000 0.0000 0.0000
# 2 20.5516 125.1396 31.9192 0.0000 0.0000 0.0000
# 3 11.6044 31.9192 150.6549 0.0000 0.0000 0.0000
# 4 0.0000 0.0000 0.0000 44.7974 0.0000 0.0000
# 5 0.0000 0.0000 0.0000 0.0000 26.1823 0.0000
# 6 0.0000 0.0000 0.0000 0.0000 0.0000 32.2824
#
#
#
# Elastic Compliance Matrix: (Units=1/GPa)
#
#
# Indices 1 2 3 4 5 6 
#
# 1 0.015449 -0.002361 -0.000690 0.000000 0.000000 0.000000
# 2 -0.002361 0.008808 -0.001684 0.000000 0.000000 0.000000
# 3 -0.000690 -0.001684 0.007048 0.000000 0.000000 0.000000
# 4 0.000000 0.000000 0.000000 0.022323 0.000000 0.000000
# 5 0.000000 0.000000 0.000000 0.000000 0.038194 0.000000
# 6 0.000000 0.000000 0.000000 0.000000 0.000000 0.030977
#
#
# Mechanical properties :
#
#
# Convention : Reuss Voigt Hill
#
# Bulk Modulus (GPa) = 45.79923 52.48154 49.14038
# Shear Modulus (GPa) = 35.83025 39.32629 37.57827
#
# Velocity S-wave (km/s) = 4.22710 4.42853 4.32899
# Velocity P-wave (km/s) = 6.83114 7.23336 7.03512
#
# Compressibility (1/GPa) = 0.02183443
#
# Stress axis : x y z
#
# Youngs Moduli (GPa) = 64.72955 113.52677 141.89065
#
# Poissons Ratio (x) = 0.26806 0.09786
# Poissons Ratio (y) = 0.15284 0.23900
# Poissons Ratio (z) = 0.04464 0.19122
#
# Static dielectric constant tensor:
#      x y z
#    x 3.332820 0.000000 0.000000 
#    y 0.000000 3.637020 0.000000 
#    z 0.000000 0.000000 5.264560 
# 
# 
# High freq. dielectric constant tensor:
#      x y z
#    x 1.738510 0.000000 0.000000 
#    y 0.000000 1.791870 0.000000 
#    z 0.000000 0.000000 1.823120 
# 
# From -- ./inp_files/1713.got.cif
#   From: 2010.03.12/outbox.cif.g09.slc.cpg/sg36_1_cif.got.tgz:1713.got - 2010.04.14 02:13:53.
