data_PCOD8174702
_publ_section_title
;
Structure prediction by ZEFSAII (Michael W. Deem and Ramdas Pophale) SiO2 
 PCOD8174702
Probable space group: C M C 21
;
_chemical_formula_sum "Si O2"
_cell_formula_units_Z 64
_cell_length_a 8.842609
_cell_length_b 16.469557
_cell_length_c 21.314500
_cell_angle_alpha 90.000000
_cell_angle_beta 90.000000
_cell_angle_gamma 90.000000
_cell_volume 3104.112759
_symmetry_space_group_name_H-M "C M C 21"
_symmetry_group_IT_number 36
_symmetry_cell_setting 'orthorhombic'
loop_
_space_group_symop_operation_xyz
x,y,z
-x,-y,1/2+z
x,-y,1/2+z
-x,y,z
1/2+x,1/2+y,z
1/2-x,1/2-y,1/2+z
1/2+x,1/2-y,1/2+z
1/2-x,1/2+y,z
loop_
_atom_site_type_symbol
_atom_site_label
_atom_site_fract_x
_atom_site_fract_y
_atom_site_fract_z
Si Si1 0.321277 0.018449 0.894630
Si Si2 0.674123 0.689778 0.690744
Si Si3 0.679212 0.817177 0.325514
Si Si4 0.670672 0.958693 0.150681
Si Si5 0.834522 0.079592 0.225005
Si Si6 0.171611 0.430140 0.529499
Si Si7 0.819817 0.347578 0.836376
Si Si8 0.163554 0.815098 0.609778
O O1 0.500000 0.014443 0.890028
O O2 0.262958 0.097053 0.855194
O O3 0.259755 0.930389 0.870559
O O4 0.265336 0.028392 0.966255
O O5 0.500000 0.692222 0.710961
O O6 0.775885 0.685462 0.752744
O O7 0.713186 0.615006 0.645255
O O8 0.710939 0.763541 0.645124
O O9 0.500000 0.808972 0.332200
O O10 0.753580 0.738668 0.361907
O O11 0.500000 0.928568 0.162190
O O12 0.720530 0.004663 0.214961
O O13 0.681146 0.007084 0.086188
O O14 0.746740 0.146746 0.265979
O O15 0.867638 0.110100 0.155391
O O16 0.000000 0.056201 0.254449
O O17 0.269526 0.349664 0.544602
O O18 0.000000 0.401367 0.518348
O O19 0.000000 0.342153 0.836459
O O20 0.000000 0.771384 0.596997
#
# Coordination Sequence:
#
# PCOD8174702 Si02
#       8
#     8   8   8   8   8   8   8   8
#     4   9  21  41  63  85 118 164 208 249 301 365
#     4  12  23  36  57  87 122 155 196 245 303 372
#     4  11  22  39  62  91 125 160 202 255 310 364
#     4  10  20  34  57  85 116 151 193 244 301 358
#     4  10  19  33  55  82 114 149 189 236 293 356
#     4   9  19  40  63  82 111 157 204 242 293 362
#     4  11  21  36  60  88 120 160 204 249 303 366
#     4  10  20  35  57  84 116 150 188 240 300 351
#
# _framework density 20.617808
#
# number of rings (size 3 to 8) (size 9 to 14) (size 15 to 20)
#    0.000    1.750    1.250    3.750    0.000    2.500 
#    2.250    4.375    0.000    0.000    0.000    0.000 
#    0.000    0.000    0.000    0.000    0.000    0.000 
#
# Total GULP energy -396473.569505 kJ/mol
# GULP energy per Si atom -12389.799047 kJ/mol
# Density = 2.057088 g / cm^3
# Si number density = 20.617808 Si / 1000 Ang^3
#
#
#
# Elastic Constant Matrix: (Units=GPa)
#
#
# Indices 1 2 3 4 5 6 
#
# 1 95.8659 34.4852 21.8580 0.0000 0.0000 0.0000
# 2 34.4852 109.9997 24.9734 0.0000 0.0000 0.0000
# 3 21.8580 24.9734 45.3551 0.0000 0.0000 0.0000
# 4 0.0000 0.0000 0.0000 17.3989 0.0000 0.0000
# 5 0.0000 0.0000 0.0000 0.0000 17.1209 0.0000
# 6 0.0000 0.0000 0.0000 0.0000 0.0000 35.2375
#
#
#
# Elastic Compliance Matrix: (Units=1/GPa)
#
#
# Indices 1 2 3 4 5 6 
#
# 1 0.012485 -0.002912 -0.004413 0.000000 0.000000 0.000000
# 2 -0.002912 0.011069 -0.004691 0.000000 0.000000 0.000000
# 3 -0.004413 -0.004691 0.026758 0.000000 0.000000 0.000000
# 4 0.000000 0.000000 0.000000 0.057475 0.000000 0.000000
# 5 0.000000 0.000000 0.000000 0.000000 0.058408 0.000000
# 6 0.000000 0.000000 0.000000 0.000000 0.000000 0.028379
#
#
# Mechanical properties :
#
#
# Convention : Reuss Voigt Hill
#
# Bulk Modulus (GPa) = 38.05386 45.98376 42.01881
# Shear Modulus (GPa) = 21.99081 25.27840 23.63460
#
# Velocity S-wave (km/s) = 3.26942 3.50529 3.38941
# Velocity P-wave (km/s) = 5.72267 6.22368 5.97842
#
# Compressibility (1/GPa) = 0.02627855
#
# Stress axis : x y z
#
# Youngs Moduli (GPa) = 80.09553 90.34263 37.37149
#
# Poissons Ratio (x) = 0.26309 0.16494
# Poissons Ratio (y) = 0.23325 0.17532
# Poissons Ratio (z) = 0.35350 0.42383
#
# Static dielectric constant tensor:
#      x y z
#    x 3.935320 0.000000 0.000000 
#    y 0.000000 4.057950 0.000000 
#    z 0.000000 0.000000 3.542600 
# 
# 
# High freq. dielectric constant tensor:
#      x y z
#    x 1.804700 0.000000 0.000000 
#    y 0.000000 1.811430 0.000000 
#    z 0.000000 0.000000 1.780120 
# 
# From -- ./inp_files/15661.got.cif
#   From: 2010.03.12/outbox.cif.g09.slc.cpg/sg36_8_cif.got.tgz:15661.got - 2010.04.14 02:13:53.
