data_PCOD8174220
_publ_section_title
;
Structure prediction by ZEFSAII (Michael W. Deem and Ramdas Pophale) SiO2 
 PCOD8174220
Probable space group: C M C 21
;
_chemical_formula_sum "Si O2"
_cell_formula_units_Z 64
_cell_length_a 8.881848
_cell_length_b 24.003204
_cell_length_c 15.520144
_cell_angle_alpha 90.000000
_cell_angle_beta 90.000000
_cell_angle_gamma 90.000000
_cell_volume 3308.783102
_symmetry_space_group_name_H-M "C M C 21"
_symmetry_group_IT_number 36
_symmetry_cell_setting 'orthorhombic'
loop_
_space_group_symop_operation_xyz
x,y,z
-x,-y,1/2+z
x,-y,1/2+z
-x,y,z
1/2+x,1/2+y,z
1/2-x,1/2-y,1/2+z
1/2+x,1/2-y,1/2+z
1/2-x,1/2+y,z
loop_
_atom_site_type_symbol
_atom_site_label
_atom_site_fract_x
_atom_site_fract_y
_atom_site_fract_z
Si Si1 0.821682 0.318835 0.917150
Si Si2 0.322153 0.618385 0.763589
Si Si3 0.678897 0.619807 0.077295
Si Si4 0.175793 0.116816 0.571740
Si Si5 0.320770 0.502514 0.316091
Si Si6 0.821369 0.611897 0.252867
Si Si7 0.678980 0.693652 0.916581
Si Si8 0.323739 0.497588 0.509800
O O1 0.761757 0.351545 0.833358
O O2 0.756051 0.256198 0.915610
O O3 0.000000 0.317815 0.917581
O O4 0.768975 0.348259 0.003835
O O5 0.500000 0.616285 0.774890
O O6 0.278996 0.637780 0.667128
O O7 0.261572 0.556376 0.780588
O O8 0.253820 0.661304 0.833303
O O9 0.500000 0.619925 0.089816
O O10 0.757564 0.639305 0.165546
O O11 0.742612 0.558475 0.052108
O O12 0.730545 0.662803 0.003523
O O13 0.216780 0.051207 0.567113
O O14 0.000000 0.125387 0.552208
O O15 0.500000 0.509391 0.307550
O O16 0.243157 0.549803 0.259309
O O17 0.261314 0.507861 0.413870
O O18 0.000000 0.610759 0.249873
O O19 0.500000 0.694258 0.910959
O O20 0.500000 0.487615 0.501275
#
# Coordination Sequence:
#
# PCOD8174220 Si02
#       8
#     8   8   8   8   8   8   8   8
#     4  10  22  38  53  72 106 147 182 215 258 316
#     4   9  17  31  56  85 106 130 171 224 271 310
#     4  10  19  35  60  84 104 133 179 229 270 310
#     4  10  19  32  54  83 108 132 170 216 265 315
#     4  10  17  32  59  83 106 134 173 221 265 315
#     4  11  23  36  51  78 115 150 177 207 262 327
#     4   9  18  35  57  79 103 137 180 224 268 310
#     4   9  16  29  54  86 108 127 166 222 271 309
#
# _framework density 19.342459000000002
#
# number of rings (size 3 to 8) (size 9 to 14) (size 15 to 20)
#    0.000    2.250    2.500    1.125    0.000    3.500 
#    0.000    5.000    0.000    2.250    0.000    0.000 
#    0.000    0.000    0.000    0.000    0.000    0.000 
#
# Total GULP energy -396787.605378 kJ/mol
# GULP energy per Si atom -12399.612668 kJ/mol
# Density = 1.929843 g / cm^3
# Si number density = 19.342459 Si / 1000 Ang^3
#
#
#
# Elastic Constant Matrix: (Units=GPa)
#
#
# Indices 1 2 3 4 5 6 
#
# 1 20.5411 18.2482 20.6456 0.0000 0.0000 0.0000
# 2 18.2482 131.0281 57.7559 0.0000 0.0000 0.0000
# 3 20.6456 57.7559 144.6290 0.0000 0.0000 0.0000
# 4 0.0000 0.0000 0.0000 14.1695 0.0000 0.0000
# 5 0.0000 0.0000 0.0000 0.0000 22.7348 0.0000
# 6 0.0000 0.0000 0.0000 0.0000 0.0000 17.7079
#
#
#
# Elastic Compliance Matrix: (Units=1/GPa)
#
#
# Indices 1 2 3 4 5 6 
#
# 1 0.059999 -0.005559 -0.006345 0.000000 0.000000 0.000000
# 2 -0.005559 0.009777 -0.003111 0.000000 0.000000 0.000000
# 3 -0.006345 -0.003111 0.009062 0.000000 0.000000 0.000000
# 4 0.000000 0.000000 0.000000 0.070574 0.000000 0.000000
# 5 0.000000 0.000000 0.000000 0.000000 0.043985 0.000000
# 6 0.000000 0.000000 0.000000 0.000000 0.000000 0.056472
#
#
# Mechanical properties :
#
#
# Convention : Reuss Voigt Hill
#
# Bulk Modulus (GPa) = 20.48823 54.38864 37.43844
# Shear Modulus (GPa) = 16.88224 24.22567 20.55395
#
# Velocity S-wave (km/s) = 2.95754 3.54285 3.26334
# Velocity P-wave (km/s) = 4.71996 6.70191 5.79628
#
# Compressibility (1/GPa) = 0.04880851
#
# Stress axis : x y z
#
# Youngs Moduli (GPa) = 16.66704 102.27605 110.34784
#
# Poissons Ratio (x) = 0.56858 0.70012
# Poissons Ratio (y) = 0.09266 0.34328
# Poissons Ratio (z) = 0.10575 0.31817
#
# Static dielectric constant tensor:
#      x y z
#    x 2.989940 0.000000 0.000000 
#    y 0.000000 3.713580 0.000000 
#    z 0.000000 0.000000 3.732850 
# 
# 
# High freq. dielectric constant tensor:
#      x y z
#    x 1.698230 0.000000 0.000000 
#    y 0.000000 1.753820 0.000000 
#    z 0.000000 0.000000 1.771580 
# 
# From -- ./inp_files/10922.got.cif
#   From: 2010.03.12/outbox.cif.g09.slc.cpg/sg36_6_cif.got.tgz:10922.got - 2010.04.14 02:13:53.
