data_PCOD8174089
_publ_section_title
;
Structure prediction by ZEFSAII (Michael W. Deem and Ramdas Pophale) SiO2 
 PCOD8174089
Probable space group: C M M 2
;
_chemical_formula_sum "Si O2"
_cell_formula_units_Z 40
_cell_length_a 7.762372
_cell_length_b 18.981079
_cell_length_c 14.333807
_cell_angle_alpha 90.000000
_cell_angle_beta 90.000000
_cell_angle_gamma 90.000000
_cell_volume 2111.917267
_symmetry_space_group_name_H-M "C M M 2"
_symmetry_group_IT_number 35
_symmetry_cell_setting 'orthorhombic'
loop_
_space_group_symop_operation_xyz
x,y,z
-x,-y,z
-x,y,z
x,-y,z
1/2+x,1/2+y,z
1/2-x,1/2-y,z
1/2-x,1/2+y,z
1/2+x,1/2-y,z
loop_
_atom_site_type_symbol
_atom_site_label
_atom_site_fract_x
_atom_site_fract_y
_atom_site_fract_z
Si Si1 0.700729 0.579662 0.262390
Si Si2 0.500000 0.916474 0.594331
Si Si3 0.692446 0.824517 0.100236
Si Si4 0.000000 0.415695 0.808449
Si Si5 0.805189 0.169736 0.900204
Si Si6 0.809097 0.915909 0.469909
O O1 0.500000 0.585164 0.239739
O O2 0.766505 0.500000 0.257096
O O3 0.804044 0.620711 0.183965
O O4 0.739255 0.610538 0.365642
O O5 0.500000 0.892495 0.700681
O O6 0.670380 0.885948 0.543290
O O7 0.500000 0.000000 0.585604
O O8 0.500000 0.819339 0.060340
O O9 0.750000 0.750000 0.142835
O O10 0.808190 0.845174 0.011316
O O11 0.174292 0.384602 0.852206
O O12 0.000000 0.500000 0.821552
O O13 0.750000 0.250000 0.879243
O O14 0.000000 0.156703 0.862854
O O15 0.000000 0.888465 0.498263
O O16 0.811219 0.000000 0.468351
#
# Coordination Sequence:
#
# PCOD8174089 Si02
#       6
#     8   4   8   4   8   8
#     4   9  18  32  51  80 114 147 186 230 277 332
#     4   9  18  32  53  79 115 148 183 238 294 345
#     4  11  21  35  55  81 111 149 195 232 273 345
#     4  11  24  40  59  97 126 144 199 266 305 343
#     4  11  21  41  66  85 114 162 205 239 293 370
#     4   8  15  29  50  76 108 148 188 224 276 347
#
# _framework density 18.940137
#
# number of rings (size 3 to 8) (size 9 to 14) (size 15 to 20)
#    0.000    2.200    2.000    4.200    1.400    2.400 
#    0.000    2.000    0.000    1.200    0.000    0.000 
#    0.000    0.000    0.000    0.000    0.000    0.000 
#
# Total GULP energy -247937.769994 kJ/mol
# GULP energy per Si atom -12396.888500 kJ/mol
# Density = 1.889703 g / cm^3
# Si number density = 18.940137 Si / 1000 Ang^3
#
#
#
# Elastic Constant Matrix: (Units=GPa)
#
#
# Indices 1 2 3 4 5 6 
#
# 1 141.8489 39.3449 58.2231 0.0000 0.0000 0.0000
# 2 39.3449 63.8938 46.5063 0.0000 0.0000 0.0000
# 3 58.2231 46.5063 116.8464 0.0000 0.0000 0.0000
# 4 0.0000 0.0000 0.0000 -4.2393 0.0000 0.0000
# 5 0.0000 0.0000 0.0000 0.0000 25.3940 0.0000
# 6 0.0000 0.0000 0.0000 0.0000 0.0000 20.2734
#
#
#
# Elastic Compliance Matrix: (Units=1/GPa)
#
#
# Indices 1 2 3 4 5 6 
#
# 1 0.009339 -0.003328 -0.003329 0.000000 0.000000 0.000000
# 2 -0.003328 0.023220 -0.007584 0.000000 0.000000 0.000000
# 3 -0.003329 -0.007584 0.013235 0.000000 0.000000 0.000000
# 4 0.000000 0.000000 0.000000 -0.235888 0.000000 0.000000
# 5 0.000000 0.000000 0.000000 0.000000 0.039379 0.000000
# 6 0.000000 0.000000 0.000000 0.000000 0.000000 0.049326
#
#
# Mechanical properties :
#
#
# Convention : Reuss Voigt Hill
#
# Bulk Modulus (GPa) = 57.75794 67.85975 62.80884
# Shear Modulus (GPa) = -74.47596 20.18661 -27.14467
#
# Velocity S-wave (km/s) = -6.27751 3.26822 -3.78985
# Velocity P-wave (km/s) = 4.68846 7.08152 3.75276
#
# Compressibility (1/GPa) = 0.01731364
#
# Stress axis : x y z
#
# Youngs Moduli (GPa) = 107.07475 43.06612 75.55439
#
# Poissons Ratio (x) = 0.14332 0.25153
# Poissons Ratio (y) = 0.35633 0.57298
# Poissons Ratio (z) = 0.35647 0.32660
#
# Static dielectric constant tensor:
#      x y z
#    x 3.663840 0.000000 0.000000 
#    y 0.000000 3.113250 0.000000 
#    z 0.000000 0.000000 3.450550 
# 
# 
# High freq. dielectric constant tensor:
#      x y z
#    x 1.752370 0.000000 0.000000 
#    y 0.000000 1.693800 0.000000 
#    z 0.000000 0.000000 1.731690 
# 
# From -- ./inp_files/11230.got.cif
#   From: 2010.03.12/outbox.cif.g09.slc.cpg/sg35_6_cif.got.tgz:11230.got - 2010.04.14 02:02:04.
