data_PCOD8174937
_publ_section_title
;
Structure prediction by ZEFSAII (Michael W. Deem and Ramdas Pophale) SiO2 
 PCOD8174937
Probable space group: C M C 21
;
_chemical_formula_sum "Si O2"
_cell_formula_units_Z 64
_cell_length_a 8.728017
_cell_length_b 19.862556
_cell_length_c 19.261968
_cell_angle_alpha 90.000000
_cell_angle_beta 90.000000
_cell_angle_gamma 90.000000
_cell_volume 3339.268765
_symmetry_space_group_name_H-M "C M C 21"
_symmetry_group_IT_number 36
_symmetry_cell_setting 'orthorhombic'
loop_
_space_group_symop_operation_xyz
x,y,z
-x,-y,1/2+z
x,-y,1/2+z
-x,y,z
1/2+x,1/2+y,z
1/2-x,1/2-y,1/2+z
1/2+x,1/2-y,1/2+z
1/2-x,1/2+y,z
loop_
_atom_site_type_symbol
_atom_site_label
_atom_site_fract_x
_atom_site_fract_y
_atom_site_fract_z
Si Si1 0.822175 0.239760 0.916740
Si Si2 0.681877 0.608013 0.275014
Si Si3 0.319550 0.761436 0.276838
Si Si4 0.820319 0.948070 0.056666
Si Si5 0.325523 0.307809 0.563745
Si Si6 0.318961 0.893138 0.919025
Si Si7 0.179182 0.429372 0.635166
Si Si8 0.823496 0.330646 0.139565
O O1 0.735635 0.208911 0.850285
O O2 0.766905 0.315985 0.931710
O O3 0.000000 0.240439 0.899130
O O4 0.785720 0.191798 0.981940
O O5 0.500000 0.601663 0.270296
O O6 0.740102 0.685117 0.266761
O O7 0.740314 0.579264 0.348666
O O8 0.757776 0.564769 0.213527
O O9 0.500000 0.760035 0.273921
O O10 0.259290 0.809035 0.215095
O O11 0.779068 0.891399 0.112779
O O12 0.000000 0.948402 0.043324
O O13 0.767947 0.019480 0.085858
O O14 0.736616 0.937041 0.983605
O O15 0.500000 0.332004 0.577818
O O16 0.209610 0.355014 0.604984
O O17 0.306451 0.231447 0.587717
O O18 0.500000 0.900277 0.911989
O O19 0.000000 0.445334 0.634894
O O20 0.000000 0.354639 0.142700
#
# Coordination Sequence:
#
# PCOD8174937 Si02
#       8
#     8   8   8   8   8   8   8   8
#     4   9  18  32  55  84 117 152 187 234 290 344
#     4  10  19  36  59  87 118 153 193 238 290 349
#     4   9  18  32  55  84 117 152 187 234 290 344
#     4  12  25  40  59  86 118 157 200 248 296 350
#     4  10  19  37  60  84 116 153 190 237 295 349
#     4  10  19  36  59  87 118 153 193 238 290 349
#     4  12  25  40  59  86 118 157 200 248 296 350
#     4  10  19  37  60  84 116 153 190 237 295 349
#
# _framework density 19.165872
#
# number of rings (size 3 to 8) (size 9 to 14) (size 15 to 20)
#    0.000    1.750    2.500    3.000    0.000    2.500 
#    0.000    1.250    0.000    3.000    0.000    0.000 
#    0.000    0.000    0.000    0.000    0.000    0.000 
#
# Total GULP energy -396882.976683 kJ/mol
# GULP energy per Si atom -12402.593021 kJ/mol
# Density = 1.912225 g / cm^3
# Si number density = 19.165872 Si / 1000 Ang^3
#
#
#
# Elastic Constant Matrix: (Units=GPa)
#
#
# Indices 1 2 3 4 5 6 
#
# 1 54.6874 10.5871 22.6100 0.0000 0.0000 0.0000
# 2 10.5871 35.3411 18.1793 0.0000 0.0000 0.0000
# 3 22.6100 18.1793 126.3789 0.0000 0.0000 0.0000
# 4 0.0000 0.0000 0.0000 27.0880 0.0000 0.0000
# 5 0.0000 0.0000 0.0000 0.0000 38.0287 0.0000
# 6 0.0000 0.0000 0.0000 0.0000 0.0000 26.2734
#
#
#
# Elastic Compliance Matrix: (Units=1/GPa)
#
#
# Indices 1 2 3 4 5 6 
#
# 1 0.020409 -0.004574 -0.002993 0.000000 0.000000 0.000000
# 2 -0.004574 0.031582 -0.003725 0.000000 0.000000 0.000000
# 3 -0.002993 -0.003725 0.008984 0.000000 0.000000 0.000000
# 4 0.000000 0.000000 0.000000 0.036917 0.000000 0.000000
# 5 0.000000 0.000000 0.000000 0.000000 0.026296 0.000000
# 6 0.000000 0.000000 0.000000 0.000000 0.000000 0.038061
#
#
# Mechanical properties :
#
#
# Convention : Reuss Voigt Hill
#
# Bulk Modulus (GPa) = 26.04805 35.46224 30.75514
# Shear Modulus (GPa) = 25.29987 29.28009 27.28998
#
# Velocity S-wave (km/s) = 3.63719 3.91285 3.77753
# Velocity P-wave (km/s) = 5.59099 6.24154 5.92520
#
# Compressibility (1/GPa) = 0.03839060
#
# Stress axis : x y z
#
# Youngs Moduli (GPa) = 48.99842 31.66381 111.30883
#
# Poissons Ratio (x) = 0.14483 0.33318
# Poissons Ratio (y) = 0.22412 0.41458
# Poissons Ratio (z) = 0.14667 0.11794
#
# Static dielectric constant tensor:
#      x y z
#    x 3.410190 0.000000 0.000000 
#    y 0.000000 3.231490 0.000000 
#    z 0.000000 0.000000 3.774630 
# 
# 
# High freq. dielectric constant tensor:
#      x y z
#    x 1.742280 0.000000 0.000000 
#    y 0.000000 1.710870 0.000000 
#    z 0.000000 0.000000 1.765630 
# 
# From -- ./inp_files/13841.got.cif
#   From: 2010.03.12/outbox.cif.g09.slc.cpg/sg36_7_cif.got.tgz:13841.got - 2010.04.14 02:13:53.
