data_PCOD8174253
_publ_section_title
;
Structure prediction by ZEFSAII (Michael W. Deem and Ramdas Pophale) SiO2 
 PCOD8174253
Probable space group: C M C 21
;
_chemical_formula_sum "Si O2"
_cell_formula_units_Z 64
_cell_length_a 8.865894
_cell_length_b 20.801161
_cell_length_c 18.670674
_cell_angle_alpha 90.000000
_cell_angle_beta 90.000000
_cell_angle_gamma 90.000000
_cell_volume 3443.262288
_symmetry_space_group_name_H-M "C M C 21"
_symmetry_group_IT_number 36
_symmetry_cell_setting 'orthorhombic'
loop_
_space_group_symop_operation_xyz
x,y,z
-x,-y,1/2+z
x,-y,1/2+z
-x,y,z
1/2+x,1/2+y,z
1/2-x,1/2-y,1/2+z
1/2+x,1/2-y,1/2+z
1/2-x,1/2+y,z
loop_
_atom_site_type_symbol
_atom_site_label
_atom_site_fract_x
_atom_site_fract_y
_atom_site_fract_z
Si Si1 0.825615 0.861383 0.838560
Si Si2 0.677899 0.250163 0.936589
Si Si3 0.321226 0.757160 0.598119
Si Si4 0.171281 0.861002 0.355404
Si Si5 0.823991 0.494520 0.185059
Si Si6 0.820939 0.124948 0.176577
Si Si7 0.672012 0.499374 0.332617
Si Si8 0.323566 0.635015 0.688681
O O1 0.747476 0.807672 0.888927
O O2 0.761230 0.860420 0.757496
O O3 0.000000 0.843777 0.834132
O O4 0.801407 0.932810 0.873619
O O5 0.500000 0.256422 0.936691
O O6 0.720747 0.181660 0.903627
O O7 0.736215 0.256060 0.017585
O O8 0.500000 0.767234 0.602668
O O9 0.240184 0.821147 0.624082
O O10 0.267200 0.697675 0.646517
O O11 0.191443 0.935661 0.381336
O O12 0.217158 0.855185 0.272114
O O13 0.000000 0.837825 0.366731
O O14 0.743031 0.556294 0.149469
O O15 0.792127 0.495502 0.269465
O O16 0.759516 0.427082 0.154820
O O17 0.000000 0.498540 0.168948
O O18 0.000000 0.122565 0.173532
O O19 0.500000 0.499229 0.300334
O O20 0.500000 0.623839 0.678067
#
# Coordination Sequence:
#
# PCOD8174253 Si02
#       8
#     8   8   8   8   8   8   8   8
#     4   8  15  30  52  74  94 122 161 202 243 290
#     4  10  20  33  49  71 101 132 162 202 250 298
#     4  10  21  35  50  71 102 137 170 208 252 297
#     4   9  17  30  50  73  97 127 163 206 248 291
#     4  10  18  29  50  79 105 127 161 209 258 303
#     4  10  19  33  54  76 100 132 170 209 250 300
#     4   8  15  30  50  72  99 129 165 207 248 292
#     4   9  18  34  53  74 102 134 170 209 251 299
#
# _framework density 18.587025000000001
#
# number of rings (size 3 to 8) (size 9 to 14) (size 15 to 20)
#    0.000    2.750    0.000    3.750    0.000    3.000 
#    0.000    3.750    0.000    3.000    0.000    0.000 
#    0.000    0.000    0.000    0.000    0.000    0.000 
#
# Total GULP energy -396595.136734 kJ/mol
# GULP energy per Si atom -12393.598023 kJ/mol
# Density = 1.854472 g / cm^3
# Si number density = 18.587025 Si / 1000 Ang^3
#
#
#
# Elastic Constant Matrix: (Units=GPa)
#
#
# Indices 1 2 3 4 5 6 
#
# 1 45.1430 32.4207 18.7164 0.0000 0.0000 0.0000
# 2 32.4207 138.0671 40.5589 0.0000 0.0000 0.0000
# 3 18.7164 40.5589 63.8572 0.0000 0.0000 0.0000
# 4 0.0000 0.0000 0.0000 6.7307 0.0000 0.0000
# 5 0.0000 0.0000 0.0000 0.0000 17.4018 0.0000
# 6 0.0000 0.0000 0.0000 0.0000 0.0000 30.9221
#
#
#
# Elastic Compliance Matrix: (Units=1/GPa)
#
#
# Indices 1 2 3 4 5 6 
#
# 1 0.027853 -0.005092 -0.004929 0.000000 0.000000 0.000000
# 2 -0.005092 0.009835 -0.004754 0.000000 0.000000 0.000000
# 3 -0.004929 -0.004754 0.020124 0.000000 0.000000 0.000000
# 4 0.000000 0.000000 0.000000 0.148573 0.000000 0.000000
# 5 0.000000 0.000000 0.000000 0.000000 0.057465 0.000000
# 6 0.000000 0.000000 0.000000 0.000000 0.000000 0.032339
#
#
# Mechanical properties :
#
#
# Convention : Reuss Voigt Hill
#
# Bulk Modulus (GPa) = 35.38483 47.82879 41.60681
# Shear Modulus (GPa) = 14.91819 21.36902 18.14361
#
# Velocity S-wave (km/s) = 2.83612 3.39436 3.12772
# Velocity P-wave (km/s) = 5.45925 6.41486 5.95625
#
# Compressibility (1/GPa) = 0.02826070
#
# Stress axis : x y z
#
# Youngs Moduli (GPa) = 35.90322 101.67497 49.69098
#
# Poissons Ratio (x) = 0.51776 0.24494
# Poissons Ratio (y) = 0.18283 0.23625
# Poissons Ratio (z) = 0.17697 0.48340
#
# Static dielectric constant tensor:
#      x y z
#    x 3.138610 0.000000 0.000000 
#    y 0.000000 3.842650 0.000000 
#    z 0.000000 0.000000 3.219560 
# 
# 
# High freq. dielectric constant tensor:
#      x y z
#    x 1.699690 0.000000 0.000000 
#    y 0.000000 1.746540 0.000000 
#    z 0.000000 0.000000 1.677430 
# 
# From -- ./inp_files/15824.got.cif
#   From: 2010.03.12/outbox.cif.g09.slc.cpg/sg36_8_cif.got.tgz:15824.got - 2010.04.14 02:13:53.
