data_PCOD8174800
_publ_section_title
;
Structure prediction by ZEFSAII (Michael W. Deem and Ramdas Pophale) SiO2 
 PCOD8174800
Probable space group: C M C 21
;
_chemical_formula_sum "Si O2"
_cell_formula_units_Z 64
_cell_length_a 8.941913
_cell_length_b 15.487054
_cell_length_c 23.903445
_cell_angle_alpha 90.000000
_cell_angle_beta 90.000000
_cell_angle_gamma 90.000000
_cell_volume 3310.242036
_symmetry_space_group_name_H-M "C M C 21"
_symmetry_group_IT_number 36
_symmetry_cell_setting 'orthorhombic'
loop_
_space_group_symop_operation_xyz
x,y,z
-x,-y,1/2+z
x,-y,1/2+z
-x,y,z
1/2+x,1/2+y,z
1/2-x,1/2-y,1/2+z
1/2+x,1/2-y,1/2+z
1/2-x,1/2+y,z
loop_
_atom_site_type_symbol
_atom_site_label
_atom_site_fract_x
_atom_site_fract_y
_atom_site_fract_z
Si Si1 0.173566 0.148967 0.443710
Si Si2 0.321719 0.750000 0.637591
Si Si3 0.173566 0.648967 0.943710
Si Si4 0.823014 0.412570 0.834176
Si Si5 0.322239 0.750000 0.763688
Si Si6 0.323014 0.412570 0.334177
Si Si7 0.176393 0.411096 0.566351
Si Si8 0.823607 0.088904 0.566351
O O1 0.208311 0.250000 0.443968
O O2 0.274208 0.102091 0.397910
O O3 0.222390 0.110094 0.502983
O O4 0.000000 0.130864 0.430872
O O5 0.500000 0.750000 0.636322
O O6 0.259079 0.750000 0.700743
O O7 0.261673 0.835132 0.606193
O O8 0.261673 0.664868 0.606193
O O9 0.274208 0.602091 0.897910
O O10 0.000000 0.630864 0.930872
O O11 0.222390 0.610094 0.002983
O O12 0.762613 0.334495 0.795813
O O13 0.750000 0.500000 0.810598
O O14 0.000000 0.420794 0.831516
O O15 0.500000 0.750000 0.763591
O O16 0.262613 0.665505 0.795814
O O17 0.500000 0.420794 0.331516
O O18 0.250000 0.500000 0.586177
O O19 0.000000 0.419322 0.572395
O O20 0.000000 0.080678 0.572395
#
# Coordination Sequence:
#
# PCOD8174800 Si02
#       8
#     8   8   8   8   8   8   8   8
#     4  10  19  34  57  84 112 144 180 222 273 328
#     4   9  18  37  59  77 105 147 184 221 270 324
#     4  10  19  34  57  84 112 144 180 222 273 328
#     4  11  22  37  56  83 112 145 184 224 272 326
#     4   9  20  37  57  79 107 143 186 227 270 322
#     4  11  22  37  56  83 112 145 184 224 272 326
#     4  10  20  35  57  83 110 142 180 220 269 325
#     4  10  20  35  57  83 110 142 180 220 269 325
#
# _framework density 19.333932999999998
#
# number of rings (size 3 to 8) (size 9 to 14) (size 15 to 20)
#    0.000    2.000    2.500    1.500    0.000    4.000 
#    0.000    0.625    0.000    4.500    0.000    0.000 
#    0.000    0.000    0.000    0.000    0.000    0.000 
#
# Total GULP energy -396908.295629 kJ/mol
# GULP energy per Si atom -12403.384238 kJ/mol
# Density = 1.928993 g / cm^3
# Si number density = 19.333933 Si / 1000 Ang^3
#
#
#
# Elastic Constant Matrix: (Units=GPa)
#
#
# Indices 1 2 3 4 5 6 
#
# 1 40.4144 40.0099 31.0294 0.0000 0.0000 0.0000
# 2 40.0099 187.3401 84.2660 0.0000 0.0000 0.0000
# 3 31.0294 84.2660 146.0426 0.0000 0.0000 0.0000
# 4 0.0000 0.0000 0.0000 14.8805 0.0000 0.0000
# 5 0.0000 0.0000 0.0000 0.0000 19.5270 0.0000
# 6 0.0000 0.0000 0.0000 0.0000 0.0000 31.8025
#
#
#
# Elastic Compliance Matrix: (Units=1/GPa)
#
#
# Indices 1 2 3 4 5 6 
#
# 1 0.033005 -0.005260 -0.003978 0.000000 0.000000 0.000000
# 2 -0.005260 0.008047 -0.003526 0.000000 0.000000 0.000000
# 3 -0.003978 -0.003526 0.009727 0.000000 0.000000 0.000000
# 4 0.000000 0.000000 0.000000 0.067202 0.000000 0.000000
# 5 0.000000 0.000000 0.000000 0.000000 0.051211 0.000000
# 6 0.000000 0.000000 0.000000 0.000000 0.000000 0.031444
#
#
# Mechanical properties :
#
#
# Convention : Reuss Voigt Hill
#
# Bulk Modulus (GPa) = 39.59993 76.04530 57.82262
# Shear Modulus (GPa) = 21.31481 27.80812 24.56146
#
# Velocity S-wave (km/s) = 3.32393 3.79662 3.56811
# Velocity P-wave (km/s) = 5.93783 7.65748 6.85182
#
# Compressibility (1/GPa) = 0.02525257
#
# Stress axis : x y z
#
# Youngs Moduli (GPa) = 30.29887 124.27037 102.80987
#
# Poissons Ratio (x) = 0.65361 0.40894
# Poissons Ratio (y) = 0.15936 0.36246
# Poissons Ratio (z) = 0.12052 0.43812
#
# Static dielectric constant tensor:
#      x y z
#    x 3.156110 0.000000 0.000000 
#    y 0.000000 3.784950 0.000000 
#    z 0.000000 0.000000 3.628890 
# 
# 
# High freq. dielectric constant tensor:
#      x y z
#    x 1.720050 0.000000 0.000000 
#    y 0.000000 1.772730 0.000000 
#    z 0.000000 0.000000 1.750650 
# 
# From -- ./inp_files/16647.got.cif
#   From: 2010.03.12/outbox.cif.g09.slc.cpg/sg36_9_cif.got.tgz:16647.got - 2010.04.14 02:13:53.
