data_PCOD8174546
_publ_section_title
;
Structure prediction by ZEFSAII (Michael W. Deem and Ramdas Pophale) SiO2 
 PCOD8174546
Probable space group: C M C 21
;
_chemical_formula_sum "Si O2"
_cell_formula_units_Z 64
_cell_length_a 9.046481
_cell_length_b 24.653442
_cell_length_c 14.602818
_cell_angle_alpha 90.000000
_cell_angle_beta 90.000000
_cell_angle_gamma 90.000000
_cell_volume 3256.821151
_symmetry_space_group_name_H-M "C M C 21"
_symmetry_group_IT_number 36
_symmetry_cell_setting 'orthorhombic'
loop_
_space_group_symop_operation_xyz
x,y,z
-x,-y,1/2+z
x,-y,1/2+z
-x,y,z
1/2+x,1/2+y,z
1/2-x,1/2-y,1/2+z
1/2+x,1/2-y,1/2+z
1/2-x,1/2+y,z
loop_
_atom_site_type_symbol
_atom_site_label
_atom_site_fract_x
_atom_site_fract_y
_atom_site_fract_z
Si Si1 0.334375 0.599589 0.346430
Si Si2 0.334445 0.429023 0.650036
Si Si3 0.326618 0.550296 0.630073
Si Si4 0.329690 0.099952 0.975328
Si Si5 0.668653 0.978456 0.951309
Si Si6 0.323688 0.161668 0.658630
Si Si7 0.674074 0.300015 0.972354
Si Si8 0.824582 0.302694 0.356831
O O1 0.500000 0.580508 0.373253
O O2 0.327830 0.610045 0.237904
O O3 0.212448 0.552667 0.359517
O O4 0.287637 0.651880 0.403076
O O5 0.500000 0.434105 0.610946
O O6 0.281718 0.491285 0.672226
O O7 0.238597 0.397752 0.575842
O O8 0.500000 0.563095 0.639419
O O9 0.280833 0.547546 0.524107
O O10 0.237229 0.600443 0.674114
O O11 0.500000 0.113100 0.989129
O O12 0.259330 0.143835 0.906828
O O13 0.301413 0.041241 0.931752
O O14 0.500000 0.968032 0.981509
O O15 0.500000 0.158682 0.647739
O O16 0.256334 0.191263 0.569167
O O17 0.276725 0.196164 0.749537
O O18 0.500000 0.295794 0.993042
O O19 0.735016 0.247877 0.916607
O O20 0.000000 0.302178 0.359284
#
# Coordination Sequence:
#
# PCOD8174546 Si02
#       8
#     8   8   8   8   8   8   8   8
#     4  10  20  34  54  81 114 152 191 231 282 342
#     4   9  20  35  53  82 118 155 193 234 282 342
#     4  10  19  34  54  79 115 153 189 231 287 344
#     4   9  19  37  56  79 112 149 189 234 287 340
#     4  10  19  31  53  82 112 146 187 236 284 334
#     4  11  22  37  60  87 114 144 189 243 285 338
#     4  10  21  40  62  81 112 156 195 231 284 343
#     4   9  21  40  60  83 113 153 193 234 289 343
#
# _framework density 19.651064000000002
#
# number of rings (size 3 to 8) (size 9 to 14) (size 15 to 20)
#    0.000    2.250    1.250    1.125    1.750    2.500 
#    0.000    4.375    0.000    0.000    0.000    0.000 
#    0.000    0.000    0.000    0.000    0.000    0.000 
#
# Total GULP energy -396572.682009 kJ/mol
# GULP energy per Si atom -12392.896313 kJ/mol
# Density = 1.960634 g / cm^3
# Si number density = 19.651064 Si / 1000 Ang^3
#
#
#
# Elastic Constant Matrix: (Units=GPa)
#
#
# Indices 1 2 3 4 5 6 
#
# 1 55.4381 42.3649 44.2621 0.0000 0.0000 0.0000
# 2 42.3649 111.2473 82.2778 0.0000 0.0000 0.0000
# 3 44.2621 82.2778 137.5889 0.0000 0.0000 0.0000
# 4 0.0000 0.0000 0.0000 27.5513 0.0000 0.0000
# 5 0.0000 0.0000 0.0000 0.0000 28.8077 0.0000
# 6 0.0000 0.0000 0.0000 0.0000 0.0000 19.8338
#
#
#
# Elastic Compliance Matrix: (Units=1/GPa)
#
#
# Indices 1 2 3 4 5 6 
#
# 1 0.026935 -0.006901 -0.004538 0.000000 0.000000 0.000000
# 2 -0.006901 0.017885 -0.008475 0.000000 0.000000 0.000000
# 3 -0.004538 -0.008475 0.013796 0.000000 0.000000 0.000000
# 4 0.000000 0.000000 0.000000 0.036296 0.000000 0.000000
# 5 0.000000 0.000000 0.000000 0.000000 0.034713 0.000000
# 6 0.000000 0.000000 0.000000 0.000000 0.000000 0.050419
#
#
# Mechanical properties :
#
#
# Convention : Reuss Voigt Hill
#
# Bulk Modulus (GPa) = 53.22667 71.34266 62.28466
# Shear Modulus (GPa) = 22.11061 24.26320 23.18690
#
# Velocity S-wave (km/s) = 3.35798 3.51764 3.43874
# Velocity P-wave (km/s) = 6.49457 7.27200 6.89425
#
# Compressibility (1/GPa) = 0.01878758
#
# Stress axis : x y z
#
# Youngs Moduli (GPa) = 37.12641 55.91193 72.48359
#
# Poissons Ratio (x) = 0.38584 0.32895
# Poissons Ratio (y) = 0.25620 0.61432
# Poissons Ratio (z) = 0.16849 0.47387
#
# Static dielectric constant tensor:
#      x y z
#    x 3.438480 0.000000 0.000000 
#    y 0.000000 3.717310 0.000000 
#    z 0.000000 0.000000 3.587660 
# 
# 
# High freq. dielectric constant tensor:
#      x y z
#    x 1.749690 0.000000 0.000000 
#    y 0.000000 1.760970 0.000000 
#    z 0.000000 0.000000 1.766390 
# 
# From -- ./inp_files/10937.got.cif
#   From: 2010.03.12/outbox.cif.g09.slc.cpg/sg36_6_cif.got.tgz:10937.got - 2010.04.14 02:13:53.
