data_PCOD8174318
_publ_section_title
;
Structure prediction by ZEFSAII (Michael W. Deem and Ramdas Pophale) SiO2 
 PCOD8174318
Probable space group: C M C 21
;
_chemical_formula_sum "Si O2"
_cell_formula_units_Z 64
_cell_length_a 8.890342
_cell_length_b 24.741237
_cell_length_c 14.692259
_cell_angle_alpha 90.000000
_cell_angle_beta 90.000000
_cell_angle_gamma 90.000000
_cell_volume 3231.680764
_symmetry_space_group_name_H-M "C M C 21"
_symmetry_group_IT_number 36
_symmetry_cell_setting 'orthorhombic'
loop_
_space_group_symop_operation_xyz
x,y,z
-x,-y,1/2+z
x,-y,1/2+z
-x,y,z
1/2+x,1/2+y,z
1/2-x,1/2-y,1/2+z
1/2+x,1/2-y,1/2+z
1/2-x,1/2+y,z
loop_
_atom_site_type_symbol
_atom_site_label
_atom_site_fract_x
_atom_site_fract_y
_atom_site_fract_z
Si Si1 0.329366 0.262663 0.800820
Si Si2 0.678567 0.492845 0.190014
Si Si3 0.826419 0.805779 0.992681
Si Si4 0.833086 0.050797 0.874468
Si Si5 0.321051 0.586068 0.061810
Si Si6 0.676423 0.109413 0.608139
Si Si7 0.323080 0.706298 0.097728
Si Si8 0.833501 0.159673 0.771490
O O1 0.500000 0.241108 0.798965
O O2 0.306795 0.304069 0.883734
O O3 0.287471 0.290038 0.705099
O O4 0.218303 0.213328 0.822780
O O5 0.500000 0.482390 0.193013
O O6 0.745045 0.484671 0.293402
O O7 0.746501 0.448587 0.121680
O O8 0.721286 0.552068 0.152584
O O9 0.000000 0.810236 0.020895
O O10 0.740244 0.860760 0.019189
O O11 0.760942 0.752608 0.041843
O O12 0.752308 0.053545 0.973607
O O13 0.837109 0.112860 0.844951
O O14 0.000000 0.026973 0.887711
O O15 0.500000 0.588269 0.050557
O O16 0.259838 0.647128 0.068615
O O17 0.500000 0.101173 0.598822
O O18 0.714150 0.148884 0.691894
O O19 0.500000 0.711797 0.078345
O O20 0.000000 0.167296 0.729044
#
# Coordination Sequence:
#
# PCOD8174318 Si02
#       8
#     8   8   8   8   8   8   8   8
#     4  10  21  34  50  79 116 147 181 224 278 335
#     4   9  18  34  55  80 106 138 181 229 275 324
#     4  11  22  36  54  82 114 148 186 227 278 336
#     4   8  15  28  49  80 106 131 177 227 265 315
#     4   9  17  32  54  80 109 142 183 224 270 327
#     4  11  21  35  55  77 105 141 182 231 281 326
#     4  10  20  36  56  81 113 150 185 229 280 331
#     4  10  18  31  55  81 107 139 181 227 273 328
#
# _framework density 19.803936
#
# number of rings (size 3 to 8) (size 9 to 14) (size 15 to 20)
#    0.000    2.250    1.250    3.375    0.000    2.000 
#    2.250    0.625    0.000    3.750    0.000    0.000 
#    0.000    0.000    0.000    0.000    0.000    0.000 
#
# Total GULP energy -396576.031865 kJ/mol
# GULP energy per Si atom -12393.000996 kJ/mol
# Density = 1.975886 g / cm^3
# Si number density = 19.803936 Si / 1000 Ang^3
#
#
#
# Elastic Constant Matrix: (Units=GPa)
#
#
# Indices 1 2 3 4 5 6 
#
# 1 56.9196 13.6665 15.1632 0.0000 0.0000 0.0000
# 2 13.6665 54.5153 13.0251 0.0000 0.0000 0.0000
# 3 15.1632 13.0251 101.0851 0.0000 0.0000 0.0000
# 4 0.0000 0.0000 0.0000 21.6649 0.0000 0.0000
# 5 0.0000 0.0000 0.0000 0.0000 16.8738 0.0000
# 6 0.0000 0.0000 0.0000 0.0000 0.0000 22.5486
#
#
#
# Elastic Compliance Matrix: (Units=1/GPa)
#
#
# Indices 1 2 3 4 5 6 
#
# 1 0.019213 -0.004259 -0.002333 0.000000 0.000000 0.000000
# 2 -0.004259 0.019870 -0.001921 0.000000 0.000000 0.000000
# 3 -0.002333 -0.001921 0.010490 0.000000 0.000000 0.000000
# 4 0.000000 0.000000 0.000000 0.046158 0.000000 0.000000
# 5 0.000000 0.000000 0.000000 0.000000 0.059264 0.000000
# 6 0.000000 0.000000 0.000000 0.000000 0.000000 0.044349
#
#
# Mechanical properties :
#
#
# Convention : Reuss Voigt Hill
#
# Bulk Modulus (GPa) = 30.72586 32.91442 31.82014
# Shear Modulus (GPa) = 22.00518 23.59513 22.80016
#
# Velocity S-wave (km/s) = 3.33701 3.45546 3.39675
# Velocity P-wave (km/s) = 5.51328 5.70759 5.61127
#
# Compressibility (1/GPa) = 0.03254588
#
# Stress axis : x y z
#
# Youngs Moduli (GPa) = 52.04862 50.32649 95.32677
#
# Poissons Ratio (x) = 0.21434 0.22242
# Poissons Ratio (y) = 0.22168 0.18317
# Poissons Ratio (z) = 0.12144 0.09670
#
# Static dielectric constant tensor:
#      x y z
#    x 3.331060 0.000000 0.000000 
#    y 0.000000 3.520520 0.000000 
#    z 0.000000 0.000000 3.826510 
# 
# 
# High freq. dielectric constant tensor:
#      x y z
#    x 1.737580 0.000000 0.000000 
#    y 0.000000 1.759640 0.000000 
#    z 0.000000 0.000000 1.780540 
# 
# From -- ./inp_files/10959.got.cif
#   From: 2010.03.12/outbox.cif.g09.slc.cpg/sg36_6_cif.got.tgz:10959.got - 2010.04.14 02:13:53.
