data_PCOD8174476
_publ_section_title
;
Structure prediction by ZEFSAII (Michael W. Deem and Ramdas Pophale) SiO2 
 PCOD8174476
Probable space group: C M C 21
;
_chemical_formula_sum "Si O2"
_cell_formula_units_Z 56
_cell_length_a 29.398480
_cell_length_b 13.464902
_cell_length_c 9.123600
_cell_angle_alpha 90.000000
_cell_angle_beta 90.000000
_cell_angle_gamma 90.000000
_cell_volume 3611.555639
_symmetry_space_group_name_H-M "C M C 21"
_symmetry_group_IT_number 36
_symmetry_cell_setting 'orthorhombic'
loop_
_space_group_symop_operation_xyz
x,y,z
-x,-y,1/2+z
x,-y,1/2+z
-x,y,z
1/2+x,1/2+y,z
1/2-x,1/2-y,1/2+z
1/2+x,1/2-y,1/2+z
1/2-x,1/2+y,z
loop_
_atom_site_type_symbol
_atom_site_label
_atom_site_fract_x
_atom_site_fract_y
_atom_site_fract_z
Si Si1 0.598804 0.378498 0.832350
Si Si2 0.000000 0.931463 0.522661
Si Si3 0.227117 0.616192 0.308593
Si Si4 0.729618 0.911400 0.470392
Si Si5 0.401879 0.583508 0.996130
Si Si6 0.000000 0.879756 0.846888
Si Si7 0.184319 0.240783 0.301097
Si Si8 0.318883 0.288006 0.464436
O O1 0.607185 0.419741 0.669359
O O2 0.548992 0.323181 0.851296
O O3 0.636948 0.297602 0.869207
O O4 0.604633 0.472037 0.939096
O O5 0.046202 0.878614 0.463801
O O6 0.000000 0.941328 0.696899
O O7 0.000000 0.046039 0.481434
O O8 0.223669 0.521865 0.412622
O O9 0.277016 0.660382 0.335804
O O10 0.189414 0.697679 0.353234
O O11 0.217506 0.587751 0.141489
O O12 0.694383 0.843666 0.381399
O O13 0.780731 0.872720 0.445696
O O14 0.366897 0.660883 0.922708
O O15 0.181096 0.258025 0.127203
#
# Coordination Sequence:
#
# PCOD8174476 Si02
#       8
#     8   4   8   8   8   4   8   8
#     4   9  16  26  41  61  86 113 139 168 201 240
#     4   8  14  24  38  58  83 110 137 164 199 240
#     4  10  19  30  44  61  83 110 139 172 206 241
#     4  10  19  30  44  61  83 110 139 172 206 241
#     4   9  16  26  41  61  86 113 139 168 201 240
#     4   8  14  24  38  58  83 110 137 164 199 240
#     4   9  18  30  43  61  84 111 141 169 201 242
#     4   9  18  30  43  61  84 111 141 169 201 242
#
# _framework density 15.505784
#
# number of rings (size 3 to 8) (size 9 to 14) (size 15 to 20)
#    0.000    2.857    0.000    1.714    0.000    2.286 
#    0.000    0.000    0.000    0.000    0.000    1.000 
#    0.000    0.000    0.000    0.000    0.000    0.000 
#
# Total GULP energy -346992.617267 kJ/mol
# GULP energy per Si atom -12392.593474 kJ/mol
# Density = 1.547049 g / cm^3
# Si number density = 15.505784 Si / 1000 Ang^3
#
#
#
# Elastic Constant Matrix: (Units=GPa)
#
#
# Indices 1 2 3 4 5 6 
#
# 1 99.8529 24.7493 15.2381 0.0000 0.0000 0.0000
# 2 24.7493 56.0135 18.3299 0.0000 0.0000 0.0000
# 3 15.2381 18.3299 38.0232 0.0000 0.0000 0.0000
# 4 0.0000 0.0000 0.0000 26.1428 0.0000 0.0000
# 5 0.0000 0.0000 0.0000 0.0000 18.2180 0.0000
# 6 0.0000 0.0000 0.0000 0.0000 0.0000 22.8064
#
#
#
# Elastic Compliance Matrix: (Units=1/GPa)
#
#
# Indices 1 2 3 4 5 6 
#
# 1 0.011451 -0.004224 -0.002553 0.000000 0.000000 0.000000
# 2 -0.004224 0.022755 -0.009277 0.000000 0.000000 0.000000
# 3 -0.002553 -0.009277 0.031795 0.000000 0.000000 0.000000
# 4 0.000000 0.000000 0.000000 0.038252 0.000000 0.000000
# 5 0.000000 0.000000 0.000000 0.000000 0.054891 0.000000
# 6 0.000000 0.000000 0.000000 0.000000 0.000000 0.043847
#
#
# Mechanical properties :
#
#
# Convention : Reuss Voigt Hill
#
# Bulk Modulus (GPa) = 29.50404 34.50268 32.00336
# Shear Modulus (GPa) = 20.29253 22.47158 21.38206
#
# Velocity S-wave (km/s) = 3.62153 3.81102 3.71748
# Velocity P-wave (km/s) = 6.04619 6.45484 6.25385
#
# Compressibility (1/GPa) = 0.03389366
#
# Stress axis : x y z
#
# Youngs Moduli (GPa) = 87.32605 43.94631 31.45176
#
# Poissons Ratio (x) = 0.18564 0.08029
# Poissons Ratio (y) = 0.36890 0.29177
# Poissons Ratio (z) = 0.22292 0.40767
#
# Static dielectric constant tensor:
#      x y z
#    x 3.312520 0.000000 0.000000 
#    y 0.000000 2.662550 0.000000 
#    z 0.000000 0.000000 3.012440 
# 
# 
# High freq. dielectric constant tensor:
#      x y z
#    x 1.598680 0.000000 0.000000 
#    y 0.000000 1.556570 0.000000 
#    z 0.000000 0.000000 1.601150 
# 
# From -- ./inp_files/6059.got.cif
#   From: 2010.03.12/outbox.cif.g09.slc.cpg/sg36_4_cif.got.tgz:6059.got - 2010.04.14 02:13:53.
