data_PCOD8174681
_publ_section_title
;
Structure prediction by ZEFSAII (Michael W. Deem and Ramdas Pophale) SiO2 
 PCOD8174681
Probable space group: C M C 21
;
_chemical_formula_sum "Si O2"
_cell_formula_units_Z 64
_cell_length_a 8.934527
_cell_length_b 22.640850
_cell_length_c 16.684411
_cell_angle_alpha 90.000000
_cell_angle_beta 90.000000
_cell_angle_gamma 90.000000
_cell_volume 3375.010845
_symmetry_space_group_name_H-M "C M C 21"
_symmetry_group_IT_number 36
_symmetry_cell_setting 'orthorhombic'
loop_
_space_group_symop_operation_xyz
x,y,z
-x,-y,1/2+z
x,-y,1/2+z
-x,y,z
1/2+x,1/2+y,z
1/2-x,1/2-y,1/2+z
1/2+x,1/2-y,1/2+z
1/2-x,1/2+y,z
loop_
_atom_site_type_symbol
_atom_site_label
_atom_site_fract_x
_atom_site_fract_y
_atom_site_fract_z
Si Si1 0.170506 0.099608 0.984470
Si Si2 0.337760 0.700324 0.865336
Si Si3 0.320738 0.783183 0.103255
Si Si4 0.322043 0.652932 0.147048
Si Si5 0.823168 0.906633 0.812453
Si Si6 0.678600 0.030931 0.844961
Si Si7 0.327510 0.863339 0.240717
Si Si8 0.168038 0.674913 0.432675
O O1 0.182693 0.165848 0.949040
O O2 0.266228 0.052539 0.932848
O O3 0.000000 0.076444 0.983981
O O4 0.230050 0.107735 0.075987
O O5 0.500000 0.681055 0.828659
O O6 0.199936 0.686238 0.807817
O O7 0.338121 0.769716 0.874678
O O8 0.500000 0.780095 0.104731
O O9 0.257035 0.719259 0.131817
O O10 0.257926 0.836473 0.159514
O O11 0.262665 0.802294 0.016142
O O12 0.500000 0.656551 0.145788
O O13 0.265795 0.627333 0.232429
O O14 0.777232 0.872470 0.892999
O O15 0.000000 0.915273 0.810649
O O16 0.744025 0.969271 0.817823
O O17 0.500000 0.028569 0.847985
O O18 0.740299 0.075678 0.775591
O O19 0.500000 0.873442 0.226608
O O20 0.000000 0.648320 0.443605
#
# Coordination Sequence:
#
# PCOD8174681 Si02
#       8
#     8   8   8   8   8   8   8   8
#     4   9  16  32  58  83 106 138 182 225 263 319
#     4   9  16  28  51  80 108 139 171 210 266 323
#     4   9  16  31  55  83 111 141 176 213 266 332
#     4   9  17  32  57  85 110 141 182 224 270 330
#     4  11  23  38  56  79 109 148 188 229 275 323
#     4  10  21  38  55  76 108 145 187 230 274 322
#     4   9  18  32  54  79 104 138 178 221 263 315
#     4  10  19  33  54  79 112 146 176 216 269 328
#
# _framework density 18.962902
#
# number of rings (size 3 to 8) (size 9 to 14) (size 15 to 20)
#    0.000    2.500    1.250    1.500    0.000    2.000 
#    2.250    1.875    0.000    2.250    0.000    0.000 
#    0.000    0.000    0.000    0.000    0.000    0.000 
#
# Total GULP energy -396494.046823 kJ/mol
# GULP energy per Si atom -12390.438963 kJ/mol
# Density = 1.891974 g / cm^3
# Si number density = 18.962902 Si / 1000 Ang^3
#
#
#
# Elastic Constant Matrix: (Units=GPa)
#
#
# Indices 1 2 3 4 5 6 
#
# 1 37.8104 33.3115 24.1660 0.0000 0.0000 0.0000
# 2 33.3115 119.5860 77.5758 0.0000 0.0000 0.0000
# 3 24.1660 77.5758 122.6906 0.0000 0.0000 0.0000
# 4 0.0000 0.0000 0.0000 27.5985 0.0000 0.0000
# 5 0.0000 0.0000 0.0000 0.0000 21.4755 0.0000
# 6 0.0000 0.0000 0.0000 0.0000 0.0000 18.6014
#
#
#
# Elastic Compliance Matrix: (Units=1/GPa)
#
#
# Indices 1 2 3 4 5 6 
#
# 1 0.035161 -0.008988 -0.001242 0.000000 0.000000 0.000000
# 2 -0.008988 0.016475 -0.008647 0.000000 0.000000 0.000000
# 3 -0.001242 -0.008647 0.013862 0.000000 0.000000 0.000000
# 4 0.000000 0.000000 0.000000 0.036234 0.000000 0.000000
# 5 0.000000 0.000000 0.000000 0.000000 0.046565 0.000000
# 6 0.000000 0.000000 0.000000 0.000000 0.000000 0.053759
#
#
# Mechanical properties :
#
#
# Convention : Reuss Voigt Hill
#
# Bulk Modulus (GPa) = 36.04424 61.13262 48.58843
# Shear Modulus (GPa) = 20.07564 23.20399 21.63981
#
# Velocity S-wave (km/s) = 3.25727 3.50187 3.38178
# Velocity P-wave (km/s) = 5.76154 6.97558 6.39743
#
# Compressibility (1/GPa) = 0.02774369
#
# Stress axis : x y z
#
# Youngs Moduli (GPa) = 28.44088 60.69800 72.13781
#
# Poissons Ratio (x) = 0.54558 0.08961
# Poissons Ratio (y) = 0.25564 0.62374
# Poissons Ratio (z) = 0.03533 0.52483
#
# Static dielectric constant tensor:
#      x y z
#    x 3.258120 0.000000 0.000000 
#    y 0.000000 3.462450 0.000000 
#    z 0.000000 0.000000 3.675560 
# 
# 
# High freq. dielectric constant tensor:
#      x y z
#    x 1.703440 0.000000 0.000000 
#    y 0.000000 1.730980 0.000000 
#    z 0.000000 0.000000 1.739290 
# 
# From -- ./inp_files/13955.got.cif
#   From: 2010.03.12/outbox.cif.g09.slc.cpg/sg36_7_cif.got.tgz:13955.got - 2010.04.14 02:13:53.
