data_PCOD8174359
_publ_section_title
;
Structure prediction by ZEFSAII (Michael W. Deem and Ramdas Pophale) SiO2 
 PCOD8174359
Probable space group: C M C 21
;
_chemical_formula_sum "Si O2"
_cell_formula_units_Z 64
_cell_length_a 8.888422
_cell_length_b 24.376074
_cell_length_c 14.607665
_cell_angle_alpha 90.000000
_cell_angle_beta 90.000000
_cell_angle_gamma 90.000000
_cell_volume 3164.967289
_symmetry_space_group_name_H-M "C M C 21"
_symmetry_group_IT_number 36
_symmetry_cell_setting 'orthorhombic'
loop_
_space_group_symop_operation_xyz
x,y,z
-x,-y,1/2+z
x,-y,1/2+z
-x,y,z
1/2+x,1/2+y,z
1/2-x,1/2-y,1/2+z
1/2+x,1/2-y,1/2+z
1/2-x,1/2+y,z
loop_
_atom_site_type_symbol
_atom_site_label
_atom_site_fract_x
_atom_site_fract_y
_atom_site_fract_z
Si Si1 0.677968 0.409813 0.872590
Si Si2 0.327301 0.689427 0.801106
Si Si3 0.178017 0.703796 0.415555
Si Si4 0.673634 0.732227 0.605160
Si Si5 0.831786 0.839017 0.588170
Si Si6 0.822638 0.995657 0.502684
Si Si7 0.166116 0.951583 0.687656
Si Si8 0.177126 0.392771 0.421353
O O1 0.500000 0.399943 0.859293
O O2 0.760626 0.352076 0.871303
O O3 0.709571 0.443013 0.966876
O O4 0.741526 0.448374 0.788482
O O5 0.500000 0.678860 0.827850
O O6 0.270926 0.744708 0.853104
O O7 0.308384 0.692588 0.691890
O O8 0.229329 0.636108 0.827580
O O9 0.243599 0.707673 0.517348
O O10 0.000000 0.699478 0.420384
O O11 0.500000 0.741643 0.580359
O O12 0.749889 0.788755 0.637462
O O13 0.838822 0.888548 0.657825
O O14 0.733576 0.852059 0.499660
O O15 0.000000 0.822078 0.556467
O O16 0.754195 0.987386 0.606442
O O17 0.749289 0.952733 0.432576
O O18 0.000000 0.981846 0.506047
O O19 0.000000 0.976478 0.699866
O O20 0.000000 0.399294 0.424061
#
# Coordination Sequence:
#
# PCOD8174359 Si02
#       8
#     8   8   8   8   8   8   8   8
#     4  10  20  37  60  84 113 152 199 242 286 348
#     4  10  22  39  58  83 118 157 194 235 292 351
#     4  11  23  39  59  84 121 159 188 236 299 349
#     4  11  22  36  56  85 116 152 197 236 283 353
#     4  10  18  32  55  81 114 149 186 237 292 338
#     4   9  19  37  59  82 113 150 190 242 298 342
#     4   8  16  32  56  84 109 144 194 239 284 341
#     4  11  21  34  57  83 110 145 192 241 286 342
#
# _framework density 20.221378000000001
#
# number of rings (size 3 to 8) (size 9 to 14) (size 15 to 20)
#    0.000    2.000    1.250    3.750    0.000    2.000 
#    2.250    2.500    0.000    0.000    0.000    0.000 
#    0.000    0.000    0.000    0.000    0.000    0.000 
#
# Total GULP energy -396622.809143 kJ/mol
# GULP energy per Si atom -12394.462786 kJ/mol
# Density = 2.017535 g / cm^3
# Si number density = 20.221378 Si / 1000 Ang^3
#
#
#
# Elastic Constant Matrix: (Units=GPa)
#
#
# Indices 1 2 3 4 5 6 
#
# 1 70.2525 17.3641 18.0894 0.0000 0.0000 0.0000
# 2 17.3641 47.3351 13.5867 0.0000 0.0000 0.0000
# 3 18.0894 13.5867 97.6436 0.0000 0.0000 0.0000
# 4 0.0000 0.0000 0.0000 23.4218 0.0000 0.0000
# 5 0.0000 0.0000 0.0000 0.0000 21.8524 0.0000
# 6 0.0000 0.0000 0.0000 0.0000 0.0000 28.6052
#
#
#
# Elastic Compliance Matrix: (Units=1/GPa)
#
#
# Indices 1 2 3 4 5 6 
#
# 1 0.016116 -0.005265 -0.002253 0.000000 0.000000 0.000000
# 2 -0.005265 0.023725 -0.002326 0.000000 0.000000 0.000000
# 3 -0.002253 -0.002326 0.010982 0.000000 0.000000 0.000000
# 4 0.000000 0.000000 0.000000 0.042695 0.000000 0.000000
# 5 0.000000 0.000000 0.000000 0.000000 0.045762 0.000000
# 6 0.000000 0.000000 0.000000 0.000000 0.000000 0.034959
#
#
# Mechanical properties :
#
#
# Convention : Reuss Voigt Hill
#
# Bulk Modulus (GPa) = 32.11792 34.81240 33.46516
# Shear Modulus (GPa) = 24.47320 25.85527 25.16423
#
# Velocity S-wave (km/s) = 3.48266 3.57965 3.53149
# Velocity P-wave (km/s) = 5.66476 5.85988 5.76315
#
# Compressibility (1/GPa) = 0.03113526
#
# Stress axis : x y z
#
# Youngs Moduli (GPa) = 62.05065 42.14966 91.05529
#
# Poissons Ratio (x) = 0.22193 0.20515
# Poissons Ratio (y) = 0.32671 0.21178
# Poissons Ratio (z) = 0.13980 0.09803
#
# Static dielectric constant tensor:
#      x y z
#    x 3.538980 0.000000 0.000000 
#    y 0.000000 3.545730 0.000000 
#    z 0.000000 0.000000 3.894940 
# 
# 
# High freq. dielectric constant tensor:
#      x y z
#    x 1.769480 0.000000 0.000000 
#    y 0.000000 1.776950 0.000000 
#    z 0.000000 0.000000 1.797200 
# 
# From -- ./inp_files/11045.got.cif
#   From: 2010.03.12/outbox.cif.g09.slc.cpg/sg36_6_cif.got.tgz:11045.got - 2010.04.14 02:13:53.
