data_PCOD8174639
_publ_section_title
;
Structure prediction by ZEFSAII (Michael W. Deem and Ramdas Pophale) SiO2 
 PCOD8174639
Probable space group: C M C 21
;
_chemical_formula_sum "Si O2"
_cell_formula_units_Z 64
_cell_length_a 9.188638
_cell_length_b 16.308598
_cell_length_c 20.771464
_cell_angle_alpha 90.000000
_cell_angle_beta 90.000000
_cell_angle_gamma 90.000000
_cell_volume 3112.682881
_symmetry_space_group_name_H-M "C M C 21"
_symmetry_group_IT_number 36
_symmetry_cell_setting 'orthorhombic'
loop_
_space_group_symop_operation_xyz
x,y,z
-x,-y,1/2+z
x,-y,1/2+z
-x,y,z
1/2+x,1/2+y,z
1/2-x,1/2-y,1/2+z
1/2+x,1/2-y,1/2+z
1/2-x,1/2+y,z
loop_
_atom_site_type_symbol
_atom_site_label
_atom_site_fract_x
_atom_site_fract_y
_atom_site_fract_z
Si Si1 0.667770 0.918396 0.763360
Si Si2 0.328413 0.728884 0.335790
Si Si3 0.668130 0.898852 0.263859
Si Si4 0.841692 0.176320 0.656981
Si Si5 0.841318 0.929037 0.039497
Si Si6 0.831211 0.561573 0.113253
Si Si7 0.661551 0.709242 0.084708
Si Si8 0.663571 0.819649 0.959082
O O1 0.500000 0.894153 0.774827
O O2 0.766088 0.846586 0.793598
O O3 0.704197 0.925094 0.688003
O O4 0.698460 0.010055 0.794285
O O5 0.500000 0.715189 0.344056
O O6 0.295421 0.820215 0.308450
O O7 0.249503 0.729130 0.404410
O O8 0.500000 0.896297 0.241285
O O9 0.771694 0.893318 0.201759
O O10 0.870708 0.149557 0.583799
O O11 0.726247 0.250017 0.650305
O O12 0.000000 0.204725 0.685241
O O13 0.000000 0.967101 0.020152
O O14 0.744626 0.981996 0.086567
O O15 0.752199 0.903312 0.975422
O O16 0.765824 0.633573 0.069226
O O17 0.000000 0.553765 0.099542
O O18 0.500000 0.679078 0.102960
O O19 0.654418 0.765720 0.022623
O O20 0.500000 0.842153 0.935686
#
# Coordination Sequence:
#
# PCOD8174639 Si02
#       8
#     8   8   8   8   8   8   8   8
#     4  10  22  40  62  90 127 165 206 251 304 375
#     4  11  24  41  63  89 119 160 209 262 311 360
#     4  10  21  39  61  86 120 163 205 248 303 369
#     4  10  19  32  55  86 116 149 190 238 296 358
#     4  10  20  35  58  86 119 153 190 242 299 358
#     4  11  21  35  59  91 124 157 198 248 304 368
#     4  10  21  36  57  84 117 155 195 245 305 365
#     4  10  22  42  63  82 112 158 205 248 300 365
#
# _framework density 20.561040999999999
#
# number of rings (size 3 to 8) (size 9 to 14) (size 15 to 20)
#    0.000    1.750    1.250    3.000    0.000    7.000 
#    2.250    0.000    0.000    0.000    0.000    0.000 
#    0.000    0.000    0.000    0.000    0.000    0.000 
#
# Total GULP energy -396477.919737 kJ/mol
# GULP energy per Si atom -12389.934992 kJ/mol
# Density = 2.051424 g / cm^3
# Si number density = 20.561041 Si / 1000 Ang^3
#
#
#
# Elastic Constant Matrix: (Units=GPa)
#
#
# Indices 1 2 3 4 5 6 
#
# 1 141.1208 49.4158 28.1509 0.0000 0.0000 0.0000
# 2 49.4158 95.9865 17.2727 0.0000 0.0000 0.0000
# 3 28.1509 17.2727 30.3540 0.0000 0.0000 0.0000
# 4 0.0000 0.0000 0.0000 15.0968 0.0000 0.0000
# 5 0.0000 0.0000 0.0000 0.0000 27.7509 0.0000
# 6 0.0000 0.0000 0.0000 0.0000 0.0000 30.4610
#
#
#
# Elastic Compliance Matrix: (Units=1/GPa)
#
#
# Indices 1 2 3 4 5 6 
#
# 1 0.009797 -0.003798 -0.006925 0.000000 0.000000 0.000000
# 2 -0.003798 0.013079 -0.003920 0.000000 0.000000 0.000000
# 3 -0.006925 -0.003920 0.041598 0.000000 0.000000 0.000000
# 4 0.000000 0.000000 0.000000 0.066239 0.000000 0.000000
# 5 0.000000 0.000000 0.000000 0.000000 0.036035 0.000000
# 6 0.000000 0.000000 0.000000 0.000000 0.000000 0.032829
#
#
# Mechanical properties :
#
#
# Convention : Reuss Voigt Hill
#
# Bulk Modulus (GPa) = 28.41906 50.79335 39.60621
# Shear Modulus (GPa) = 20.78203 26.16989 23.47596
#
# Velocity S-wave (km/s) = 3.18267 3.57149 3.38267
# Velocity P-wave (km/s) = 5.23046 6.46256 5.87888
#
# Compressibility (1/GPa) = 0.03518765
#
# Stress axis : x y z
#
# Youngs Moduli (GPa) = 102.06765 76.46012 24.03964
#
# Poissons Ratio (x) = 0.29037 0.16648
# Poissons Ratio (y) = 0.38762 0.09424
# Poissons Ratio (z) = 0.70685 0.29974
#
# Static dielectric constant tensor:
#      x y z
#    x 4.158850 0.000000 0.000000 
#    y 0.000000 3.855230 0.000000 
#    z 0.000000 0.000000 3.438010 
# 
# 
# High freq. dielectric constant tensor:
#      x y z
#    x 1.823250 0.000000 0.000000 
#    y 0.000000 1.803240 0.000000 
#    z 0.000000 0.000000 1.775590 
# 
# From -- ./inp_files/15613.got.cif
#   From: 2010.03.12/outbox.cif.g09.slc.cpg/sg36_8_cif.got.tgz:15613.got - 2010.04.14 02:13:53.
