data_PCOD8174064
_publ_section_title
;
Structure prediction by ZEFSAII (Michael W. Deem and Ramdas Pophale) SiO2 
 PCOD8174064
Probable space group: C M M 2
;
_chemical_formula_sum "Si O2"
_cell_formula_units_Z 54
_cell_length_a 15.967913
_cell_length_b 31.590782
_cell_length_c 4.978030
_cell_angle_alpha 90.000000
_cell_angle_beta 90.000000
_cell_angle_gamma 90.000000
_cell_volume 2511.111771
_symmetry_space_group_name_H-M "C M M 2"
_symmetry_group_IT_number 35
_symmetry_cell_setting 'orthorhombic'
loop_
_space_group_symop_operation_xyz
x,y,z
-x,-y,z
-x,y,z
x,-y,z
1/2+x,1/2+y,z
1/2-x,1/2-y,z
1/2-x,1/2+y,z
1/2+x,1/2-y,z
loop_
_atom_site_type_symbol
_atom_site_label
_atom_site_fract_x
_atom_site_fract_y
_atom_site_fract_z
Si Si1 0.402065 0.548825 0.053390
Si Si2 0.404034 0.689204 0.591547
Si Si3 0.838254 0.903539 0.554258
Si Si4 0.500000 0.000000 0.002986
Si Si5 0.096758 0.328729 0.042485
Si Si6 0.344261 0.262137 0.078627
Si Si7 0.651995 0.876441 0.537615
Si Si8 0.500000 0.939094 0.492099
O O1 0.500000 0.555126 0.998181
O O2 0.375764 0.500000 0.018402
O O3 0.379664 0.562908 0.353355
O O4 0.349514 0.577921 0.851720
O O5 0.500000 0.693145 0.682489
O O6 0.383990 0.641062 0.519448
O O7 0.388778 0.718269 0.335446
O O8 0.345355 0.704113 0.836500
O O9 0.740650 0.898760 0.491739
O O10 0.500000 0.959652 0.189450
O O11 0.500000 0.970279 0.732554
O O12 0.104698 0.279033 0.983486
O O13 0.137338 0.337906 0.331491
O O14 0.000000 0.342273 0.028637
O O15 0.148810 0.356382 0.831869
O O16 0.250000 0.250000 0.152632
O O17 0.583531 0.911645 0.490112
#
# Coordination Sequence:
#
# PCOD8174064 Si02
#       8
#     8   8   8   2   8   8   8   4
#     4  11  24  46  72  99 131 167 213 264 328 397
#     4  12  24  42  65  95 133 175 219 262 328 395
#     4  12  25  44  68 101 131 172 213 272 327 384
#     4  10  24  42  68  90 128 170 214 266 336 386
#     4  12  22  40  65  91 127 178 223 266 318 375
#     4  12  25  42  63  97 132 170 217 277 325 372
#     4  12  24  43  67  97 132 172 226 269 319 388
#     4  11  22  46  64  98 126 180 216 266 330 394
#
# _framework density 21.504418000000001
#
# number of rings (size 3 to 8) (size 9 to 14) (size 15 to 20)
#    0.000    0.296    1.481    8.889    0.000    1.185 
#    8.000    0.000    0.000    0.000    0.000    0.000 
#    0.000    0.000    0.000    0.000    0.000    0.000 
#
# Total GULP energy -334589.362416 kJ/mol
# GULP energy per Si atom -12392.198608 kJ/mol
# Density = 2.145547 g / cm^3
# Si number density = 21.504418 Si / 1000 Ang^3
#
#
#
# Elastic Constant Matrix: (Units=GPa)
#
#
# Indices 1 2 3 4 5 6 
#
# 1 98.3808 54.1908 21.5043 0.0000 0.0000 0.0000
# 2 54.1908 105.5293 21.0592 0.0000 0.0000 0.0000
# 3 21.5043 21.0592 101.4599 0.0000 0.0000 0.0000
# 4 0.0000 0.0000 0.0000 47.5849 0.0000 0.0000
# 5 0.0000 0.0000 0.0000 0.0000 29.7440 0.0000
# 6 0.0000 0.0000 0.0000 0.0000 0.0000 16.5773
#
#
#
# Elastic Compliance Matrix: (Units=1/GPa)
#
#
# Indices 1 2 3 4 5 6 
#
# 1 0.014414 -0.007086 -0.001584 0.000000 0.000000 0.000000
# 2 -0.007086 0.013369 -0.001273 0.000000 0.000000 0.000000
# 3 -0.001584 -0.001273 0.010456 0.000000 0.000000 0.000000
# 4 0.000000 0.000000 0.000000 0.021015 0.000000 0.000000
# 5 0.000000 0.000000 0.000000 0.000000 0.033620 0.000000
# 6 0.000000 0.000000 0.000000 0.000000 0.000000 0.060324
#
#
# Mechanical properties :
#
#
# Convention : Reuss Voigt Hill
#
# Bulk Modulus (GPa) = 54.48762 55.43095 54.95928
# Shear Modulus (GPa) = 27.90168 32.68894 30.29531
#
# Velocity S-wave (km/s) = 3.60597 3.90308 3.75746
# Velocity P-wave (km/s) = 6.53684 6.79298 6.66614
#
# Compressibility (1/GPa) = 0.01835279
#
# Stress axis : x y z
#
# Youngs Moduli (GPa) = 69.37811 74.80214 95.63757
#
# Poissons Ratio (x) = 0.53001 0.15152
# Poissons Ratio (y) = 0.49158 0.12175
# Poissons Ratio (z) = 0.10992 0.09523
#
# Static dielectric constant tensor:
#      x y z
#    x 3.559630 0.000000 0.000000 
#    y 0.000000 3.975870 0.000000 
#    z 0.000000 0.000000 4.027240 
# 
# 
# High freq. dielectric constant tensor:
#      x y z
#    x 1.841650 0.000000 0.000000 
#    y 0.000000 1.866130 0.000000 
#    z 0.000000 0.000000 1.863450 
# 
# From -- ./inp_files/2093.got.cif
#   From: 2010.03.12/outbox.cif.g09.slc.cpg/sg35_2_cif.got.tgz:2093.got - 2010.04.14 02:02:04.
