data_PCOD8174594
_publ_section_title
;
Structure prediction by ZEFSAII (Michael W. Deem and Ramdas Pophale) SiO2 
 PCOD8174594
Probable space group: C M C 21
;
_chemical_formula_sum "Si O2"
_cell_formula_units_Z 64
_cell_length_a 8.856801
_cell_length_b 20.350584
_cell_length_c 19.236627
_cell_angle_alpha 90.000000
_cell_angle_beta 90.000000
_cell_angle_gamma 90.000000
_cell_volume 3467.230286
_symmetry_space_group_name_H-M "C M C 21"
_symmetry_group_IT_number 36
_symmetry_cell_setting 'orthorhombic'
loop_
_space_group_symop_operation_xyz
x,y,z
-x,-y,1/2+z
x,-y,1/2+z
-x,y,z
1/2+x,1/2+y,z
1/2-x,1/2-y,1/2+z
1/2+x,1/2-y,1/2+z
1/2-x,1/2+y,z
loop_
_atom_site_type_symbol
_atom_site_label
_atom_site_fract_x
_atom_site_fract_y
_atom_site_fract_z
Si Si1 0.324135 0.868596 0.134680
Si Si2 0.822218 0.551215 0.997552
Si Si3 0.323806 0.360295 0.273135
Si Si4 0.824750 0.172596 0.924443
Si Si5 0.677613 0.509721 0.128649
Si Si6 0.174709 0.309835 0.988657
Si Si7 0.676761 0.492425 0.781976
Si Si8 0.321224 0.431029 0.920747
O O1 0.500000 0.885937 0.141079
O O2 0.266503 0.833327 0.205705
O O3 0.231996 0.934860 0.120397
O O4 0.293603 0.819145 0.070614
O O5 0.772844 0.612189 0.951342
O O6 0.751554 0.483226 0.972274
O O7 0.000000 0.545054 0.996236
O O8 0.763290 0.559025 0.076583
O O9 0.500000 0.361444 0.253367
O O10 0.293109 0.316603 0.341926
O O11 0.260750 0.433460 0.289494
O O12 0.775727 0.236761 0.966962
O O13 0.000000 0.155119 0.936095
O O14 0.500000 0.511685 0.113793
O O15 0.717138 0.536097 0.206041
O O16 0.272033 0.358524 0.941704
O O17 0.000000 0.322044 0.971002
O O18 0.500000 0.497185 0.792496
O O19 0.741271 0.445803 0.842744
O O20 0.500000 0.437162 0.926037
#
# Coordination Sequence:
#
# PCOD8174594 Si02
#       8
#     8   8   8   8   8   8   8   8
#     4  10  19  32  52  82 115 143 181 233 285 332
#     4  12  23  35  54  85 116 141 182 237 285 330
#     4   9  17  33  56  79 104 142 193 231 271 339
#     4  10  21  40  60  78 109 154 194 229 280 340
#     4  10  19  34  56  81 110 149 189 229 279 335
#     4  10  22  38  56  82 115 149 187 233 280 332
#     4   8  16  31  53  82 107 134 184 232 270 325
#     4  11  20  35  59  83 110 146 184 226 278 337
#
# _framework density 18.458535999999999
#
# number of rings (size 3 to 8) (size 9 to 14) (size 15 to 20)
#    0.000    2.000    2.500    3.000    0.000    1.500 
#    0.000    3.125    0.000    4.500    0.000    0.000 
#    0.000    0.000    0.000    0.000    0.000    0.000 
#
# Total GULP energy -396751.000480 kJ/mol
# GULP energy per Si atom -12398.468765 kJ/mol
# Density = 1.841652 g / cm^3
# Si number density = 18.458536 Si / 1000 Ang^3
#
#
#
# Elastic Constant Matrix: (Units=GPa)
#
#
# Indices 1 2 3 4 5 6 
#
# 1 77.5130 29.0114 38.8678 0.0000 0.0000 0.0000
# 2 29.0114 53.5902 35.1333 0.0000 0.0000 0.0000
# 3 38.8678 35.1333 126.8890 0.0000 0.0000 0.0000
# 4 0.0000 0.0000 0.0000 30.5828 0.0000 0.0000
# 5 0.0000 0.0000 0.0000 0.0000 25.7950 0.0000
# 6 0.0000 0.0000 0.0000 0.0000 0.0000 22.7643
#
#
#
# Elastic Compliance Matrix: (Units=1/GPa)
#
#
# Indices 1 2 3 4 5 6 
#
# 1 0.017237 -0.007172 -0.003294 0.000000 0.000000 0.000000
# 2 -0.007172 0.025782 -0.004942 0.000000 0.000000 0.000000
# 3 -0.003294 -0.004942 0.010258 0.000000 0.000000 0.000000
# 4 0.000000 0.000000 0.000000 0.032698 0.000000 0.000000
# 5 0.000000 0.000000 0.000000 0.000000 0.038767 0.000000
# 6 0.000000 0.000000 0.000000 0.000000 0.000000 0.043928
#
#
# Mechanical properties :
#
#
# Convention : Reuss Voigt Hill
#
# Bulk Modulus (GPa) = 44.51937 51.55746 48.03841
# Shear Modulus (GPa) = 24.15753 26.16040 25.15896
#
# Velocity S-wave (km/s) = 3.62158 3.76873 3.69589
# Velocity P-wave (km/s) = 6.45436 6.85054 6.65540
#
# Compressibility (1/GPa) = 0.02246213
#
# Stress axis : x y z
#
# Youngs Moduli (GPa) = 58.01429 38.78603 97.48213
#
# Poissons Ratio (x) = 0.27816 0.32113
# Poissons Ratio (y) = 0.41606 0.48175
# Poissons Ratio (z) = 0.19111 0.19168
#
# Static dielectric constant tensor:
#      x y z
#    x 3.306930 0.000000 0.000000 
#    y 0.000000 3.115670 0.000000 
#    z 0.000000 0.000000 3.901050 
# 
# 
# High freq. dielectric constant tensor:
#      x y z
#    x 1.708790 0.000000 0.000000 
#    y 0.000000 1.676290 0.000000 
#    z 0.000000 0.000000 1.738450 
# 
# From -- ./inp_files/15699.got.cif
#   From: 2010.03.12/outbox.cif.g09.slc.cpg/sg36_8_cif.got.tgz:15699.got - 2010.04.14 02:13:53.
