data_PCOD8174775
_publ_section_title
;
Structure prediction by ZEFSAII (Michael W. Deem and Ramdas Pophale) SiO2 
 PCOD8174775
Probable space group: C M C 21
;
_chemical_formula_sum "Si O2"
_cell_formula_units_Z 64
_cell_length_a 33.258871
_cell_length_b 19.280676
_cell_length_c 5.165415
_cell_angle_alpha 90.000000
_cell_angle_beta 90.000000
_cell_angle_gamma 90.000000
_cell_volume 3312.340530
_symmetry_space_group_name_H-M "C M C 21"
_symmetry_group_IT_number 36
_symmetry_cell_setting 'orthorhombic'
loop_
_space_group_symop_operation_xyz
x,y,z
-x,-y,1/2+z
x,-y,1/2+z
-x,y,z
1/2+x,1/2+y,z
1/2-x,1/2-y,1/2+z
1/2+x,1/2-y,1/2+z
1/2-x,1/2+y,z
loop_
_atom_site_type_symbol
_atom_site_label
_atom_site_fract_x
_atom_site_fract_y
_atom_site_fract_z
Si Si1 0.760057 0.157998 0.019590
Si Si2 0.786167 0.315858 0.020130
Si Si3 0.096397 0.140119 0.018518
Si Si4 0.876901 0.292769 0.986634
Si Si5 0.171171 0.045027 0.985194
Si Si6 0.424706 0.816716 0.484893
Si Si7 0.546177 0.965884 0.554061
Si Si8 0.453848 0.334056 0.015830
O O1 0.778353 0.234296 0.018780
O O2 0.731658 0.147217 0.267096
O O3 0.733408 0.146118 0.765071
O O4 0.796053 0.104036 0.029896
O O5 0.833705 0.326433 0.032735
O O6 0.126492 0.075785 0.007407
O O7 0.066236 0.138216 0.777244
O O8 0.123210 0.209743 0.021837
O O9 0.070054 0.132954 0.276839
O O10 0.906965 0.325237 0.197313
O O11 0.889278 0.311368 0.694926
O O12 0.177002 0.013911 0.700227
O O13 0.451520 0.883181 0.544767
O O14 0.452935 0.749448 0.503525
O O15 0.500000 0.988950 0.560512
O O16 0.567583 0.002713 0.308952
O O17 0.500000 0.358501 0.007503
#
# Coordination Sequence:
#
# PCOD8174775 Si02
#       8
#     8   8   8   8   8   8   8   8
#     4  10  21  35  58  87 109 146 181 227 276 326
#     4  10  19  35  59  84 116 137 179 233 281 321
#     4  10  21  37  56  86 115 143 192 227 286 340
#     4  10  19  34  56  83 114 141 177 239 275 327
#     4  12  24  40  62  85 119 153 187 232 277 336
#     4  10  20  32  54  82 111 144 185 229 281 335
#     4  10  20  34  52  73 104 142 184 231 268 322
#     4  10  20  35  59  84 114 146 179 242 296 337
#
# _framework density 19.321683
#
# number of rings (size 3 to 8) (size 9 to 14) (size 15 to 20)
#    0.000    1.750    1.250    3.750    0.000    0.000 
#    0.000    3.750    0.000   22.500    0.000    0.000 
#    0.000    0.000    0.000    0.000    0.000    0.000 
#
# Total GULP energy -396886.169966 kJ/mol
# GULP energy per Si atom -12402.692811 kJ/mol
# Density = 1.927771 g / cm^3
# Si number density = 19.321683 Si / 1000 Ang^3
#
#
#
# Elastic Constant Matrix: (Units=GPa)
#
#
# Indices 1 2 3 4 5 6 
#
# 1 94.2265 17.4437 26.6224 0.0000 0.0000 0.0000
# 2 17.4437 50.1372 17.5802 0.0000 0.0000 0.0000
# 3 26.6224 17.5802 122.9632 0.0000 0.0000 0.0000
# 4 0.0000 0.0000 0.0000 17.6442 0.0000 0.0000
# 5 0.0000 0.0000 0.0000 0.0000 17.2717 0.0000
# 6 0.0000 0.0000 0.0000 0.0000 0.0000 27.7622
#
#
#
# Elastic Compliance Matrix: (Units=1/GPa)
#
#
# Indices 1 2 3 4 5 6 
#
# 1 0.011826 -0.003387 -0.002076 0.000000 0.000000 0.000000
# 2 -0.003387 0.021968 -0.002408 0.000000 0.000000 0.000000
# 3 -0.002076 -0.002408 0.008926 0.000000 0.000000 0.000000
# 4 0.000000 0.000000 0.000000 0.056676 0.000000 0.000000
# 5 0.000000 0.000000 0.000000 0.000000 0.057898 0.000000
# 6 0.000000 0.000000 0.000000 0.000000 0.000000 0.036020
#
#
# Mechanical properties :
#
#
# Convention : Reuss Voigt Hill
#
# Bulk Modulus (GPa) = 37.06525 43.40218 40.23371
# Shear Modulus (GPa) = 22.93067 26.24766 24.58917
#
# Velocity S-wave (km/s) = 3.44871 3.68972 3.57125
# Velocity P-wave (km/s) = 5.92309 6.37682 6.15414
#
# Compressibility (1/GPa) = 0.02697945
#
# Stress axis : x y z
#
# Youngs Moduli (GPa) = 84.55740 45.52140 112.02910
#
# Poissons Ratio (x) = 0.15416 0.23260
# Poissons Ratio (y) = 0.28636 0.26971
# Poissons Ratio (z) = 0.17557 0.10959
#
# Static dielectric constant tensor:
#      x y z
#    x 3.312380 0.000000 0.000000 
#    y 0.000000 3.268170 0.000000 
#    z 0.000000 0.000000 3.883930 
# 
# 
# High freq. dielectric constant tensor:
#      x y z
#    x 1.743380 0.000000 0.000000 
#    y 0.000000 1.728290 0.000000 
#    z 0.000000 0.000000 1.776310 
# 
# From -- ./inp_files/1908.got.cif
#   From: 2010.03.12/outbox.cif.g09.slc.cpg/sg36_1_cif.got.tgz:1908.got - 2010.04.14 02:13:53.
