data_PCOD8174176
_publ_section_title
;
Structure prediction by ZEFSAII (Michael W. Deem and Ramdas Pophale) SiO2 
 PCOD8174176
Probable space group: C M C 21
;
_chemical_formula_sum "Si O2"
_cell_formula_units_Z 48
_cell_length_a 17.601727
_cell_length_b 24.514871
_cell_length_c 5.213188
_cell_angle_alpha 90.000000
_cell_angle_beta 90.000000
_cell_angle_gamma 90.000000
_cell_volume 2249.511823
_symmetry_space_group_name_H-M "C M C 21"
_symmetry_group_IT_number 36
_symmetry_cell_setting 'orthorhombic'
loop_
_space_group_symop_operation_xyz
x,y,z
-x,-y,1/2+z
x,-y,1/2+z
-x,y,z
1/2+x,1/2+y,z
1/2-x,1/2-y,1/2+z
1/2+x,1/2-y,1/2+z
1/2-x,1/2+y,z
loop_
_atom_site_type_symbol
_atom_site_label
_atom_site_fract_x
_atom_site_fract_y
_atom_site_fract_z
Si Si1 0.330756 0.032325 0.890840
Si Si2 0.911829 0.063243 0.382357
Si Si3 0.653922 0.444214 0.382312
Si Si4 0.723488 0.277527 0.448832
Si Si5 0.143797 0.654387 0.857155
Si Si6 0.087204 0.713854 0.357043
O O1 0.240542 0.038028 0.886086
O O2 0.358194 0.998202 0.645743
O O3 0.372035 0.090566 0.884867
O O4 0.868909 0.089647 0.628299
O O5 0.000000 0.078170 0.385781
O O6 0.898668 0.998302 0.378255
O O7 0.870493 0.090080 0.133766
O O8 0.764937 0.235753 0.249567
O O9 0.764082 0.335713 0.388821
O O10 0.633989 0.271094 0.382852
O O11 0.099439 0.687032 0.078388
O O12 0.115419 0.672429 0.577332
O O13 0.000000 0.728778 0.394984
#
# Coordination Sequence:
#
# PCOD8174176 Si02
#       6
#     8   8   8   8   8   8
#     4  12  21  35  52  73 108 149 200 242 271 308
#     4  10  16  25  41  60  83 111 159 223 273 312
#     4  10  16  27  39  62  84 120 173 219 261 292
#     4   8  16  32  55  86 114 136 172 223 289 341
#     4  10  21  35  57  88 116 148 189 238 276 337
#     4  10  19  36  62  89 115 144 179 229 297 362
#
# _framework density 21.337962000000001
#
# number of rings (size 3 to 8) (size 9 to 14) (size 15 to 20)
#    0.000    2.000    3.333    4.000    0.000    0.000 
#    0.000    0.000    0.000   13.000    0.000    0.000 
#    0.000    0.000    0.000    0.000    0.000    0.000 
#
# Total GULP energy -297371.809288 kJ/mol
# GULP energy per Si atom -12390.492054 kJ/mol
# Density = 2.128940 g / cm^3
# Si number density = 21.337962 Si / 1000 Ang^3
#
#
#
# Elastic Constant Matrix: (Units=GPa)
#
#
# Indices 1 2 3 4 5 6 
#
# 1 91.5831 12.9081 9.3014 0.0000 0.0000 0.0000
# 2 12.9081 53.9695 4.9248 0.0000 0.0000 0.0000
# 3 9.3014 4.9248 166.9956 0.0000 0.0000 0.0000
# 4 0.0000 0.0000 0.0000 19.3520 0.0000 0.0000
# 5 0.0000 0.0000 0.0000 0.0000 20.0309 0.0000
# 6 0.0000 0.0000 0.0000 0.0000 0.0000 3.8509
#
#
#
# Elastic Compliance Matrix: (Units=1/GPa)
#
#
# Indices 1 2 3 4 5 6 
#
# 1 0.011351 -0.002664 -0.000554 0.000000 0.000000 0.000000
# 2 -0.002664 0.019204 -0.000418 0.000000 0.000000 0.000000
# 3 -0.000554 -0.000418 0.006031 0.000000 0.000000 0.000000
# 4 0.000000 0.000000 0.000000 0.051674 0.000000 0.000000
# 5 0.000000 0.000000 0.000000 0.000000 0.049923 0.000000
# 6 0.000000 0.000000 0.000000 0.000000 0.000000 0.259681
#
#
# Mechanical properties :
#
#
# Convention : Reuss Voigt Hill
#
# Bulk Modulus (GPa) = 34.11259 40.75743 37.43501
# Shear Modulus (GPa) = 12.05088 27.67436 19.86262
#
# Velocity S-wave (km/s) = 2.37905 3.60523 3.05431
# Velocity P-wave (km/s) = 4.85469 6.03926 5.47908
#
# Compressibility (1/GPa) = 0.02931469
#
# Stress axis : x y z
#
# Youngs Moduli (GPa) = 88.09961 52.07152 165.80055
#
# Poissons Ratio (x) = 0.13873 0.09180
# Poissons Ratio (y) = 0.23472 0.06930
# Poissons Ratio (z) = 0.04878 0.02176
#
# Static dielectric constant tensor:
#      x y z
#    x 3.622740 0.000000 0.000000 
#    y 0.000000 3.338040 0.000000 
#    z 0.000000 0.000000 7.891080 
# 
# 
# High freq. dielectric constant tensor:
#      x y z
#    x 1.815430 0.000000 0.000000 
#    y 0.000000 1.778300 0.000000 
#    z 0.000000 0.000000 1.875370 
# 
# From -- ./inp_files/1121.got.cif
#   From: 2010.03.12/outbox.cif.g09.slc.cpg/sg36_1_cif.got.tgz:1121.got - 2010.04.14 02:13:53.
