data_PCOD8174036
_publ_section_title
;
Structure prediction by ZEFSAII (Michael W. Deem and Ramdas Pophale) SiO2 
 PCOD8174036
Probable space group: C M M 2
;
_chemical_formula_sum "Si O2"
_cell_formula_units_Z 40
_cell_length_a 9.012432
_cell_length_b 29.485819
_cell_length_c 7.456434
_cell_angle_alpha 90.000000
_cell_angle_beta 90.000000
_cell_angle_gamma 90.000000
_cell_volume 1981.464858
_symmetry_space_group_name_H-M "C M M 2"
_symmetry_group_IT_number 35
_symmetry_cell_setting 'orthorhombic'
loop_
_space_group_symop_operation_xyz
x,y,z
-x,-y,z
-x,y,z
x,-y,z
1/2+x,1/2+y,z
1/2-x,1/2-y,z
1/2-x,1/2+y,z
1/2+x,1/2-y,z
loop_
_atom_site_type_symbol
_atom_site_label
_atom_site_fract_x
_atom_site_fract_y
_atom_site_fract_z
Si Si1 0.338126 0.208009 0.368340
Si Si2 0.325594 0.890345 0.333373
Si Si3 0.334225 0.206549 0.944216
Si Si4 0.170647 0.446999 0.677196
Si Si5 0.824198 0.113657 0.961031
O O1 0.500000 0.211296 0.454839
O O2 0.250000 0.250000 0.455011
O O3 0.269734 0.158405 0.412629
O O4 0.344468 0.212982 0.155698
O O5 0.500000 0.886518 0.283727
O O6 0.292986 0.928805 0.478542
O O7 0.236434 0.902253 0.153993
O O8 0.500000 0.203171 0.862286
O O9 0.250000 0.250000 0.859726
O O10 0.245094 0.161117 0.895644
O O11 0.202699 0.500000 0.675409
O O12 0.000000 0.436110 0.727880
O O13 0.279819 0.424791 0.820139
O O14 0.000000 0.118748 0.971004
#
# Coordination Sequence:
#
# PCOD8174036 Si02
#       5
#     8   8   8   8   8
#     4   8  14  25  45  74 107 140 175 218 266 319
#     4   9  19  37  59  83 111 146 190 238 284 333
#     4   9  16  29  51  80 114 151 192 233 274 327
#     4  10  22  41  63  83 106 143 193 246 295 344
#     4  11  22  36  57  86 120 155 188 228 284 346
#
# _framework density 20.187086999999998
#
# number of rings (size 3 to 8) (size 9 to 14) (size 15 to 20)
#    0.000    2.600    0.000    3.600    0.000    6.800 
#    0.000    3.000    0.000    2.400    0.000    0.000 
#    0.000    0.000    0.000    0.000    0.000    0.000 
#
# Total GULP energy -247949.652057 kJ/mol
# GULP energy per Si atom -12397.482603 kJ/mol
# Density = 2.014114 g / cm^3
# Si number density = 20.187087 Si / 1000 Ang^3
#
#
#
# Elastic Constant Matrix: (Units=GPa)
#
#
# Indices 1 2 3 4 5 6 
#
# 1 132.7435 68.4952 49.8122 0.0000 0.0000 0.0000
# 2 68.4952 145.8916 55.7077 0.0000 0.0000 0.0000
# 3 49.8122 55.7077 73.9533 0.0000 0.0000 0.0000
# 4 0.0000 0.0000 0.0000 172.6919 0.0000 0.0000
# 5 0.0000 0.0000 0.0000 0.0000 8.8197 0.0000
# 6 0.0000 0.0000 0.0000 0.0000 0.0000 32.5735
#
#
#
# Elastic Compliance Matrix: (Units=1/GPa)
#
#
# Indices 1 2 3 4 5 6 
#
# 1 0.011116 -0.003313 -0.004992 0.000000 0.000000 0.000000
# 2 -0.003313 0.010609 -0.005760 0.000000 0.000000 0.000000
# 3 -0.004992 -0.005760 0.021224 0.000000 0.000000 0.000000
# 4 0.000000 0.000000 0.000000 0.005791 0.000000 0.000000
# 5 0.000000 0.000000 0.000000 0.000000 0.113382 0.000000
# 6 0.000000 0.000000 0.000000 0.000000 0.000000 0.030700
#
#
# Mechanical properties :
#
#
# Convention : Reuss Voigt Hill
#
# Bulk Modulus (GPa) = 67.48208 77.84652 72.66430
# Shear Modulus (GPa) = 22.13458 54.72192 38.42825
#
# Velocity S-wave (km/s) = 3.31489 5.21212 4.36777
# Velocity P-wave (km/s) = 6.93918 8.65262 7.84284
#
# Compressibility (1/GPa) = 0.01481875
#
# Stress axis : x y z
#
# Youngs Moduli (GPa) = 89.96145 94.25683 47.11740
#
# Poissons Ratio (x) = 0.31225 0.23520
# Poissons Ratio (y) = 0.29802 0.27142
# Poissons Ratio (z) = 0.44907 0.54296
#
# Static dielectric constant tensor:
#      x y z
#    x 3.747660 0.000000 0.000000 
#    y 0.000000 3.603000 0.000000 
#    z 0.000000 0.000000 3.314000 
# 
# 
# High freq. dielectric constant tensor:
#      x y z
#    x 1.778570 0.000000 0.000000 
#    y 0.000000 1.793500 0.000000 
#    z 0.000000 0.000000 1.769540 
# 
# From -- ./inp_files/4950.got.cif
#   From: 2010.03.12/outbox.cif.g09.slc.cpg/sg35_3_cif.got.tgz:4950.got - 2010.04.14 02:02:04.
