data_PCOD8174179
_publ_section_title
;
Structure prediction by ZEFSAII (Michael W. Deem and Ramdas Pophale) SiO2 
 PCOD8174179
Probable space group: C M C 21
;
_chemical_formula_sum "Si O2"
_cell_formula_units_Z 28
_cell_length_a 8.106849
_cell_length_b 33.514071
_cell_length_c 5.249973
_cell_angle_alpha 90.000000
_cell_angle_beta 90.000000
_cell_angle_gamma 90.000000
_cell_volume 1426.383607
_symmetry_space_group_name_H-M "C M C 21"
_symmetry_group_IT_number 36
_symmetry_cell_setting 'orthorhombic'
loop_
_space_group_symop_operation_xyz
x,y,z
-x,-y,1/2+z
x,-y,1/2+z
-x,y,z
1/2+x,1/2+y,z
1/2-x,1/2-y,1/2+z
1/2+x,1/2-y,1/2+z
1/2-x,1/2+y,z
loop_
_atom_site_type_symbol
_atom_site_label
_atom_site_fract_x
_atom_site_fract_y
_atom_site_fract_z
Si Si1 0.192784 0.228207 0.290600
Si Si2 0.816914 0.397777 0.241925
Si Si3 0.806122 0.360516 0.741778
Si Si4 0.500000 0.025962 0.709641
O O1 0.275922 0.243225 0.550680
O O2 0.271797 0.186034 0.222342
O O3 0.000000 0.224040 0.340826
O O4 0.724797 0.382882 0.497532
O O5 0.835984 0.446107 0.232120
O O6 0.000000 0.377976 0.245622
O O7 0.723491 0.380337 0.993394
O O8 0.000000 0.369795 0.746532
O O9 0.500000 0.006233 0.432508
#
# Coordination Sequence:
#
# PCOD8174179 Si02
#       4
#     8   8   8   4
#     4  12  25  40  58  84 112 148 198 243 297 343
#     4   8  17  27  45  72  99 143 172 208 278 325
#     4  10  17  33  51  70 104 142 180 225 275 336
#     4  10  16  26  44  74 116 140 172 222 278 342
#
# _framework density 19.630063
#
# number of rings (size 3 to 8) (size 9 to 14) (size 15 to 20)
#    0.857    1.143    0.000    6.000    0.000    2.286 
#    0.000    0.000    0.000    0.000    0.000    0.000 
#    0.000   22.857    0.000    0.000    0.000    0.000 
#
# Total GULP energy -173489.488042 kJ/mol
# GULP energy per Si atom -12392.106289 kJ/mol
# Density = 1.958538 g / cm^3
# Si number density = 19.630063 Si / 1000 Ang^3
#
#
#
# Elastic Constant Matrix: (Units=GPa)
#
#
# Indices 1 2 3 4 5 6 
#
# 1 18.8102 0.5378 17.2490 0.0000 0.0000 0.0000
# 2 0.5378 94.6601 36.4796 0.0000 0.0000 0.0000
# 3 17.2490 36.4796 151.7834 0.0000 0.0000 0.0000
# 4 0.0000 0.0000 0.0000 45.7725 0.0000 0.0000
# 5 0.0000 0.0000 0.0000 0.0000 14.1690 0.0000
# 6 0.0000 0.0000 0.0000 0.0000 0.0000 12.5071
#
#
#
# Elastic Compliance Matrix: (Units=1/GPa)
#
#
# Indices 1 2 3 4 5 6 
#
# 1 0.059886 0.002515 -0.007410 0.000000 0.000000 0.000000
# 2 0.002515 0.011748 -0.003109 0.000000 0.000000 0.000000
# 3 -0.007410 -0.003109 0.008178 0.000000 0.000000 0.000000
# 4 0.000000 0.000000 0.000000 0.021847 0.000000 0.000000
# 5 0.000000 0.000000 0.000000 0.000000 0.070577 0.000000
# 6 0.000000 0.000000 0.000000 0.000000 0.000000 0.079955
#
#
# Mechanical properties :
#
#
# Convention : Reuss Voigt Hill
#
# Bulk Modulus (GPa) = 15.67309 41.53184 28.60246
# Shear Modulus (GPa) = 17.27317 28.55553 22.91435
#
# Velocity S-wave (km/s) = 2.96959 3.81817 3.42030
# Velocity P-wave (km/s) = 4.44516 6.37504 5.49548
#
# Compressibility (1/GPa) = 0.06380363
#
# Stress axis : x y z
#
# Youngs Moduli (GPa) = 16.69841 85.12012 122.28292
#
# Poissons Ratio (x) = -0.21412 0.90613
# Poissons Ratio (y) = -0.04200 0.38023
# Poissons Ratio (z) = 0.12374 0.26467
#
# Static dielectric constant tensor:
#      x y z
#    x 2.968400 0.000000 0.000000 
#    y 0.000000 3.437830 0.000000 
#    z 0.000000 0.000000 4.167600 
# 
# 
# High freq. dielectric constant tensor:
#      x y z
#    x 1.697250 0.000000 0.000000 
#    y 0.000000 1.762670 0.000000 
#    z 0.000000 0.000000 1.800020 
# 
# From -- ./inp_files/213.got.cif
#   From: 2010.03.12/outbox.cif.g09.slc.cpg/sg36_1_cif.got.tgz:213.got - 2010.04.14 02:13:53.
