data_PCOD8174620
_publ_section_title
;
Structure prediction by ZEFSAII (Michael W. Deem and Ramdas Pophale) SiO2 
 PCOD8174620
Probable space group: C M C 21
;
_chemical_formula_sum "Si O2"
_cell_formula_units_Z 64
_cell_length_a 8.682505
_cell_length_b 20.780506
_cell_length_c 18.627931
_cell_angle_alpha 90.000000
_cell_angle_beta 90.000000
_cell_angle_gamma 90.000000
_cell_volume 3360.978861
_symmetry_space_group_name_H-M "C M C 21"
_symmetry_group_IT_number 36
_symmetry_cell_setting 'orthorhombic'
loop_
_space_group_symop_operation_xyz
x,y,z
-x,-y,1/2+z
x,-y,1/2+z
-x,y,z
1/2+x,1/2+y,z
1/2-x,1/2-y,1/2+z
1/2+x,1/2-y,1/2+z
1/2-x,1/2+y,z
loop_
_atom_site_type_symbol
_atom_site_label
_atom_site_fract_x
_atom_site_fract_y
_atom_site_fract_z
Si Si1 0.181337 0.755392 0.091930
Si Si2 0.816826 0.629911 0.510281
Si Si3 0.322590 0.357952 0.855176
Si Si4 0.674553 0.499955 0.855971
Si Si5 0.177215 0.139065 0.827159
Si Si6 0.816077 0.645219 0.983694
Si Si7 0.681292 0.251658 0.744290
Si Si8 0.675747 0.008193 0.001712
O O1 0.254881 0.823295 0.071195
O O2 0.237888 0.733426 0.169357
O O3 0.000000 0.762606 0.092265
O O4 0.236702 0.702999 0.034195
O O5 0.762430 0.649845 0.430954
O O6 0.750310 0.558233 0.531977
O O7 0.000000 0.630273 0.510125
O O8 0.500000 0.342466 0.870974
O O9 0.302748 0.429595 0.819468
O O10 0.256367 0.305464 0.799879
O O11 0.500000 0.503198 0.888537
O O12 0.697684 0.563020 0.805629
O O13 0.804568 0.504996 0.916105
O O14 0.233060 0.153413 0.907756
O O15 0.276061 0.180519 0.771553
O O16 0.000000 0.160010 0.820763
O O17 0.758647 0.578656 0.023596
O O18 0.000000 0.643727 0.971230
O O19 0.500000 0.256790 0.733560
O O20 0.500000 0.006589 0.023922
#
# Coordination Sequence:
#
# PCOD8174620 Si02
#       8
#     8   8   8   8   8   8   8   8
#     4  11  23  37  52  71 100 137 173 211 253 298
#     4  10  19  32  54  81 106 132 165 206 250 300
#     4   9  18  34  55  77 102 133 169 208 251 298
#     4   8  15  29  50  76 103 129 161 203 248 294
#     4  10  19  32  54  81 106 132 165 206 250 300
#     4   9  18  34  55  77 102 133 169 208 251 298
#     4  11  23  37  52  71 100 137 173 211 253 298
#     4   8  15  29  50  76 103 129 161 203 248 294
#
# _framework density 19.042069999999999
#
# number of rings (size 3 to 8) (size 9 to 14) (size 15 to 20)
#    0.000    2.500    0.000    2.250    0.000    6.000 
#    0.000    1.250    0.000    3.000    0.000    0.000 
#    0.000    0.000    0.000    0.000    0.000    0.000 
#
# Total GULP energy -396447.970763 kJ/mol
# GULP energy per Si atom -12388.999086 kJ/mol
# Density = 1.899873 g / cm^3
# Si number density = 19.042070 Si / 1000 Ang^3
#
#
#
# Elastic Constant Matrix: (Units=GPa)
#
#
# Indices 1 2 3 4 5 6 
#
# 1 33.2387 21.1594 16.2227 0.0000 0.0000 0.0000
# 2 21.1594 104.9745 19.0690 0.0000 0.0000 0.0000
# 3 16.2227 19.0690 52.0216 0.0000 0.0000 0.0000
# 4 0.0000 0.0000 0.0000 10.9066 0.0000 0.0000
# 5 0.0000 0.0000 0.0000 0.0000 27.7203 0.0000
# 6 0.0000 0.0000 0.0000 0.0000 0.0000 24.8535
#
#
#
# Elastic Compliance Matrix: (Units=1/GPa)
#
#
# Indices 1 2 3 4 5 6 
#
# 1 0.038733 -0.006014 -0.009874 0.000000 0.000000 0.000000
# 2 -0.006014 0.011139 -0.002208 0.000000 0.000000 0.000000
# 3 -0.009874 -0.002208 0.023111 0.000000 0.000000 0.000000
# 4 0.000000 0.000000 0.000000 0.091687 0.000000 0.000000
# 5 0.000000 0.000000 0.000000 0.000000 0.036075 0.000000
# 6 0.000000 0.000000 0.000000 0.000000 0.000000 0.040236
#
#
# Mechanical properties :
#
#
# Convention : Reuss Voigt Hill
#
# Bulk Modulus (GPa) = 27.17986 33.68191 30.43088
# Shear Modulus (GPa) = 17.27490 21.61500 19.44495
#
# Velocity S-wave (km/s) = 3.01524 3.37281 3.19902
# Velocity P-wave (km/s) = 5.14070 5.73536 5.44615
#
# Compressibility (1/GPa) = 0.03679195
#
# Stress axis : x y z
#
# Youngs Moduli (GPa) = 25.81775 89.77192 43.26871
#
# Poissons Ratio (x) = 0.53985 0.42725
# Poissons Ratio (y) = 0.15526 0.09553
# Poissons Ratio (z) = 0.25493 0.19821
#
# Static dielectric constant tensor:
#      x y z
#    x 3.439540 0.000000 0.000000 
#    y 0.000000 4.189130 0.000000 
#    z 0.000000 0.000000 3.082680 
# 
# 
# High freq. dielectric constant tensor:
#      x y z
#    x 1.737420 0.000000 0.000000 
#    y 0.000000 1.770960 0.000000 
#    z 0.000000 0.000000 1.689280 
# 
# From -- ./inp_files/13808.got.cif
#   From: 2010.03.12/outbox.cif.g09.slc.cpg/sg36_7_cif.got.tgz:13808.got - 2010.04.14 02:13:53.
