data_PCOD8174159
_publ_section_title
;
Structure prediction by ZEFSAII (Michael W. Deem and Ramdas Pophale) SiO2 
 PCOD8174159
Probable space group: C M M 2
;
_chemical_formula_sum "Si O2"
_cell_formula_units_Z 64
_cell_length_a 9.719865
_cell_length_b 41.320690
_cell_length_c 9.227583
_cell_angle_alpha 90.000000
_cell_angle_beta 90.000000
_cell_angle_gamma 90.000000
_cell_volume 3706.088265
_symmetry_space_group_name_H-M "C M M 2"
_symmetry_group_IT_number 35
_symmetry_cell_setting 'orthorhombic'
loop_
_space_group_symop_operation_xyz
x,y,z
-x,-y,z
-x,y,z
x,-y,z
1/2+x,1/2+y,z
1/2-x,1/2-y,z
1/2-x,1/2+y,z
1/2+x,1/2-y,z
loop_
_atom_site_type_symbol
_atom_site_label
_atom_site_fract_x
_atom_site_fract_y
_atom_site_fract_z
Si Si1 0.658990 0.719641 0.045780
Si Si2 0.340367 0.593721 0.384332
Si Si3 0.154294 0.535784 0.386722
Si Si4 0.836514 0.843338 0.877989
Si Si5 0.663487 0.656662 0.551128
Si Si6 0.841010 0.219641 0.383338
Si Si7 0.340367 0.406279 0.044785
Si Si8 0.654294 0.035784 0.042394
O O1 0.500000 0.727136 0.009139
O O2 0.750000 0.750000 0.996766
O O3 0.678193 0.711874 0.214559
O O4 0.716091 0.688864 0.958010
O O5 0.500000 0.587707 0.417827
O O6 0.259103 0.562666 0.446711
O O7 0.282043 0.625147 0.466736
O O8 0.314311 0.599189 0.214558
O O9 0.197575 0.500000 0.443442
O O10 0.000000 0.544023 0.440021
O O11 0.159302 0.535780 0.214558
O O12 0.779011 0.843710 0.714559
O O13 0.782044 0.874853 0.962381
O O14 0.000000 0.843595 0.880594
O O15 0.500000 0.656405 0.548527
O O16 0.716091 0.688864 0.471108
O O17 0.750000 0.250000 0.432352
O O18 0.000000 0.227136 0.419979
O O19 0.500000 0.412293 0.011290
O O20 0.259102 0.437334 0.982406
O O21 0.500000 0.044023 0.989095
O O22 0.697574 0.000000 0.985674
#
# Coordination Sequence:
#
# PCOD8174159 Si02
#       8
#     8   8   8   8   8   8   8   8
#     4   9  17  30  48  68  89 113 142 176 213 253
#     4   9  16  26  43  66  87 108 140 181 217 249
#     4   8  14  25  41  62  88 115 141 172 214 260
#     4   9  17  29  45  64  87 116 146 175 211 255
#     4   9  17  29  45  64  87 116 146 175 211 255
#     4   9  17  30  48  68  89 113 142 176 213 253
#     4   9  16  26  43  66  87 108 140 181 217 249
#     4   8  14  25  41  62  88 115 141 172 214 260
#
# _framework density 17.268882000000001
#
# number of rings (size 3 to 8) (size 9 to 14) (size 15 to 20)
#    0.000    3.250    0.000    1.500    0.000    4.000 
#    0.000    3.750    0.000    9.000    0.000    5.250 
#    0.000    0.000    0.000    0.000    0.000    0.000 
#
# Total GULP energy -396696.319673 kJ/mol
# GULP energy per Si atom -12396.759990 kJ/mol
# Density = 1.722958 g / cm^3
# Si number density = 17.268882 Si / 1000 Ang^3
#
#
#
# Elastic Constant Matrix: (Units=GPa)
#
#
# Indices 1 2 3 4 5 6 
#
# 1 58.7417 73.6462 29.7255 0.0000 0.0000 0.0000
# 2 73.6462 196.6248 65.5091 0.0000 0.0000 0.0000
# 3 29.7255 65.5091 60.0085 0.0000 0.0000 0.0000
# 4 0.0000 0.0000 0.0000 5.7380 0.0000 0.0000
# 5 0.0000 0.0000 0.0000 0.0000 9.4573 0.0000
# 6 0.0000 0.0000 0.0000 0.0000 0.0000 31.8017
#
#
#
# Elastic Compliance Matrix: (Units=1/GPa)
#
#
# Indices 1 2 3 4 5 6 
#
# 1 0.032838 -0.010813 -0.004463 0.000000 0.000000 0.000000
# 2 -0.010813 0.011553 -0.007256 0.000000 0.000000 0.000000
# 3 -0.004463 -0.007256 0.026796 0.000000 0.000000 0.000000
# 4 0.000000 0.000000 0.000000 0.174277 0.000000 0.000000
# 5 0.000000 0.000000 0.000000 0.000000 0.105739 0.000000
# 6 0.000000 0.000000 0.000000 0.000000 0.000000 0.031445
#
#
# Mechanical properties :
#
#
# Convention : Reuss Voigt Hill
#
# Bulk Modulus (GPa) = 38.27818 72.57072 55.42445
# Shear Modulus (GPa) = 11.45684 19.16567 15.31126
#
# Velocity S-wave (km/s) = 2.57852 3.33504 2.98088
# Velocity P-wave (km/s) = 5.57487 7.54620 6.63417
#
# Compressibility (1/GPa) = 0.02612455
#
# Stress axis : x y z
#
# Youngs Moduli (GPa) = 30.45218 86.55533 37.31880
#
# Poissons Ratio (x) = 0.93591 0.16654
# Poissons Ratio (y) = 0.32927 0.27079
# Poissons Ratio (z) = 0.13590 0.62806
#
# Static dielectric constant tensor:
#      x y z
#    x 3.044280 0.000000 0.000000 
#    y 0.000000 3.547400 0.000000 
#    z 0.000000 0.000000 3.011560 
# 
# 
# High freq. dielectric constant tensor:
#      x y z
#    x 1.635930 0.000000 0.000000 
#    y 0.000000 1.681460 0.000000 
#    z 0.000000 0.000000 1.637370 
# 
# From -- ./inp_files/6566.got.cif
#   From: 2010.03.12/outbox.cif.g09.slc.cpg/sg35_4_cif.got.tgz:6566.got - 2010.04.14 02:02:04.
