data_PCOD8174459
_publ_section_title
;
Structure prediction by ZEFSAII (Michael W. Deem and Ramdas Pophale) SiO2 
 PCOD8174459
Probable space group: C M C 21
;
_chemical_formula_sum "Si O2"
_cell_formula_units_Z 40
_cell_length_a 14.168372
_cell_length_b 9.419218
_cell_length_c 13.873991
_cell_angle_alpha 90.000000
_cell_angle_beta 90.000000
_cell_angle_gamma 90.000000
_cell_volume 1851.553255
_symmetry_space_group_name_H-M "C M C 21"
_symmetry_group_IT_number 36
_symmetry_cell_setting 'orthorhombic'
loop_
_space_group_symop_operation_xyz
x,y,z
-x,-y,1/2+z
x,-y,1/2+z
-x,y,z
1/2+x,1/2+y,z
1/2-x,1/2-y,1/2+z
1/2+x,1/2-y,1/2+z
1/2-x,1/2+y,z
loop_
_atom_site_type_symbol
_atom_site_label
_atom_site_fract_x
_atom_site_fract_y
_atom_site_fract_z
Si Si1 0.200449 0.335205 0.825660
Si Si2 0.694900 0.553156 0.936646
Si Si3 0.163106 0.110338 0.145444
Si Si4 0.000000 0.715322 0.714114
Si Si5 0.500000 0.111043 0.249687
Si Si6 0.000000 0.101298 0.679098
Si Si7 0.500000 0.543605 0.370608
O O1 0.231221 0.428989 0.916606
O O2 0.212010 0.170632 0.853725
O O3 0.260982 0.381019 0.731523
O O4 0.091290 0.366589 0.813943
O O5 0.591689 0.478626 0.936202
O O6 0.715283 0.617420 0.042581
O O7 0.093465 0.243605 0.155290
O O8 0.098328 0.967932 0.144104
O O9 0.000000 0.548172 0.713814
O O10 0.000000 0.801388 0.816857
O O11 0.500000 0.227924 0.161665
O O12 0.000000 0.082813 0.794079
#
# Coordination Sequence:
#
# PCOD8174459 Si02
#       7
#     8   8   8   4   4   4   4
#     4  12  24  42  65  99 136 175 227 281 339 397
#     4  12  24  42  72  95 137 179 223 279 343 413
#     4  10  23  45  68  97 132 183 225 268 349 416
#     4  10  21  41  70  95 132 170 222 285 333 407
#     4  12  24  38  71  95 130 180 219 284 337 374
#     4  10  19  43  74  95 132 179 217 279 337 416
#     4  10  18  44  65  93 126 183 214 260 355 399
#
# _framework density 21.603484000000002
#
# number of rings (size 3 to 8) (size 9 to 14) (size 15 to 20)
#    0.000    1.200    6.000    2.400    0.000    4.800 
#    0.000    1.000    4.400    0.000    0.000    0.000 
#    0.000    0.000    0.000    0.000    0.000    0.000 
#
# Total GULP energy -247855.340417 kJ/mol
# GULP energy per Si atom -12392.767021 kJ/mol
# Density = 2.155431 g / cm^3
# Si number density = 21.603484 Si / 1000 Ang^3
#
#
#
# Elastic Constant Matrix: (Units=GPa)
#
#
# Indices 1 2 3 4 5 6 
#
# 1 130.6729 38.7359 35.1423 0.0000 0.0000 0.0000
# 2 38.7359 163.6907 18.8096 0.0000 0.0000 0.0000
# 3 35.1423 18.8096 101.1273 0.0000 0.0000 0.0000
# 4 0.0000 0.0000 0.0000 16.0806 0.0000 0.0000
# 5 0.0000 0.0000 0.0000 0.0000 3.7681 0.0000
# 6 0.0000 0.0000 0.0000 0.0000 0.0000 48.9512
#
#
#
# Elastic Compliance Matrix: (Units=1/GPa)
#
#
# Indices 1 2 3 4 5 6 
#
# 1 0.008929 -0.001795 -0.002769 0.000000 0.000000 0.000000
# 2 -0.001795 0.006603 -0.000604 0.000000 0.000000 0.000000
# 3 -0.002769 -0.000604 0.010963 0.000000 0.000000 0.000000
# 4 0.000000 0.000000 0.000000 0.062187 0.000000 0.000000
# 5 0.000000 0.000000 0.000000 0.000000 0.265388 0.000000
# 6 0.000000 0.000000 0.000000 0.000000 0.000000 0.020428
#
#
# Mechanical properties :
#
#
# Convention : Reuss Voigt Hill
#
# Bulk Modulus (GPa) = 61.88526 64.54072 63.21299
# Shear Modulus (GPa) = 12.81319 33.94686 23.38002
#
# Velocity S-wave (km/s) = 2.43802 3.96834 3.29330
# Velocity P-wave (km/s) = 6.05255 7.13701 6.61704
#
# Compressibility (1/GPa) = 0.01615894
#
# Stress axis : x y z
#
# Youngs Moduli (GPa) = 111.98850 151.43986 91.21370
#
# Poissons Ratio (x) = 0.27182 0.25259
# Poissons Ratio (y) = 0.20101 0.05514
# Poissons Ratio (z) = 0.31012 0.09154
#
# Static dielectric constant tensor:
#      x y z
#    x 4.035160 0.000000 0.000000 
#    y 0.000000 3.999470 0.000000 
#    z 0.000000 0.000000 3.709880 
# 
# 
# High freq. dielectric constant tensor:
#      x y z
#    x 1.855710 0.000000 0.000000 
#    y 0.000000 1.849850 0.000000 
#    z 0.000000 0.000000 1.826910 
# 
# From -- ./inp_files/11973.got.cif
#   From: 2010.03.12/outbox.cif.g09.slc.cpg/sg36_6_cif.got.tgz:11973.got - 2010.04.14 02:13:53.
