data_PCOD8174960
_publ_section_title
;
Structure prediction by ZEFSAII (Michael W. Deem and Ramdas Pophale) SiO2 
 PCOD8174960
Probable space group: C M C 21
;
_chemical_formula_sum "Si O2"
_cell_formula_units_Z 64
_cell_length_a 9.095678
_cell_length_b 29.043173
_cell_length_c 12.284148
_cell_angle_alpha 90.000000
_cell_angle_beta 90.000000
_cell_angle_gamma 90.000000
_cell_volume 3245.070821
_symmetry_space_group_name_H-M "C M C 21"
_symmetry_group_IT_number 36
_symmetry_cell_setting 'orthorhombic'
loop_
_space_group_symop_operation_xyz
x,y,z
-x,-y,1/2+z
x,-y,1/2+z
-x,y,z
1/2+x,1/2+y,z
1/2-x,1/2-y,1/2+z
1/2+x,1/2-y,1/2+z
1/2-x,1/2+y,z
loop_
_atom_site_type_symbol
_atom_site_label
_atom_site_fract_x
_atom_site_fract_y
_atom_site_fract_z
Si Si1 0.834401 0.837038 0.417630
Si Si2 0.174459 0.620874 0.718944
Si Si3 0.174368 0.228477 0.108193
Si Si4 0.825636 0.179851 0.550272
Si Si5 0.833589 0.937336 0.759838
Si Si6 0.330092 0.973288 0.325760
Si Si7 0.660436 0.433799 0.510470
Si Si8 0.826237 0.836310 0.803486
O O1 0.726251 0.845086 0.316174
O O2 0.784842 0.793971 0.491412
O O3 0.828738 0.878907 0.502641
O O4 0.000000 0.830266 0.371942
O O5 0.254727 0.634742 0.606926
O O6 0.221433 0.567934 0.744574
O O7 0.000000 0.625838 0.707313
O O8 0.259421 0.276493 0.113111
O O9 0.233719 0.198282 0.210426
O O10 0.000000 0.236666 0.117847
O O11 0.780427 0.181246 0.423228
O O12 0.000000 0.178253 0.564552
O O13 0.824724 0.948426 0.633564
O O14 0.760866 0.887761 0.786914
O O15 0.000000 0.938184 0.803492
O O16 0.747376 0.978251 0.815155
O O17 0.500000 0.982074 0.311779
O O18 0.293862 0.957233 0.447419
O O19 0.500000 0.449525 0.464275
O O20 0.000000 0.839450 0.789550
#
# Coordination Sequence:
#
# PCOD8174960 Si02
#       8
#     8   8   8   8   8   8   8   8
#     4   9  17  33  60  87 111 142 188 243 290 343
#     4  10  22  40  58  79 116 160 198 239 295 347
#     4  10  20  38  62  87 117 151 187 236 298 354
#     4  11  24  39  58  87 121 157 200 242 289 351
#     4  10  19  36  62  87 112 150 199 244 293 348
#     4  10  22  37  55  84 120 157 195 240 300 357
#     4   9  17  33  57  83 109 144 194 244 288 342
#     4   9  20  40  62  86 118 153 191 240 295 350
#
# _framework density 19.722221000000001
#
# number of rings (size 3 to 8) (size 9 to 14) (size 15 to 20)
#    0.000    2.250    1.250    1.125    1.750    3.500 
#    0.000    6.250    0.000    0.000    0.000    0.000 
#    0.000    0.000    0.000    0.000    0.000    0.000 
#
# Total GULP energy -396724.995245 kJ/mol
# GULP energy per Si atom -12397.656101 kJ/mol
# Density = 1.967733 g / cm^3
# Si number density = 19.722221 Si / 1000 Ang^3
#
#
#
# Elastic Constant Matrix: (Units=GPa)
#
#
# Indices 1 2 3 4 5 6 
#
# 1 57.1595 38.2212 30.6029 0.0000 0.0000 0.0000
# 2 38.2212 121.1957 40.0759 0.0000 0.0000 0.0000
# 3 30.6029 40.0759 79.5776 0.0000 0.0000 0.0000
# 4 0.0000 0.0000 0.0000 26.3998 0.0000 0.0000
# 5 0.0000 0.0000 0.0000 0.0000 22.5944 0.0000
# 6 0.0000 0.0000 0.0000 0.0000 0.0000 28.8294
#
#
#
# Elastic Compliance Matrix: (Units=1/GPa)
#
#
# Indices 1 2 3 4 5 6 
#
# 1 0.024851 -0.005611 -0.006731 0.000000 0.000000 0.000000
# 2 -0.005611 0.011167 -0.003466 0.000000 0.000000 0.000000
# 3 -0.006731 -0.003466 0.016900 0.000000 0.000000 0.000000
# 4 0.000000 0.000000 0.000000 0.037879 0.000000 0.000000
# 5 0.000000 0.000000 0.000000 0.000000 0.044259 0.000000
# 6 0.000000 0.000000 0.000000 0.000000 0.000000 0.034687
#
#
# Mechanical properties :
#
#
# Convention : Reuss Voigt Hill
#
# Bulk Modulus (GPa) = 46.94442 52.85921 49.90181
# Shear Modulus (GPa) = 23.98554 25.50024 24.74289
#
# Velocity S-wave (km/s) = 3.49114 3.59969 3.54583
# Velocity P-wave (km/s) = 6.33287 6.64357 6.49008
#
# Compressibility (1/GPa) = 0.02130179
#
# Stress axis : x y z
#
# Youngs Moduli (GPa) = 40.24021 89.55121 59.17103
#
# Poissons Ratio (x) = 0.50251 0.39827
# Poissons Ratio (y) = 0.22581 0.20507
# Poissons Ratio (z) = 0.27085 0.31036
#
# Static dielectric constant tensor:
#      x y z
#    x 3.400850 0.000000 0.000000 
#    y 0.000000 3.616450 0.000000 
#    z 0.000000 0.000000 3.535530 
# 
# 
# High freq. dielectric constant tensor:
#      x y z
#    x 1.748480 0.000000 0.000000 
#    y 0.000000 1.771940 0.000000 
#    z 0.000000 0.000000 1.767570 
# 
# From -- ./inp_files/7151.got.cif
#   From: 2010.03.12/outbox.cif.g09.slc.cpg/sg36_4_cif.got.tgz:7151.got - 2010.04.14 02:13:53.
