data_PCOD8174922
_publ_section_title
;
Structure prediction by ZEFSAII (Michael W. Deem and Ramdas Pophale) SiO2 
 PCOD8174922
Probable space group: C M C 21
;
_chemical_formula_sum "Si O2"
_cell_formula_units_Z 36
_cell_length_a 21.647977
_cell_length_b 14.343204
_cell_length_c 5.230530
_cell_angle_alpha 90.000000
_cell_angle_beta 90.000000
_cell_angle_gamma 90.000000
_cell_volume 1624.086628
_symmetry_space_group_name_H-M "C M C 21"
_symmetry_group_IT_number 36
_symmetry_cell_setting 'orthorhombic'
loop_
_space_group_symop_operation_xyz
x,y,z
-x,-y,1/2+z
x,-y,1/2+z
-x,y,z
1/2+x,1/2+y,z
1/2-x,1/2-y,1/2+z
1/2+x,1/2-y,1/2+z
1/2-x,1/2+y,z
loop_
_atom_site_type_symbol
_atom_site_label
_atom_site_fract_x
_atom_site_fract_y
_atom_site_fract_z
Si Si1 0.367779 0.061292 0.090570
Si Si2 0.927617 0.899592 0.080649
Si Si3 0.253988 0.809288 0.617267
Si Si4 0.874589 0.894195 0.580660
Si Si5 0.500000 0.943393 0.497142
O O1 0.317482 0.140454 0.049764
O O2 0.435792 0.110367 0.060023
O O3 0.360055 0.016940 0.371279
O O4 0.899639 0.843683 0.322466
O O5 0.000000 0.915912 0.112989
O O6 0.892819 0.998119 0.049230
O O7 0.910176 0.845518 0.819548
O O8 0.242488 0.731452 0.402556
O O9 0.198727 0.884336 0.607509
O O10 0.500000 0.969254 0.196681
#
# Coordination Sequence:
#
# PCOD8174922 Si02
#       5
#     8   8   8   8   4
#     4  10  21  38  69  93 114 153 208 252 300 355
#     4  10  19  35  62  92 116 146 201 260 289 338
#     4  12  26  41  58  88 134 167 196 244 308 361
#     4  10  20  33  57  82 118 155 202 233 296 343
#     4   8  16  34  60  94 112 138 194 268 306 338
#
# _framework density 22.166308000000001
#
# number of rings (size 3 to 8) (size 9 to 14) (size 15 to 20)
#    0.000    1.778    0.000    6.000    6.222    0.000 
#    0.000    0.000   19.556    0.000    0.000    0.000 
#    0.000    0.000    0.000    0.000    0.000    0.000 
#
# Total GULP energy -223055.048084 kJ/mol
# GULP energy per Si atom -12391.947116 kJ/mol
# Density = 2.211586 g / cm^3
# Si number density = 22.166308 Si / 1000 Ang^3
#
#
#
# Elastic Constant Matrix: (Units=GPa)
#
#
# Indices 1 2 3 4 5 6 
#
# 1 179.1007 32.5825 10.4920 0.0000 0.0000 0.0000
# 2 32.5825 18.1376 -5.0701 0.0000 0.0000 0.0000
# 3 10.4920 -5.0701 160.6536 0.0000 0.0000 0.0000
# 4 0.0000 0.0000 0.0000 18.6355 0.0000 0.0000
# 5 0.0000 0.0000 0.0000 0.0000 37.0786 0.0000
# 6 0.0000 0.0000 0.0000 0.0000 0.0000 -1.3519
#
#
#
# Elastic Compliance Matrix: (Units=1/GPa)
#
#
# Indices 1 2 3 4 5 6 
#
# 1 0.008463 -0.015495 -0.001042 0.000000 0.000000 0.000000
# 2 -0.015495 0.083993 0.003663 0.000000 0.000000 0.000000
# 3 -0.001042 0.003663 0.006408 0.000000 0.000000 0.000000
# 4 0.000000 0.000000 0.000000 0.053661 0.000000 0.000000
# 5 0.000000 0.000000 0.000000 0.000000 0.026970 0.000000
# 6 0.000000 0.000000 0.000000 0.000000 0.000000 -0.739676
#
#
# Mechanical properties :
#
#
# Convention : Reuss Voigt Hill
#
# Bulk Modulus (GPa) = 13.67673 48.21121 30.94397
# Shear Modulus (GPa) = -9.80276 32.19825 11.19774
#
# Velocity S-wave (km/s) = -2.10522 3.81540 2.25004
# Velocity P-wave (km/s) = 0.52360 6.41925 4.55417
#
# Compressibility (1/GPa) = 0.07311687
#
# Stress axis : x y z
#
# Youngs Moduli (GPa) = 118.15665 11.90574 156.05012
#
# Poissons Ratio (x) = 0.18448 0.16256
# Poissons Ratio (y) = 1.83082 -0.57156
# Poissons Ratio (z) = 0.12309 -0.04361
#
# Static dielectric constant tensor:
#      x y z
#    x 4.294330 0.000000 0.000000 
#    y 0.000000 3.252720 0.000000 
#    z 0.000000 0.000000 6.001170 
# 
# 
# High freq. dielectric constant tensor:
#      x y z
#    x 1.895440 0.000000 0.000000 
#    y 0.000000 1.794440 0.000000 
#    z 0.000000 0.000000 1.916000 
# 
# From -- ./inp_files/1283.got.cif
#   From: 2010.03.12/outbox.cif.g09.slc.cpg/sg36_1_cif.got.tgz:1283.got - 2010.04.14 02:13:53.
