data_PCOD8174899
_publ_section_title
;
Structure prediction by ZEFSAII (Michael W. Deem and Ramdas Pophale) SiO2 
 PCOD8174899
Probable space group: C M C 21
;
_chemical_formula_sum "Si O2"
_cell_formula_units_Z 64
_cell_length_a 9.065063
_cell_length_b 28.867375
_cell_length_c 12.288635
_cell_angle_alpha 90.000000
_cell_angle_beta 90.000000
_cell_angle_gamma 90.000000
_cell_volume 3215.746203
_symmetry_space_group_name_H-M "C M C 21"
_symmetry_group_IT_number 36
_symmetry_cell_setting 'orthorhombic'
loop_
_space_group_symop_operation_xyz
x,y,z
-x,-y,1/2+z
x,-y,1/2+z
-x,y,z
1/2+x,1/2+y,z
1/2-x,1/2-y,1/2+z
1/2+x,1/2-y,1/2+z
1/2-x,1/2+y,z
loop_
_atom_site_type_symbol
_atom_site_label
_atom_site_fract_x
_atom_site_fract_y
_atom_site_fract_z
Si Si1 0.332967 0.835453 0.076010
Si Si2 0.662071 0.065787 0.492185
Si Si3 0.329612 0.314464 0.461481
Si Si4 0.830404 0.880333 0.272217
Si Si5 0.670023 0.475616 0.178046
Si Si6 0.331995 0.065031 0.245124
Si Si7 0.174703 0.224303 0.405264
Si Si8 0.825709 0.838954 0.703436
O O1 0.500000 0.817569 0.094463
O O2 0.328308 0.878800 0.994868
O O3 0.266479 0.848526 0.192810
O O4 0.239704 0.795734 0.017443
O O5 0.500000 0.050437 0.537371
O O6 0.796874 0.044354 0.558640
O O7 0.681689 0.050045 0.369631
O O8 0.500000 0.299081 0.459028
O O9 0.307793 0.362879 0.395900
O O10 0.234021 0.276472 0.397272
O O11 0.274398 0.320248 0.585466
O O12 0.784915 0.934840 0.263985
O O13 0.000000 0.875523 0.234523
O O14 0.500000 0.489268 0.189315
O O15 0.766324 0.521426 0.182993
O O16 0.500000 0.073097 0.208859
O O17 0.242921 0.111023 0.220349
O O18 0.227829 0.196311 0.297777
O O19 0.000000 0.224055 0.413092
O O20 0.000000 0.845207 0.706813
#
# Coordination Sequence:
#
# PCOD8174899 Si02
#       8
#     8   8   8   8   8   8   8   8
#     4  10  19  35  60  85 113 150 196 248 302 353
#     4   9  19  36  56  82 113 151 198 249 301 354
#     4  10  23  42  62  87 124 164 201 248 306 365
#     4   9  20  39  60  86 120 158 202 250 302 356
#     4  10  21  36  58  88 121 161 206 249 303 363
#     4  11  22  38  61  89 122 158 203 252 305 363
#     4  11  23  38  59  89 120 154 202 250 300 362
#     4  10  23  42  62  88 123 160 204 252 303 366
#
# _framework density 19.902068
#
# number of rings (size 3 to 8) (size 9 to 14) (size 15 to 20)
#    0.000    2.000    1.250    1.500    1.750    4.500 
#    0.000    1.250    0.000    0.000    0.000    0.000 
#    0.000    0.000    0.000    0.000    0.000    0.000 
#
# Total GULP energy -396791.697440 kJ/mol
# GULP energy per Si atom -12399.740545 kJ/mol
# Density = 1.985677 g / cm^3
# Si number density = 19.902068 Si / 1000 Ang^3
#
#
#
# Elastic Constant Matrix: (Units=GPa)
#
#
# Indices 1 2 3 4 5 6 
#
# 1 56.7934 36.5771 33.3613 0.0000 0.0000 0.0000
# 2 36.5771 111.1097 38.8876 0.0000 0.0000 0.0000
# 3 33.3613 38.8876 81.0796 0.0000 0.0000 0.0000
# 4 0.0000 0.0000 0.0000 24.4379 0.0000 0.0000
# 5 0.0000 0.0000 0.0000 0.0000 26.8320 0.0000
# 6 0.0000 0.0000 0.0000 0.0000 0.0000 33.2785
#
#
#
# Elastic Compliance Matrix: (Units=1/GPa)
#
#
# Indices 1 2 3 4 5 6 
#
# 1 0.025983 -0.005782 -0.007918 0.000000 0.000000 0.000000
# 2 -0.005782 0.012103 -0.003425 0.000000 0.000000 0.000000
# 3 -0.007918 -0.003425 0.017234 0.000000 0.000000 0.000000
# 4 0.000000 0.000000 0.000000 0.040920 0.000000 0.000000
# 5 0.000000 0.000000 0.000000 0.000000 0.037269 0.000000
# 6 0.000000 0.000000 0.000000 0.000000 0.000000 0.030049
#
#
# Mechanical properties :
#
#
# Convention : Reuss Voigt Hill
#
# Bulk Modulus (GPa) = 47.46364 51.84830 49.65597
# Shear Modulus (GPa) = 24.41031 26.25345 25.33188
#
# Velocity S-wave (km/s) = 3.50597 3.63593 3.57154
# Velocity P-wave (km/s) = 6.34740 6.61324 6.48168
#
# Compressibility (1/GPa) = 0.02106876
#
# Stress axis : x y z
#
# Youngs Moduli (GPa) = 38.48720 82.62734 58.02399
#
# Poissons Ratio (x) = 0.47778 0.45941
# Poissons Ratio (y) = 0.22255 0.19876
# Poissons Ratio (z) = 0.30473 0.28303
#
# Static dielectric constant tensor:
#      x y z
#    x 3.633600 0.000000 0.000000 
#    y 0.000000 3.563330 0.000000 
#    z 0.000000 0.000000 3.561630 
# 
# 
# High freq. dielectric constant tensor:
#      x y z
#    x 1.777710 0.000000 0.000000 
#    y 0.000000 1.775670 0.000000 
#    z 0.000000 0.000000 1.770870 
# 
# From -- ./inp_files/7090.got.cif
#   From: 2010.03.12/outbox.cif.g09.slc.cpg/sg36_4_cif.got.tgz:7090.got - 2010.04.14 02:13:53.
