data_PCOD8174173
_publ_section_title
;
Structure prediction by ZEFSAII (Michael W. Deem and Ramdas Pophale) SiO2 
 PCOD8174173
Probable space group: C M C 21
;
_chemical_formula_sum "Si O2"
_cell_formula_units_Z 40
_cell_length_a 26.544632
_cell_length_b 9.253831
_cell_length_c 8.324245
_cell_angle_alpha 90.000000
_cell_angle_beta 90.000000
_cell_angle_gamma 90.000000
_cell_volume 2044.763700
_symmetry_space_group_name_H-M "C M C 21"
_symmetry_group_IT_number 36
_symmetry_cell_setting 'orthorhombic'
loop_
_space_group_symop_operation_xyz
x,y,z
-x,-y,1/2+z
x,-y,1/2+z
-x,y,z
1/2+x,1/2+y,z
1/2-x,1/2-y,1/2+z
1/2+x,1/2-y,1/2+z
1/2-x,1/2+y,z
loop_
_atom_site_type_symbol
_atom_site_label
_atom_site_fract_x
_atom_site_fract_y
_atom_site_fract_z
Si Si1 0.000000 0.807363 0.904410
Si Si2 0.204277 0.878192 0.530616
Si Si3 0.793655 0.193677 0.400931
Si Si4 0.500000 0.373361 0.530940
Si Si5 0.102474 0.192634 0.504403
Si Si6 0.398619 0.624571 0.877603
O O1 0.000000 0.838875 0.717371
O O2 0.050973 0.720695 0.957385
O O3 0.000000 0.953933 0.010803
O O4 0.208559 0.847811 0.716772
O O5 0.248538 0.801233 0.434525
O O6 0.151089 0.815377 0.466598
O O7 0.209599 0.049805 0.508736
O O8 0.846575 0.274020 0.447379
O O9 0.550379 0.305286 0.450896
O O10 0.105087 0.160318 0.691510
O O11 0.099798 0.047556 0.396893
#
# Coordination Sequence:
#
# PCOD8174173 Si02
#       6
#     4   8   8   4   8   8
#     4  10  16  24  38  60  89 122 155 194 241 292
#     4  11  21  35  52  74 101 133 168 207 249 296
#     4  11  21  35  52  74 101 133 168 207 249 296
#     4  10  16  24  38  60  89 122 155 194 241 292
#     4  10  17  27  42  64  92 124 158 198 243 292
#     4  10  17  27  42  64  92 124 158 198 243 292
#
# _framework density 19.562163000000002
#
# number of rings (size 3 to 8) (size 9 to 14) (size 15 to 20)
#    0.000    1.600    0.000   13.800    0.000    0.000 
#    0.000    0.000    0.000    0.000    0.000    1.400 
#    0.000    0.000    0.000    0.000    0.000    0.000 
#
# Total GULP energy -247897.034347 kJ/mol
# GULP energy per Si atom -12394.851717 kJ/mol
# Density = 1.951764 g / cm^3
# Si number density = 19.562163 Si / 1000 Ang^3
#
#
#
# Elastic Constant Matrix: (Units=GPa)
#
#
# Indices 1 2 3 4 5 6 
#
# 1 208.2713 23.2205 22.1948 0.0000 0.0000 0.0000
# 2 23.2205 14.7082 -1.8947 0.0000 0.0000 0.0000
# 3 22.1948 -1.8947 81.3282 0.0000 0.0000 0.0000
# 4 0.0000 0.0000 0.0000 15.0613 0.0000 0.0000
# 5 0.0000 0.0000 0.0000 0.0000 41.6897 0.0000
# 6 0.0000 0.0000 0.0000 0.0000 0.0000 16.4596
#
#
#
# Elastic Compliance Matrix: (Units=1/GPa)
#
#
# Indices 1 2 3 4 5 6 
#
# 1 0.006105 -0.009883 -0.001896 0.000000 0.000000 0.000000
# 2 -0.009883 0.084192 0.004659 0.000000 0.000000 0.000000
# 3 -0.001896 0.004659 0.012922 0.000000 0.000000 0.000000
# 4 0.000000 0.000000 0.000000 0.066395 0.000000 0.000000
# 5 0.000000 0.000000 0.000000 0.000000 0.023987 0.000000
# 6 0.000000 0.000000 0.000000 0.000000 0.000000 0.060755
#
#
# Mechanical properties :
#
#
# Convention : Reuss Voigt Hill
#
# Bulk Modulus (GPa) = 11.23880 43.48322 27.36101
# Shear Modulus (GPa) = 16.76402 32.02791 24.39597
#
# Velocity S-wave (km/s) = 2.93057 4.05067 3.53526
# Velocity P-wave (km/s) = 4.14833 6.64483 5.53906
#
# Compressibility (1/GPa) = 0.08897743
#
# Stress axis : x y z
#
# Youngs Moduli (GPa) = 163.78895 11.87758 77.38782
#
# Poissons Ratio (x) = 0.11739 0.14676
# Poissons Ratio (y) = 1.61875 -0.36051
# Poissons Ratio (z) = 0.31062 -0.05533
#
# Static dielectric constant tensor:
#      x y z
#    x 4.926360 0.000000 0.000000 
#    y 0.000000 3.107670 0.000000 
#    z 0.000000 0.000000 3.629240 
# 
# 
# High freq. dielectric constant tensor:
#      x y z
#    x 1.807490 0.000000 0.000000 
#    y 0.000000 1.655750 0.000000 
#    z 0.000000 0.000000 1.789400 
# 
# From -- ./inp_files/5762.got.cif
#   From: 2010.03.12/outbox.cif.g09.slc.cpg/sg36_3_cif.got.tgz:5762.got - 2010.04.14 02:13:53.
