data_PCOD8174071
_publ_section_title
;
Structure prediction by ZEFSAII (Michael W. Deem and Ramdas Pophale) SiO2 
 PCOD8174071
Probable space group: C M M 2
;
_chemical_formula_sum "Si O2"
_cell_formula_units_Z 56
_cell_length_a 26.264827
_cell_length_b 16.838510
_cell_length_c 7.806673
_cell_angle_alpha 90.000000
_cell_angle_beta 90.000000
_cell_angle_gamma 90.000000
_cell_volume 3452.583511
_symmetry_space_group_name_H-M "C M M 2"
_symmetry_group_IT_number 35
_symmetry_cell_setting 'orthorhombic'
loop_
_space_group_symop_operation_xyz
x,y,z
-x,-y,z
-x,y,z
x,-y,z
1/2+x,1/2+y,z
1/2-x,1/2-y,z
1/2-x,1/2+y,z
1/2+x,1/2-y,z
loop_
_atom_site_type_symbol
_atom_site_label
_atom_site_fract_x
_atom_site_fract_y
_atom_site_fract_z
Si Si1 0.159011 0.408163 0.445520
Si Si2 0.257914 0.339244 0.599618
Si Si3 0.845029 0.331137 0.103163
Si Si4 0.942789 0.589997 0.975535
Si Si5 0.752340 0.407154 0.947477
Si Si6 0.054470 0.591063 0.572402
Si Si7 0.794949 0.813381 0.238537
O O1 0.157505 0.500000 0.491275
O O2 0.201857 0.370406 0.560945
O O3 0.172799 0.392414 0.249824
O O4 0.103502 0.368129 0.484306
O O5 0.250000 0.250000 0.658618
O O6 0.276765 0.387644 0.767584
O O7 0.296933 0.347032 0.435443
O O8 0.843047 0.239634 0.173482
O O9 0.903292 0.347276 0.053385
O O10 0.804534 0.353937 0.953673
O O11 0.928891 0.500000 0.033331
O O12 0.939134 0.597108 0.773890
O O13 0.000000 0.610925 0.038781
O O14 0.765153 0.500000 0.957470
O O15 0.714820 0.384408 0.104932
O O16 0.052514 0.500000 0.513749
O O17 0.000000 0.630808 0.517730
O O18 0.750000 0.750000 0.235992
#
# Coordination Sequence:
#
# PCOD8174071 Si02
#       7
#     8   8   8   8   8   8   8
#     4  11  19  27  45  66  88 121 162 202 230 271
#     4  11  19  33  47  63  91 124 160 199 246 287
#     4  11  19  32  45  67  96 127 163 200 239 287
#     4   9  17  29  45  66  95 130 168 204 233 270
#     4  11  21  31  49  70  91 123 163 204 241 287
#     4   8  16  29  41  60  91 124 160 198 232 266
#     4   9  19  35  46  65  93 124 157 199 243 288
#
# _framework density 16.219736999999999
#
# number of rings (size 3 to 8) (size 9 to 14) (size 15 to 20)
#    0.000    2.000    4.286    4.714    0.000    2.286 
#    0.000    1.429    0.000    0.000    0.000    0.000 
#    0.000    0.571    0.000    0.571    0.000    3.143 
#
# Total GULP energy -346886.532725 kJ/mol
# GULP energy per Si atom -12388.804740 kJ/mol
# Density = 1.618282 g / cm^3
# Si number density = 16.219737 Si / 1000 Ang^3
#
#
#
# Elastic Constant Matrix: (Units=GPa)
#
#
# Indices 1 2 3 4 5 6 
#
# 1 66.2845 32.7839 22.7342 0.0000 0.0000 0.0000
# 2 32.7839 54.1660 29.4527 0.0000 0.0000 0.0000
# 3 22.7342 29.4527 86.4245 0.0000 0.0000 0.0000
# 4 0.0000 0.0000 0.0000 -0.6447 0.0000 0.0000
# 5 0.0000 0.0000 0.0000 0.0000 5.1553 0.0000
# 6 0.0000 0.0000 0.0000 0.0000 0.0000 21.1818
#
#
#
# Elastic Compliance Matrix: (Units=1/GPa)
#
#
# Indices 1 2 3 4 5 6 
#
# 1 0.021692 -0.012307 -0.001512 0.000000 0.000000 0.000000
# 2 -0.012307 0.029643 -0.006865 0.000000 0.000000 0.000000
# 3 -0.001512 -0.006865 0.014308 0.000000 0.000000 0.000000
# 4 0.000000 0.000000 0.000000 -1.551028 0.000000 0.000000
# 5 0.000000 0.000000 0.000000 0.000000 0.193975 0.000000
# 6 0.000000 0.000000 0.000000 0.000000 0.000000 0.047210
#
#
# Mechanical properties :
#
#
# Convention : Reuss Voigt Hill
#
# Bulk Modulus (GPa) = 41.19336 41.86852 41.53094
# Shear Modulus (GPa) = -4.18501 13.26542 4.54020
#
# Velocity S-wave (km/s) = -1.60804 2.86292 1.67489
# Velocity P-wave (km/s) = 4.69089 6.06612 5.42228
#
# Compressibility (1/GPa) = 0.02427576
#
# Stress axis : x y z
#
# Youngs Moduli (GPa) = 46.09990 33.73457 69.89103
#
# Poissons Ratio (x) = 0.41517 0.10568
# Poissons Ratio (y) = 0.56735 0.47978
# Poissons Ratio (z) = 0.06971 0.23158
#
# Static dielectric constant tensor:
#      x y z
#    x 3.391940 0.000000 0.000000 
#    y 0.000000 3.106300 0.000000 
#    z 0.000000 0.000000 3.393760 
# 
# 
# High freq. dielectric constant tensor:
#      x y z
#    x 1.591590 0.000000 0.000000 
#    y 0.000000 1.581700 0.000000 
#    z 0.000000 0.000000 1.642980 
# 
# From -- ./inp_files/10654.got.cif
#   From: 2010.03.12/outbox.cif.g09.slc.cpg/sg35_6_cif.got.tgz:10654.got - 2010.04.14 02:02:04.
