data_PCOD8174890
_publ_section_title
;
Structure prediction by ZEFSAII (Michael W. Deem and Ramdas Pophale) SiO2 
 PCOD8174890
Probable space group: C M C 21
;
_chemical_formula_sum "Si O2"
_cell_formula_units_Z 64
_cell_length_a 8.506448
_cell_length_b 15.472175
_cell_length_c 23.955308
_cell_angle_alpha 90.000000
_cell_angle_beta 90.000000
_cell_angle_gamma 90.000000
_cell_volume 3152.835991
_symmetry_space_group_name_H-M "C M C 21"
_symmetry_group_IT_number 36
_symmetry_cell_setting 'orthorhombic'
loop_
_space_group_symop_operation_xyz
x,y,z
-x,-y,1/2+z
x,-y,1/2+z
-x,y,z
1/2+x,1/2+y,z
1/2-x,1/2-y,1/2+z
1/2+x,1/2-y,1/2+z
1/2-x,1/2+y,z
loop_
_atom_site_type_symbol
_atom_site_label
_atom_site_fract_x
_atom_site_fract_y
_atom_site_fract_z
Si Si1 0.184214 0.904299 0.866970
Si Si2 0.683754 0.917834 0.375405
Si Si3 0.816419 0.853247 0.263127
Si Si4 0.813784 0.090894 0.642544
Si Si5 0.312910 0.752623 0.442576
Si Si6 0.318747 0.847521 0.753644
Si Si7 0.185042 0.244662 0.567273
Si Si8 0.182509 0.102977 0.138058
O O1 0.248383 0.829826 0.907964
O O2 0.274723 0.901340 0.808326
O O3 0.000000 0.893615 0.856146
O O4 0.223811 0.996406 0.894828
O O5 0.500000 0.932071 0.384967
O O6 0.715900 0.898753 0.310760
O O7 0.749611 0.839562 0.413185
O O8 0.751117 0.890312 0.204738
O O9 0.782270 0.751937 0.265423
O O10 0.000000 0.874258 0.272128
O O11 0.742160 0.162172 0.600085
O O12 0.000000 0.101174 0.644272
O O13 0.764415 0.994955 0.623240
O O14 0.500000 0.752796 0.443661
O O15 0.242571 0.747917 0.505099
O O16 0.500000 0.861996 0.737782
O O17 0.212551 0.880241 0.703041
O O18 0.219171 0.333075 0.599486
O O19 0.000000 0.233162 0.563125
O O20 0.000000 0.116728 0.125326
#
# Coordination Sequence:
#
# PCOD8174890 Si02
#       8
#     8   8   8   8   8   8   8   8
#     4  11  22  39  60  88 119 155 196 241 295 351
#     4  11  22  38  58  88 119 153 194 239 293 351
#     4  10  19  35  59  87 114 152 193 234 292 352
#     4   9  19  36  58  82 112 148 189 231 283 347
#     4   9  21  39  61  83 112 154 200 244 294 345
#     4  11  21  36  61  90 117 154 195 238 294 354
#     4  10  20  41  63  80 110 157 202 243 289 346
#     4  11  22  36  58  90 121 151 189 242 294 348
#
# _framework density 20.299185000000001
#
# number of rings (size 3 to 8) (size 9 to 14) (size 15 to 20)
#    0.000    1.750    2.500    2.250    0.000    2.500 
#    0.000    5.625    0.000    0.000    0.000    0.000 
#    0.000    0.000    0.000    0.000    0.000    0.000 
#
# Total GULP energy -396905.578715 kJ/mol
# GULP energy per Si atom -12403.299335 kJ/mol
# Density = 2.025298 g / cm^3
# Si number density = 20.299185 Si / 1000 Ang^3
#
#
#
# Elastic Constant Matrix: (Units=GPa)
#
#
# Indices 1 2 3 4 5 6 
#
# 1 21.8897 14.8062 2.3559 0.0000 0.0000 0.0000
# 2 14.8062 148.1074 61.2460 0.0000 0.0000 0.0000
# 3 2.3559 61.2460 143.2588 0.0000 0.0000 0.0000
# 4 0.0000 0.0000 0.0000 13.1509 0.0000 0.0000
# 5 0.0000 0.0000 0.0000 0.0000 22.0722 0.0000
# 6 0.0000 0.0000 0.0000 0.0000 0.0000 24.6742
#
#
#
# Elastic Compliance Matrix: (Units=1/GPa)
#
#
# Indices 1 2 3 4 5 6 
#
# 1 0.049287 -0.005578 0.001574 0.000000 0.000000 0.000000
# 2 -0.005578 0.008833 -0.003685 0.000000 0.000000 0.000000
# 3 0.001574 -0.003685 0.008530 0.000000 0.000000 0.000000
# 4 0.000000 0.000000 0.000000 0.076040 0.000000 0.000000
# 5 0.000000 0.000000 0.000000 0.000000 0.045306 0.000000
# 6 0.000000 0.000000 0.000000 0.000000 0.000000 0.040528
#
#
# Mechanical properties :
#
#
# Convention : Reuss Voigt Hill
#
# Bulk Modulus (GPa) = 19.50345 52.23025 35.86685
# Shear Modulus (GPa) = 19.15764 27.63600 23.39682
#
# Velocity S-wave (km/s) = 3.07541 3.69376 3.39868
# Velocity P-wave (km/s) = 4.71590 6.63159 5.75403
#
# Compressibility (1/GPa) = 0.05127298
#
# Stress axis : x y z
#
# Youngs Moduli (GPa) = 20.28924 113.20946 117.23696
#
# Poissons Ratio (x) = 0.63150 -0.18456
# Poissons Ratio (y) = 0.11318 0.43197
# Poissons Ratio (z) = -0.03194 0.41713
#
# Static dielectric constant tensor:
#      x y z
#    x 3.318440 0.000000 0.000000 
#    y 0.000000 3.940020 0.000000 
#    z 0.000000 0.000000 3.796800 
# 
# 
# High freq. dielectric constant tensor:
#      x y z
#    x 1.764080 0.000000 0.000000 
#    y 0.000000 1.811480 0.000000 
#    z 0.000000 0.000000 1.789270 
# 
# From -- ./inp_files/16619.got.cif
#   From: 2010.03.12/outbox.cif.g09.slc.cpg/sg36_9_cif.got.tgz:16619.got - 2010.04.14 02:13:53.
