data_PCOD8174555
_publ_section_title
;
Structure prediction by ZEFSAII (Michael W. Deem and Ramdas Pophale) SiO2 
 PCOD8174555
Probable space group: C M C 21
;
_chemical_formula_sum "Si O2"
_cell_formula_units_Z 56
_cell_length_a 14.086372
_cell_length_b 23.955593
_cell_length_c 9.132155
_cell_angle_alpha 90.000000
_cell_angle_beta 90.000000
_cell_angle_gamma 90.000000
_cell_volume 3081.621911
_symmetry_space_group_name_H-M "C M C 21"
_symmetry_group_IT_number 36
_symmetry_cell_setting 'orthorhombic'
loop_
_space_group_symop_operation_xyz
x,y,z
-x,-y,1/2+z
x,-y,1/2+z
-x,y,z
1/2+x,1/2+y,z
1/2-x,1/2-y,1/2+z
1/2+x,1/2-y,1/2+z
1/2-x,1/2+y,z
loop_
_atom_site_type_symbol
_atom_site_label
_atom_site_fract_x
_atom_site_fract_y
_atom_site_fract_z
Si Si1 0.500000 0.036262 0.818010
Si Si2 0.207899 0.565875 0.112841
Si Si3 0.000000 0.435125 0.633152
Si Si4 0.754962 0.832232 0.779581
Si Si5 0.752853 0.841845 0.116167
Si Si6 0.294364 0.051460 0.775987
Si Si7 0.890410 0.743230 0.122843
Si Si8 0.390478 0.766353 0.287302
O O1 0.406069 0.068392 0.762512
O O2 0.500000 0.972141 0.775861
O O3 0.500000 0.025794 0.990698
O O4 0.275452 0.613257 0.180078
O O5 0.219882 0.509682 0.207415
O O6 0.102068 0.595833 0.127252
O O7 0.236117 0.551728 0.946388
O O8 0.662693 0.797505 0.732946
O O9 0.848884 0.795196 0.758842
O O10 0.734607 0.851004 0.944982
O O11 0.766992 0.902590 0.189612
O O12 0.847787 0.805536 0.138836
O O13 0.663079 0.811854 0.190326
O O14 0.000000 0.746110 0.167942
O O15 0.877065 0.719280 0.958713
O O16 0.500000 0.766158 0.241166
#
# Coordination Sequence:
#
# PCOD8174555 Si02
#       8
#     4   8   4   8   8   8   8   8
#     4   8  16  28  42  62  90 126 162 192 229 282
#     4  10  19  32  49  71 101 136 169 204 248 299
#     4   8  16  28  42  62  90 126 162 192 229 282
#     4  10  20  33  51  78 104 130 168 210 252 299
#     4  10  20  33  51  78 104 130 168 210 252 299
#     4  10  19  32  49  71 101 136 169 204 248 299
#     4   9  19  36  55  73  99 135 171 208 251 298
#     4   9  19  36  55  73  99 135 171 208 251 298
#
# _framework density 18.172249000000001
#
# number of rings (size 3 to 8) (size 9 to 14) (size 15 to 20)
#    0.000    2.571    0.000    1.714    2.000    2.857 
#    0.000    0.000    0.000    0.857    0.000    0.000 
#    0.000    0.000    0.000    0.000    0.000    0.000 
#
# Total GULP energy -346993.965231 kJ/mol
# GULP energy per Si atom -12392.641615 kJ/mol
# Density = 1.813089 g / cm^3
# Si number density = 18.172249 Si / 1000 Ang^3
#
#
#
# Elastic Constant Matrix: (Units=GPa)
#
#
# Indices 1 2 3 4 5 6 
#
# 1 62.0831 12.4550 21.1885 0.0000 0.0000 0.0000
# 2 12.4550 81.0836 40.9070 0.0000 0.0000 0.0000
# 3 21.1885 40.9070 95.4623 0.0000 0.0000 0.0000
# 4 0.0000 0.0000 0.0000 38.2299 0.0000 0.0000
# 5 0.0000 0.0000 0.0000 0.0000 20.2025 0.0000
# 6 0.0000 0.0000 0.0000 0.0000 0.0000 17.5512
#
#
#
# Elastic Compliance Matrix: (Units=1/GPa)
#
#
# Indices 1 2 3 4 5 6 
#
# 1 0.017482 -0.000928 -0.003482 0.000000 0.000000 0.000000
# 2 -0.000928 0.015784 -0.006558 0.000000 0.000000 0.000000
# 3 -0.003482 -0.006558 0.014058 0.000000 0.000000 0.000000
# 4 0.000000 0.000000 0.000000 0.026158 0.000000 0.000000
# 5 0.000000 0.000000 0.000000 0.000000 0.049499 0.000000
# 6 0.000000 0.000000 0.000000 0.000000 0.000000 0.056976
#
#
# Mechanical properties :
#
#
# Convention : Reuss Voigt Hill
#
# Bulk Modulus (GPa) = 39.38947 43.08110 41.23528
# Shear Modulus (GPa) = 23.76920 26.13530 24.95225
#
# Velocity S-wave (km/s) = 3.62054 3.79647 3.70955
# Velocity P-wave (km/s) = 6.26103 6.55562 6.41002
#
# Compressibility (1/GPa) = 0.02538750
#
# Stress axis : x y z
#
# Youngs Moduli (GPa) = 57.20093 63.35583 71.13246
#
# Poissons Ratio (x) = 0.05883 0.24771
# Poissons Ratio (y) = 0.05311 0.46645
# Poissons Ratio (z) = 0.19920 0.41546
#
# Static dielectric constant tensor:
#      x y z
#    x 3.237830 0.000000 0.000000 
#    y 0.000000 3.221830 0.000000 
#    z 0.000000 0.000000 3.476090 
# 
# 
# High freq. dielectric constant tensor:
#      x y z
#    x 1.670990 0.000000 0.000000 
#    y 0.000000 1.700110 0.000000 
#    z 0.000000 0.000000 1.716840 
# 
# From -- ./inp_files/4230.got.cif
#   From: 2010.03.12/outbox.cif.g09.slc.cpg/sg36_3_cif.got.tgz:4230.got - 2010.04.14 02:13:53.
