data_PCOD8174377
_publ_section_title
;
Structure prediction by ZEFSAII (Michael W. Deem and Ramdas Pophale) SiO2 
 PCOD8174377
Probable space group: C M C 21
;
_chemical_formula_sum "Si O2"
_cell_formula_units_Z 56
_cell_length_a 26.034958
_cell_length_b 5.165901
_cell_length_c 24.043656
_cell_angle_alpha 90.000000
_cell_angle_beta 90.000000
_cell_angle_gamma 90.000000
_cell_volume 3233.727844
_symmetry_space_group_name_H-M "C M C 21"
_symmetry_group_IT_number 36
_symmetry_cell_setting 'orthorhombic'
loop_
_space_group_symop_operation_xyz
x,y,z
-x,-y,1/2+z
x,-y,1/2+z
-x,y,z
1/2+x,1/2+y,z
1/2-x,1/2-y,1/2+z
1/2+x,1/2-y,1/2+z
1/2-x,1/2+y,z
loop_
_atom_site_type_symbol
_atom_site_label
_atom_site_fract_x
_atom_site_fract_y
_atom_site_fract_z
Si Si1 0.846882 0.708312 0.429780
Si Si2 0.558391 0.236413 0.598521
Si Si3 0.716449 0.243183 0.198134
Si Si4 0.781848 0.772644 0.325561
Si Si5 0.851577 0.203124 0.492351
Si Si6 0.942839 0.106933 0.974138
Si Si7 0.623921 0.735088 0.614917
O O1 0.829436 0.720662 0.366265
O O2 0.828621 0.443991 0.458701
O O3 0.824104 0.944234 0.467663
O O4 0.909395 0.726403 0.429865
O O5 0.500000 0.242090 0.621432
O O6 0.557564 0.235803 0.531746
O O7 0.589255 0.481169 0.622006
O O8 0.586477 0.979522 0.619196
O O9 0.752980 0.483078 0.183338
O O10 0.699168 0.246017 0.262496
O O11 0.664001 0.255325 0.164691
O O12 0.738149 0.560688 0.337824
O O13 0.842344 0.234304 0.558124
O O14 0.913767 0.168845 0.483720
O O15 0.000000 0.057287 0.951451
#
# Coordination Sequence:
#
# PCOD8174377 Si02
#       7
#     8   8   8   8   8   8   8
#     4  10  18  33  51  75 105 133 169 211 253 303
#     4  10  19  31  53  80 109 145 176 205 254 319
#     4  10  22  38  57  79  98 138 187 220 262 314
#     4  10  21  38  57  75  97 133 185 220 251 306
#     4   9  18  30  48  75 108 130 166 198 261 308
#     4   8  17  29  49  75 105 136 167 199 241 305
#     4  11  18  35  53  77 114 135 172 225 259 307
#
# _framework density 17.317474000000001
#
# number of rings (size 3 to 8) (size 9 to 14) (size 15 to 20)
#    0.857    1.429    1.429    2.143    0.000    1.143 
#    0.000    4.286    0.000    1.714    0.000    0.000 
#    0.000    0.000    0.000    0.000    0.000    0.000 
#
# Total GULP energy -347007.124446 kJ/mol
# GULP energy per Si atom -12393.111587 kJ/mol
# Density = 1.727806 g / cm^3
# Si number density = 17.317474 Si / 1000 Ang^3
#
#
#
# Elastic Constant Matrix: (Units=GPa)
#
#
# Indices 1 2 3 4 5 6 
#
# 1 81.6365 26.4016 60.5192 0.0000 0.0000 0.0000
# 2 26.4016 119.6798 35.0257 0.0000 0.0000 0.0000
# 3 60.5192 35.0257 86.3394 0.0000 0.0000 0.0000
# 4 0.0000 0.0000 0.0000 15.1079 0.0000 0.0000
# 5 0.0000 0.0000 0.0000 0.0000 18.0815 0.0000
# 6 0.0000 0.0000 0.0000 0.0000 0.0000 21.1926
#
#
#
# Elastic Compliance Matrix: (Units=1/GPa)
#
#
# Indices 1 2 3 4 5 6 
#
# 1 0.025521 -0.000448 -0.017707 0.000000 0.000000 0.000000
# 2 -0.000448 0.009489 -0.003536 0.000000 0.000000 0.000000
# 3 -0.017707 -0.003536 0.025428 0.000000 0.000000 0.000000
# 4 0.000000 0.000000 0.000000 0.066190 0.000000 0.000000
# 5 0.000000 0.000000 0.000000 0.000000 0.055305 0.000000
# 6 0.000000 0.000000 0.000000 0.000000 0.000000 0.047186
#
#
# Mechanical properties :
#
#
# Convention : Reuss Voigt Hill
#
# Bulk Modulus (GPa) = 58.62610 59.06098 58.84354
# Shear Modulus (GPa) = 17.97349 21.92368 19.94859
#
# Velocity S-wave (km/s) = 3.22511 3.56193 3.39770
# Velocity P-wave (km/s) = 6.91344 7.14810 7.03175
#
# Compressibility (1/GPa) = 0.01705725
#
# Stress axis : x y z
#
# Youngs Moduli (GPa) = 39.18331 105.38345 39.32621
#
# Poissons Ratio (x) = 0.04719 0.69636
# Poissons Ratio (y) = 0.01755 0.13904
# Poissons Ratio (z) = 0.69383 0.37260
#
# Static dielectric constant tensor:
#      x y z
#    x 3.060310 0.000000 0.000000 
#    y 0.000000 3.364990 0.000000 
#    z 0.000000 0.000000 3.028840 
# 
# 
# High freq. dielectric constant tensor:
#      x y z
#    x 1.649260 0.000000 0.000000 
#    y 0.000000 1.687460 0.000000 
#    z 0.000000 0.000000 1.641600 
# 
# From -- ./inp_files/17036.got.cif
#   From: 2010.03.12/outbox.cif.g09.slc.cpg/sg36_9_cif.got.tgz:17036.got - 2010.04.14 02:13:53.
