data_PCOD8174065
_publ_section_title
;
Structure prediction by ZEFSAII (Michael W. Deem and Ramdas Pophale) SiO2 
 PCOD8174065
Probable space group: C M M 2
;
_chemical_formula_sum "Si O2"
_cell_formula_units_Z 64
_cell_length_a 8.809208
_cell_length_b 30.572177
_cell_length_c 11.814746
_cell_angle_alpha 90.000000
_cell_angle_beta 90.000000
_cell_angle_gamma 90.000000
_cell_volume 3181.908005
_symmetry_space_group_name_H-M "C M M 2"
_symmetry_group_IT_number 35
_symmetry_cell_setting 'orthorhombic'
loop_
_space_group_symop_operation_xyz
x,y,z
-x,-y,z
-x,y,z
x,-y,z
1/2+x,1/2+y,z
1/2-x,1/2-y,z
1/2-x,1/2+y,z
1/2+x,1/2-y,z
loop_
_atom_site_type_symbol
_atom_site_label
_atom_site_fract_x
_atom_site_fract_y
_atom_site_fract_z
Si Si1 0.679348 0.206082 0.630130
Si Si2 0.677229 0.121507 0.485920
Si Si3 0.174472 0.049797 0.633870
Si Si4 0.679185 0.920716 0.862100
Si Si5 0.173198 0.049698 0.086639
Si Si6 0.178076 0.375574 0.225327
Si Si7 0.673408 0.705289 0.100363
Si Si8 0.325481 0.327059 0.852856
O O1 0.500000 0.210977 0.642327
O O2 0.750000 0.250000 0.574917
O O3 0.724286 0.165258 0.552113
O O4 0.753394 0.200962 0.752901
O O5 0.500000 0.111343 0.501707
O O6 0.771276 0.080710 0.532656
O O7 0.722270 0.128314 0.356222
O O8 0.274398 0.057630 0.744507
O O9 0.000000 0.060127 0.663122
O O10 0.195513 0.000000 0.592977
O O11 0.500000 0.922537 0.874485
O O12 0.731187 0.870981 0.868417
O O13 0.752724 0.947847 0.963319
O O14 0.258553 0.079109 0.177750
O O15 0.000000 0.065895 0.076861
O O16 0.182977 0.000000 0.129990
O O17 0.246410 0.335173 0.158939
O O18 0.000000 0.375154 0.206079
O O19 0.500000 0.705943 0.139681
O O20 0.750000 0.750000 0.141728
O O21 0.688411 0.701491 0.965608
O O22 0.500000 0.338550 0.825244
#
# Coordination Sequence:
#
# PCOD8174065 Si02
#       8
#     8   8   8   8   8   8   8   8
#     4  11  23  40  63  92 126 163 207 255 309 369
#     4  10  24  44  64  90 123 164 212 261 310 366
#     4  11  24  41  64  94 127 165 208 254 308 371
#     4  12  23  37  63  95 128 165 203 251 311 374
#     4  11  24  42  64  92 127 165 208 258 311 373
#     4  11  24  43  66  91 124 164 212 264 314 370
#     4  11  24  41  64  93 128 165 207 257 311 372
#     4  11  22  38  63  94 128 163 202 251 308 371
#
# _framework density 20.113717999999999
#
# number of rings (size 3 to 8) (size 9 to 14) (size 15 to 20)
#    0.000    1.000    2.500    4.125    0.000    8.500 
#    0.000    3.750    0.000    0.000    0.000    0.000 
#    0.000    0.000    0.000    0.000    0.000    0.000 
#
# Total GULP energy -397016.963278 kJ/mol
# GULP energy per Si atom -12406.780102 kJ/mol
# Density = 2.006794 g / cm^3
# Si number density = 20.113718 Si / 1000 Ang^3
#
#
#
# Elastic Constant Matrix: (Units=GPa)
#
#
# Indices 1 2 3 4 5 6 
#
# 1 -44.3220 -19.8318 166.9186 0.0000 0.0000 0.0000
# 2 -19.8318 94.3138 87.2193 0.0000 0.0000 0.0000
# 3 166.9186 87.2193 29.8319 0.0000 0.0000 0.0000
# 4 0.0000 0.0000 0.0000 9.1590 0.0000 0.0000
# 5 0.0000 0.0000 0.0000 0.0000 22.9427 0.0000
# 6 0.0000 0.0000 0.0000 0.0000 0.0000 38.2208
#
#
#
# Elastic Compliance Matrix: (Units=1/GPa)
#
#
# Indices 1 2 3 4 5 6 
#
# 1 0.001596 -0.005043 0.005815 0.000000 0.000000 0.000000
# 2 -0.005043 0.009714 -0.000185 0.000000 0.000000 0.000000
# 3 0.005815 -0.000185 0.001522 0.000000 0.000000 0.000000
# 4 0.000000 0.000000 0.000000 0.109183 0.000000 0.000000
# 5 0.000000 0.000000 0.000000 0.000000 0.043587 0.000000
# 6 0.000000 0.000000 0.000000 0.000000 0.000000 0.026164
#
#
# Mechanical properties :
#
#
# Convention : Reuss Voigt Hill
#
# Bulk Modulus (GPa) = 71.39065 60.93733 66.16399
# Shear Modulus (GPa) = 25.60718 3.76566 14.68642
#
# Velocity S-wave (km/s) = 3.57195 1.36976 2.70510
# Velocity P-wave (km/s) = 7.25137 5.73270 6.53629
#
# Compressibility (1/GPa) = 0.01400744
#
# Stress axis : x y z
#
# Youngs Moduli (GPa) = 626.75891 102.94894 656.93192
#
# Poissons Ratio (x) = 0.51912 -3.82038
# Poissons Ratio (y) = 3.16046 0.12145
# Poissons Ratio (z) = -3.64491 0.01903
#
# Static dielectric constant tensor:
#      x y z
#    x 3.842810 0.000000 0.000000 
#    y 0.000000 3.772920 0.000000 
#    z 0.000000 0.000000 4.097930 
# 
# 
# High freq. dielectric constant tensor:
#      x y z
#    x 1.800960 0.000000 0.000000 
#    y 0.000000 1.800160 0.000000 
#    z 0.000000 0.000000 1.780050 
# 
# From -- ./inp_files/11980.got.cif
#   From: 2010.03.12/outbox.cif.g09.slc.cpg/sg35_6_cif.got.tgz:11980.got - 2010.04.14 02:02:04.
