data_PCOD8174905
_publ_section_title
;
Structure prediction by ZEFSAII (Michael W. Deem and Ramdas Pophale) SiO2 
 PCOD8174905
Probable space group: C M C 21
;
_chemical_formula_sum "Si O2"
_cell_formula_units_Z 64
_cell_length_a 8.954568
_cell_length_b 28.050924
_cell_length_c 12.453484
_cell_angle_alpha 90.000000
_cell_angle_beta 90.000000
_cell_angle_gamma 90.000000
_cell_volume 3128.114760
_symmetry_space_group_name_H-M "C M C 21"
_symmetry_group_IT_number 36
_symmetry_cell_setting 'orthorhombic'
loop_
_space_group_symop_operation_xyz
x,y,z
-x,-y,1/2+z
x,-y,1/2+z
-x,y,z
1/2+x,1/2+y,z
1/2-x,1/2-y,1/2+z
1/2+x,1/2-y,1/2+z
1/2-x,1/2+y,z
loop_
_atom_site_type_symbol
_atom_site_label
_atom_site_fract_x
_atom_site_fract_y
_atom_site_fract_z
Si Si1 0.825938 0.225164 0.251290
Si Si2 0.672567 0.031044 0.539627
Si Si3 0.835446 0.314649 0.940799
Si Si4 0.171931 0.572826 0.962383
Si Si5 0.325884 0.418602 0.238811
Si Si6 0.164550 0.585076 0.333131
Si Si7 0.173907 0.125669 0.141886
Si Si8 0.172831 0.815281 0.155346
O O1 0.735502 0.224970 0.362915
O O2 0.788135 0.179637 0.176732
O O3 0.778597 0.272785 0.191766
O O4 0.000000 0.226223 0.278692
O O5 0.500000 0.046696 0.552010
O O6 0.762056 0.051055 0.640311
O O7 0.735302 0.052819 0.427585
O O8 0.691400 0.974424 0.534179
O O9 0.855278 0.361779 0.873214
O O10 0.000000 0.297350 0.981345
O O11 0.719765 0.326478 0.034343
O O12 0.248951 0.564818 0.848026
O O13 0.000000 0.585078 0.941611
O O14 0.245536 0.616262 0.028264
O O15 0.500000 0.429737 0.245648
O O16 0.295981 0.362357 0.224751
O O17 0.271271 0.586721 0.229589
O O18 0.000000 0.565061 0.299623
O O19 0.000000 0.117781 0.124905
O O20 0.000000 0.800113 0.160647
#
# Coordination Sequence:
#
# PCOD8174905 Si02
#       8
#     8   8   8   8   8   8   8   8
#     4  10  22  39  61  89 122 163 209 258 312 371
#     4  10  22  41  64  91 121 159 207 253 301 367
#     4  10  19  35  60  87 116 155 201 252 308 364
#     4  11  25  42  64  91 126 170 211 254 307 371
#     4  11  25  43  64  93 128 162 204 258 314 370
#     4   9  18  35  61  88 116 153 199 252 303 361
#     4  10  22  40  61  89 125 161 205 258 311 366
#     4  11  23  39  61  90 124 161 204 255 310 372
#
# _framework density 20.459607999999999
#
# number of rings (size 3 to 8) (size 9 to 14) (size 15 to 20)
#    0.000    1.750    1.250    2.250    1.750    6.000 
#    0.000    1.250    0.000    0.000    0.000    0.000 
#    0.000    0.000    0.000    0.000    0.000    0.000 
#
# Total GULP energy -396847.610375 kJ/mol
# GULP energy per Si atom -12401.487824 kJ/mol
# Density = 2.041304 g / cm^3
# Si number density = 20.459608 Si / 1000 Ang^3
#
#
#
# Elastic Constant Matrix: (Units=GPa)
#
#
# Indices 1 2 3 4 5 6 
#
# 1 102.7869 50.4143 49.7083 0.0000 0.0000 0.0000
# 2 50.4143 63.8493 28.6566 0.0000 0.0000 0.0000
# 3 49.7083 28.6566 94.6265 0.0000 0.0000 0.0000
# 4 0.0000 0.0000 0.0000 18.8897 0.0000 0.0000
# 5 0.0000 0.0000 0.0000 0.0000 35.4433 0.0000
# 6 0.0000 0.0000 0.0000 0.0000 0.0000 26.9957
#
#
#
# Elastic Compliance Matrix: (Units=1/GPa)
#
#
# Indices 1 2 3 4 5 6 
#
# 1 0.018515 -0.011867 -0.006132 0.000000 0.000000 0.000000
# 2 -0.011867 0.025731 -0.001559 0.000000 0.000000 0.000000
# 3 -0.006132 -0.001559 0.014261 0.000000 0.000000 0.000000
# 4 0.000000 0.000000 0.000000 0.052939 0.000000 0.000000
# 5 0.000000 0.000000 0.000000 0.000000 0.028214 0.000000
# 6 0.000000 0.000000 0.000000 0.000000 0.000000 0.037043
#
#
# Mechanical properties :
#
#
# Convention : Reuss Voigt Hill
#
# Bulk Modulus (GPa) = 51.56811 57.64677 54.60744
# Shear Modulus (GPa) = 22.49392 25.09799 23.79595
#
# Velocity S-wave (km/s) = 3.31936 3.50624 3.41408
# Velocity P-wave (km/s) = 6.32064 6.68047 6.50304
#
# Compressibility (1/GPa) = 0.01939183
#
# Stress axis : x y z
#
# Youngs Moduli (GPa) = 54.01096 38.86341 70.11992
#
# Poissons Ratio (x) = 0.46118 0.43000
# Poissons Ratio (y) = 0.64093 0.10930
# Poissons Ratio (z) = 0.33121 0.06058
#
# Static dielectric constant tensor:
#      x y z
#    x 3.909370 0.000000 0.000000 
#    y 0.000000 3.585570 0.000000 
#    z 0.000000 0.000000 3.702890 
# 
# 
# High freq. dielectric constant tensor:
#      x y z
#    x 1.806790 0.000000 0.000000 
#    y 0.000000 1.792350 0.000000 
#    z 0.000000 0.000000 1.803090 
# 
# From -- ./inp_files/7155.got.cif
#   From: 2010.03.12/outbox.cif.g09.slc.cpg/sg36_4_cif.got.tgz:7155.got - 2010.04.14 02:13:53.
