data_PCOD8174790
_publ_section_title
;
Structure prediction by ZEFSAII (Michael W. Deem and Ramdas Pophale) SiO2 
 PCOD8174790
Probable space group: C M C 21
;
_chemical_formula_sum "Si O2"
_cell_formula_units_Z 64
_cell_length_a 8.953359
_cell_length_b 20.586992
_cell_length_c 19.045605
_cell_angle_alpha 90.000000
_cell_angle_beta 90.000000
_cell_angle_gamma 90.000000
_cell_volume 3510.537910
_symmetry_space_group_name_H-M "C M C 21"
_symmetry_group_IT_number 36
_symmetry_cell_setting 'orthorhombic'
loop_
_space_group_symop_operation_xyz
x,y,z
-x,-y,1/2+z
x,-y,1/2+z
-x,y,z
1/2+x,1/2+y,z
1/2-x,1/2-y,1/2+z
1/2+x,1/2-y,1/2+z
1/2-x,1/2+y,z
loop_
_atom_site_type_symbol
_atom_site_label
_atom_site_fract_x
_atom_site_fract_y
_atom_site_fract_z
Si Si1 0.824998 0.118296 0.837690
Si Si2 0.171397 0.741296 0.484204
Si Si3 0.323869 0.193556 0.211977
Si Si4 0.325491 0.940097 0.209425
Si Si5 0.323970 0.933155 0.628868
Si Si6 0.828258 0.111279 0.996043
Si Si7 0.671000 0.192150 0.633005
Si Si8 0.676617 0.256939 0.843347
O O1 0.763833 0.066122 0.782330
O O2 0.740653 0.185989 0.825607
O O3 0.000000 0.130937 0.826547
O O4 0.793021 0.090871 0.915763
O O5 0.218505 0.813736 0.507382
O O6 0.196356 0.692938 0.549146
O O7 0.273841 0.717951 0.419925
O O8 0.000000 0.742252 0.458120
O O9 0.500000 0.191821 0.224552
O O10 0.267608 0.130699 0.169557
O O11 0.282175 0.257993 0.169452
O O12 0.240485 0.192505 0.286677
O O13 0.500000 0.945761 0.227223
O O14 0.291078 0.879665 0.158820
O O15 0.264558 0.003805 0.170049
O O16 0.500000 0.935337 0.623777
O O17 0.263910 0.933523 0.549267
O O18 0.000000 0.100895 0.014488
O O19 0.500000 0.211730 0.651079
O O20 0.500000 0.253988 0.838499
#
# Coordination Sequence:
#
# PCOD8174790 Si02
#       8
#     8   8   8   8   8   8   8   8
#     4  10  20  35  55  82 110 142 182 226 277 331
#     4   9  18  33  53  80 111 140 178 230 282 329
#     4  11  21  34  54  80 111 143 182 229 273 323
#     4  10  21  37  56  82 113 147 185 224 272 328
#     4  10  22  37  54  81 114 147 185 226 270 324
#     4   9  18  33  54  79 108 140 180 223 270 328
#     4  10  19  34  57  81 107 140 180 227 277 327
#     4  11  21  33  53  81 110 143 184 231 279 328
#
# _framework density 18.230823999999998
#
# number of rings (size 3 to 8) (size 9 to 14) (size 15 to 20)
#    0.000    2.000    2.500    2.625    0.000    4.000 
#    0.000    1.250    0.000    6.000    0.000    0.000 
#    0.000    0.000    0.000    0.000    0.000    0.000 
#
# Total GULP energy -396883.012227 kJ/mol
# GULP energy per Si atom -12402.594132 kJ/mol
# Density = 1.818933 g / cm^3
# Si number density = 18.230824 Si / 1000 Ang^3
#
#
#
# Elastic Constant Matrix: (Units=GPa)
#
#
# Indices 1 2 3 4 5 6 
#
# 1 77.9896 36.2350 54.8093 0.0000 0.0000 0.0000
# 2 36.2350 86.5086 59.7884 0.0000 0.0000 0.0000
# 3 54.8093 59.7884 144.9032 0.0000 0.0000 0.0000
# 4 0.0000 0.0000 0.0000 28.5838 0.0000 0.0000
# 5 0.0000 0.0000 0.0000 0.0000 36.4611 0.0000
# 6 0.0000 0.0000 0.0000 0.0000 0.0000 20.7952
#
#
#
# Elastic Compliance Matrix: (Units=1/GPa)
#
#
# Indices 1 2 3 4 5 6 
#
# 1 0.018430 -0.004059 -0.005296 0.000000 0.000000 0.000000
# 2 -0.004059 0.017065 -0.005506 0.000000 0.000000 0.000000
# 3 -0.005296 -0.005506 0.011176 0.000000 0.000000 0.000000
# 4 0.000000 0.000000 0.000000 0.034985 0.000000 0.000000
# 5 0.000000 0.000000 0.000000 0.000000 0.027427 0.000000
# 6 0.000000 0.000000 0.000000 0.000000 0.000000 0.048088
#
#
# Mechanical properties :
#
#
# Convention : Reuss Voigt Hill
#
# Bulk Modulus (GPa) = 59.00130 67.89632 63.44881
# Shear Modulus (GPa) = 25.96818 27.73927 26.85373
#
# Velocity S-wave (km/s) = 3.77823 3.90495 3.84211
# Velocity P-wave (km/s) = 7.17406 7.59308 7.38654
#
# Compressibility (1/GPa) = 0.01694878
#
# Stress axis : x y z
#
# Youngs Moduli (GPa) = 54.25830 58.59950 89.47574
#
# Poissons Ratio (x) = 0.23787 0.47389
# Poissons Ratio (y) = 0.22025 0.49263
# Poissons Ratio (z) = 0.28737 0.32263
#
# Static dielectric constant tensor:
#      x y z
#    x 3.282220 0.000000 0.000000 
#    y 0.000000 3.190360 0.000000 
#    z 0.000000 0.000000 3.568450 
# 
# 
# High freq. dielectric constant tensor:
#      x y z
#    x 1.705110 0.000000 0.000000 
#    y 0.000000 1.673410 0.000000 
#    z 0.000000 0.000000 1.722540 
# 
# From -- ./inp_files/13805.got.cif
#   From: 2010.03.12/outbox.cif.g09.slc.cpg/sg36_7_cif.got.tgz:13805.got - 2010.04.14 02:13:53.
