data_PCOD8174581
_publ_section_title
;
Structure prediction by ZEFSAII (Michael W. Deem and Ramdas Pophale) SiO2 
 PCOD8174581
Probable space group: C M C 21
;
_chemical_formula_sum "Si O2"
_cell_formula_units_Z 64
_cell_length_a 14.430283
_cell_length_b 13.181190
_cell_length_c 16.526193
_cell_angle_alpha 90.000000
_cell_angle_beta 90.000000
_cell_angle_gamma 90.000000
_cell_volume 3143.419109
_symmetry_space_group_name_H-M "C M C 21"
_symmetry_group_IT_number 36
_symmetry_cell_setting 'orthorhombic'
loop_
_space_group_symop_operation_xyz
x,y,z
-x,-y,1/2+z
x,-y,1/2+z
-x,y,z
1/2+x,1/2+y,z
1/2-x,1/2-y,1/2+z
1/2+x,1/2-y,1/2+z
1/2-x,1/2+y,z
loop_
_atom_site_type_symbol
_atom_site_label
_atom_site_fract_x
_atom_site_fract_y
_atom_site_fract_z
Si Si1 0.729035 0.105840 0.367300
Si Si2 0.104504 0.138800 0.806205
Si Si3 0.604504 0.861200 0.008260
Si Si4 0.894046 0.843441 0.590760
Si Si5 0.270965 0.394160 0.447165
Si Si6 0.393830 0.093224 0.046749
Si Si7 0.106170 0.093224 0.267716
Si Si8 0.605954 0.843442 0.723705
O O1 0.676494 0.170328 0.436757
O O2 0.828427 0.148361 0.335074
O O3 0.662953 0.092204 0.289403
O O4 0.750000 0.000000 0.407233
O O5 0.176494 0.170328 0.877708
O O6 0.118419 0.222522 0.736665
O O7 0.000000 0.144223 0.842006
O O8 0.122084 0.028037 0.769023
O O9 0.500000 0.855777 0.972459
O O10 0.618419 0.777478 0.077800
O O11 0.622083 0.971963 0.045442
O O12 0.837047 0.907795 0.525062
O O13 0.859490 0.867902 0.680765
O O14 0.000000 0.878160 0.581489
O O15 0.171572 0.351639 0.479391
O O16 0.500000 0.123233 0.028668
O O17 0.359489 0.132098 0.133700
O O18 0.000000 0.123233 0.285798
O O19 0.500000 0.878160 0.732975
#
# Coordination Sequence:
#
# PCOD8174581 Si02
#       8
#     8   8   8   8   8   8   8   8
#     4  10  19  32  51  78 110 139 172 215 264 312
#     4   9  18  34  57  82 105 135 179 225 265 312
#     4   9  18  34  57  82 105 135 179 225 265 312
#     4  10  19  34  57  81 106 140 182 223 264 313
#     4  10  19  32  51  78 110 139 172 215 264 312
#     4   9  19  35  54  79 110 140 175 221 269 317
#     4   9  19  35  54  79 110 140 175 221 269 317
#     4  10  19  34  57  81 106 140 182 223 264 313
#
# _framework density 20.359995999999999
#
# number of rings (size 3 to 8) (size 9 to 14) (size 15 to 20)
#    0.000    2.500    0.000    2.250    0.000    3.000 
#    0.000   12.500    0.000    3.000    0.000    0.000 
#    0.000    0.000    0.000    0.000    0.000    0.000 
#
# Total GULP energy -396551.883273 kJ/mol
# GULP energy per Si atom -12392.246352 kJ/mol
# Density = 2.031366 g / cm^3
# Si number density = 20.359996 Si / 1000 Ang^3
#
#
#
# Elastic Constant Matrix: (Units=GPa)
#
#
# Indices 1 2 3 4 5 6 
#
# 1 106.7358 36.8492 78.0175 0.0000 0.0000 0.0000
# 2 36.8492 62.5143 41.8638 0.0000 0.0000 0.0000
# 3 78.0175 41.8638 141.3148 0.0000 0.0000 0.0000
# 4 0.0000 0.0000 0.0000 34.0879 0.0000 0.0000
# 5 0.0000 0.0000 0.0000 0.0000 45.3484 0.0000
# 6 0.0000 0.0000 0.0000 0.0000 0.0000 22.7653
#
#
#
# Elastic Compliance Matrix: (Units=1/GPa)
#
#
# Indices 1 2 3 4 5 6 
#
# 1 0.016695 -0.004576 -0.007861 0.000000 0.000000 0.000000
# 2 -0.004576 0.021210 -0.003757 0.000000 0.000000 0.000000
# 3 -0.007861 -0.003757 0.012529 0.000000 0.000000 0.000000
# 4 0.000000 0.000000 0.000000 0.029336 0.000000 0.000000
# 5 0.000000 0.000000 0.000000 0.000000 0.022051 0.000000
# 6 0.000000 0.000000 0.000000 0.000000 0.000000 0.043926
#
#
# Mechanical properties :
#
#
# Convention : Reuss Voigt Hill
#
# Bulk Modulus (GPa) = 55.41634 69.33624 62.37629
# Shear Modulus (GPa) = 27.15151 30.69596 28.92373
#
# Velocity S-wave (km/s) = 3.65577 3.88707 3.77319
# Velocity P-wave (km/s) = 6.71542 7.36715 7.04882
#
# Compressibility (1/GPa) = 0.01804522
#
# Stress axis : x y z
#
# Youngs Moduli (GPa) = 59.89803 47.14829 79.81242
#
# Poissons Ratio (x) = 0.21577 0.62743
# Poissons Ratio (y) = 0.27412 0.29983
# Poissons Ratio (z) = 0.47088 0.17712
#
# Static dielectric constant tensor:
#      x y z
#    x 4.247520 0.000000 0.000000 
#    y 0.000000 3.483050 0.000000 
#    z 0.000000 0.000000 3.917610 
# 
# 
# High freq. dielectric constant tensor:
#      x y z
#    x 1.812410 0.000000 0.000000 
#    y 0.000000 1.774820 0.000000 
#    z 0.000000 0.000000 1.792200 
# 
# From -- ./inp_files/14758.got.cif
#   From: 2010.03.12/outbox.cif.g09.slc.cpg/sg36_8_cif.got.tgz:14758.got - 2010.04.14 02:13:53.
