data_PCOD8174405
_publ_section_title
;
Structure prediction by ZEFSAII (Michael W. Deem and Ramdas Pophale) SiO2 
 PCOD8174405
Probable space group: C M C 21
;
_chemical_formula_sum "Si O2"
_cell_formula_units_Z 64
_cell_length_a 9.260256
_cell_length_b 15.297214
_cell_length_c 23.518551
_cell_angle_alpha 90.000000
_cell_angle_beta 90.000000
_cell_angle_gamma 90.000000
_cell_volume 3331.546629
_symmetry_space_group_name_H-M "C M C 21"
_symmetry_group_IT_number 36
_symmetry_cell_setting 'orthorhombic'
loop_
_space_group_symop_operation_xyz
x,y,z
-x,-y,1/2+z
x,-y,1/2+z
-x,y,z
1/2+x,1/2+y,z
1/2-x,1/2-y,1/2+z
1/2+x,1/2-y,1/2+z
1/2-x,1/2+y,z
loop_
_atom_site_type_symbol
_atom_site_label
_atom_site_fract_x
_atom_site_fract_y
_atom_site_fract_z
Si Si1 0.329707 0.905525 0.957490
Si Si2 0.168017 0.335638 0.839486
Si Si3 0.171062 0.398207 0.454756
Si Si4 0.828778 0.006185 0.643547
Si Si5 0.166443 0.345018 0.080636
Si Si6 0.667359 0.998736 0.759057
Si Si7 0.833593 0.848511 0.562583
Si Si8 0.330787 0.833933 0.331597
O O1 0.500000 0.911852 0.949589
O O2 0.269143 0.852998 0.903006
O O3 0.267113 0.003449 0.958418
O O4 0.284201 0.857643 0.015330
O O5 0.198516 0.421107 0.802596
O O6 0.250882 0.253954 0.811869
O O7 0.000000 0.312295 0.840746
O O8 0.241878 0.342994 0.505150
O O9 0.220238 0.358256 0.394948
O O10 0.000000 0.395602 0.462185
O O11 0.764549 0.097759 0.622058
O O12 0.766755 0.983528 0.704861
O O13 0.000000 0.014248 0.647153
O O14 0.779970 0.927873 0.601957
O O15 0.187959 0.243054 0.096145
O O16 0.000000 0.374099 0.088454
O O17 0.500000 0.000629 0.740677
O O18 0.712715 0.089102 0.788749
O O19 0.000000 0.860548 0.545438
O O20 0.500000 0.816999 0.329649
#
# Coordination Sequence:
#
# PCOD8174405 Si02
#       8
#     8   8   8   8   8   8   8   8
#     4   9  16  31  58  86 112 146 186 222 264 332
#     4  10  20  37  61  87 115 149 189 228 273 338
#     4  10  18  33  59  87 115 149 187 225 272 336
#     4  11  24  40  57  82 115 145 186 245 290 322
#     4  10  20  37  61  84 111 153 191 220 273 346
#     4  10  22  41  61  79 108 153 196 229 273 339
#     4  10  22  38  57  85 117 147 183 233 288 333
#     4  10  21  37  58  86 117 146 182 232 283 328
#
# _framework density 19.210296
#
# number of rings (size 3 to 8) (size 9 to 14) (size 15 to 20)
#    0.000    2.000    2.500    1.125    0.000    4.500 
#    0.000    5.000    0.000    0.000    0.000    0.000 
#    0.000    0.000    0.000    0.000    0.000    0.000 
#
# Total GULP energy -396887.861750 kJ/mol
# GULP energy per Si atom -12402.745680 kJ/mol
# Density = 1.916657 g / cm^3
# Si number density = 19.210296 Si / 1000 Ang^3
#
#
#
# Elastic Constant Matrix: (Units=GPa)
#
#
# Indices 1 2 3 4 5 6 
#
# 1 42.5630 25.0227 30.4889 0.0000 0.0000 0.0000
# 2 25.0227 99.1237 8.9075 0.0000 0.0000 0.0000
# 3 30.4889 8.9075 79.8544 0.0000 0.0000 0.0000
# 4 0.0000 0.0000 0.0000 13.4907 0.0000 0.0000
# 5 0.0000 0.0000 0.0000 0.0000 30.2231 0.0000
# 6 0.0000 0.0000 0.0000 0.0000 0.0000 29.8538
#
#
#
# Elastic Compliance Matrix: (Units=1/GPa)
#
#
# Indices 1 2 3 4 5 6 
#
# 1 0.038229 -0.008423 -0.013657 0.000000 0.000000 0.000000
# 2 -0.008423 0.012047 0.001872 0.000000 0.000000 0.000000
# 3 -0.013657 0.001872 0.017528 0.000000 0.000000 0.000000
# 4 0.000000 0.000000 0.000000 0.074125 0.000000 0.000000
# 5 0.000000 0.000000 0.000000 0.000000 0.033087 0.000000
# 6 0.000000 0.000000 0.000000 0.000000 0.000000 0.033497
#
#
# Mechanical properties :
#
#
# Convention : Reuss Voigt Hill
#
# Bulk Modulus (GPa) = 36.51140 38.93103 37.72122
# Shear Modulus (GPa) = 19.37553 25.18832 22.28193
#
# Velocity S-wave (km/s) = 3.17929 3.62496 3.40942
# Velocity P-wave (km/s) = 5.70304 6.15062 5.93105
#
# Compressibility (1/GPa) = 0.02738870
#
# Stress axis : x y z
#
# Youngs Moduli (GPa) = 26.15806 83.01142 57.05129
#
# Poissons Ratio (x) = 0.69923 0.77912
# Poissons Ratio (y) = 0.22034 -0.10682
# Poissons Ratio (z) = 0.35723 -0.15542
#
# Static dielectric constant tensor:
#      x y z
#    x 3.240150 0.000000 0.000000 
#    y 0.000000 3.613080 0.000000 
#    z 0.000000 0.000000 3.477400 
# 
# 
# High freq. dielectric constant tensor:
#      x y z
#    x 1.724600 0.000000 0.000000 
#    y 0.000000 1.761250 0.000000 
#    z 0.000000 0.000000 1.744620 
# 
# From -- ./inp_files/16589.got.cif
#   From: 2010.03.12/outbox.cif.g09.slc.cpg/sg36_9_cif.got.tgz:16589.got - 2010.04.14 02:13:53.
