data_PCOD8174182
_publ_section_title
;
Structure prediction by ZEFSAII (Michael W. Deem and Ramdas Pophale) SiO2 
 PCOD8174182
Probable space group: C M C 21
;
_chemical_formula_sum "Si O2"
_cell_formula_units_Z 48
_cell_length_a 7.851505
_cell_length_b 19.938353
_cell_length_c 16.577149
_cell_angle_alpha 90.000000
_cell_angle_beta 90.000000
_cell_angle_gamma 90.000000
_cell_volume 2595.087665
_symmetry_space_group_name_H-M "C M C 21"
_symmetry_group_IT_number 36
_symmetry_cell_setting 'orthorhombic'
loop_
_space_group_symop_operation_xyz
x,y,z
-x,-y,1/2+z
x,-y,1/2+z
-x,y,z
1/2+x,1/2+y,z
1/2-x,1/2-y,1/2+z
1/2+x,1/2-y,1/2+z
1/2-x,1/2+y,z
loop_
_atom_site_type_symbol
_atom_site_label
_atom_site_fract_x
_atom_site_fract_y
_atom_site_fract_z
Si Si1 0.000000 0.492804 0.475271
Si Si2 0.000000 0.349281 0.214308
Si Si3 0.303451 0.318371 0.322707
Si Si4 0.680857 0.444556 0.431529
Si Si5 0.316517 0.434598 0.813483
Si Si6 0.500000 0.856329 0.027239
Si Si7 0.801778 0.190920 0.418461
Si Si8 0.000000 0.502572 0.779344
O O1 0.830627 0.450001 0.498817
O O2 0.000000 0.563813 0.517589
O O3 0.000000 0.494537 0.376915
O O4 0.828457 0.314314 0.248512
O O5 0.000000 0.336574 0.119979
O O6 0.000000 0.427791 0.233656
O O7 0.500000 0.308641 0.294016
O O8 0.276835 0.391043 0.362365
O O9 0.250629 0.264193 0.388865
O O10 0.500000 0.426584 0.473543
O O11 0.668439 0.517637 0.391304
O O12 0.500000 0.433961 0.768072
O O13 0.271221 0.360475 0.845011
O O14 0.168987 0.460789 0.753122
O O15 0.326064 0.826744 0.990785
O O16 0.000000 0.189269 0.447264
#
# Coordination Sequence:
#
# PCOD8174182 Si02
#       8
#     4   4   8   8   8   4   8   4
#     4  10  16  32  58  78 112 146 189 228 278 354
#     4  12  24  38  56  92 125 148 188 264 311 344
#     4  11  21  35  59  90 111 158 209 246 286 363
#     4   9  16  28  52  84 109 134 190 241 270 326
#     4   9  16  28  52  84 109 134 190 241 270 326
#     4  12  24  38  56  92 125 148 188 264 311 344
#     4  11  21  35  59  90 111 158 209 246 286 363
#     4  10  16  32  58  78 112 146 189 228 278 354
#
# _framework density 18.496486999999998
#
# number of rings (size 3 to 8) (size 9 to 14) (size 15 to 20)
#    0.000    1.667    8.333    0.000    0.000    0.667 
#    0.000    0.000    0.000    2.000    0.000    0.000 
#    0.000    0.000    0.000    0.000    0.000    0.000 
#
# Total GULP energy -297342.799817 kJ/mol
# GULP energy per Si atom -12389.283326 kJ/mol
# Density = 1.845439 g / cm^3
# Si number density = 18.496487 Si / 1000 Ang^3
#
#
#
# Elastic Constant Matrix: (Units=GPa)
#
#
# Indices 1 2 3 4 5 6 
#
# 1 204.1547 33.9526 53.6139 0.0000 0.0000 0.0000
# 2 33.9526 47.6028 19.1966 0.0000 0.0000 0.0000
# 3 53.6139 19.1966 54.2248 0.0000 0.0000 0.0000
# 4 0.0000 0.0000 0.0000 13.3452 0.0000 0.0000
# 5 0.0000 0.0000 0.0000 0.0000 14.3798 0.0000
# 6 0.0000 0.0000 0.0000 0.0000 0.0000 31.0496
#
#
#
# Elastic Compliance Matrix: (Units=1/GPa)
#
#
# Indices 1 2 3 4 5 6 
#
# 1 0.006866 -0.002519 -0.005897 0.000000 0.000000 0.000000
# 2 -0.002519 0.025430 -0.006512 0.000000 0.000000 0.000000
# 3 -0.005897 -0.006512 0.026577 0.000000 0.000000 0.000000
# 4 0.000000 0.000000 0.000000 0.074934 0.000000 0.000000
# 5 0.000000 0.000000 0.000000 0.000000 0.069542 0.000000
# 6 0.000000 0.000000 0.000000 0.000000 0.000000 0.032207
#
#
# Mechanical properties :
#
#
# Convention : Reuss Voigt Hill
#
# Bulk Modulus (GPa) = 34.46176 57.72315 46.09246
# Shear Modulus (GPa) = 18.17637 25.03621 21.60629
#
# Velocity S-wave (km/s) = 3.13819 3.68307 3.42150
# Velocity P-wave (km/s) = 5.63941 7.02582 6.37044
#
# Compressibility (1/GPa) = 0.02901767
#
# Stress axis : x y z
#
# Youngs Moduli (GPa) = 145.65148 39.32374 37.62618
#
# Poissons Ratio (x) = 0.09906 0.22187
# Poissons Ratio (y) = 0.36691 0.24502
# Poissons Ratio (z) = 0.85884 0.25608
#
# Static dielectric constant tensor:
#      x y z
#    x 5.386100 0.000000 0.000000 
#    y 0.000000 3.410680 0.000000 
#    z 0.000000 0.000000 2.667850 
# 
# 
# High freq. dielectric constant tensor:
#      x y z
#    x 1.763250 0.000000 0.000000 
#    y 0.000000 1.722580 0.000000 
#    z 0.000000 0.000000 1.626740 
# 
# From -- ./inp_files/13597.got.cif
#   From: 2010.03.12/outbox.cif.g09.slc.cpg/sg36_7_cif.got.tgz:13597.got - 2010.04.14 02:13:53.
