data_PCOD8174298
_publ_section_title
;
Structure prediction by ZEFSAII (Michael W. Deem and Ramdas Pophale) SiO2 
 PCOD8174298
Probable space group: C M C 21
;
_chemical_formula_sum "Si O2"
_cell_formula_units_Z 48
_cell_length_a 8.598941
_cell_length_b 18.653099
_cell_length_c 15.389866
_cell_angle_alpha 90.000000
_cell_angle_beta 90.000000
_cell_angle_gamma 90.000000
_cell_volume 2468.486763
_symmetry_space_group_name_H-M "C M C 21"
_symmetry_group_IT_number 36
_symmetry_cell_setting 'orthorhombic'
loop_
_space_group_symop_operation_xyz
x,y,z
-x,-y,1/2+z
x,-y,1/2+z
-x,y,z
1/2+x,1/2+y,z
1/2-x,1/2-y,1/2+z
1/2+x,1/2-y,1/2+z
1/2-x,1/2+y,z
loop_
_atom_site_type_symbol
_atom_site_label
_atom_site_fract_x
_atom_site_fract_y
_atom_site_fract_z
Si Si1 0.820506 0.183691 0.294330
Si Si2 0.819182 0.706416 0.117343
Si Si3 0.323617 0.516172 0.266847
Si Si4 0.320059 0.443944 0.583346
Si Si5 0.180826 0.427772 0.412936
Si Si6 0.817725 0.226643 0.941900
O O1 0.765917 0.225747 0.207602
O O2 0.789254 0.099469 0.284184
O O3 0.720465 0.209932 0.375581
O O4 0.000000 0.201299 0.310733
O O5 0.792869 0.623395 0.095476
O O6 0.000000 0.724085 0.127122
O O7 0.748205 0.750685 0.036268
O O8 0.500000 0.496778 0.292308
O O9 0.294442 0.501073 0.163480
O O10 0.209109 0.466368 0.321163
O O11 0.500000 0.418462 0.583750
O O12 0.270729 0.474030 0.488566
O O13 0.241411 0.346712 0.407479
O O14 0.000000 0.427486 0.433673
O O15 0.000000 0.214586 0.948958
#
# Coordination Sequence:
#
# PCOD8174298 Si02
#       6
#     8   8   8   8   8   8
#     4  10  20  36  56  79 106 136 174 217 262 310
#     4  10  18  31  52  77 104 136 174 211 254 310
#     4   9  19  35  55  77 103 136 171 211 258 308
#     4   9  17  32  53  74 100 136 175 212 253 305
#     4  11  21  33  53  79 107 137 172 215 258 306
#     4  11  21  35  55  78 106 139 176 216 259 307
#
# _framework density 19.445112999999999
#
# number of rings (size 3 to 8) (size 9 to 14) (size 15 to 20)
#    0.000    2.000    0.000    8.500    0.000    4.000 
#    0.000    1.667    0.000    6.000    0.000    0.000 
#    0.000    0.000    0.000    0.000    0.000    0.000 
#
# Total GULP energy -297529.005588 kJ/mol
# GULP energy per Si atom -12397.041900 kJ/mol
# Density = 1.940086 g / cm^3
# Si number density = 19.445113 Si / 1000 Ang^3
#
#
#
# Elastic Constant Matrix: (Units=GPa)
#
#
# Indices 1 2 3 4 5 6 
#
# 1 92.7088 11.5159 6.7885 0.0000 0.0000 0.0000
# 2 11.5159 17.8745 -5.1679 0.0000 0.0000 0.0000
# 3 6.7885 -5.1679 33.5494 0.0000 0.0000 0.0000
# 4 0.0000 0.0000 0.0000 29.9453 0.0000 0.0000
# 5 0.0000 0.0000 0.0000 0.0000 38.2971 0.0000
# 6 0.0000 0.0000 0.0000 0.0000 0.0000 23.8561
#
#
#
# Elastic Compliance Matrix: (Units=1/GPa)
#
#
# Indices 1 2 3 4 5 6 
#
# 1 0.012181 -0.008959 -0.003845 0.000000 0.000000 0.000000
# 2 -0.008959 0.065143 0.011847 0.000000 0.000000 0.000000
# 3 -0.003845 0.011847 0.032410 0.000000 0.000000 0.000000
# 4 0.000000 0.000000 0.000000 0.033394 0.000000 0.000000
# 5 0.000000 0.000000 0.000000 0.000000 0.026112 0.000000
# 6 0.000000 0.000000 0.000000 0.000000 0.000000 0.041918
#
#
# Mechanical properties :
#
#
# Convention : Reuss Voigt Hill
#
# Bulk Modulus (GPa) = 9.27470 18.93398 14.10434
# Shear Modulus (GPa) = 20.07943 27.15278 23.61610
#
# Velocity S-wave (km/s) = 3.21693 3.74087 3.48875
# Velocity P-wave (km/s) = 4.31024 5.33077 4.84744
#
# Compressibility (1/GPa) = 0.10782022
#
# Stress axis : x y z
#
# Youngs Moduli (GPa) = 82.09590 15.35084 30.85490
#
# Poissons Ratio (x) = 0.13753 0.11863
# Poissons Ratio (y) = 0.73552 -0.36555
# Poissons Ratio (z) = 0.31564 -0.18187
#
# Static dielectric constant tensor:
#      x y z
#    x 3.526680 0.000000 0.000000 
#    y 0.000000 2.991920 0.000000 
#    z 0.000000 0.000000 4.122930 
# 
# 
# High freq. dielectric constant tensor:
#      x y z
#    x 1.769250 0.000000 0.000000 
#    y 0.000000 1.697680 0.000000 
#    z 0.000000 0.000000 1.781310 
# 
# From -- ./inp_files/6765.got.cif
#   From: 2010.03.12/outbox.cif.g09.slc.cpg/sg36_4_cif.got.tgz:6765.got - 2010.04.14 02:13:53.
