data_PCOD8174495
_publ_section_title
;
Structure prediction by ZEFSAII (Michael W. Deem and Ramdas Pophale) SiO2 
 PCOD8174495
Probable space group: C M C 21
;
_chemical_formula_sum "Si O2"
_cell_formula_units_Z 48
_cell_length_a 13.325707
_cell_length_b 38.966375
_cell_length_c 5.135695
_cell_angle_alpha 90.000000
_cell_angle_beta 90.000000
_cell_angle_gamma 90.000000
_cell_volume 2666.732719
_symmetry_space_group_name_H-M "C M C 21"
_symmetry_group_IT_number 36
_symmetry_cell_setting 'orthorhombic'
loop_
_space_group_symop_operation_xyz
x,y,z
-x,-y,1/2+z
x,-y,1/2+z
-x,y,z
1/2+x,1/2+y,z
1/2-x,1/2-y,1/2+z
1/2+x,1/2-y,1/2+z
1/2-x,1/2+y,z
loop_
_atom_site_type_symbol
_atom_site_label
_atom_site_fract_x
_atom_site_fract_y
_atom_site_fract_z
Si Si1 0.879557 0.634558 0.805470
Si Si2 0.811984 0.289056 0.321359
Si Si3 0.179756 0.476723 0.767408
Si Si4 0.112663 0.403092 0.805456
Si Si5 0.115047 0.748875 0.321403
Si Si6 0.105916 0.978173 0.857203
O O1 0.824266 0.670656 0.787771
O O2 0.838174 0.611409 0.567890
O O3 0.000000 0.639109 0.807390
O O4 0.836394 0.614166 0.054707
O O5 0.859471 0.278208 0.595819
O O6 0.692829 0.280647 0.304541
O O7 0.873042 0.269880 0.096399
O O8 0.161429 0.495277 0.492477
O O9 0.107372 0.444455 0.792854
O O10 0.290691 0.458685 0.792761
O O11 0.000000 0.389666 0.806368
O O12 0.000000 0.762020 0.294583
O O13 0.000000 0.957636 0.809785
O O14 0.107676 0.010429 0.658193
#
# Coordination Sequence:
#
# PCOD8174495 Si02
#       6
#     8   8   8   8   8   8
#     4  10  19  33  50  67  93 127 163 199 234 278
#     4  10  20  32  52  77 101 136 169 203 249 288
#     4  10  19  31  48  68  91 118 148 191 243 287
#     4  10  21  33  47  68  92 123 160 196 235 284
#     4  10  19  32  51  79 108 130 165 208 246 290
#     4   8  14  25  42  63  83 104 133 171 219 271
#
# _framework density 17.999554
#
# number of rings (size 3 to 8) (size 9 to 14) (size 15 to 20)
#    0.000    2.333    0.000    3.500    0.000    2.000 
#    0.000    0.000    0.000    2.000    0.000    0.000 
#    0.000    0.000    0.000    0.000    0.000    0.000 
#
# Total GULP energy -297347.442199 kJ/mol
# GULP energy per Si atom -12389.476758 kJ/mol
# Density = 1.795859 g / cm^3
# Si number density = 17.999554 Si / 1000 Ang^3
#
#
#
# Elastic Constant Matrix: (Units=GPa)
#
#
# Indices 1 2 3 4 5 6 
#
# 1 75.8303 21.0027 18.7361 0.0000 0.0000 0.0000
# 2 21.0027 92.8751 27.4490 0.0000 0.0000 0.0000
# 3 18.7361 27.4490 104.8200 0.0000 0.0000 0.0000
# 4 0.0000 0.0000 0.0000 24.1397 0.0000 0.0000
# 5 0.0000 0.0000 0.0000 0.0000 13.8754 0.0000
# 6 0.0000 0.0000 0.0000 0.0000 0.0000 21.2072
#
#
#
# Elastic Compliance Matrix: (Units=1/GPa)
#
#
# Indices 1 2 3 4 5 6 
#
# 1 0.014397 -0.002705 -0.001865 0.000000 0.000000 0.000000
# 2 -0.002705 0.012178 -0.002706 0.000000 0.000000 0.000000
# 3 -0.001865 -0.002706 0.010582 0.000000 0.000000 0.000000
# 4 0.000000 0.000000 0.000000 0.041426 0.000000 0.000000
# 5 0.000000 0.000000 0.000000 0.000000 0.072070 0.000000
# 6 0.000000 0.000000 0.000000 0.000000 0.000000 0.047154
#
#
# Mechanical properties :
#
#
# Convention : Reuss Voigt Hill
#
# Bulk Modulus (GPa) = 44.23433 45.32232 44.77832
# Shear Modulus (GPa) = 22.73827 25.60030 24.16928
#
# Velocity S-wave (km/s) = 3.55810 3.77540 3.66836
# Velocity P-wave (km/s) = 6.44273 6.65125 6.54782
#
# Compressibility (1/GPa) = 0.02260688
#
# Stress axis : x y z
#
# Youngs Moduli (GPa) = 69.45762 82.11247 94.49914
#
# Poissons Ratio (x) = 0.22208 0.17626
# Poissons Ratio (y) = 0.18785 0.25569
# Poissons Ratio (z) = 0.12955 0.22217
#
# Static dielectric constant tensor:
#      x y z
#    x 3.527270 0.000000 0.000000 
#    y 0.000000 2.913740 0.000000 
#    z 0.000000 0.000000 3.732360 
# 
# 
# High freq. dielectric constant tensor:
#      x y z
#    x 1.686590 0.000000 0.000000 
#    y 0.000000 1.654320 0.000000 
#    z 0.000000 0.000000 1.727210 
# 
# From -- ./inp_files/895.got.cif
#   From: 2010.03.12/outbox.cif.g09.slc.cpg/sg36_1_cif.got.tgz:895.got - 2010.04.14 02:13:53.
