data_PCOD8174218
_publ_section_title
;
Structure prediction by ZEFSAII (Michael W. Deem and Ramdas Pophale) SiO2 
 PCOD8174218
Probable space group: C M C 21
;
_chemical_formula_sum "Si O2"
_cell_formula_units_Z 64
_cell_length_a 13.227640
_cell_length_b 16.431211
_cell_length_c 16.385162
_cell_angle_alpha 90.000000
_cell_angle_beta 90.000000
_cell_angle_gamma 90.000000
_cell_volume 3561.251777
_symmetry_space_group_name_H-M "C M C 21"
_symmetry_group_IT_number 36
_symmetry_cell_setting 'orthorhombic'
loop_
_space_group_symop_operation_xyz
x,y,z
-x,-y,1/2+z
x,-y,1/2+z
-x,y,z
1/2+x,1/2+y,z
1/2-x,1/2-y,1/2+z
1/2+x,1/2-y,1/2+z
1/2-x,1/2+y,z
loop_
_atom_site_type_symbol
_atom_site_label
_atom_site_fract_x
_atom_site_fract_y
_atom_site_fract_z
Si Si1 0.805769 0.110023 0.022660
Si Si2 0.384463 0.708499 0.157882
Si Si3 0.198441 0.809481 0.191194
Si Si4 0.620259 0.597474 0.838730
Si Si5 0.117447 0.694471 0.060085
Si Si6 0.112396 0.945520 0.084843
Si Si7 0.388606 0.670664 0.440334
Si Si8 0.117998 0.918910 0.790900
O O1 0.859107 0.190015 0.062938
O O2 0.685489 0.114885 0.043869
O O3 0.846306 0.034880 0.073899
O O4 0.828047 0.105558 0.927003
O O5 0.500000 0.736093 0.169325
O O6 0.315797 0.782130 0.192360
O O7 0.360310 0.623208 0.204635
O O8 0.159283 0.827584 0.282839
O O9 0.133405 0.736903 0.148654
O O10 0.186719 0.892966 0.140933
O O11 0.500000 0.602579 0.848926
O O12 0.656569 0.512184 0.796499
O O13 0.000000 0.672108 0.050672
O O14 0.161883 0.756320 0.990899
O O15 0.000000 0.948410 0.126464
O O16 0.102973 0.909148 0.995419
O O17 0.500000 0.703023 0.417293
O O18 0.329795 0.640670 0.359113
O O19 0.000000 0.921274 0.812457
#
# Coordination Sequence:
#
# PCOD8174218 Si02
#       8
#     8   8   8   8   8   8   8   8
#     4  11  21  32  53  82 108 138 176 219 279 321
#     4  10  21  36  52  76 110 143 177 219 265 322
#     4  10  21  34  54  79 103 141 183 214 267 322
#     4  11  20  32  51  81 111 133 169 227 280 318
#     4   9  19  35  52  74 105 142 181 215 253 319
#     4  10  17  32  54  76 104 131 168 222 264 306
#     4   8  14  27  49  73  96 128 164 205 255 300
#     4   9  17  30  51  75 101 132 166 211 265 308
#
# _framework density 17.971209999999999
#
# number of rings (size 3 to 8) (size 9 to 14) (size 15 to 20)
#    0.000    2.250    1.250    3.750    1.750    1.000 
#    0.000    0.625    0.000    0.000    0.000    5.250 
#    0.000    0.000    0.000    0.000    0.000    0.000 
#
# Total GULP energy -396472.279851 kJ/mol
# GULP energy per Si atom -12389.758745 kJ/mol
# Density = 1.793031 g / cm^3
# Si number density = 17.971210 Si / 1000 Ang^3
#
#
#
# Elastic Constant Matrix: (Units=GPa)
#
#
# Indices 1 2 3 4 5 6 
#
# 1 109.1679 46.3618 37.2980 0.0000 0.0000 0.0000
# 2 46.3618 65.9634 33.0743 0.0000 0.0000 0.0000
# 3 37.2980 33.0743 91.0696 0.0000 0.0000 0.0000
# 4 0.0000 0.0000 0.0000 20.0572 0.0000 0.0000
# 5 0.0000 0.0000 0.0000 0.0000 18.9873 0.0000
# 6 0.0000 0.0000 0.0000 0.0000 0.0000 30.8022
#
#
#
# Elastic Compliance Matrix: (Units=1/GPa)
#
#
# Indices 1 2 3 4 5 6 
#
# 1 0.013526 -0.008227 -0.002552 0.000000 0.000000 0.000000
# 2 -0.008227 0.023539 -0.005179 0.000000 0.000000 0.000000
# 3 -0.002552 -0.005179 0.013907 0.000000 0.000000 0.000000
# 4 0.000000 0.000000 0.000000 0.049857 0.000000 0.000000
# 5 0.000000 0.000000 0.000000 0.000000 0.052667 0.000000
# 6 0.000000 0.000000 0.000000 0.000000 0.000000 0.032465
#
#
# Mechanical properties :
#
#
# Convention : Reuss Voigt Hill
#
# Bulk Modulus (GPa) = 52.47867 55.51880 53.99874
# Shear Modulus (GPa) = 22.29854 23.93378 23.11616
#
# Velocity S-wave (km/s) = 3.52631 3.65332 3.59038
# Velocity P-wave (km/s) = 6.77087 6.98255 6.87752
#
# Compressibility (1/GPa) = 0.01905536
#
# Stress axis : x y z
#
# Youngs Moduli (GPa) = 73.93195 42.48210 71.90767
#
# Poissons Ratio (x) = 0.34951 0.18349
# Poissons Ratio (y) = 0.60825 0.37244
# Poissons Ratio (z) = 0.18865 0.22003
#
# Static dielectric constant tensor:
#      x y z
#    x 3.101790 0.000000 0.000000 
#    y 0.000000 3.248230 0.000000 
#    z 0.000000 0.000000 3.448490 
# 
# 
# High freq. dielectric constant tensor:
#      x y z
#    x 1.660990 0.000000 0.000000 
#    y 0.000000 1.679160 0.000000 
#    z 0.000000 0.000000 1.710650 
# 
# From -- ./inp_files/14468.got.cif
#   From: 2010.03.12/outbox.cif.g09.slc.cpg/sg36_8_cif.got.tgz:14468.got - 2010.04.14 02:13:53.
