data_PCOD8174784
_publ_section_title
;
Structure prediction by ZEFSAII (Michael W. Deem and Ramdas Pophale) SiO2 
 PCOD8174784
Probable space group: C M C 21
;
_chemical_formula_sum "Si O2"
_cell_formula_units_Z 64
_cell_length_a 8.667019
_cell_length_b 20.202408
_cell_length_c 19.237775
_cell_angle_alpha 90.000000
_cell_angle_beta 90.000000
_cell_angle_gamma 90.000000
_cell_volume 3368.431557
_symmetry_space_group_name_H-M "C M C 21"
_symmetry_group_IT_number 36
_symmetry_cell_setting 'orthorhombic'
loop_
_space_group_symop_operation_xyz
x,y,z
-x,-y,1/2+z
x,-y,1/2+z
-x,y,z
1/2+x,1/2+y,z
1/2-x,1/2-y,1/2+z
1/2+x,1/2-y,1/2+z
1/2-x,1/2+y,z
loop_
_atom_site_type_symbol
_atom_site_label
_atom_site_fract_x
_atom_site_fract_y
_atom_site_fract_z
Si Si1 0.181135 0.237670 0.983130
Si Si2 0.181298 0.735959 0.125659
Si Si3 0.680511 0.562797 0.769492
Si Si4 0.678692 0.817465 0.349187
Si Si5 0.680260 0.612654 0.621795
Si Si6 0.318892 0.887550 0.979930
Si Si7 0.819384 0.434915 0.832787
Si Si8 0.820760 0.189136 0.261492
O O1 0.221709 0.191525 0.918438
O O2 0.241045 0.312419 0.968390
O O3 0.000000 0.235456 0.997782
O O4 0.271114 0.209215 0.049954
O O5 0.236410 0.812081 0.133099
O O6 0.273604 0.692063 0.181043
O O7 0.000000 0.727922 0.138327
O O8 0.500000 0.578550 0.777857
O O9 0.777613 0.612765 0.816120
O O10 0.730438 0.569828 0.688703
O O11 0.717420 0.489072 0.793806
O O12 0.500000 0.817474 0.369644
O O13 0.718278 0.759923 0.294869
O O14 0.500000 0.610882 0.609915
O O15 0.753911 0.582039 0.551707
O O16 0.500000 0.886402 0.985917
O O17 0.268628 0.931999 0.913997
O O18 0.785460 0.364316 0.799008
O O19 0.000000 0.451238 0.825096
O O20 0.000000 0.170057 0.269012
#
# Coordination Sequence:
#
# PCOD8174784 Si02
#       8
#     8   8   8   8   8   8   8   8
#     4  10  19  34  56  85 118 151 189 239 293 345
#     4  10  19  34  56  85 118 151 189 239 293 345
#     4  11  23  40  59  85 118 155 195 241 293 349
#     4  11  22  36  58  87 116 150 193 239 287 343
#     4   9  19  34  56  83 113 147 188 233 285 344
#     4   9  19  34  56  83 113 147 188 233 285 344
#     4  11  23  40  59  85 118 155 195 241 293 349
#     4  11  22  36  58  87 116 150 193 239 287 343
#
# _framework density 18.999939999999999
#
# number of rings (size 3 to 8) (size 9 to 14) (size 15 to 20)
#    0.000    1.750    2.500    2.250    0.000    4.000 
#    0.000    1.250    0.000    3.000    0.000    0.000 
#    0.000    0.000    0.000    0.000    0.000    0.000 
#
# Total GULP energy -396917.277744 kJ/mol
# GULP energy per Si atom -12403.664929 kJ/mol
# Density = 1.895670 g / cm^3
# Si number density = 18.999940 Si / 1000 Ang^3
#
#
#
# Elastic Constant Matrix: (Units=GPa)
#
#
# Indices 1 2 3 4 5 6 
#
# 1 36.9082 18.5529 31.5098 0.0000 0.0000 0.0000
# 2 18.5529 47.5169 30.4648 0.0000 0.0000 0.0000
# 3 31.5098 30.4648 147.5846 0.0000 0.0000 0.0000
# 4 0.0000 0.0000 0.0000 28.6923 0.0000 0.0000
# 5 0.0000 0.0000 0.0000 0.0000 36.8731 0.0000
# 6 0.0000 0.0000 0.0000 0.0000 0.0000 28.4295
#
#
#
# Elastic Compliance Matrix: (Units=1/GPa)
#
#
# Indices 1 2 3 4 5 6 
#
# 1 0.037510 -0.010962 -0.005746 0.000000 0.000000 0.000000
# 2 -0.010962 0.027459 -0.003328 0.000000 0.000000 0.000000
# 3 -0.005746 -0.003328 0.008689 0.000000 0.000000 0.000000
# 4 0.000000 0.000000 0.000000 0.034853 0.000000 0.000000
# 5 0.000000 0.000000 0.000000 0.000000 0.027120 0.000000
# 6 0.000000 0.000000 0.000000 0.000000 0.000000 0.035175
#
#
# Mechanical properties :
#
#
# Convention : Reuss Voigt Hill
#
# Bulk Modulus (GPa) = 29.77306 43.67386 36.72346
# Shear Modulus (GPa) = 22.51525 28.89779 25.70652
#
# Velocity S-wave (km/s) = 3.44614 3.90416 3.68228
# Velocity P-wave (km/s) = 5.61593 6.58479 6.11956
#
# Compressibility (1/GPa) = 0.03358741
#
# Stress axis : x y z
#
# Youngs Moduli (GPa) = 26.65965 36.41834 115.08259
#
# Poissons Ratio (x) = 0.39921 0.66123
# Poissons Ratio (y) = 0.29224 0.38296
# Poissons Ratio (z) = 0.15318 0.12119
#
# Static dielectric constant tensor:
#      x y z
#    x 3.399740 0.000000 0.000000 
#    y 0.000000 3.162440 0.000000 
#    z 0.000000 0.000000 3.734920 
# 
# 
# High freq. dielectric constant tensor:
#      x y z
#    x 1.743950 0.000000 0.000000 
#    y 0.000000 1.703280 0.000000 
#    z 0.000000 0.000000 1.754810 
# 
# From -- ./inp_files/13926.got.cif
#   From: 2010.03.12/outbox.cif.g09.slc.cpg/sg36_7_cif.got.tgz:13926.got - 2010.04.14 02:13:53.
