data_PCOD8174642
_publ_section_title
;
Structure prediction by ZEFSAII (Michael W. Deem and Ramdas Pophale) SiO2 
 PCOD8174642
Probable space group: C M C 21
;
_chemical_formula_sum "Si O2"
_cell_formula_units_Z 64
_cell_length_a 8.993540
_cell_length_b 15.558479
_cell_length_c 23.705575
_cell_angle_alpha 90.000000
_cell_angle_beta 90.000000
_cell_angle_gamma 90.000000
_cell_volume 3317.021623
_symmetry_space_group_name_H-M "C M C 21"
_symmetry_group_IT_number 36
_symmetry_cell_setting 'orthorhombic'
loop_
_space_group_symop_operation_xyz
x,y,z
-x,-y,1/2+z
x,-y,1/2+z
-x,y,z
1/2+x,1/2+y,z
1/2-x,1/2-y,1/2+z
1/2+x,1/2-y,1/2+z
1/2-x,1/2+y,z
loop_
_atom_site_type_symbol
_atom_site_label
_atom_site_fract_x
_atom_site_fract_y
_atom_site_fract_z
Si Si1 0.827225 0.288217 0.913880
Si Si2 0.325102 0.533895 0.412389
Si Si3 0.322998 0.373220 0.483348
Si Si4 0.670717 0.029046 0.679008
Si Si5 0.327510 0.207897 0.284990
Si Si6 0.829055 0.280456 0.185863
Si Si7 0.175858 0.120398 0.111023
Si Si8 0.325585 0.468860 0.784072
O O1 0.747843 0.376588 0.930553
O O2 0.760990 0.211571 0.951992
O O3 0.798811 0.261933 0.848910
O O4 0.000000 0.302258 0.925932
O O5 0.500000 0.545905 0.418584
O O6 0.262567 0.458657 0.452351
O O7 0.283091 0.508444 0.348297
O O8 0.500000 0.372466 0.479796
O O9 0.264444 0.373068 0.547202
O O10 0.500000 0.000058 0.681291
O O11 0.687790 0.126548 0.655914
O O12 0.737419 0.031125 0.742179
O O13 0.757398 0.964533 0.638695
O O14 0.500000 0.185219 0.275639
O O15 0.273921 0.281121 0.241822
O O16 0.225451 0.127101 0.269359
O O17 0.773335 0.206928 0.142866
O O18 0.000000 0.264947 0.203461
O O19 0.000000 0.110355 0.111950
O O20 0.500000 0.477570 0.772635
#
# Coordination Sequence:
#
# PCOD8174642 Si02
#       8
#     8   8   8   8   8   8   8   8
#     4   9  19  35  56  83 114 146 184 226 277 334
#     4   9  19  35  56  82 113 145 183 231 277 329
#     4   9  19  37  60  82 108 149 193 229 270 334
#     4  11  23  37  55  83 115 146 188 240 284 329
#     4  10  19  32  56  85 116 148 184 232 279 329
#     4  10  22  37  54  80 113 149 187 231 284 338
#     4  10  21  40  61  79 108 152 195 230 278 340
#     4  10  19  33  56  82 115 151 184 225 285 343
#
# _framework density 19.294418
#
# number of rings (size 3 to 8) (size 9 to 14) (size 15 to 20)
#    0.000    2.250    1.250    1.125    1.750    3.000 
#    0.000    3.125    0.000    0.000    0.000    0.000 
#    0.000    0.000    0.000    0.000    0.000    0.000 
#
# Total GULP energy -396814.508176 kJ/mol
# GULP energy per Si atom -12400.453380 kJ/mol
# Density = 1.925050 g / cm^3
# Si number density = 19.294418 Si / 1000 Ang^3
#
#
#
# Elastic Constant Matrix: (Units=GPa)
#
#
# Indices 1 2 3 4 5 6 
#
# 1 35.6067 30.6413 33.4015 0.0000 0.0000 0.0000
# 2 30.6413 142.3772 80.6484 0.0000 0.0000 0.0000
# 3 33.4015 80.6484 131.0208 0.0000 0.0000 0.0000
# 4 0.0000 0.0000 0.0000 27.2340 0.0000 0.0000
# 5 0.0000 0.0000 0.0000 0.0000 20.1079 0.0000
# 6 0.0000 0.0000 0.0000 0.0000 0.0000 27.3139
#
#
#
# Elastic Compliance Matrix: (Units=1/GPa)
#
#
# Indices 1 2 3 4 5 6 
#
# 1 0.038468 -0.004182 -0.007233 0.000000 0.000000 0.000000
# 2 -0.004182 0.011238 -0.005851 0.000000 0.000000 0.000000
# 3 -0.007233 -0.005851 0.013078 0.000000 0.000000 0.000000
# 4 0.000000 0.000000 0.000000 0.036719 0.000000 0.000000
# 5 0.000000 0.000000 0.000000 0.000000 0.049732 0.000000
# 6 0.000000 0.000000 0.000000 0.000000 0.000000 0.036611
#
#
# Mechanical properties :
#
#
# Convention : Reuss Voigt Hill
#
# Bulk Modulus (GPa) = 35.39540 66.48746 50.94143
# Shear Modulus (GPa) = 21.75847 25.88536 23.82192
#
# Velocity S-wave (km/s) = 3.36178 3.66676 3.51758
# Velocity P-wave (km/s) = 5.78390 7.24300 6.55418
#
# Compressibility (1/GPa) = 0.02825226
#
# Stress axis : x y z
#
# Youngs Moduli (GPa) = 25.99555 88.98340 76.46454
#
# Poissons Ratio (x) = 0.37212 0.55304
# Poissons Ratio (y) = 0.10871 0.44742
# Poissons Ratio (z) = 0.18802 0.52067
#
# Static dielectric constant tensor:
#      x y z
#    x 3.343220 0.000000 0.000000 
#    y 0.000000 3.550970 0.000000 
#    z 0.000000 0.000000 3.633520 
# 
# 
# High freq. dielectric constant tensor:
#      x y z
#    x 1.734540 0.000000 0.000000 
#    y 0.000000 1.755730 0.000000 
#    z 0.000000 0.000000 1.747030 
# 
# From -- ./inp_files/16540.got.cif
#   From: 2010.03.12/outbox.cif.g09.slc.cpg/sg36_9_cif.got.tgz:16540.got - 2010.04.14 02:13:53.
