data_PCOD8174619
_publ_section_title
;
Structure prediction by ZEFSAII (Michael W. Deem and Ramdas Pophale) SiO2 
 PCOD8174619
Probable space group: C M C 21
;
_chemical_formula_sum "Si O2"
_cell_formula_units_Z 64
_cell_length_a 8.540130
_cell_length_b 20.730782
_cell_length_c 19.283735
_cell_angle_alpha 90.000000
_cell_angle_beta 90.000000
_cell_angle_gamma 90.000000
_cell_volume 3414.061351
_symmetry_space_group_name_H-M "C M C 21"
_symmetry_group_IT_number 36
_symmetry_cell_setting 'orthorhombic'
loop_
_space_group_symop_operation_xyz
x,y,z
-x,-y,1/2+z
x,-y,1/2+z
-x,y,z
1/2+x,1/2+y,z
1/2-x,1/2-y,1/2+z
1/2+x,1/2-y,1/2+z
1/2-x,1/2+y,z
loop_
_atom_site_type_symbol
_atom_site_label
_atom_site_fract_x
_atom_site_fract_y
_atom_site_fract_z
Si Si1 0.184893 0.865532 0.875000
Si Si2 0.316330 0.511972 0.876059
Si Si3 0.817750 0.491237 0.230940
Si Si4 0.182375 0.447202 0.512229
Si Si5 0.684521 0.630660 0.222194
Si Si6 0.684750 0.816653 0.588329
Si Si7 0.816866 0.937339 0.097288
Si Si8 0.813907 0.188674 0.515419
O O1 0.243256 0.938625 0.885856
O O2 0.235682 0.841749 0.798061
O O3 0.000000 0.865902 0.880795
O O4 0.253163 0.820542 0.936667
O O5 0.500000 0.519707 0.889009
O O6 0.275355 0.533827 0.798196
O O7 0.222222 0.555998 0.930599
O O8 0.768363 0.562827 0.207237
O O9 0.778856 0.443107 0.168390
O O10 0.000000 0.490056 0.247696
O O11 0.233117 0.379260 0.544801
O O12 0.284164 0.503474 0.546089
O O13 0.000000 0.460770 0.525140
O O14 0.500000 0.617904 0.220178
O O15 0.736264 0.681625 0.164187
O O16 0.500000 0.811315 0.598557
O O17 0.753057 0.754557 0.547899
O O18 0.759084 0.871522 0.061659
O O19 0.000000 0.935713 0.114126
O O20 0.000000 0.191947 0.512805
#
# Coordination Sequence:
#
# PCOD8174619 Si02
#       8
#     8   8   8   8   8   8   8   8
#     4   8  15  30  53  79 100 131 182 230 268 320
#     4  10  19  34  56  82 109 142 187 232 279 334
#     4  11  21  34  53  82 116 144 180 232 288 336
#     4  11  21  33  52  82 115 146 181 226 283 330
#     4  10  19  32  54  80 109 144 187 229 274 334
#     4  10  21  36  55  79 113 151 186 226 280 334
#     4  11  20  34  58  82 107 145 190 231 274 328
#     4   9  18  35  57  80 107 145 189 230 276 332
#
# _framework density 18.746002000000001
#
# number of rings (size 3 to 8) (size 9 to 14) (size 15 to 20)
#    0.000    2.000    2.500    3.375    0.000    0.500 
#    0.000    2.500    0.000    1.500    0.000    0.000 
#    0.000    0.000    0.000    0.000    0.000    0.000 
#
# Total GULP energy -396796.577737 kJ/mol
# GULP energy per Si atom -12399.893054 kJ/mol
# Density = 1.870334 g / cm^3
# Si number density = 18.746002 Si / 1000 Ang^3
#
#
#
# Elastic Constant Matrix: (Units=GPa)
#
#
# Indices 1 2 3 4 5 6 
#
# 1 43.7847 20.6632 17.4306 0.0000 0.0000 0.0000
# 2 20.6632 105.2383 67.7109 0.0000 0.0000 0.0000
# 3 17.4306 67.7109 163.6185 0.0000 0.0000 0.0000
# 4 0.0000 0.0000 0.0000 29.1460 0.0000 0.0000
# 5 0.0000 0.0000 0.0000 0.0000 31.6681 0.0000
# 6 0.0000 0.0000 0.0000 0.0000 0.0000 16.8364
#
#
#
# Elastic Compliance Matrix: (Units=1/GPa)
#
#
# Indices 1 2 3 4 5 6 
#
# 1 0.025262 -0.004400 -0.000870 0.000000 0.000000 0.000000
# 2 -0.004400 0.013717 -0.005208 0.000000 0.000000 0.000000
# 3 -0.000870 -0.005208 0.008360 0.000000 0.000000 0.000000
# 4 0.000000 0.000000 0.000000 0.034310 0.000000 0.000000
# 5 0.000000 0.000000 0.000000 0.000000 0.031577 0.000000
# 6 0.000000 0.000000 0.000000 0.000000 0.000000 0.059395
#
#
# Mechanical properties :
#
#
# Convention : Reuss Voigt Hill
#
# Bulk Modulus (GPa) = 37.90441 58.25009 48.07725
# Shear Modulus (GPa) = 24.70705 29.31926 27.01315
#
# Velocity S-wave (km/s) = 3.63435 3.95907 3.80018
# Velocity P-wave (km/s) = 6.15429 7.21386 6.70504
#
# Compressibility (1/GPa) = 0.02638216
#
# Stress axis : x y z
#
# Youngs Moduli (GPa) = 39.58511 72.90281 119.62251
#
# Poissons Ratio (x) = 0.32079 0.10410
# Poissons Ratio (y) = 0.17418 0.62296
# Poissons Ratio (z) = 0.03445 0.37966
#
# Static dielectric constant tensor:
#      x y z
#    x 3.196520 0.000000 0.000000 
#    y 0.000000 3.335930 0.000000 
#    z 0.000000 0.000000 3.839780 
# 
# 
# High freq. dielectric constant tensor:
#      x y z
#    x 1.711940 0.000000 0.000000 
#    y 0.000000 1.692310 0.000000 
#    z 0.000000 0.000000 1.749830 
# 
# From -- ./inp_files/13897.got.cif
#   From: 2010.03.12/outbox.cif.g09.slc.cpg/sg36_7_cif.got.tgz:13897.got - 2010.04.14 02:13:53.
