data_PCOD8174156
_publ_section_title
;
Structure prediction by ZEFSAII (Michael W. Deem and Ramdas Pophale) SiO2 
 PCOD8174156
Probable space group: C M M 2
;
_chemical_formula_sum "Si O2"
_cell_formula_units_Z 56
_cell_length_a 9.842432
_cell_length_b 29.937342
_cell_length_c 12.587484
_cell_angle_alpha 90.000000
_cell_angle_beta 90.000000
_cell_angle_gamma 90.000000
_cell_volume 3708.980869
_symmetry_space_group_name_H-M "C M M 2"
_symmetry_group_IT_number 35
_symmetry_cell_setting 'orthorhombic'
loop_
_space_group_symop_operation_xyz
x,y,z
-x,-y,z
-x,y,z
x,-y,z
1/2+x,1/2+y,z
1/2-x,1/2-y,z
1/2-x,1/2+y,z
1/2+x,1/2-y,z
loop_
_atom_site_type_symbol
_atom_site_label
_atom_site_fract_x
_atom_site_fract_y
_atom_site_fract_z
Si Si1 0.348748 0.287458 0.975760
Si Si2 0.660999 0.614678 0.986767
Si Si3 0.157661 0.947918 0.798984
Si Si4 0.660795 0.611864 0.225146
Si Si5 0.349829 0.946989 0.613523
Si Si6 0.843017 0.447761 0.374823
Si Si7 0.350288 0.287226 0.228002
O O1 0.500000 0.280759 0.927831
O O2 0.250000 0.250000 0.925886
O O3 0.288182 0.336468 0.948016
O O4 0.355663 0.282903 0.101888
O O5 0.500000 0.617503 0.993514
O O6 0.710669 0.577298 0.904098
O O7 0.713149 0.602871 0.104793
O O8 0.240329 0.928976 0.698090
O O9 0.000000 0.938027 0.776932
O O10 0.184930 0.000000 0.818428
O O11 0.500000 0.602714 0.236284
O O12 0.742915 0.578552 0.298702
O O13 0.696221 0.662719 0.258812
O O14 0.500000 0.929001 0.644076
O O15 0.310892 0.931497 0.494880
O O16 0.351616 0.000000 0.615109
O O17 0.812063 0.500000 0.361569
O O18 0.000000 0.437669 0.346651
O O19 0.500000 0.277859 0.274956
O O20 0.250000 0.250000 0.277453
#
# Coordination Sequence:
#
# PCOD8174156 Si02
#       7
#     8   8   8   8   8   8   8
#     4   8  13  23  38  54  76 105 134 163 195 231
#     4   8  15  27  40  58  87 115 133 158 201 244
#     4   9  16  26  42  62  81 104 137 170 197 234
#     4   9  17  28  42  62  87 113 141 169 199 243
#     4   8  15  29  45  58  76 103 134 171 212 243
#     4   9  18  31  44  59  82 111 140 171 209 249
#     4   8  14  24  38  57  80 106 136 168 200 236
#
# _framework density 15.098487
#
# number of rings (size 3 to 8) (size 9 to 14) (size 15 to 20)
#    0.000    3.571    0.000    2.571    0.000    2.000 
#    0.000    6.429    0.000    1.714    0.000    1.000 
#    0.000    2.286    0.000    0.000    0.000    0.000 
#
# Total GULP energy -346984.017191 kJ/mol
# GULP energy per Si atom -12392.286328 kJ/mol
# Density = 1.506412 g / cm^3
# Si number density = 15.098487 Si / 1000 Ang^3
#
#
#
# Elastic Constant Matrix: (Units=GPa)
#
#
# Indices 1 2 3 4 5 6 
#
# 1 73.1898 52.9463 50.5120 0.0000 0.0000 0.0000
# 2 52.9463 80.9275 50.7124 0.0000 0.0000 0.0000
# 3 50.5120 50.7124 83.4254 0.0000 0.0000 0.0000
# 4 0.0000 0.0000 0.0000 0.2208 0.0000 0.0000
# 5 0.0000 0.0000 0.0000 0.0000 19.6973 0.0000
# 6 0.0000 0.0000 0.0000 0.0000 0.0000 25.6054
#
#
#
# Elastic Compliance Matrix: (Units=1/GPa)
#
#
# Indices 1 2 3 4 5 6 
#
# 1 0.030551 -0.013562 -0.010253 0.000000 0.000000 0.000000
# 2 -0.013562 0.025981 -0.007581 0.000000 0.000000 0.000000
# 3 -0.010253 -0.007581 0.022803 0.000000 0.000000 0.000000
# 4 0.000000 0.000000 0.000000 4.529091 0.000000 0.000000
# 5 0.000000 0.000000 0.000000 0.000000 0.050768 0.000000
# 6 0.000000 0.000000 0.000000 0.000000 0.000000 0.039054
#
#
# Mechanical properties :
#
#
# Convention : Reuss Voigt Hill
#
# Bulk Modulus (GPa) = 60.45772 60.65380 60.55576
# Shear Modulus (GPa) = 1.04898 14.66285 7.85591
#
# Velocity S-wave (km/s) = 0.83442 3.11970 2.28351
# Velocity P-wave (km/s) = 6.40761 7.29630 6.86635
#
# Compressibility (1/GPa) = 0.01654049
#
# Stress axis : x y z
#
# Youngs Moduli (GPa) = 32.73250 38.49028 43.85306
#
# Poissons Ratio (x) = 0.52202 0.44964
# Poissons Ratio (y) = 0.44393 0.33246
# Poissons Ratio (z) = 0.33562 0.29181
#
# Static dielectric constant tensor:
#      x y z
#    x 3.028640 0.000000 0.000000 
#    y 0.000000 2.947830 0.000000 
#    z 0.000000 0.000000 2.794380 
# 
# 
# High freq. dielectric constant tensor:
#      x y z
#    x 1.570830 0.000000 0.000000 
#    y 0.000000 1.567250 0.000000 
#    z 0.000000 0.000000 1.545780 
# 
# From -- ./inp_files/12431.got.cif
#   From: 2010.03.12/outbox.cif.g09.slc.cpg/sg35_7_cif.got.tgz:12431.got - 2010.04.14 02:02:04.
