data_PCOD8174343
_publ_section_title
;
Structure prediction by ZEFSAII (Michael W. Deem and Ramdas Pophale) SiO2 
 PCOD8174343
Probable space group: C M C 21
;
_chemical_formula_sum "Si O2"
_cell_formula_units_Z 48
_cell_length_a 8.976789
_cell_length_b 18.317341
_cell_length_c 15.625952
_cell_angle_alpha 90.000000
_cell_angle_beta 90.000000
_cell_angle_gamma 90.000000
_cell_volume 2569.389432
_symmetry_space_group_name_H-M "C M C 21"
_symmetry_group_IT_number 36
_symmetry_cell_setting 'orthorhombic'
loop_
_space_group_symop_operation_xyz
x,y,z
-x,-y,1/2+z
x,-y,1/2+z
-x,y,z
1/2+x,1/2+y,z
1/2-x,1/2-y,1/2+z
1/2+x,1/2-y,1/2+z
1/2-x,1/2+y,z
loop_
_atom_site_type_symbol
_atom_site_label
_atom_site_fract_x
_atom_site_fract_y
_atom_site_fract_z
Si Si1 0.675672 0.081255 0.965550
Si Si2 0.668894 0.544947 0.390136
Si Si3 0.829950 0.907233 0.298038
Si Si4 0.826287 0.706673 0.704719
Si Si5 0.324538 0.289819 0.877076
Si Si6 0.176244 0.789103 0.534958
O O1 0.500000 0.082106 0.974204
O O2 0.735033 0.997290 0.963847
O O3 0.729865 0.122255 0.878042
O O4 0.748938 0.130192 0.040416
O O5 0.500000 0.546855 0.423804
O O6 0.679163 0.496227 0.301849
O O7 0.727183 0.625559 0.372141
O O8 0.759811 0.871320 0.212860
O O9 0.000000 0.880984 0.309299
O O10 0.781855 0.756490 0.785486
O O11 0.771242 0.746107 0.619239
O O12 0.000000 0.689830 0.700508
O O13 0.500000 0.281579 0.895772
O O14 0.231929 0.255230 0.953351
O O15 0.000000 0.798755 0.531883
#
# Coordination Sequence:
#
# PCOD8174343 Si02
#       6
#     8   8   8   8   8   8
#     4  10  18  32  54  76 103 141 180 214 267 321
#     4   8  17  32  54  80 104 137 179 222 271 321
#     4   9  17  32  54  77 103 137 177 217 266 318
#     4  10  21  35  55  81 111 144 177 221 271 321
#     4  10  19  36  58  80 107 142 183 224 269 322
#     4  11  22  35  53  82 114 143 180 224 270 315
#
# _framework density 18.681481999999999
#
# number of rings (size 3 to 8) (size 9 to 14) (size 15 to 20)
#    1.000    1.333    1.667    2.000    0.000    2.000 
#    0.000    1.667    0.000    4.000    0.000    0.000 
#    0.000    0.000    0.000    0.000    0.000    0.000 
#
# Total GULP energy -297333.402328 kJ/mol
# GULP energy per Si atom -12388.891764 kJ/mol
# Density = 1.863896 g / cm^3
# Si number density = 18.681482 Si / 1000 Ang^3
#
#
#
# Elastic Constant Matrix: (Units=GPa)
#
#
# Indices 1 2 3 4 5 6 
#
# 1 75.3451 24.9981 21.5423 0.0000 0.0000 0.0000
# 2 24.9981 88.5761 16.9242 0.0000 0.0000 0.0000
# 3 21.5423 16.9242 64.5634 0.0000 0.0000 0.0000
# 4 0.0000 0.0000 0.0000 12.7025 0.0000 0.0000
# 5 0.0000 0.0000 0.0000 0.0000 24.0985 0.0000
# 6 0.0000 0.0000 0.0000 0.0000 0.0000 20.2317
#
#
#
# Elastic Compliance Matrix: (Units=1/GPa)
#
#
# Indices 1 2 3 4 5 6 
#
# 1 0.015697 -0.003610 -0.004291 0.000000 0.000000 0.000000
# 2 -0.003610 0.012715 -0.002129 0.000000 0.000000 0.000000
# 3 -0.004291 -0.002129 0.017478 0.000000 0.000000 0.000000
# 4 0.000000 0.000000 0.000000 0.078725 0.000000 0.000000
# 5 0.000000 0.000000 0.000000 0.000000 0.041496 0.000000
# 6 0.000000 0.000000 0.000000 0.000000 0.000000 0.049427
#
#
# Mechanical properties :
#
#
# Convention : Reuss Voigt Hill
#
# Bulk Modulus (GPa) = 38.71311 39.49042 39.10176
# Shear Modulus (GPa) = 20.47427 22.40787 21.44107
#
# Velocity S-wave (km/s) = 3.31413 3.46709 3.39147
# Velocity P-wave (km/s) = 5.95082 6.10019 6.02597
#
# Compressibility (1/GPa) = 0.02583105
#
# Stress axis : x y z
#
# Youngs Moduli (GPa) = 63.70673 78.64553 57.21346
#
# Poissons Ratio (x) = 0.28392 0.24551
# Poissons Ratio (y) = 0.22999 0.12178
# Poissons Ratio (z) = 0.27337 0.16740
#
# Static dielectric constant tensor:
#      x y z
#    x 3.320800 0.000000 0.000000 
#    y 0.000000 3.605650 0.000000 
#    z 0.000000 0.000000 3.191180 
# 
# 
# High freq. dielectric constant tensor:
#      x y z
#    x 1.726490 0.000000 0.000000 
#    y 0.000000 1.732460 0.000000 
#    z 0.000000 0.000000 1.684750 
# 
# From -- ./inp_files/10453.got.cif
#   From: 2010.03.12/outbox.cif.g09.slc.cpg/sg36_6_cif.got.tgz:10453.got - 2010.04.14 02:13:53.
