data_PCOD8174431
_publ_section_title
;
Structure prediction by ZEFSAII (Michael W. Deem and Ramdas Pophale) SiO2 
 PCOD8174431
Probable space group: C M C 21
;
_chemical_formula_sum "Si O2"
_cell_formula_units_Z 64
_cell_length_a 8.993795
_cell_length_b 20.075809
_cell_length_c 19.688204
_cell_angle_alpha 90.000000
_cell_angle_beta 90.000000
_cell_angle_gamma 90.000000
_cell_volume 3554.857040
_symmetry_space_group_name_H-M "C M C 21"
_symmetry_group_IT_number 36
_symmetry_cell_setting 'orthorhombic'
loop_
_space_group_symop_operation_xyz
x,y,z
-x,-y,1/2+z
x,-y,1/2+z
-x,y,z
1/2+x,1/2+y,z
1/2-x,1/2-y,1/2+z
1/2+x,1/2-y,1/2+z
1/2-x,1/2+y,z
loop_
_atom_site_type_symbol
_atom_site_label
_atom_site_fract_x
_atom_site_fract_y
_atom_site_fract_z
Si Si1 0.326521 0.328691 0.654050
Si Si2 0.671749 0.668141 0.773879
Si Si3 0.326103 0.482771 0.286980
Si Si4 0.676268 0.420118 0.028451
Si Si5 0.176203 0.024023 0.139391
Si Si6 0.823518 0.586250 0.385151
Si Si7 0.327056 0.700107 0.622489
Si Si8 0.674294 0.296841 0.808123
O O1 0.500000 0.320646 0.643355
O O2 0.269582 0.400202 0.627483
O O3 0.250794 0.270970 0.609904
O O4 0.284758 0.323084 0.733281
O O5 0.500000 0.688563 0.780813
O O6 0.699848 0.594869 0.804032
O O7 0.720389 0.668700 0.694803
O O8 0.769072 0.720971 0.816378
O O9 0.500000 0.502181 0.293423
O O10 0.264651 0.497290 0.211513
O O11 0.231919 0.525860 0.338976
O O12 0.500000 0.425244 0.014512
O O13 0.733877 0.478689 0.078037
O O14 0.718911 0.349940 0.062836
O O15 0.768304 0.428509 0.960505
O O16 0.000000 0.019710 0.142367
O O17 0.757043 0.656710 0.361818
O O18 0.000000 0.589935 0.382870
O O19 0.500000 0.713765 0.621281
O O20 0.500000 0.299688 0.823136
#
# Coordination Sequence:
#
# PCOD8174431 Si02
#       8
#     8   8   8   8   8   8   8   8
#     4   9  17  30  53  82 110 137 173 223 272 324
#     4   9  17  31  56  87 114 138 175 228 279 328
#     4  10  18  35  60  84 112 147 186 228 279 340
#     4  10  20  37  59  79 105 148 190 227 278 340
#     4   9  16  32  58  84 107 138 186 230 267 329
#     4  12  25  38  53  79 115 151 191 238 281 332
#     4   9  17  31  53  81 109 137 175 222 271 328
#     4  10  19  34  56  80 110 146 184 226 275 333
#
# _framework density 18.003536
#
# number of rings (size 3 to 8) (size 9 to 14) (size 15 to 20)
#    0.000    2.250    2.500    1.500    0.000    1.500 
#    0.000    2.500    0.000    4.500    0.000    0.000 
#    0.000    0.000    0.000    0.000    0.000    0.000 
#
# Total GULP energy -396811.905552 kJ/mol
# GULP energy per Si atom -12400.372048 kJ/mol
# Density = 1.796256 g / cm^3
# Si number density = 18.003536 Si / 1000 Ang^3
#
#
#
# Elastic Constant Matrix: (Units=GPa)
#
#
# Indices 1 2 3 4 5 6 
#
# 1 67.9647 50.8354 47.4213 0.0000 0.0000 0.0000
# 2 50.8354 139.3984 63.9632 0.0000 0.0000 0.0000
# 3 47.4213 63.9632 103.4142 0.0000 0.0000 0.0000
# 4 0.0000 0.0000 0.0000 26.6537 0.0000 0.0000
# 5 0.0000 0.0000 0.0000 0.0000 21.0525 0.0000
# 6 0.0000 0.0000 0.0000 0.0000 0.0000 33.0266
#
#
#
# Elastic Compliance Matrix: (Units=1/GPa)
#
#
# Indices 1 2 3 4 5 6 
#
# 1 0.024046 -0.005179 -0.007823 0.000000 0.000000 0.000000
# 2 -0.005179 0.011132 -0.004510 0.000000 0.000000 0.000000
# 3 -0.007823 -0.004510 0.016047 0.000000 0.000000 0.000000
# 4 0.000000 0.000000 0.000000 0.037518 0.000000 0.000000
# 5 0.000000 0.000000 0.000000 0.000000 0.047500 0.000000
# 6 0.000000 0.000000 0.000000 0.000000 0.000000 0.030279
#
#
# Mechanical properties :
#
#
# Convention : Reuss Voigt Hill
#
# Bulk Modulus (GPa) = 61.73013 70.57968 66.15490
# Shear Modulus (GPa) = 24.16082 26.05039 25.10561
#
# Velocity S-wave (km/s) = 3.66731 3.80802 3.73833
# Velocity P-wave (km/s) = 7.23149 7.65657 7.44706
#
# Compressibility (1/GPa) = 0.01619954
#
# Stress axis : x y z
#
# Youngs Moduli (GPa) = 41.58729 89.83062 62.31804
#
# Poissons Ratio (x) = 0.46527 0.48750
# Poissons Ratio (y) = 0.21540 0.28107
# Poissons Ratio (z) = 0.32533 0.40516
#
# Static dielectric constant tensor:
#      x y z
#    x 3.138020 0.000000 0.000000 
#    y 0.000000 3.583800 0.000000 
#    z 0.000000 0.000000 3.169990 
# 
# 
# High freq. dielectric constant tensor:
#      x y z
#    x 1.678140 0.000000 0.000000 
#    y 0.000000 1.713360 0.000000 
#    z 0.000000 0.000000 1.672320 
# 
# From -- ./inp_files/13856.got.cif
#   From: 2010.03.12/outbox.cif.g09.slc.cpg/sg36_7_cif.got.tgz:13856.got - 2010.04.14 02:13:53.
