data_PCOD8174814
_publ_section_title
;
Structure prediction by ZEFSAII (Michael W. Deem and Ramdas Pophale) SiO2 
 PCOD8174814
Probable space group: C M C 21
;
_chemical_formula_sum "Si O2"
_cell_formula_units_Z 48
_cell_length_a 16.015706
_cell_length_b 9.024720
_cell_length_c 15.906274
_cell_angle_alpha 90.000000
_cell_angle_beta 90.000000
_cell_angle_gamma 90.000000
_cell_volume 2299.049297
_symmetry_space_group_name_H-M "C M C 21"
_symmetry_group_IT_number 36
_symmetry_cell_setting 'orthorhombic'
loop_
_space_group_symop_operation_xyz
x,y,z
-x,-y,1/2+z
x,-y,1/2+z
-x,y,z
1/2+x,1/2+y,z
1/2-x,1/2-y,1/2+z
1/2+x,1/2-y,1/2+z
1/2-x,1/2+y,z
loop_
_atom_site_type_symbol
_atom_site_label
_atom_site_fract_x
_atom_site_fract_y
_atom_site_fract_z
Si Si1 0.500000 0.601577 0.724951
Si Si2 0.500000 0.919375 0.788142
Si Si3 0.164934 0.040781 0.980054
Si Si4 0.832103 0.052613 0.781309
Si Si5 0.500000 0.965799 0.475215
Si Si6 0.674380 0.113837 0.278822
Si Si7 0.000000 0.866557 0.033836
Si Si8 0.332246 0.117843 0.479640
O O1 0.500000 0.737026 0.793773
O O2 0.419473 0.497165 0.741477
O O3 0.500000 0.670181 0.632325
O O4 0.500000 0.995866 0.877687
O O5 0.412127 0.960446 0.742302
O O6 0.082244 0.960413 0.012714
O O7 0.165366 0.030142 0.880074
O O8 0.248409 0.960412 0.015555
O O9 0.165634 0.211536 0.009363
O O10 0.754818 0.965624 0.740796
O O11 0.818703 0.218593 0.749673
O O12 0.415347 0.035550 0.515386
O O13 0.500000 0.788496 0.484532
O O14 0.669325 0.105169 0.379221
#
# Coordination Sequence:
#
# PCOD8174814 Si02
#       8
#     4   4   8   8   4   8   4   8
#     4  10  21  38  54  78 115 156 187 230 288 342
#     4   8  16  33  56  77 107 144 182 226 280 335
#     4  10  19  34  57  87 115 150 191 236 282 343
#     4   9  17  33  55  77 106 143 184 225 274 330
#     4  10  19  34  58  88 114 150 193 240 288 346
#     4   8  15  28  53  83 103 133 180 229 272 325
#     4  12  24  35  54  85 120 154 194 236 288 343
#     4   9  17  32  56  83 113 143 189 239 284 334
#
# _framework density 20.878195999999999
#
# number of rings (size 3 to 8) (size 9 to 14) (size 15 to 20)
#    0.000    2.667    0.000    3.000    0.000    5.333 
#    0.000    7.500    0.000    8.000    0.000    0.000 
#    0.000    0.000    0.000    0.000    0.000    0.000 
#
# Total GULP energy -297343.626893 kJ/mol
# GULP energy per Si atom -12389.317787 kJ/mol
# Density = 2.083068 g / cm^3
# Si number density = 20.878196 Si / 1000 Ang^3
#
#
#
# Elastic Constant Matrix: (Units=GPa)
#
#
# Indices 1 2 3 4 5 6 
#
# 1 271.9191 98.3023 18.5012 0.0000 0.0000 0.0000
# 2 98.3023 123.5819 23.4234 0.0000 0.0000 0.0000
# 3 18.5012 23.4234 27.9279 0.0000 0.0000 0.0000
# 4 0.0000 0.0000 0.0000 8.4738 0.0000 0.0000
# 5 0.0000 0.0000 0.0000 0.0000 4.3244 0.0000
# 6 0.0000 0.0000 0.0000 0.0000 0.0000 41.7981
#
#
#
# Elastic Compliance Matrix: (Units=1/GPa)
#
#
# Indices 1 2 3 4 5 6 
#
# 1 0.005162 -0.004112 0.000029 0.000000 0.000000 0.000000
# 2 -0.004112 0.012896 -0.008092 0.000000 0.000000 0.000000
# 3 0.000029 -0.008092 0.042575 0.000000 0.000000 0.000000
# 4 0.000000 0.000000 0.000000 0.118011 0.000000 0.000000
# 5 0.000000 0.000000 0.000000 0.000000 0.231246 0.000000
# 6 0.000000 0.000000 0.000000 0.000000 0.000000 0.023925
#
#
# Mechanical properties :
#
#
# Convention : Reuss Voigt Hill
#
# Bulk Modulus (GPa) = 27.56157 78.20920 52.88539
# Shear Modulus (GPa) = 10.63245 29.79939 20.21592
#
# Velocity S-wave (km/s) = 2.25913 3.78206 3.11509
# Velocity P-wave (km/s) = 4.47601 7.52416 6.19063
#
# Compressibility (1/GPa) = 0.03628240
#
# Stress axis : x y z
#
# Youngs Moduli (GPa) = 193.72451 77.54297 23.48819
#
# Poissons Ratio (x) = 0.31882 -0.00068
# Poissons Ratio (y) = 0.79650 0.19008
# Poissons Ratio (z) = -0.00557 0.62751
#
# Static dielectric constant tensor:
#      x y z
#    x 4.668230 0.000000 0.000000 
#    y 0.000000 3.681680 0.000000 
#    z 0.000000 0.000000 3.157670 
# 
# 
# High freq. dielectric constant tensor:
#      x y z
#    x 1.856890 0.000000 0.000000 
#    y 0.000000 1.799750 0.000000 
#    z 0.000000 0.000000 1.760610 
# 
# From -- ./inp_files/12535.got.cif
#   From: 2010.03.12/outbox.cif.g09.slc.cpg/sg36_7_cif.got.tgz:12535.got - 2010.04.14 02:13:53.
