data_PCOD8174782
_publ_section_title
;
Structure prediction by ZEFSAII (Michael W. Deem and Ramdas Pophale) SiO2 
 PCOD8174782
Probable space group: C M C 21
;
_chemical_formula_sum "Si O2"
_cell_formula_units_Z 64
_cell_length_a 8.842502
_cell_length_b 22.575893
_cell_length_c 15.684423
_cell_angle_alpha 90.000000
_cell_angle_beta 90.000000
_cell_angle_gamma 90.000000
_cell_volume 3131.040255
_symmetry_space_group_name_H-M "C M C 21"
_symmetry_group_IT_number 36
_symmetry_cell_setting 'orthorhombic'
loop_
_space_group_symop_operation_xyz
x,y,z
-x,-y,1/2+z
x,-y,1/2+z
-x,y,z
1/2+x,1/2+y,z
1/2-x,1/2-y,1/2+z
1/2+x,1/2-y,1/2+z
1/2-x,1/2+y,z
loop_
_atom_site_type_symbol
_atom_site_label
_atom_site_fract_x
_atom_site_fract_y
_atom_site_fract_z
Si Si1 0.821083 0.964600 0.302720
Si Si2 0.335199 0.769169 0.510765
Si Si3 0.179509 0.448456 0.937816
Si Si4 0.178784 0.061150 0.610774
Si Si5 0.324969 0.814658 0.131361
Si Si6 0.667404 0.332821 0.875952
Si Si7 0.663841 0.351985 0.408183
Si Si8 0.165416 0.753963 0.275980
O O1 0.769412 0.965565 0.202797
O O2 0.772227 0.902062 0.344375
O O3 0.000000 0.974334 0.307533
O O4 0.737750 0.015046 0.356417
O O5 0.500000 0.776918 0.554236
O O6 0.212958 0.742688 0.575149
O O7 0.353656 0.725171 0.432117
O O8 0.280472 0.835639 0.483720
O O9 0.235985 0.381528 0.925943
O O10 0.000000 0.450801 0.941035
O O11 0.243988 0.472166 0.029466
O O12 0.223953 0.129766 0.604318
O O13 0.000000 0.056158 0.600223
O O14 0.500000 0.832060 0.123904
O O15 0.282213 0.795285 0.225824
O O16 0.500000 0.357534 0.851011
O O17 0.760657 0.310891 0.792667
O O18 0.500000 0.373210 0.444387
O O19 0.637787 0.289388 0.362549
O O20 0.000000 0.745511 0.231336
#
# Coordination Sequence:
#
# PCOD8174782 Si02
#       8
#     8   8   8   8   8   8   8   8
#     4  10  22  42  66  90 120 163 209 257 310 369
#     4  10  20  33  54  83 117 154 191 239 297 355
#     4  12  25  40  62  93 126 164 207 259 314 368
#     4  11  22  41  65  90 119 158 210 260 309 367
#     4  12  22  33  55  88 123 157 199 249 303 365
#     4  10  20  36  57  83 116 155 197 242 296 359
#     4   9  18  35  57  83 114 149 192 240 298 360
#     4  10  19  34  56  84 119 152 189 242 299 359
#
# _framework density 20.440491000000002
#
# number of rings (size 3 to 8) (size 9 to 14) (size 15 to 20)
#    0.000    1.500    2.500    3.750    0.000    3.000 
#    0.000    1.250    0.000    4.500    0.000    0.000 
#    0.000    0.000    0.000    0.000    0.000    0.000 
#
# Total GULP energy -396549.087228 kJ/mol
# GULP energy per Si atom -12392.158976 kJ/mol
# Density = 2.039397 g / cm^3
# Si number density = 20.440491 Si / 1000 Ang^3
#
#
#
# Elastic Constant Matrix: (Units=GPa)
#
#
# Indices 1 2 3 4 5 6 
#
# 1 101.4438 21.9616 32.0677 0.0000 0.0000 0.0000
# 2 21.9616 46.4106 23.4976 0.0000 0.0000 0.0000
# 3 32.0677 23.4976 69.1501 0.0000 0.0000 0.0000
# 4 0.0000 0.0000 0.0000 34.6404 0.0000 0.0000
# 5 0.0000 0.0000 0.0000 0.0000 25.5745 0.0000
# 6 0.0000 0.0000 0.0000 0.0000 0.0000 29.7321
#
#
#
# Elastic Compliance Matrix: (Units=1/GPa)
#
#
# Indices 1 2 3 4 5 6 
#
# 1 0.011992 -0.003453 -0.004388 0.000000 0.000000 0.000000
# 2 -0.003453 0.027018 -0.007580 0.000000 0.000000 0.000000
# 3 -0.004388 -0.007580 0.019072 0.000000 0.000000 0.000000
# 4 0.000000 0.000000 0.000000 0.028868 0.000000 0.000000
# 5 0.000000 0.000000 0.000000 0.000000 0.039101 0.000000
# 6 0.000000 0.000000 0.000000 0.000000 0.000000 0.033634
#
#
# Mechanical properties :
#
#
# Convention : Reuss Voigt Hill
#
# Bulk Modulus (GPa) = 36.70937 41.33982 39.02460
# Shear Modulus (GPa) = 25.04915 27.28789 26.16852
#
# Velocity S-wave (km/s) = 3.50447 3.65772 3.58191
# Velocity P-wave (km/s) = 5.86286 6.17308 6.01997
#
# Compressibility (1/GPa) = 0.02724100
#
# Stress axis : x y z
#
# Youngs Moduli (GPa) = 83.38656 37.01181 52.43355
#
# Poissons Ratio (x) = 0.12781 0.23007
# Poissons Ratio (y) = 0.28795 0.39743
# Poissons Ratio (z) = 0.36589 0.28054
#
# Static dielectric constant tensor:
#      x y z
#    x 4.056370 0.000000 0.000000 
#    y 0.000000 3.430800 0.000000 
#    z 0.000000 0.000000 3.750360 
# 
# 
# High freq. dielectric constant tensor:
#      x y z
#    x 1.808590 0.000000 0.000000 
#    y 0.000000 1.767290 0.000000 
#    z 0.000000 0.000000 1.789260 
# 
# From -- ./inp_files/13892.got.cif
#   From: 2010.03.12/outbox.cif.g09.slc.cpg/sg36_7_cif.got.tgz:13892.got - 2010.04.14 02:13:53.
