data_PCOD8174952
_publ_section_title
;
Structure prediction by ZEFSAII (Michael W. Deem and Ramdas Pophale) SiO2 
 PCOD8174952
Probable space group: C M C 21
;
_chemical_formula_sum "Si O2"
_cell_formula_units_Z 64
_cell_length_a 8.702810
_cell_length_b 15.440557
_cell_length_c 23.733496
_cell_angle_alpha 90.000000
_cell_angle_beta 90.000000
_cell_angle_gamma 90.000000
_cell_volume 3189.217809
_symmetry_space_group_name_H-M "C M C 21"
_symmetry_group_IT_number 36
_symmetry_cell_setting 'orthorhombic'
loop_
_space_group_symop_operation_xyz
x,y,z
-x,-y,1/2+z
x,-y,1/2+z
-x,y,z
1/2+x,1/2+y,z
1/2-x,1/2-y,1/2+z
1/2+x,1/2-y,1/2+z
1/2-x,1/2+y,z
loop_
_atom_site_type_symbol
_atom_site_label
_atom_site_fract_x
_atom_site_fract_y
_atom_site_fract_z
Si Si1 0.181843 0.145032 0.337960
Si Si2 0.178910 0.893182 0.462505
Si Si3 0.176832 0.658525 0.848876
Si Si4 0.182002 0.086213 0.457266
Si Si5 0.677855 0.101470 0.725535
Si Si6 0.817433 0.078368 0.219289
Si Si7 0.818605 0.758726 0.032625
Si Si8 0.817492 0.259959 0.659400
O O1 0.233797 0.244513 0.336602
O O2 0.250319 0.100804 0.394363
O O3 0.246612 0.098521 0.282087
O O4 0.000000 0.137742 0.336821
O O5 0.217109 0.881627 0.396907
O O6 0.272635 0.829412 0.501973
O O7 0.000000 0.876444 0.471980
O O8 0.226075 0.991097 0.479590
O O9 0.199268 0.602242 0.792838
O O10 0.000000 0.658788 0.869263
O O11 0.251399 0.158326 0.499570
O O12 0.000000 0.097229 0.453641
O O13 0.500000 0.099456 0.708563
O O14 0.752517 0.187189 0.700372
O O15 0.762047 0.016942 0.701029
O O16 0.746701 0.146467 0.175917
O O17 0.000000 0.084050 0.215742
O O18 0.757609 0.759729 0.096343
O O19 0.000000 0.764519 0.032147
O O20 0.000000 0.260837 0.663141
#
# Coordination Sequence:
#
# PCOD8174952 Si02
#       8
#     8   8   8   8   8   8   8   8
#     4   9  16  32  60  86 112 154 196 233 291 359
#     4  11  22  35  58  93 121 149 195 248 296 351
#     4  10  19  36  61  86 118 160 196 236 299 364
#     4   9  18  35  59  83 113 150 190 233 285 353
#     4  11  23  40  62  91 124 161 203 250 305 365
#     4  11  22  39  63  91 122 160 202 249 308 365
#     4  10  22  42  63  81 112 160 203 243 298 359
#     4  11  24  41  62  89 118 158 211 260 308 360
#
# _framework density 20.067618
#
# number of rings (size 3 to 8) (size 9 to 14) (size 15 to 20)
#    0.000    1.750    2.500    2.250    0.000    4.000 
#    0.000    2.500    0.000    0.000    0.000    0.000 
#    0.000    0.000    0.000    0.000    0.000    0.000 
#
# Total GULP energy -396864.614597 kJ/mol
# GULP energy per Si atom -12402.019206 kJ/mol
# Density = 2.002194 g / cm^3
# Si number density = 20.067618 Si / 1000 Ang^3
#
#
#
# Elastic Constant Matrix: (Units=GPa)
#
#
# Indices 1 2 3 4 5 6 
#
# 1 34.7439 18.1399 18.5852 0.0000 0.0000 0.0000
# 2 18.1399 127.3925 16.3057 0.0000 0.0000 0.0000
# 3 18.5852 16.3057 91.0911 0.0000 0.0000 0.0000
# 4 0.0000 0.0000 0.0000 16.3971 0.0000 0.0000
# 5 0.0000 0.0000 0.0000 0.0000 25.7318 0.0000
# 6 0.0000 0.0000 0.0000 0.0000 0.0000 30.7520
#
#
#
# Elastic Compliance Matrix: (Units=1/GPa)
#
#
# Indices 1 2 3 4 5 6 
#
# 1 0.034259 -0.004077 -0.006260 0.000000 0.000000 0.000000
# 2 -0.004077 0.008519 -0.000693 0.000000 0.000000 0.000000
# 3 -0.006260 -0.000693 0.012379 0.000000 0.000000 0.000000
# 4 0.000000 0.000000 0.000000 0.060986 0.000000 0.000000
# 5 0.000000 0.000000 0.000000 0.000000 0.038862 0.000000
# 6 0.000000 0.000000 0.000000 0.000000 0.000000 0.032518
#
#
# Mechanical properties :
#
#
# Convention : Reuss Voigt Hill
#
# Bulk Modulus (GPa) = 30.21404 39.92101 35.06752
# Shear Modulus (GPa) = 22.66368 27.92265 25.29316
#
# Velocity S-wave (km/s) = 3.36425 3.73423 3.55406
# Velocity P-wave (km/s) = 5.49361 6.20718 5.86126
#
# Compressibility (1/GPa) = 0.03309720
#
# Stress axis : x y z
#
# Youngs Moduli (GPa) = 29.18917 117.38450 80.77990
#
# Poissons Ratio (x) = 0.47858 0.50569
# Poissons Ratio (y) = 0.11901 0.05599
# Poissons Ratio (z) = 0.18273 0.08136
#
# Static dielectric constant tensor:
#      x y z
#    x 3.353870 0.000000 0.000000 
#    y 0.000000 3.770040 0.000000 
#    z 0.000000 0.000000 3.746890 
# 
# 
# High freq. dielectric constant tensor:
#      x y z
#    x 1.758270 0.000000 0.000000 
#    y 0.000000 1.798290 0.000000 
#    z 0.000000 0.000000 1.782460 
# 
# From -- ./inp_files/16630.got.cif
#   From: 2010.03.12/outbox.cif.g09.slc.cpg/sg36_9_cif.got.tgz:16630.got - 2010.04.14 02:13:53.
