data_PCOD8174152
_publ_section_title
;
Structure prediction by ZEFSAII (Michael W. Deem and Ramdas Pophale) SiO2 
 PCOD8174152
Probable space group: C M M 2
;
_chemical_formula_sum "Si O2"
_cell_formula_units_Z 64
_cell_length_a 9.423361
_cell_length_b 19.710951
_cell_length_c 20.424904
_cell_angle_alpha 90.000000
_cell_angle_beta 90.000000
_cell_angle_gamma 90.000000
_cell_volume 3793.791255
_symmetry_space_group_name_H-M "C M M 2"
_symmetry_group_IT_number 35
_symmetry_cell_setting 'orthorhombic'
loop_
_space_group_symop_operation_xyz
x,y,z
-x,-y,z
-x,y,z
x,-y,z
1/2+x,1/2+y,z
1/2-x,1/2-y,z
1/2-x,1/2+y,z
1/2+x,1/2-y,z
loop_
_atom_site_type_symbol
_atom_site_label
_atom_site_fract_x
_atom_site_fract_y
_atom_site_fract_z
Si Si1 0.834525 0.684080 0.001440
Si Si2 0.340163 0.419264 0.374906
Si Si3 0.839434 0.581007 0.495724
Si Si4 0.665876 0.922642 0.108793
Si Si5 0.664164 0.921881 0.743656
Si Si6 0.160769 0.919319 0.618649
Si Si7 0.840809 0.080548 0.230477
Si Si8 0.164351 0.315372 0.852417
O O1 0.750000 0.750000 0.025317
O O2 0.788097 0.620588 0.045746
O O3 0.000000 0.700113 0.009098
O O4 0.794756 0.665446 0.926799
O O5 0.500000 0.393895 0.390375
O O6 0.338697 0.500000 0.376800
O O7 0.231996 0.390506 0.429175
O O8 0.292180 0.393603 0.302593
O O9 0.839966 0.500000 0.496198
O O10 0.747927 0.609145 0.556620
O O11 0.000000 0.608884 0.500373
O O12 0.500000 0.918295 0.121915
O O13 0.739572 0.891172 0.173451
O O14 0.714142 0.000000 0.095498
O O15 0.500000 0.912439 0.723567
O O16 0.760364 0.894717 0.684249
O O17 0.704462 0.879519 0.807962
O O18 0.697386 0.000000 0.760007
O O19 0.000000 0.890714 0.617382
O O20 0.159006 0.000000 0.616074
O O21 0.000000 0.105877 0.216104
O O22 0.834405 0.000000 0.230406
O O23 0.250000 0.250000 0.827873
O O24 0.000000 0.296776 0.846403
#
# Coordination Sequence:
#
# PCOD8174152 Si02
#       8
#     8   8   8   8   8   8   8   8
#     4   9  18  32  48  66  88 115 146 179 218 262
#     4   8  13  21  32  47  71 105 142 176 210 251
#     4   9  15  21  31  49  74 106 143 179 213 252
#     4   9  17  28  43  64  89 115 144 181 222 262
#     4   9  17  29  45  65  88 114 145 181 220 261
#     4   9  16  25  37  54  79 111 143 176 216 259
#     4   8  14  24  37  54  79 111 144 177 215 259
#     4   9  18  32  49  67  88 115 145 179 219 262
#
# _framework density 16.869668999999998
#
# number of rings (size 3 to 8) (size 9 to 14) (size 15 to 20)
#    0.000    3.250    0.000    1.500    0.000    5.000 
#    0.000    5.000    0.000    0.000    0.000    7.000 
#    0.000    1.000    0.000    5.000    0.000    9.875 
#
# Total GULP energy -396669.059187 kJ/mol
# GULP energy per Si atom -12395.908100 kJ/mol
# Density = 1.683127 g / cm^3
# Si number density = 16.869669 Si / 1000 Ang^3
#
#
#
# Elastic Constant Matrix: (Units=GPa)
#
#
# Indices 1 2 3 4 5 6 
#
# 1 91.3273 32.8547 74.1335 0.0000 0.0000 0.0000
# 2 32.8547 44.1594 50.0770 0.0000 0.0000 0.0000
# 3 74.1335 50.0770 143.3813 0.0000 0.0000 0.0000
# 4 0.0000 0.0000 0.0000 2.7592 0.0000 0.0000
# 5 0.0000 0.0000 0.0000 0.0000 32.9762 0.0000
# 6 0.0000 0.0000 0.0000 0.0000 0.0000 15.7446
#
#
#
# Elastic Compliance Matrix: (Units=1/GPa)
#
#
# Indices 1 2 3 4 5 6 
#
# 1 0.019539 -0.005101 -0.008321 0.000000 0.000000 0.000000
# 2 -0.005101 0.038828 -0.010923 0.000000 0.000000 0.000000
# 3 -0.008321 -0.010923 0.015092 0.000000 0.000000 0.000000
# 4 0.000000 0.000000 0.000000 0.362420 0.000000 0.000000
# 5 0.000000 0.000000 0.000000 0.000000 0.030325 0.000000
# 6 0.000000 0.000000 0.000000 0.000000 0.000000 0.063514
#
#
# Mechanical properties :
#
#
# Convention : Reuss Voigt Hill
#
# Bulk Modulus (GPa) = 40.37530 65.88871 53.13200
# Shear Modulus (GPa) = 8.52277 18.41618 13.46948
#
# Velocity S-wave (km/s) = 2.25013 3.30763 2.82874
# Velocity P-wave (km/s) = 5.54404 7.33004 6.49869
#
# Compressibility (1/GPa) = 0.02476762
#
# Stress axis : x y z
#
# Youngs Moduli (GPa) = 51.17955 25.75477 66.26209
#
# Poissons Ratio (x) = 0.13138 0.55135
# Poissons Ratio (y) = 0.26109 0.72380
# Poissons Ratio (z) = 0.42585 0.28133
#
# Static dielectric constant tensor:
#      x y z
#    x 3.281970 0.000000 0.000000 
#    y 0.000000 2.652960 0.000000 
#    z 0.000000 0.000000 3.463780 
# 
# 
# High freq. dielectric constant tensor:
#      x y z
#    x 1.653520 0.000000 0.000000 
#    y 0.000000 1.583640 0.000000 
#    z 0.000000 0.000000 1.663560 
# 
# From -- ./inp_files/18470.got.cif
#   From: 2010.03.12/outbox.cif.g09.slc.cpg/sg35_10_cif.got.tgz:18470.got - 2010.04.14 02:02:04.
