data_PCOD8174947
_publ_section_title
;
Structure prediction by ZEFSAII (Michael W. Deem and Ramdas Pophale) SiO2 
 PCOD8174947
Probable space group: C M C 21
;
_chemical_formula_sum "Si O2"
_cell_formula_units_Z 64
_cell_length_a 8.783735
_cell_length_b 24.524439
_cell_length_c 14.438404
_cell_angle_alpha 90.000000
_cell_angle_beta 90.000000
_cell_angle_gamma 90.000000
_cell_volume 3110.265737
_symmetry_space_group_name_H-M "C M C 21"
_symmetry_group_IT_number 36
_symmetry_cell_setting 'orthorhombic'
loop_
_space_group_symop_operation_xyz
x,y,z
-x,-y,1/2+z
x,-y,1/2+z
-x,y,z
1/2+x,1/2+y,z
1/2-x,1/2-y,1/2+z
1/2+x,1/2-y,1/2+z
1/2-x,1/2+y,z
loop_
_atom_site_type_symbol
_atom_site_label
_atom_site_fract_x
_atom_site_fract_y
_atom_site_fract_z
Si Si1 0.319444 0.796830 0.215410
Si Si2 0.323268 0.573869 0.034704
Si Si3 0.178585 0.193142 0.329142
Si Si4 0.675315 0.097655 0.223713
Si Si5 0.180491 0.662465 0.516065
Si Si6 0.171184 0.617729 0.865157
Si Si7 0.168098 0.476491 0.232273
Si Si8 0.675778 0.450376 0.051661
O O1 0.500000 0.799344 0.209374
O O2 0.262283 0.739143 0.256594
O O3 0.260935 0.841970 0.287954
O O4 0.256300 0.810361 0.112095
O O5 0.500000 0.578222 0.061131
O O6 0.222156 0.597763 0.116918
O O7 0.280365 0.510556 0.011973
O O8 0.285471 0.614827 0.951133
O O9 0.217192 0.135722 0.283886
O O10 0.256495 0.197981 0.430108
O O11 0.000000 0.199232 0.344855
O O12 0.500000 0.116009 0.233818
O O13 0.706476 0.037583 0.263579
O O14 0.231065 0.599193 0.505390
O O15 0.000000 0.664278 0.513004
O O16 0.168096 0.557077 0.825751
O O17 0.000000 0.635545 0.895461
O O18 0.290088 0.452012 0.161182
O O19 0.000000 0.474239 0.184546
O O20 0.500000 0.437274 0.034998
#
# Coordination Sequence:
#
# PCOD8174947 Si02
#       8
#     8   8   8   8   8   8   8   8
#     4   9  21  42  65  87 119 158 202 253 305 354
#     4  10  22  37  55  88 129 167 200 247 308 363
#     4  11  24  42  63  91 123 158 198 253 311 357
#     4  10  21  39  60  88 120 161 206 246 295 361
#     4  11  22  41  65  88 116 158 206 252 298 361
#     4  10  19  36  60  88 118 159 203 248 300 358
#     4   9  18  34  58  85 117 156 198 245 297 353
#     4  10  20  35  56  87 124 159 197 246 306 359
#
# _framework density 20.577020999999998
#
# number of rings (size 3 to 8) (size 9 to 14) (size 15 to 20)
#    0.000    2.000    1.250    1.875    1.750    3.500 
#    0.000    6.250    0.000    0.000    0.000    0.000 
#    0.000    0.000    0.000    0.000    0.000    0.000 
#
# Total GULP energy -396711.053349 kJ/mol
# GULP energy per Si atom -12397.220417 kJ/mol
# Density = 2.053019 g / cm^3
# Si number density = 20.577021 Si / 1000 Ang^3
#
#
#
# Elastic Constant Matrix: (Units=GPa)
#
#
# Indices 1 2 3 4 5 6 
#
# 1 58.0952 24.4813 25.6580 0.0000 0.0000 0.0000
# 2 24.4813 89.4685 53.1260 0.0000 0.0000 0.0000
# 3 25.6580 53.1260 94.0453 0.0000 0.0000 0.0000
# 4 0.0000 0.0000 0.0000 25.2743 0.0000 0.0000
# 5 0.0000 0.0000 0.0000 0.0000 33.2787 0.0000
# 6 0.0000 0.0000 0.0000 0.0000 0.0000 22.2348
#
#
#
# Elastic Compliance Matrix: (Units=1/GPa)
#
#
# Indices 1 2 3 4 5 6 
#
# 1 0.020236 -0.003399 -0.003601 0.000000 0.000000 0.000000
# 2 -0.003399 0.017390 -0.008896 0.000000 0.000000 0.000000
# 3 -0.003601 -0.008896 0.016641 0.000000 0.000000 0.000000
# 4 0.000000 0.000000 0.000000 0.039566 0.000000 0.000000
# 5 0.000000 0.000000 0.000000 0.000000 0.030049 0.000000
# 6 0.000000 0.000000 0.000000 0.000000 0.000000 0.044974
#
#
# Mechanical properties :
#
#
# Convention : Reuss Voigt Hill
#
# Bulk Modulus (GPa) = 44.49446 49.79328 47.14387
# Shear Modulus (GPa) = 24.02242 25.38049 24.70145
#
# Velocity S-wave (km/s) = 3.42049 3.51584 3.46849
# Velocity P-wave (km/s) = 6.10491 6.38221 6.24510
#
# Compressibility (1/GPa) = 0.02247471
#
# Stress axis : x y z
#
# Youngs Moduli (GPa) = 49.41749 57.50563 60.09304
#
# Poissons Ratio (x) = 0.19546 0.21638
# Poissons Ratio (y) = 0.16797 0.53459
# Poissons Ratio (z) = 0.17794 0.51157
#
# Static dielectric constant tensor:
#      x y z
#    x 3.579170 0.000000 0.000000 
#    y 0.000000 3.777770 0.000000 
#    z 0.000000 0.000000 3.721940 
# 
# 
# High freq. dielectric constant tensor:
#      x y z
#    x 1.790920 0.000000 0.000000 
#    y 0.000000 1.801210 0.000000 
#    z 0.000000 0.000000 1.801810 
# 
# From -- ./inp_files/10971.got.cif
#   From: 2010.03.12/outbox.cif.g09.slc.cpg/sg36_6_cif.got.tgz:10971.got - 2010.04.14 02:13:53.
