data_PCOD8174188
_publ_section_title
;
Structure prediction by ZEFSAII (Michael W. Deem and Ramdas Pophale) SiO2 
 PCOD8174188
Probable space group: C M C 21
;
_chemical_formula_sum "Si O2"
_cell_formula_units_Z 64
_cell_length_a 8.964247
_cell_length_b 18.474881
_cell_length_c 20.335735
_cell_angle_alpha 90.000000
_cell_angle_beta 90.000000
_cell_angle_gamma 90.000000
_cell_volume 3367.870145
_symmetry_space_group_name_H-M "C M C 21"
_symmetry_group_IT_number 36
_symmetry_cell_setting 'orthorhombic'
loop_
_space_group_symop_operation_xyz
x,y,z
-x,-y,1/2+z
x,-y,1/2+z
-x,y,z
1/2+x,1/2+y,z
1/2-x,1/2-y,1/2+z
1/2+x,1/2-y,1/2+z
1/2-x,1/2+y,z
loop_
_atom_site_type_symbol
_atom_site_label
_atom_site_fract_x
_atom_site_fract_y
_atom_site_fract_z
Si Si1 0.822903 0.246028 0.740350
Si Si2 0.835987 0.440702 0.832601
Si Si3 0.674088 0.315890 0.004525
Si Si4 0.327968 0.960923 0.971340
Si Si5 0.331643 0.988350 0.606908
Si Si6 0.665829 0.223176 0.382020
Si Si7 0.174086 0.896669 0.710995
Si Si8 0.172478 0.656783 0.633632
O O1 0.777480 0.234125 0.817022
O O2 0.760091 0.321298 0.712639
O O3 0.754541 0.179375 0.700562
O O4 0.000000 0.248593 0.732744
O O5 0.835354 0.360660 0.862340
O O6 0.718865 0.447778 0.773239
O O7 0.000000 0.459804 0.804134
O O8 0.799248 0.491365 0.896820
O O9 0.500000 0.304401 0.015205
O O10 0.710109 0.397857 0.984955
O O11 0.757291 0.297973 0.072913
O O12 0.728717 0.263248 0.945182
O O13 0.500000 0.931093 0.976858
O O14 0.306268 0.021717 0.027933
O O15 0.500000 0.966145 0.626552
O O16 0.301886 0.071742 0.624794
O O17 0.215070 0.937774 0.644076
O O18 0.500000 0.248697 0.401442
O O19 0.000000 0.881370 0.713286
O O20 0.000000 0.677545 0.638429
#
# Coordination Sequence:
#
# PCOD8174188 Si02
#       8
#     8   8   8   8   8   8   8   8
#     4  10  20  34  52  73  99 130 163 201 245 291
#     4   8  14  27  46  67  92 122 157 198 242 283
#     4  10  17  25  43  70  97 124 157 197 238 284
#     4   8  15  28  46  67  91 121 158 200 243 283
#     4   9  18  33  51  71  97 129 161 196 241 289
#     4   8  15  28  45  66  93 124 157 196 240 283
#     4  11  21  31  47  73 102 131 163 198 237 285
#     4  10  20  34  52  73  99 129 162 202 246 292
#
# _framework density 19.003107
#
# number of rings (size 3 to 8) (size 9 to 14) (size 15 to 20)
#    0.000    2.750    0.000    5.250    0.000    7.500 
#    0.000    0.000    0.000    1.500    0.000    5.250 
#    0.000    0.000    0.000    0.000    0.000    0.000 
#
# Total GULP energy -396542.055455 kJ/mol
# GULP energy per Si atom -12391.939233 kJ/mol
# Density = 1.895986 g / cm^3
# Si number density = 19.003107 Si / 1000 Ang^3
#
#
#
# Elastic Constant Matrix: (Units=GPa)
#
#
# Indices 1 2 3 4 5 6 
#
# 1 88.1865 6.0481 2.2819 0.0000 0.0000 0.0000
# 2 6.0481 12.8008 -6.4221 0.0000 0.0000 0.0000
# 3 2.2819 -6.4221 19.2543 0.0000 0.0000 0.0000
# 4 0.0000 0.0000 0.0000 22.9695 0.0000 0.0000
# 5 0.0000 0.0000 0.0000 0.0000 32.7599 0.0000
# 6 0.0000 0.0000 0.0000 0.0000 0.0000 19.1145
#
#
#
# Elastic Compliance Matrix: (Units=1/GPa)
#
#
# Indices 1 2 3 4 5 6 
#
# 1 0.011967 -0.007645 -0.003968 0.000000 0.000000 0.000000
# 2 -0.007645 0.098703 0.033827 0.000000 0.000000 0.000000
# 3 -0.003968 0.033827 0.063689 0.000000 0.000000 0.000000
# 4 0.000000 0.000000 0.000000 0.043536 0.000000 0.000000
# 5 0.000000 0.000000 0.000000 0.000000 0.030525 0.000000
# 6 0.000000 0.000000 0.000000 0.000000 0.000000 0.052316
#
#
# Mechanical properties :
#
#
# Convention : Reuss Voigt Hill
#
# Bulk Modulus (GPa) = 4.57063 13.78417 9.17740
# Shear Modulus (GPa) = 15.18665 22.85769 19.02217
#
# Velocity S-wave (km/s) = 2.83002 3.47196 3.16730
# Velocity P-wave (km/s) = 3.61789 4.83136 4.26797
#
# Compressibility (1/GPa) = 0.21878799
#
# Stress axis : x y z
#
# Youngs Moduli (GPa) = 83.56612 10.13140 15.70124
#
# Poissons Ratio (x) = 0.07745 0.06230
# Poissons Ratio (y) = 0.63883 -0.53113
# Poissons Ratio (z) = 0.33159 -0.34272
#
# Static dielectric constant tensor:
#      x y z
#    x 3.396560 0.000000 0.000000 
#    y 0.000000 2.841870 0.000000 
#    z 0.000000 0.000000 4.190570 
# 
# 
# High freq. dielectric constant tensor:
#      x y z
#    x 1.736070 0.000000 0.000000 
#    y 0.000000 1.664610 0.000000 
#    z 0.000000 0.000000 1.762870 
# 
# From -- ./inp_files/15635.got.cif
#   From: 2010.03.12/outbox.cif.g09.slc.cpg/sg36_8_cif.got.tgz:15635.got - 2010.04.14 02:13:53.
