data_PCOD8174203
_publ_section_title
;
Structure prediction by ZEFSAII (Michael W. Deem and Ramdas Pophale) SiO2 
 PCOD8174203
Probable space group: C M C 21
;
_chemical_formula_sum "Si O2"
_cell_formula_units_Z 64
_cell_length_a 8.968637
_cell_length_b 22.947103
_cell_length_c 18.335528
_cell_angle_alpha 90.000000
_cell_angle_beta 90.000000
_cell_angle_gamma 90.000000
_cell_volume 3773.529350
_symmetry_space_group_name_H-M "C M C 21"
_symmetry_group_IT_number 36
_symmetry_cell_setting 'orthorhombic'
loop_
_space_group_symop_operation_xyz
x,y,z
-x,-y,1/2+z
x,-y,1/2+z
-x,y,z
1/2+x,1/2+y,z
1/2-x,1/2-y,1/2+z
1/2+x,1/2-y,1/2+z
1/2-x,1/2+y,z
loop_
_atom_site_type_symbol
_atom_site_label
_atom_site_fract_x
_atom_site_fract_y
_atom_site_fract_z
Si Si1 0.676085 0.285096 0.420700
Si Si2 0.676329 0.663036 0.071288
Si Si3 0.829825 0.581533 0.293995
Si Si4 0.324836 0.656107 0.770391
Si Si5 0.168467 0.537460 0.735733
Si Si6 0.173493 0.179026 0.358414
Si Si7 0.325077 0.555564 0.156181
Si Si8 0.825448 0.238737 0.205105
O O1 0.500000 0.274604 0.423765
O O2 0.737346 0.318009 0.492482
O O3 0.722361 0.324187 0.351604
O O4 0.756462 0.222372 0.418028
O O5 0.500000 0.669045 0.074233
O O6 0.717184 0.594627 0.085292
O O7 0.740693 0.705170 0.134665
O O8 0.826850 0.510649 0.301773
O O9 0.756242 0.615822 0.362470
O O10 0.725416 0.596719 0.224015
O O11 0.000000 0.602756 0.282087
O O12 0.500000 0.656785 0.760145
O O13 0.267832 0.591126 0.758891
O O14 0.254162 0.698483 0.709927
O O15 0.235066 0.505836 0.662235
O O16 0.000000 0.557642 0.719337
O O17 0.210946 0.203706 0.278568
O O18 0.000000 0.171170 0.374715
O O19 0.500000 0.542210 0.160459
O O20 0.000000 0.250136 0.197430
#
# Coordination Sequence:
#
# PCOD8174203 Si02
#       8
#     8   8   8   8   8   8   8   8
#     4   9  19  32  47  69 100 131 159 192 240 296
#     4   9  16  30  50  72  97 128 158 191 243 295
#     4   9  17  27  44  70  94 119 151 195 239 273
#     4  10  19  30  46  70  97 127 160 199 240 280
#     4   9  18  30  46  69  93 119 152 192 237 283
#     4  10  17  28  46  70  95 122 157 194 236 280
#     4   9  15  27  48  73  94 118 155 198 238 279
#     4   9  16  28  47  67  90 122 156 191 231 280
#
# _framework density 16.960249000000001
#
# number of rings (size 3 to 8) (size 9 to 14) (size 15 to 20)
#    0.750    2.000    1.250    1.500    0.000    1.000 
#    0.000    1.875    0.000    1.500    0.000    3.500 
#    0.000    0.000    0.000    0.000    0.000    0.000 
#
# Total GULP energy -396429.260414 kJ/mol
# GULP energy per Si atom -12388.414388 kJ/mol
# Density = 1.692165 g / cm^3
# Si number density = 16.960249 Si / 1000 Ang^3
#
#
#
# Elastic Constant Matrix: (Units=GPa)
#
#
# Indices 1 2 3 4 5 6 
#
# 1 47.6538 19.4653 11.6520 0.0000 0.0000 0.0000
# 2 19.4653 79.8905 21.9004 0.0000 0.0000 0.0000
# 3 11.6520 21.9004 55.2859 0.0000 0.0000 0.0000
# 4 0.0000 0.0000 0.0000 18.5976 0.0000 0.0000
# 5 0.0000 0.0000 0.0000 0.0000 14.6640 0.0000
# 6 0.0000 0.0000 0.0000 0.0000 0.0000 28.2742
#
#
#
# Elastic Compliance Matrix: (Units=1/GPa)
#
#
# Indices 1 2 3 4 5 6 
#
# 1 0.023752 -0.004953 -0.003044 0.000000 0.000000 0.000000
# 2 -0.004953 0.015075 -0.004928 0.000000 0.000000 0.000000
# 3 -0.003044 -0.004928 0.020681 0.000000 0.000000 0.000000
# 4 0.000000 0.000000 0.000000 0.053770 0.000000 0.000000
# 5 0.000000 0.000000 0.000000 0.000000 0.068194 0.000000
# 6 0.000000 0.000000 0.000000 0.000000 0.000000 0.035368
#
#
# Mechanical properties :
#
#
# Convention : Reuss Voigt Hill
#
# Bulk Modulus (GPa) = 29.70959 32.09619 30.90289
# Shear Modulus (GPa) = 19.69207 20.96132 20.32670
#
# Velocity S-wave (km/s) = 3.41115 3.51936 3.46568
# Velocity P-wave (km/s) = 5.75063 5.95651 5.85448
#
# Compressibility (1/GPa) = 0.03365917
#
# Stress axis : x y z
#
# Youngs Moduli (GPa) = 42.10161 66.33633 48.35269
#
# Poissons Ratio (x) = 0.32855 0.14719
# Poissons Ratio (y) = 0.20852 0.23827
# Poissons Ratio (z) = 0.12816 0.32689
#
# Static dielectric constant tensor:
#      x y z
#    x 3.084080 0.000000 0.000000 
#    y 0.000000 3.168020 0.000000 
#    z 0.000000 0.000000 2.985310 
# 
# 
# High freq. dielectric constant tensor:
#      x y z
#    x 1.655020 0.000000 0.000000 
#    y 0.000000 1.655450 0.000000 
#    z 0.000000 0.000000 1.604990 
# 
# From -- ./inp_files/15845.got.cif
#   From: 2010.03.12/outbox.cif.g09.slc.cpg/sg36_8_cif.got.tgz:15845.got - 2010.04.14 02:13:53.
