data_PCOD8174027
_publ_section_title
;
Structure prediction by ZEFSAII (Michael W. Deem and Ramdas Pophale) SiO2 
 PCOD8174027
Probable space group: C M M 2
;
_chemical_formula_sum "Si O2"
_cell_formula_units_Z 48
_cell_length_a 15.597756
_cell_length_b 8.793701
_cell_length_c 17.122768
_cell_angle_alpha 90.000000
_cell_angle_beta 90.000000
_cell_angle_gamma 90.000000
_cell_volume 2348.593148
_symmetry_space_group_name_H-M "C M M 2"
_symmetry_group_IT_number 35
_symmetry_cell_setting 'orthorhombic'
loop_
_space_group_symop_operation_xyz
x,y,z
-x,-y,z
-x,y,z
x,-y,z
1/2+x,1/2+y,z
1/2-x,1/2-y,z
1/2-x,1/2+y,z
1/2+x,1/2-y,z
loop_
_atom_site_type_symbol
_atom_site_label
_atom_site_fract_x
_atom_site_fract_y
_atom_site_fract_z
Si Si1 0.500000 0.319513 0.070140
Si Si2 0.000000 0.321366 0.238590
Si Si3 0.163784 0.679504 0.339352
Si Si4 0.655611 0.180114 0.643765
Si Si5 0.402810 0.672441 0.490293
Si Si6 0.157115 0.822678 0.969188
Si Si7 0.342468 0.322593 0.796270
O O1 0.500000 0.500000 0.063319
O O2 0.500000 0.269327 0.158792
O O3 0.586147 0.255428 0.028526
O O4 0.083841 0.271300 0.286353
O O5 0.000000 0.500000 0.221395
O O6 0.171710 0.500000 0.345049
O O7 0.250000 0.750000 0.301549
O O8 0.155401 0.746162 0.426145
O O9 0.750000 0.250000 0.636894
O O10 0.600515 0.236615 0.571044
O O11 0.609399 0.239216 0.724062
O O12 0.659918 0.000000 0.644107
O O13 0.500000 0.675206 0.460127
O O14 0.369971 0.500000 0.502207
O O15 0.250000 0.750000 0.984015
O O16 0.117749 0.793629 0.882065
O O17 0.171295 0.000000 0.982807
O O18 0.337178 0.500000 0.776504
O O19 0.250000 0.250000 0.800433
#
# Coordination Sequence:
#
# PCOD8174027 Si02
#       7
#     4   4   8   8   8   8   8
#     4  10  22  40  62  89 120 155 194 239 294 359
#     4  10  24  44  64  89 124 157 190 241 296 353
#     4  11  23  42  66  92 122 157 198 242 297 354
#     4  11  21  34  54  80 115 154 199 246 294 346
#     4  11  23  39  59  84 116 155 200 246 296 350
#     4   9  19  36  59  86 118 156 198 244 296 351
#     4   9  16  30  52  78 110 149 196 244 293 343
#
# _framework density 20.437767000000001
#
# number of rings (size 3 to 8) (size 9 to 14) (size 15 to 20)
#    0.000    1.833    0.833    4.500    0.000    4.333 
#    1.500    3.333    0.000    0.000    0.000    0.000 
#    0.000    0.000    0.000    0.000    0.000    0.000 
#
# Total GULP energy -297534.565923 kJ/mol
# GULP energy per Si atom -12397.273580 kJ/mol
# Density = 2.039125 g / cm^3
# Si number density = 20.437767 Si / 1000 Ang^3
#
#
#
# Elastic Constant Matrix: (Units=GPa)
#
#
# Indices 1 2 3 4 5 6 
#
# 1 118.1078 44.4490 59.1624 0.0000 0.0000 0.0000
# 2 44.4490 119.0688 58.0563 0.0000 0.0000 0.0000
# 3 59.1624 58.0563 140.1042 0.0000 0.0000 0.0000
# 4 0.0000 0.0000 0.0000 35.8420 0.0000 0.0000
# 5 0.0000 0.0000 0.0000 0.0000 26.5334 0.0000
# 6 0.0000 0.0000 0.0000 0.0000 0.0000 26.4396
#
#
#
# Elastic Compliance Matrix: (Units=1/GPa)
#
#
# Indices 1 2 3 4 5 6 
#
# 1 0.011243 -0.002359 -0.003770 0.000000 0.000000 0.000000
# 2 -0.002359 0.011020 -0.003570 0.000000 0.000000 0.000000
# 3 -0.003770 -0.003570 0.010209 0.000000 0.000000 0.000000
# 4 0.000000 0.000000 0.000000 0.027900 0.000000 0.000000
# 5 0.000000 0.000000 0.000000 0.000000 0.037688 0.000000
# 6 0.000000 0.000000 0.000000 0.000000 0.000000 0.037822
#
#
# Mechanical properties :
#
#
# Convention : Reuss Voigt Hill
#
# Bulk Modulus (GPa) = 76.49156 77.84624 77.16890
# Shear Modulus (GPa) = 31.32058 32.13720 31.72889
#
# Velocity S-wave (km/s) = 3.91894 3.96970 3.94441
# Velocity P-wave (km/s) = 7.61481 7.69308 7.65405
#
# Compressibility (1/GPa) = 0.01307334
#
# Stress axis : x y z
#
# Youngs Moduli (GPa) = 88.94301 90.74471 97.95172
#
# Poissons Ratio (x) = 0.21405 0.36930
# Poissons Ratio (y) = 0.20980 0.34972
# Poissons Ratio (z) = 0.33534 0.32399
#
# Static dielectric constant tensor:
#      x y z
#    x 3.550390 0.000000 0.000000 
#    y 0.000000 3.690460 0.000000 
#    z 0.000000 0.000000 4.167230 
# 
# 
# High freq. dielectric constant tensor:
#      x y z
#    x 1.787530 0.000000 0.000000 
#    y 0.000000 1.802060 0.000000 
#    z 0.000000 0.000000 1.805320 
# 
# From -- ./inp_files/17873.got.cif
#   From: 2010.03.12/outbox.cif.g09.slc.cpg/sg35_9_cif.got.tgz:17873.got - 2010.04.14 02:02:04.
