data_PCOD8174029
_publ_section_title
;
Structure prediction by ZEFSAII (Michael W. Deem and Ramdas Pophale) SiO2 
 PCOD8174029
Probable space group: C M M 2
;
_chemical_formula_sum "Si O2"
_cell_formula_units_Z 64
_cell_length_a 8.551542
_cell_length_b 30.989383
_cell_length_c 11.980131
_cell_angle_alpha 90.000000
_cell_angle_beta 90.000000
_cell_angle_gamma 90.000000
_cell_volume 3174.818699
_symmetry_space_group_name_H-M "C M M 2"
_symmetry_group_IT_number 35
_symmetry_cell_setting 'orthorhombic'
loop_
_space_group_symop_operation_xyz
x,y,z
-x,-y,z
-x,y,z
x,-y,z
1/2+x,1/2+y,z
1/2-x,1/2-y,z
1/2-x,1/2+y,z
1/2+x,1/2-y,z
loop_
_atom_site_type_symbol
_atom_site_label
_atom_site_fract_x
_atom_site_fract_y
_atom_site_fract_z
Si Si1 0.186177 0.374530 0.686290
Si Si2 0.185656 0.452414 0.833361
Si Si3 0.685162 0.794019 0.293383
Si Si4 0.320000 0.451189 0.285135
Si Si5 0.185213 0.622710 0.432901
Si Si6 0.182303 0.822174 0.064256
Si Si7 0.182729 0.584753 0.068768
Si Si8 0.316159 0.204709 0.831179
O O1 0.252599 0.417924 0.744790
O O2 0.244979 0.372756 0.559537
O O3 0.253096 0.333294 0.753174
O O4 0.000000 0.374472 0.692072
O O5 0.253107 0.500000 0.805278
O O6 0.000000 0.453219 0.827786
O O7 0.238434 0.439653 0.957782
O O8 0.500000 0.792751 0.283352
O O9 0.750000 0.750000 0.349919
O O10 0.739589 0.834579 0.367501
O O11 0.761591 0.796335 0.171928
O O12 0.500000 0.442024 0.255453
O O13 0.295561 0.500000 0.328315
O O14 0.265503 0.419379 0.382365
O O15 0.216247 0.445272 0.174506
O O16 0.000000 0.616607 0.426040
O O17 0.218117 0.872161 0.082460
O O18 0.000000 0.814637 0.045452
O O19 0.272731 0.803409 0.958790
O O20 0.000000 0.596893 0.063983
O O21 0.500000 0.205963 0.819923
O O22 0.250000 0.250000 0.787564
#
# Coordination Sequence:
#
# PCOD8174029 Si02
#       8
#     8   8   8   8   8   8   8   8
#     4   9  19  37  59  86 118 152 196 250 295 339
#     4   9  17  31  56  89 119 148 186 235 290 343
#     4  11  23  39  60  88 119 154 198 245 299 357
#     4  11  24  40  59  87 124 162 198 242 298 356
#     4  10  22  40  63  87 114 156 207 252 294 347
#     4  12  23  37  60  89 121 156 195 239 299 361
#     4  11  20  35  60  90 120 155 195 241 297 355
#     4  11  22  39  61  88 122 156 196 244 296 352
#
# _framework density 20.158631
#
# number of rings (size 3 to 8) (size 9 to 14) (size 15 to 20)
#    0.000    1.500    2.500    3.375    0.000    3.000 
#    0.000    2.500    0.000    0.000    0.000    0.000 
#    0.000    0.000    0.000    0.000    0.000    0.000 
#
# Total GULP energy -396908.088737 kJ/mol
# GULP energy per Si atom -12403.377773 kJ/mol
# Density = 2.011275 g / cm^3
# Si number density = 20.158631 Si / 1000 Ang^3
#
#
#
# Elastic Constant Matrix: (Units=GPa)
#
#
# Indices 1 2 3 4 5 6 
#
# 1 44.9495 25.2938 14.3341 0.0000 0.0000 0.0000
# 2 25.2938 175.2522 68.5711 0.0000 0.0000 0.0000
# 3 14.3341 68.5711 142.9229 0.0000 0.0000 0.0000
# 4 0.0000 0.0000 0.0000 15.6366 0.0000 0.0000
# 5 0.0000 0.0000 0.0000 0.0000 8.6538 0.0000
# 6 0.0000 0.0000 0.0000 0.0000 0.0000 28.3048
#
#
#
# Elastic Compliance Matrix: (Units=1/GPa)
#
#
# Indices 1 2 3 4 5 6 
#
# 1 0.024314 -0.003146 -0.000929 0.000000 0.000000 0.000000
# 2 -0.003146 0.007432 -0.003250 0.000000 0.000000 0.000000
# 3 -0.000929 -0.003250 0.008649 0.000000 0.000000 0.000000
# 4 0.000000 0.000000 0.000000 0.063953 0.000000 0.000000
# 5 0.000000 0.000000 0.000000 0.000000 0.115557 0.000000
# 6 0.000000 0.000000 0.000000 0.000000 0.000000 0.035330
#
#
# Mechanical properties :
#
#
# Convention : Reuss Voigt Hill
#
# Bulk Modulus (GPa) = 38.84289 64.39140 51.61714
# Shear Modulus (GPa) = 17.95557 27.51408 22.73482
#
# Velocity S-wave (km/s) = 2.98772 3.69843 3.36191
# Velocity P-wave (km/s) = 5.58681 7.08869 6.38208
#
# Compressibility (1/GPa) = 0.02574474
#
# Stress axis : x y z
#
# Youngs Moduli (GPa) = 41.12928 134.55842 115.61631
#
# Poissons Ratio (x) = 0.42326 0.10744
# Poissons Ratio (y) = 0.12937 0.37576
# Poissons Ratio (z) = 0.03822 0.43733
#
# Static dielectric constant tensor:
#      x y z
#    x 3.402990 0.000000 0.000000 
#    y 0.000000 4.081040 0.000000 
#    z 0.000000 0.000000 3.707530 
# 
# 
# High freq. dielectric constant tensor:
#      x y z
#    x 1.764730 0.000000 0.000000 
#    y 0.000000 1.806640 0.000000 
#    z 0.000000 0.000000 1.782820 
# 
# From -- ./inp_files/11852.got.cif
#   From: 2010.03.12/outbox.cif.g09.slc.cpg/sg35_6_cif.got.tgz:11852.got - 2010.04.14 02:02:04.
