data_PCOD8174785
_publ_section_title
;
Structure prediction by ZEFSAII (Michael W. Deem and Ramdas Pophale) SiO2 
 PCOD8174785
Probable space group: C M C 21
;
_chemical_formula_sum "Si O2"
_cell_formula_units_Z 64
_cell_length_a 8.557490
_cell_length_b 24.005348
_cell_length_c 15.414628
_cell_angle_alpha 90.000000
_cell_angle_beta 90.000000
_cell_angle_gamma 90.000000
_cell_volume 3166.558057
_symmetry_space_group_name_H-M "C M C 21"
_symmetry_group_IT_number 36
_symmetry_cell_setting 'orthorhombic'
loop_
_space_group_symop_operation_xyz
x,y,z
-x,-y,1/2+z
x,-y,1/2+z
-x,y,z
1/2+x,1/2+y,z
1/2-x,1/2-y,1/2+z
1/2+x,1/2-y,1/2+z
1/2-x,1/2+y,z
loop_
_atom_site_type_symbol
_atom_site_label
_atom_site_fract_x
_atom_site_fract_y
_atom_site_fract_z
Si Si1 0.683196 0.143689 0.214250
Si Si2 0.682835 0.132427 0.021659
Si Si3 0.814005 0.569832 0.372425
Si Si4 0.317940 0.746683 0.472854
Si Si5 0.315358 0.054808 0.872109
Si Si6 0.680086 0.755149 0.272219
Si Si7 0.818720 0.871523 0.223042
Si Si8 0.183234 0.636350 0.540227
O O1 0.500000 0.155331 0.227189
O O2 0.717272 0.115206 0.120969
O O3 0.749824 0.102847 0.288281
O O4 0.770911 0.202607 0.214611
O O5 0.500000 0.135673 0.002100
O O6 0.750743 0.193588 0.001366
O O7 0.756432 0.087104 0.955846
O O8 0.744414 0.507445 0.370099
O O9 0.754223 0.600366 0.459065
O O10 0.000000 0.569299 0.369611
O O11 0.500000 0.739921 0.496989
O O12 0.287936 0.738756 0.371229
O O13 0.220121 0.701072 0.525050
O O14 0.500000 0.050418 0.880891
O O15 0.275846 0.087196 0.784772
O O16 0.500000 0.770606 0.256119
O O17 0.782143 0.807714 0.244960
O O18 0.771135 0.885887 0.124937
O O19 0.000000 0.882866 0.236679
O O20 0.000000 0.628489 0.554187
#
# Coordination Sequence:
#
# PCOD8174785 Si02
#       8
#     8   8   8   8   8   8   8   8
#     4  10  19  35  58  89 120 151 190 241 296 353
#     4   9  18  33  57  82 111 148 189 234 289 346
#     4   9  20  36  60  90 118 151 198 244 290 344
#     4  10  19  34  56  86 117 154 194 236 295 356
#     4  10  20  40  62  84 115 156 201 246 293 351
#     4  11  21  36  60  88 117 156 196 240 296 355
#     4  12  25  40  59  87 119 158 201 249 301 351
#     4  11  22  38  60  90 121 156 197 242 296 358
#
# _framework density 20.211219
#
# number of rings (size 3 to 8) (size 9 to 14) (size 15 to 20)
#    0.000    1.750    2.500    2.625    0.000    2.500 
#    0.000    6.250    0.000    0.000    0.000    0.000 
#    0.000    0.000    0.000    0.000    0.000    0.000 
#
# Total GULP energy -396892.561127 kJ/mol
# GULP energy per Si atom -12402.892535 kJ/mol
# Density = 2.016522 g / cm^3
# Si number density = 20.211219 Si / 1000 Ang^3
#
#
#
# Elastic Constant Matrix: (Units=GPa)
#
#
# Indices 1 2 3 4 5 6 
#
# 1 23.6996 4.1521 11.3016 0.0000 0.0000 0.0000
# 2 4.1521 145.6559 54.3476 0.0000 0.0000 0.0000
# 3 11.3016 54.3476 118.9492 0.0000 0.0000 0.0000
# 4 0.0000 0.0000 0.0000 14.3121 0.0000 0.0000
# 5 0.0000 0.0000 0.0000 0.0000 21.3077 0.0000
# 6 0.0000 0.0000 0.0000 0.0000 0.0000 22.6974
#
#
#
# Elastic Compliance Matrix: (Units=1/GPa)
#
#
# Indices 1 2 3 4 5 6 
#
# 1 0.044214 0.000370 -0.004370 0.000000 0.000000 0.000000
# 2 0.000370 0.008280 -0.003818 0.000000 0.000000 0.000000
# 3 -0.004370 -0.003818 0.010567 0.000000 0.000000 0.000000
# 4 0.000000 0.000000 0.000000 0.069871 0.000000 0.000000
# 5 0.000000 0.000000 0.000000 0.000000 0.046931 0.000000
# 6 0.000000 0.000000 0.000000 0.000000 0.000000 0.044058
#
#
# Mechanical properties :
#
#
# Convention : Reuss Voigt Hill
#
# Bulk Modulus (GPa) = 21.08626 47.54527 34.31577
# Shear Modulus (GPa) = 19.57989 26.23034 22.90511
#
# Velocity S-wave (km/s) = 3.11587 3.60642 3.37009
# Velocity P-wave (km/s) = 4.83740 6.39664 5.67087
#
# Compressibility (1/GPa) = 0.04742424
#
# Stress axis : x y z
#
# Youngs Moduli (GPa) = 22.61734 120.77939 94.63761
#
# Poissons Ratio (x) = -0.04471 0.41356
# Poissons Ratio (y) = -0.00837 0.36133
# Poissons Ratio (z) = 0.09884 0.46115
#
# Static dielectric constant tensor:
#      x y z
#    x 3.305730 0.000000 0.000000 
#    y 0.000000 3.776240 0.000000 
#    z 0.000000 0.000000 3.867410 
# 
# 
# High freq. dielectric constant tensor:
#      x y z
#    x 1.754840 0.000000 0.000000 
#    y 0.000000 1.786800 0.000000 
#    z 0.000000 0.000000 1.806490 
# 
# From -- ./inp_files/10917.got.cif
#   From: 2010.03.12/outbox.cif.g09.slc.cpg/sg36_6_cif.got.tgz:10917.got - 2010.04.14 02:13:53.
