data_PCOD8174001
_publ_section_title
;
Structure prediction by ZEFSAII (Michael W. Deem and Ramdas Pophale) SiO2 
 PCOD8174001
Probable space group: C M M 2
;
_chemical_formula_sum "Si O2"
_cell_formula_units_Z 56
_cell_length_a 21.675164
_cell_length_b 8.707274
_cell_length_c 14.616158
_cell_angle_alpha 90.000000
_cell_angle_beta 90.000000
_cell_angle_gamma 90.000000
_cell_volume 2758.530767
_symmetry_space_group_name_H-M "C M M 2"
_symmetry_group_IT_number 35
_symmetry_cell_setting 'orthorhombic'
loop_
_space_group_symop_operation_xyz
x,y,z
-x,-y,z
-x,y,z
x,-y,z
1/2+x,1/2+y,z
1/2-x,1/2-y,z
1/2-x,1/2+y,z
1/2+x,1/2-y,z
loop_
_atom_site_type_symbol
_atom_site_label
_atom_site_fract_x
_atom_site_fract_y
_atom_site_fract_z
Si Si1 0.000000 0.179502 0.723390
Si Si2 0.684880 0.681430 0.322340
Si Si3 0.367318 0.823175 0.496910
Si Si4 0.929239 0.324294 0.014177
Si Si5 0.883494 0.318807 0.821224
Si Si6 0.686226 0.318184 0.668492
Si Si7 0.500000 0.172896 0.534409
Si Si8 0.430551 0.319472 0.204392
O O1 0.058424 0.257531 0.767491
O O2 0.000000 0.203431 0.614971
O O3 0.000000 0.000000 0.745196
O O4 0.689162 0.500000 0.312789
O O5 0.750000 0.750000 0.285899
O O6 0.675420 0.729051 0.427467
O O7 0.625200 0.747611 0.266717
O O8 0.363507 0.751678 0.598460
O O9 0.439670 0.805656 0.470338
O O10 0.345748 0.000000 0.496157
O O11 0.916491 0.500000 0.042103
O O12 0.886756 0.273977 0.928429
O O13 0.000000 0.302873 0.983174
O O14 0.912899 0.218440 0.100007
O O15 0.878963 0.500000 0.809825
O O16 0.825036 0.239084 0.772612
O O17 0.684999 0.500000 0.664533
O O18 0.750000 0.250000 0.633061
O O19 0.500000 0.000000 0.576685
O O20 0.500000 0.252545 0.227193
O O21 0.432818 0.500000 0.217425
#
# Coordination Sequence:
#
# PCOD8174001 Si02
#       8
#     4   8   8   8   8   8   4   8
#     4  12  22  32  54  87 118 155 196 237 288 344
#     4  11  24  42  64  89 120 158 202 251 304 364
#     4  11  23  40  62  88 120 158 198 244 300 358
#     4   9  18  34  58  88 119 154 191 235 295 358
#     4  11  21  37  58  84 121 158 195 243 293 347
#     4  12  25  41  59  83 114 157 206 249 298 354
#     4  10  22  38  58  85 122 159 194 243 302 356
#     4   9  20  39  62  90 121 154 193 248 309 361
#
# _framework density 20.300661999999999
#
# number of rings (size 3 to 8) (size 9 to 14) (size 15 to 20)
#    0.000    1.429    2.143    3.643    1.000    2.857 
#    0.000    0.714    0.000    1.714    0.000    0.000 
#    0.000    0.000    0.000    0.000    0.000    0.000 
#
# Total GULP energy -347148.881606 kJ/mol
# GULP energy per Si atom -12398.174343 kJ/mol
# Density = 2.025446 g / cm^3
# Si number density = 20.300662 Si / 1000 Ang^3
#
#
#
# Elastic Constant Matrix: (Units=GPa)
#
#
# Indices 1 2 3 4 5 6 
#
# 1 116.6050 37.8402 45.9127 0.0000 0.0000 0.0000
# 2 37.8402 74.6226 25.9914 0.0000 0.0000 0.0000
# 3 45.9127 25.9914 90.0207 0.0000 0.0000 0.0000
# 4 0.0000 0.0000 0.0000 32.3345 0.0000 0.0000
# 5 0.0000 0.0000 0.0000 0.0000 58.0976 0.0000
# 6 0.0000 0.0000 0.0000 0.0000 0.0000 33.5528
#
#
#
# Elastic Compliance Matrix: (Units=1/GPa)
#
#
# Indices 1 2 3 4 5 6 
#
# 1 0.011879 -0.004351 -0.004802 0.000000 0.000000 0.000000
# 2 -0.004351 0.016493 -0.002543 0.000000 0.000000 0.000000
# 3 -0.004802 -0.002543 0.014292 0.000000 0.000000 0.000000
# 4 0.000000 0.000000 0.000000 0.030927 0.000000 0.000000
# 5 0.000000 0.000000 0.000000 0.000000 0.017212 0.000000
# 6 0.000000 0.000000 0.000000 0.000000 0.000000 0.029804
#
#
# Mechanical properties :
#
#
# Convention : Reuss Voigt Hill
#
# Bulk Modulus (GPa) = 51.88995 55.63741 53.76368
# Shear Modulus (GPa) = 33.23977 36.23058 34.73517
#
# Velocity S-wave (km/s) = 4.05084 4.22915 4.14096
# Velocity P-wave (km/s) = 6.89168 7.16337 7.02884
#
# Compressibility (1/GPa) = 0.01927155
#
# Stress axis : x y z
#
# Youngs Moduli (GPa) = 84.18381 60.63271 69.96926
#
# Poissons Ratio (x) = 0.26381 0.33601
# Poissons Ratio (y) = 0.36628 0.17792
# Poissons Ratio (z) = 0.40427 0.15418
#
# Static dielectric constant tensor:
#      x y z
#    x 2.434780 0.000000 0.000000 
#    y 0.000000 3.590100 0.000000 
#    z 0.000000 0.000000 3.610950 
# 
# 
# High freq. dielectric constant tensor:
#      x y z
#    x 1.793440 0.000000 0.000000 
#    y 0.000000 1.792410 0.000000 
#    z 0.000000 0.000000 1.782030 
# 
# From -- ./inp_files/17442.got.cif
#   From: 2010.03.12/outbox.cif.g09.slc.cpg/sg35_9_cif.got.tgz:17442.got - 2010.04.14 02:02:04.
