data_PCOD8174130
_publ_section_title
;
Structure prediction by ZEFSAII (Michael W. Deem and Ramdas Pophale) SiO2 
 PCOD8174130
Probable space group: C M M 2
;
_chemical_formula_sum "Si O2"
_cell_formula_units_Z 40
_cell_length_a 15.582798
_cell_length_b 8.503959
_cell_length_c 14.361620
_cell_angle_alpha 90.000000
_cell_angle_beta 90.000000
_cell_angle_gamma 90.000000
_cell_volume 1903.136900
_symmetry_space_group_name_H-M "C M M 2"
_symmetry_group_IT_number 35
_symmetry_cell_setting 'orthorhombic'
loop_
_space_group_symop_operation_xyz
x,y,z
-x,-y,z
-x,y,z
x,-y,z
1/2+x,1/2+y,z
1/2-x,1/2-y,z
1/2-x,1/2+y,z
1/2+x,1/2-y,z
loop_
_atom_site_type_symbol
_atom_site_label
_atom_site_fract_x
_atom_site_fract_y
_atom_site_fract_z
Si Si1 0.095104 0.686674 0.959690
Si Si2 0.101905 0.319210 0.755423
Si Si3 0.340958 0.683230 0.571086
Si Si4 0.838963 0.685466 0.152867
Si Si5 0.000000 0.316892 0.461531
Si Si6 0.500000 0.682797 0.260236
O O1 0.088300 0.500000 0.961572
O O2 0.132450 0.736910 0.858729
O O3 0.000000 0.757979 0.972977
O O4 0.151522 0.748530 0.046285
O O5 0.127703 0.500000 0.736186
O O6 0.150059 0.208799 0.681941
O O7 0.000000 0.298970 0.747092
O O8 0.348064 0.500000 0.546871
O O9 0.250000 0.750000 0.535831
O O10 0.415781 0.778912 0.520798
O O11 0.838194 0.500000 0.155702
O O12 0.750000 0.750000 0.193991
O O13 0.915517 0.742390 0.217027
O O14 0.000000 0.500000 0.435241
O O15 0.000000 0.212132 0.369773
O O16 0.500000 0.500000 0.238976
#
# Coordination Sequence:
#
# PCOD8174130 Si02
#       6
#     8   8   8   8   4   4
#     4   8  15  31  58  89 124 169 214 257 307 364
#     4   9  17  33  60  91 127 171 214 257 309 367
#     4  12  25  42  65  96 131 168 211 259 311 373
#     4  11  22  40  65  95 130 169 212 260 314 372
#     4  12  26  48  73  96 123 160 203 258 324 382
#     4  12  26  46  69  96 125 160 207 260 318 380
#
# _framework density 21.017931000000001
#
# number of rings (size 3 to 8) (size 9 to 14) (size 15 to 20)
#    0.000    1.600    2.000    5.400    0.000    1.600 
#    0.000    8.000    0.000    0.000    0.000    0.000 
#    0.000    0.000    0.000    0.000    0.000    0.000 
#
# Total GULP energy -248005.600717 kJ/mol
# GULP energy per Si atom -12400.280036 kJ/mol
# Density = 2.097009 g / cm^3
# Si number density = 21.017931 Si / 1000 Ang^3
#
#
#
# Elastic Constant Matrix: (Units=GPa)
#
#
# Indices 1 2 3 4 5 6 
#
# 1 137.3455 25.0955 45.6850 0.0000 0.0000 0.0000
# 2 25.0955 75.7636 11.0562 0.0000 0.0000 0.0000
# 3 45.6850 11.0562 105.5309 0.0000 0.0000 0.0000
# 4 0.0000 0.0000 0.0000 29.1126 0.0000 0.0000
# 5 0.0000 0.0000 0.0000 0.0000 1.2438 0.0000
# 6 0.0000 0.0000 0.0000 0.0000 0.0000 27.0476
#
#
#
# Elastic Compliance Matrix: (Units=1/GPa)
#
#
# Indices 1 2 3 4 5 6 
#
# 1 0.008925 -0.002430 -0.003609 0.000000 0.000000 0.000000
# 2 -0.002430 0.014065 -0.000422 0.000000 0.000000 0.000000
# 3 -0.003609 -0.000422 0.011083 0.000000 0.000000 0.000000
# 4 0.000000 0.000000 0.000000 0.034349 0.000000 0.000000
# 5 0.000000 0.000000 0.000000 0.000000 0.803963 0.000000
# 6 0.000000 0.000000 0.000000 0.000000 0.000000 0.036972
#
#
# Mechanical properties :
#
#
# Convention : Reuss Voigt Hill
#
# Bulk Modulus (GPa) = 47.27738 53.59038 50.43388
# Shear Modulus (GPa) = 5.38022 27.26770 16.32396
#
# Velocity S-wave (km/s) = 1.60168 3.60579 2.78990
# Velocity P-wave (km/s) = 5.09541 6.54893 5.86735
#
# Compressibility (1/GPa) = 0.02115176
#
# Stress axis : x y z
#
# Youngs Moduli (GPa) = 112.03958 71.09695 90.23170
#
# Poissons Ratio (x) = 0.17274 0.32567
# Poissons Ratio (y) = 0.27222 0.03806
# Poissons Ratio (z) = 0.40439 0.02998
#
# Static dielectric constant tensor:
#      x y z
#    x 3.779190 0.000000 0.000000 
#    y 0.000000 3.538170 0.000000 
#    z 0.000000 0.000000 4.046450 
# 
# 
# High freq. dielectric constant tensor:
#      x y z
#    x 1.824230 0.000000 0.000000 
#    y 0.000000 1.806520 0.000000 
#    z 0.000000 0.000000 1.828380 
# 
# From -- ./inp_files/16618.got.cif
#   From: 2010.03.12/outbox.cif.g09.slc.cpg/sg35_9_cif.got.tgz:16618.got - 2010.04.14 02:02:04.
