data_PCOD8174909
_publ_section_title
;
Structure prediction by ZEFSAII (Michael W. Deem and Ramdas Pophale) SiO2 
 PCOD8174909
Probable space group: C M C 21
;
_chemical_formula_sum "Si O2"
_cell_formula_units_Z 64
_cell_length_a 9.146849
_cell_length_b 15.330299
_cell_length_c 23.421806
_cell_angle_alpha 90.000000
_cell_angle_beta 90.000000
_cell_angle_gamma 90.000000
_cell_volume 3284.297687
_symmetry_space_group_name_H-M "C M C 21"
_symmetry_group_IT_number 36
_symmetry_cell_setting 'orthorhombic'
loop_
_space_group_symop_operation_xyz
x,y,z
-x,-y,1/2+z
x,-y,1/2+z
-x,y,z
1/2+x,1/2+y,z
1/2-x,1/2-y,1/2+z
1/2+x,1/2-y,1/2+z
1/2-x,1/2+y,z
loop_
_atom_site_type_symbol
_atom_site_label
_atom_site_fract_x
_atom_site_fract_y
_atom_site_fract_z
Si Si1 0.829645 0.127136 0.819040
Si Si2 0.334233 0.454075 0.752908
Si Si3 0.172019 0.354621 0.437848
Si Si4 0.832405 0.966643 0.132488
Si Si5 0.170878 0.510486 0.520735
Si Si6 0.330051 0.211208 0.637645
Si Si7 0.170735 0.288497 0.738554
Si Si8 0.832764 0.290429 0.006868
O O1 0.736471 0.135511 0.875554
O O2 0.790500 0.206727 0.777801
O O3 0.000000 0.127547 0.834838
O O4 0.782706 0.039138 0.787056
O O5 0.500000 0.430135 0.769680
O O6 0.322147 0.467661 0.685095
O O7 0.228077 0.375030 0.770589
O O8 0.216618 0.440756 0.473142
O O9 0.231151 0.266961 0.466717
O O10 0.000000 0.345247 0.433274
O O11 0.762368 0.012737 0.077293
O O12 0.744533 0.880900 0.149555
O O13 0.000000 0.940989 0.119693
O O14 0.210280 0.607839 0.499090
O O15 0.000000 0.505652 0.536489
O O16 0.500000 0.203566 0.652981
O O17 0.254402 0.282022 0.678199
O O18 0.307820 0.239373 0.572086
O O19 0.000000 0.296046 0.726294
O O20 0.000000 0.275523 0.988361
#
# Coordination Sequence:
#
# PCOD8174909 Si02
#       8
#     8   8   8   8   8   8   8   8
#     4  10  23  45  63  81 120 163 200 245 301 359
#     4  10  22  40  60  88 122 157 199 247 299 359
#     4  11  24  40  62  90 118 153 205 254 292 350
#     4  10  19  35  60  89 124 158 197 243 297 359
#     4   9  21  40  58  85 122 158 196 243 298 354
#     4  10  20  36  60  89 125 161 197 244 302 359
#     4  11  23  39  61  90 120 158 203 248 302 360
#     4   9  20  39  60  84 119 160 195 236 299 358
#
# _framework density 19.486661999999999
#
# number of rings (size 3 to 8) (size 9 to 14) (size 15 to 20)
#    0.000    2.000    1.250    2.250    1.750    7.000 
#    0.000    3.750    0.000    0.000    0.000    0.000 
#    0.000    0.000    0.000    0.000    0.000    0.000 
#
# Total GULP energy -396907.499348 kJ/mol
# GULP energy per Si atom -12403.359355 kJ/mol
# Density = 1.944231 g / cm^3
# Si number density = 19.486662 Si / 1000 Ang^3
#
#
#
# Elastic Constant Matrix: (Units=GPa)
#
#
# Indices 1 2 3 4 5 6 
#
# 1 87.7473 39.1511 42.1290 0.0000 0.0000 0.0000
# 2 39.1511 85.2509 18.4652 0.0000 0.0000 0.0000
# 3 42.1290 18.4652 67.0371 0.0000 0.0000 0.0000
# 4 0.0000 0.0000 0.0000 5.5986 0.0000 0.0000
# 5 0.0000 0.0000 0.0000 0.0000 36.5739 0.0000
# 6 0.0000 0.0000 0.0000 0.0000 0.0000 36.0089
#
#
#
# Elastic Compliance Matrix: (Units=1/GPa)
#
#
# Indices 1 2 3 4 5 6 
#
# 1 0.019303 -0.006633 -0.010304 0.000000 0.000000 0.000000
# 2 -0.006633 0.014754 0.000105 0.000000 0.000000 0.000000
# 3 -0.010304 0.000105 0.021364 0.000000 0.000000 0.000000
# 4 0.000000 0.000000 0.000000 0.178615 0.000000 0.000000
# 5 0.000000 0.000000 0.000000 0.000000 0.027342 0.000000
# 6 0.000000 0.000000 0.000000 0.000000 0.000000 0.027771
#
#
# Mechanical properties :
#
#
# Convention : Reuss Voigt Hill
#
# Bulk Modulus (GPa) = 45.96460 48.83622 47.40041
# Shear Modulus (GPa) = 15.14858 24.98896 20.06877
#
# Velocity S-wave (km/s) = 2.79118 3.58489 3.21264
# Velocity P-wave (km/s) = 5.83323 6.50008 6.17566
#
# Compressibility (1/GPa) = 0.02175587
#
# Stress axis : x y z
#
# Youngs Moduli (GPa) = 51.80579 67.78015 46.80861
#
# Poissons Ratio (x) = 0.44958 0.48230
# Poissons Ratio (y) = 0.34363 -0.00490
# Poissons Ratio (z) = 0.53379 -0.00709
#
# Static dielectric constant tensor:
#      x y z
#    x 3.587750 0.000000 0.000000 
#    y 0.000000 3.588610 0.000000 
#    z 0.000000 0.000000 3.507880 
# 
# 
# High freq. dielectric constant tensor:
#      x y z
#    x 1.763170 0.000000 0.000000 
#    y 0.000000 1.764860 0.000000 
#    z 0.000000 0.000000 1.752400 
# 
# From -- ./inp_files/16651.got.cif
#   From: 2010.03.12/outbox.cif.g09.slc.cpg/sg36_9_cif.got.tgz:16651.got - 2010.04.14 02:13:53.
