data_PCOD8174982
_publ_section_title
;
Structure prediction by ZEFSAII (Michael W. Deem and Ramdas Pophale) SiO2 
 PCOD8174982
Probable space group: C M C 21
;
_chemical_formula_sum "Si O2"
_cell_formula_units_Z 64
_cell_length_a 8.854128
_cell_length_b 19.760646
_cell_length_c 18.444257
_cell_angle_alpha 90.000000
_cell_angle_beta 90.000000
_cell_angle_gamma 90.000000
_cell_volume 3227.067869
_symmetry_space_group_name_H-M "C M C 21"
_symmetry_group_IT_number 36
_symmetry_cell_setting 'orthorhombic'
loop_
_space_group_symop_operation_xyz
x,y,z
-x,-y,1/2+z
x,-y,1/2+z
-x,y,z
1/2+x,1/2+y,z
1/2-x,1/2-y,1/2+z
1/2+x,1/2-y,1/2+z
1/2-x,1/2+y,z
loop_
_atom_site_type_symbol
_atom_site_label
_atom_site_fract_x
_atom_site_fract_y
_atom_site_fract_z
Si Si1 0.678711 0.948481 0.530800
Si Si2 0.820853 0.883164 0.222724
Si Si3 0.677487 0.374360 0.797243
Si Si4 0.179687 0.170094 0.569709
Si Si5 0.178798 0.934199 0.950351
Si Si6 0.177510 0.721404 0.829444
Si Si7 0.320754 0.801077 0.493018
Si Si8 0.821539 0.477525 0.693536
O O1 0.500000 0.949850 0.522843
O O2 0.743254 0.873076 0.518776
O O3 0.749428 0.993205 0.466927
O O4 0.730161 0.974732 0.609691
O O5 0.757915 0.850550 0.148306
O O6 0.767720 0.836374 0.287879
O O7 0.754082 0.958174 0.232285
O O8 0.000000 0.888874 0.223132
O O9 0.500000 0.384981 0.786084
O O10 0.731624 0.408906 0.871885
O O11 0.719030 0.295062 0.797985
O O12 0.766970 0.408748 0.731640
O O13 0.241632 0.117752 0.510258
O O14 0.241301 0.244431 0.548730
O O15 0.000000 0.169229 0.569331
O O16 0.000000 0.939871 0.954284
O O17 0.232590 0.717682 0.912304
O O18 0.000000 0.707096 0.822586
O O19 0.500000 0.801224 0.495227
O O20 0.000000 0.483037 0.700612
#
# Coordination Sequence:
#
# PCOD8174982 Si02
#       8
#     8   8   8   8   8   8   8   8
#     4  10  22  37  58  87 117 150 192 242 291 346
#     4  11  23  38  61  87 117 154 197 245 293 349
#     4  10  22  39  61  87 118 157 199 241 291 352
#     4   9  17  34  61  84 106 146 191 234 285 344
#     4  10  19  37  62  85 111 148 194 239 286 346
#     4  10  21  39  61  86 119 155 191 236 292 354
#     4   9  18  36  60  84 113 149 192 234 286 348
#     4  11  24  40  58  84 121 159 198 243 292 347
#
# _framework density 19.832245
#
# number of rings (size 3 to 8) (size 9 to 14) (size 15 to 20)
#    0.000    2.000    2.500    0.750    3.500    1.500 
#    0.000    0.000    0.000    2.250    0.000    0.000 
#    0.000    0.000    0.000    0.000    0.000    0.000 
#
# Total GULP energy -396880.857487 kJ/mol
# GULP energy per Si atom -12402.526796 kJ/mol
# Density = 1.978711 g / cm^3
# Si number density = 19.832245 Si / 1000 Ang^3
#
#
#
# Elastic Constant Matrix: (Units=GPa)
#
#
# Indices 1 2 3 4 5 6 
#
# 1 38.6078 26.8636 21.7315 0.0000 0.0000 0.0000
# 2 26.8636 132.6396 22.3882 0.0000 0.0000 0.0000
# 3 21.7315 22.3882 56.9974 0.0000 0.0000 0.0000
# 4 0.0000 0.0000 0.0000 43.3888 0.0000 0.0000
# 5 0.0000 0.0000 0.0000 0.0000 23.2420 0.0000
# 6 0.0000 0.0000 0.0000 0.0000 0.0000 27.1902
#
#
#
# Elastic Compliance Matrix: (Units=1/GPa)
#
#
# Indices 1 2 3 4 5 6 
#
# 1 0.036219 -0.005360 -0.011704 0.000000 0.000000 0.000000
# 2 -0.005360 0.008868 -0.001440 0.000000 0.000000 0.000000
# 3 -0.011704 -0.001440 0.022572 0.000000 0.000000 0.000000
# 4 0.000000 0.000000 0.000000 0.023047 0.000000 0.000000
# 5 0.000000 0.000000 0.000000 0.000000 0.043026 0.000000
# 6 0.000000 0.000000 0.000000 0.000000 0.000000 0.036778
#
#
# Mechanical properties :
#
#
# Convention : Reuss Voigt Hill
#
# Bulk Modulus (GPa) = 32.62401 41.13459 36.87930
# Shear Modulus (GPa) = 22.96379 29.24831 26.10605
#
# Velocity S-wave (km/s) = 3.40649 3.84446 3.63208
# Velocity P-wave (km/s) = 5.65313 6.36339 6.01875
#
# Compressibility (1/GPa) = 0.03065227
#
# Stress axis : x y z
#
# Youngs Moduli (GPa) = 27.60999 112.76798 44.30178
#
# Poissons Ratio (x) = 0.60443 0.51850
# Poissons Ratio (y) = 0.14799 0.06378
# Poissons Ratio (z) = 0.32314 0.16234
#
# Static dielectric constant tensor:
#      x y z
#    x 3.190260 0.000000 0.000000 
#    y 0.000000 3.812630 0.000000 
#    z 0.000000 0.000000 3.717620 
# 
# 
# High freq. dielectric constant tensor:
#      x y z
#    x 1.738770 0.000000 0.000000 
#    y 0.000000 1.790260 0.000000 
#    z 0.000000 0.000000 1.779650 
# 
# From -- ./inp_files/13874.got.cif
#   From: 2010.03.12/outbox.cif.g09.slc.cpg/sg36_7_cif.got.tgz:13874.got - 2010.04.14 02:13:53.
