data_PCOD8174032
_publ_section_title
;
Structure prediction by ZEFSAII (Michael W. Deem and Ramdas Pophale) SiO2 
 PCOD8174032
Probable space group: C M M 2
;
_chemical_formula_sum "Si O2"
_cell_formula_units_Z 56
_cell_length_a 14.372612
_cell_length_b 28.130562
_cell_length_c 6.171245
_cell_angle_alpha 90.000000
_cell_angle_beta 90.000000
_cell_angle_gamma 90.000000
_cell_volume 2495.093924
_symmetry_space_group_name_H-M "C M M 2"
_symmetry_group_IT_number 35
_symmetry_cell_setting 'orthorhombic'
loop_
_space_group_symop_operation_xyz
x,y,z
-x,-y,z
-x,y,z
x,-y,z
1/2+x,1/2+y,z
1/2-x,1/2-y,z
1/2-x,1/2+y,z
1/2+x,1/2-y,z
loop_
_atom_site_type_symbol
_atom_site_label
_atom_site_fract_x
_atom_site_fract_y
_atom_site_fract_z
Si Si1 0.899634 0.553683 0.245890
Si Si2 0.659025 0.116699 0.886295
Si Si3 0.893320 0.137713 0.535681
Si Si4 0.605466 0.195076 0.556390
Si Si5 0.893447 0.219108 0.875313
Si Si6 0.762734 0.944804 0.579927
Si Si7 0.739874 0.685261 0.202125
O O1 0.884316 0.500000 0.158739
O O2 0.812830 0.568421 0.394802
O O3 0.000000 0.556098 0.370573
O O4 0.912068 0.591753 0.051518
O O5 0.613868 0.144805 0.682982
O O6 0.719021 0.072054 0.804836
O O7 0.723217 0.152943 0.011768
O O8 0.876361 0.169075 0.751295
O O9 0.859286 0.083480 0.558875
O O10 0.835808 0.157982 0.339200
O O11 0.000000 0.137419 0.467769
O O12 0.500000 0.199023 0.466686
O O13 0.629306 0.237656 0.717126
O O14 0.675880 0.202201 0.355988
O O15 0.000000 0.222261 0.957650
O O16 0.822393 0.225730 0.078455
O O17 0.786786 0.000000 0.585312
#
# Coordination Sequence:
#
# PCOD8174032 Si02
#       7
#     8   8   8   8   8   8   8
#     4  10  22  40  64  94 133 182 228 277 344 411
#     4  12  22  40  65  99 137 177 226 276 340 404
#     4  11  23  44  69  97 133 176 229 288 344 405
#     4  11  26  44  68 106 143 177 223 280 341 407
#     4  10  24  46  71 101 136 179 228 275 335 410
#     4  11  23  43  66  97 137 177 230 291 343 403
#     4  12  23  44  70  99 135 183 224 279 337 407
#
# _framework density 22.444044000000002
#
# number of rings (size 3 to 8) (size 9 to 14) (size 15 to 20)
#    0.000    1.000    4.286    1.286    0.000    8.286 
#    0.000    4.286    0.000    1.714    0.000    0.000 
#    0.000    0.000    0.000    0.000    0.000    0.000 
#
# Total GULP energy -347013.358679 kJ/mol
# GULP energy per Si atom -12393.334239 kJ/mol
# Density = 2.239296 g / cm^3
# Si number density = 22.444044 Si / 1000 Ang^3
#
#
#
# Elastic Constant Matrix: (Units=GPa)
#
#
# Indices 1 2 3 4 5 6 
#
# 1 133.9395 50.1813 46.8624 0.0000 0.0000 0.0000
# 2 50.1813 120.5756 36.8107 0.0000 0.0000 0.0000
# 3 46.8624 36.8107 78.8478 0.0000 0.0000 0.0000
# 4 0.0000 0.0000 0.0000 42.2762 0.0000 0.0000
# 5 0.0000 0.0000 0.0000 0.0000 32.4071 0.0000
# 6 0.0000 0.0000 0.0000 0.0000 0.0000 33.9217
#
#
#
# Elastic Compliance Matrix: (Units=1/GPa)
#
#
# Indices 1 2 3 4 5 6 
#
# 1 0.010169 -0.002784 -0.004744 0.000000 0.000000 0.000000
# 2 -0.002784 0.010434 -0.003217 0.000000 0.000000 0.000000
# 3 -0.004744 -0.003217 0.017004 0.000000 0.000000 0.000000
# 4 0.000000 0.000000 0.000000 0.023654 0.000000 0.000000
# 5 0.000000 0.000000 0.000000 0.000000 0.030857 0.000000
# 6 0.000000 0.000000 0.000000 0.000000 0.000000 0.029480
#
#
# Mechanical properties :
#
#
# Convention : Reuss Voigt Hill
#
# Bulk Modulus (GPa) = 62.04338 66.78574 64.41456
# Shear Modulus (GPa) = 33.67907 35.02155 34.35031
#
# Velocity S-wave (km/s) = 3.87793 3.95447 3.91639
# Velocity P-wave (km/s) = 6.91048 7.11840 7.01521
#
# Compressibility (1/GPa) = 0.01611776
#
# Stress axis : x y z
#
# Youngs Moduli (GPa) = 98.33920 95.83916 58.80944
#
# Poissons Ratio (x) = 0.26679 0.27900
# Poissons Ratio (y) = 0.27375 0.18918
# Poissons Ratio (z) = 0.46654 0.30829
#
# Static dielectric constant tensor:
#      x y z
#    x 4.462510 0.000000 0.000000 
#    y 0.000000 4.168690 0.000000 
#    z 0.000000 0.000000 4.029230 
# 
# 
# High freq. dielectric constant tensor:
#      x y z
#    x 1.893220 0.000000 0.000000 
#    y 0.000000 1.893400 0.000000 
#    z 0.000000 0.000000 1.879770 
# 
# From -- ./inp_files/2059.got.cif
#   From: 2010.03.12/outbox.cif.g09.slc.cpg/sg35_2_cif.got.tgz:2059.got - 2010.04.14 02:02:04.
