data_PCOD8174334
_publ_section_title
;
Structure prediction by ZEFSAII (Michael W. Deem and Ramdas Pophale) SiO2 
 PCOD8174334
Probable space group: C M C 21
;
_chemical_formula_sum "Si O2"
_cell_formula_units_Z 48
_cell_length_a 10.374257
_cell_length_b 27.980708
_cell_length_c 9.213715
_cell_angle_alpha 90.000000
_cell_angle_beta 90.000000
_cell_angle_gamma 90.000000
_cell_volume 2674.548491
_symmetry_space_group_name_H-M "C M C 21"
_symmetry_group_IT_number 36
_symmetry_cell_setting 'orthorhombic'
loop_
_space_group_symop_operation_xyz
x,y,z
-x,-y,1/2+z
x,-y,1/2+z
-x,y,z
1/2+x,1/2+y,z
1/2-x,1/2-y,1/2+z
1/2+x,1/2-y,1/2+z
1/2-x,1/2+y,z
loop_
_atom_site_type_symbol
_atom_site_label
_atom_site_fract_x
_atom_site_fract_y
_atom_site_fract_z
Si Si1 0.738834 0.154676 0.040890
Si Si2 0.238771 0.635827 0.379432
Si Si3 0.000000 0.203837 0.068428
Si Si4 0.500000 0.783005 0.569583
Si Si5 0.151503 0.445049 0.495327
Si Si6 0.500000 0.685150 0.407836
Si Si7 0.651625 0.036409 0.323394
Si Si8 0.000000 0.697859 0.410555
O O1 0.727212 0.142616 0.208655
O O2 0.625861 0.191799 0.001282
O O3 0.722012 0.104736 0.954450
O O4 0.875994 0.177367 0.001658
O O5 0.375574 0.652813 0.440767
O O6 0.220804 0.579462 0.411204
O O7 0.125359 0.666831 0.451294
O O8 0.000000 0.203770 0.242731
O O9 0.000000 0.258066 0.019207
O O10 0.500000 0.728442 0.520068
O O11 0.500000 0.784508 0.744111
O O12 0.199317 0.485684 0.384980
O O13 0.189184 0.462883 0.655254
O O14 0.000000 0.435474 0.484083
O O15 0.500000 0.043067 0.347825
#
# Coordination Sequence:
#
# PCOD8174334 Si02
#       8
#     8   8   4   4   8   4   8   4
#     4   9  17  31  50  69  93 125 156 185 228 281
#     4   9  17  31  50  69  93 125 156 185 228 281
#     4  10  20  32  47  70  96 122 155 194 229 268
#     4  10  18  32  51  68  90 126 161 188 225 274
#     4   9  16  29  49  70  90 117 153 190 226 270
#     4  10  20  32  47  70  96 122 155 194 229 268
#     4   9  16  29  49  70  90 117 153 190 226 270
#     4  10  18  32  51  68  90 126 161 188 225 274
#
# _framework density 17.946954000000002
#
# number of rings (size 3 to 8) (size 9 to 14) (size 15 to 20)
#    0.000    2.667    1.667    1.000    0.000    0.000 
#    0.000    4.167    0.000    0.000    0.000    0.000 
#    0.000    0.000    0.000    0.000    0.000    0.000 
#
# Total GULP energy -297575.274773 kJ/mol
# GULP energy per Si atom -12398.969782 kJ/mol
# Density = 1.790611 g / cm^3
# Si number density = 17.946954 Si / 1000 Ang^3
#
#
#
# Elastic Constant Matrix: (Units=GPa)
#
#
# Indices 1 2 3 4 5 6 
#
# 1 103.8005 15.1905 3.3074 0.0000 0.0000 0.0000
# 2 15.1905 38.9973 -6.6302 0.0000 0.0000 0.0000
# 3 3.3074 -6.6302 14.2690 0.0000 0.0000 0.0000
# 4 0.0000 0.0000 0.0000 31.7937 0.0000 0.0000
# 5 0.0000 0.0000 0.0000 0.0000 8.3069 0.0000
# 6 0.0000 0.0000 0.0000 0.0000 0.0000 1.2476
#
#
#
# Elastic Compliance Matrix: (Units=1/GPa)
#
#
# Indices 1 2 3 4 5 6 
#
# 1 0.010499 -0.004890 -0.004706 0.000000 0.000000 0.000000
# 2 -0.004890 0.030120 0.015129 0.000000 0.000000 0.000000
# 3 -0.004706 0.015129 0.078202 0.000000 0.000000 0.000000
# 4 0.000000 0.000000 0.000000 0.031453 0.000000 0.000000
# 5 0.000000 0.000000 0.000000 0.000000 0.120381 0.000000
# 6 0.000000 0.000000 0.000000 0.000000 0.000000 0.801547
#
#
# Mechanical properties :
#
#
# Convention : Reuss Voigt Hill
#
# Bulk Modulus (GPa) = 7.69897 20.08914 13.89406
# Shear Modulus (GPa) = 4.52721 17.94958 11.23839
#
# Velocity S-wave (km/s) = 1.58998 3.16594 2.50511
# Velocity P-wave (km/s) = 2.76945 4.95804 4.01572
#
# Compressibility (1/GPa) = 0.12988754
#
# Stress axis : x y z
#
# Youngs Moduli (GPa) = 95.24352 33.20096 12.78733
#
# Poissons Ratio (x) = 0.16235 0.06017
# Poissons Ratio (y) = 0.46573 -0.19346
# Poissons Ratio (z) = 0.44819 -0.50229
#
# Static dielectric constant tensor:
#      x y z
#    x 3.442600 0.000000 0.000000 
#    y 0.000000 3.504350 0.000000 
#    z 0.000000 0.000000 2.939500 
# 
# 
# High freq. dielectric constant tensor:
#      x y z
#    x 1.685250 0.000000 0.000000 
#    y 0.000000 1.709120 0.000000 
#    z 0.000000 0.000000 1.653590 
# 
# From -- ./inp_files/2779.got.cif
#   From: 2010.03.12/outbox.cif.g09.slc.cpg/sg36_2_cif.got.tgz:2779.got - 2010.04.14 02:13:53.
