data_PCOD8174478
_publ_section_title
;
Structure prediction by ZEFSAII (Michael W. Deem and Ramdas Pophale) SiO2 
 PCOD8174478
Probable space group: C M C 21
;
_chemical_formula_sum "Si O2"
_cell_formula_units_Z 64
_cell_length_a 28.705954
_cell_length_b 14.693181
_cell_length_c 9.296670
_cell_angle_alpha 90.000000
_cell_angle_beta 90.000000
_cell_angle_gamma 90.000000
_cell_volume 3921.166001
_symmetry_space_group_name_H-M "C M C 21"
_symmetry_group_IT_number 36
_symmetry_cell_setting 'orthorhombic'
loop_
_space_group_symop_operation_xyz
x,y,z
-x,-y,1/2+z
x,-y,1/2+z
-x,y,z
1/2+x,1/2+y,z
1/2-x,1/2-y,1/2+z
1/2+x,1/2-y,1/2+z
1/2-x,1/2+y,z
loop_
_atom_site_type_symbol
_atom_site_label
_atom_site_fract_x
_atom_site_fract_y
_atom_site_fract_z
Si Si1 0.766483 0.826778 0.405240
Si Si2 0.743753 0.515421 0.251524
Si Si3 0.051919 0.105140 0.482116
Si Si4 0.684457 0.548932 0.501586
Si Si5 0.873224 0.806423 0.151593
Si Si6 0.552659 0.580370 0.152788
Si Si7 0.705147 0.181669 0.179306
Si Si8 0.130563 0.119508 0.954202
O O1 0.729459 0.802108 0.526303
O O2 0.768280 0.744626 0.293482
O O3 0.818354 0.836381 0.474935
O O4 0.748388 0.916882 0.321186
O O5 0.708911 0.574689 0.351944
O O6 0.720931 0.510565 0.094033
O O7 0.790555 0.575957 0.230726
O O8 0.085014 0.187652 0.536900
O O9 0.065298 0.075733 0.320717
O O10 0.000000 0.145327 0.484803
O O11 0.056081 0.020578 0.589285
O O12 0.670949 0.635492 0.595529
O O13 0.638150 0.490107 0.463334
O O14 0.850399 0.705965 0.168509
O O15 0.890580 0.848407 0.302122
O O16 0.500000 0.618525 0.127814
O O17 0.591264 0.644601 0.073749
#
# Coordination Sequence:
#
# PCOD8174478 Si02
#       8
#     8   8   8   8   8   8   8   8
#     4  10  22  34  47  73  96 133 173 207 253 288
#     4  11  20  34  49  66 100 135 170 208 245 288
#     4  10  21  32  45  66  94 126 164 208 249 292
#     4  11  18  31  46  66  92 135 168 201 238 285
#     4  11  21  32  47  71  94 125 174 204 248 292
#     4  10  20  31  46  68  93 130 172 207 240 288
#     4  11  21  34  50  71  99 129 174 211 244 299
#     4  10  19  30  45  65  92 125 166 206 237 282
#
# _framework density 16.321674999999999
#
# number of rings (size 3 to 8) (size 9 to 14) (size 15 to 20)
#    0.000    1.500    7.500    1.500    1.750    2.500 
#    0.000    0.000    0.000    0.000    0.000    0.000 
#    0.000    1.000    0.000    1.625    0.000    2.875 
#
# Total GULP energy -396526.265780 kJ/mol
# GULP energy per Si atom -12391.445806 kJ/mol
# Density = 1.628453 g / cm^3
# Si number density = 16.321675 Si / 1000 Ang^3
#
#
#
# Elastic Constant Matrix: (Units=GPa)
#
#
# Indices 1 2 3 4 5 6 
#
# 1 84.1523 34.7282 48.7807 0.0000 0.0000 0.0000
# 2 34.7282 51.5997 17.4476 0.0000 0.0000 0.0000
# 3 48.7807 17.4476 82.2440 0.0000 0.0000 0.0000
# 4 0.0000 0.0000 0.0000 19.0454 0.0000 0.0000
# 5 0.0000 0.0000 0.0000 0.0000 28.2711 0.0000
# 6 0.0000 0.0000 0.0000 0.0000 0.0000 18.6970
#
#
#
# Elastic Compliance Matrix: (Units=1/GPa)
#
#
# Indices 1 2 3 4 5 6 
#
# 1 0.023359 -0.011889 -0.011332 0.000000 0.000000 0.000000
# 2 -0.011889 0.026929 0.001339 0.000000 0.000000 0.000000
# 3 -0.011332 0.001339 0.018596 0.000000 0.000000 0.000000
# 4 0.000000 0.000000 0.000000 0.052506 0.000000 0.000000
# 5 0.000000 0.000000 0.000000 0.000000 0.035372 0.000000
# 6 0.000000 0.000000 0.000000 0.000000 0.000000 0.053485
#
#
# Mechanical properties :
#
#
# Convention : Reuss Voigt Hill
#
# Bulk Modulus (GPa) = 39.81085 46.65657 43.23371
# Shear Modulus (GPa) = 19.05595 21.00531 20.03063
#
# Velocity S-wave (km/s) = 3.42061 3.59131 3.50700
# Velocity P-wave (km/s) = 6.32812 6.77085 6.55323
#
# Compressibility (1/GPa) = 0.02511878
#
# Stress axis : x y z
#
# Youngs Moduli (GPa) = 42.81046 37.13459 53.77397
#
# Poissons Ratio (x) = 0.44150 0.60939
# Poissons Ratio (y) = 0.50899 -0.07200
# Poissons Ratio (z) = 0.48514 -0.04972
#
# Static dielectric constant tensor:
#      x y z
#    x 3.113340 0.000000 0.000000 
#    y 0.000000 2.753130 0.000000 
#    z 0.000000 0.000000 3.283490 
# 
# 
# High freq. dielectric constant tensor:
#      x y z
#    x 1.610600 0.000000 0.000000 
#    y 0.000000 1.574970 0.000000 
#    z 0.000000 0.000000 1.653010 
# 
# From -- ./inp_files/6130.got.cif
#   From: 2010.03.12/outbox.cif.g09.slc.cpg/sg36_4_cif.got.tgz:6130.got - 2010.04.14 02:13:53.
