data_PCOD8174358
_publ_section_title
;
Structure prediction by ZEFSAII (Michael W. Deem and Ramdas Pophale) SiO2 
 PCOD8174358
Probable space group: C M C 21
;
_chemical_formula_sum "Si O2"
_cell_formula_units_Z 64
_cell_length_a 8.808613
_cell_length_b 24.254330
_cell_length_c 14.606039
_cell_angle_alpha 90.000000
_cell_angle_beta 90.000000
_cell_angle_gamma 90.000000
_cell_volume 3120.536510
_symmetry_space_group_name_H-M "C M C 21"
_symmetry_group_IT_number 36
_symmetry_cell_setting 'orthorhombic'
loop_
_space_group_symop_operation_xyz
x,y,z
-x,-y,1/2+z
x,-y,1/2+z
-x,y,z
1/2+x,1/2+y,z
1/2-x,1/2-y,1/2+z
1/2+x,1/2-y,1/2+z
1/2-x,1/2+y,z
loop_
_atom_site_type_symbol
_atom_site_label
_atom_site_fract_x
_atom_site_fract_y
_atom_site_fract_z
Si Si1 0.320376 0.482117 0.644890
Si Si2 0.178317 0.439679 0.472059
Si Si3 0.322102 0.637489 0.836784
Si Si4 0.680371 0.836682 0.881804
Si Si5 0.321559 0.748279 0.741178
Si Si6 0.169821 0.703869 0.570009
Si Si7 0.670969 0.089431 0.669966
Si Si8 0.820235 0.541121 0.340834
O O1 0.500000 0.487865 0.644184
O O2 0.266115 0.438748 0.568604
O O3 0.238870 0.538780 0.612755
O O4 0.263856 0.465674 0.744959
O O5 0.229258 0.382320 0.425217
O O6 0.226700 0.492497 0.410394
O O7 0.000000 0.439022 0.490166
O O8 0.500000 0.636246 0.858154
O O9 0.264401 0.697830 0.805092
O O10 0.282303 0.595016 0.756161
O O11 0.500000 0.835552 0.891815
O O12 0.731631 0.805126 0.788955
O O13 0.736267 0.899831 0.880687
O O14 0.745419 0.802031 0.969162
O O15 0.500000 0.744372 0.731922
O O16 0.258120 0.744833 0.637969
O O17 0.169967 0.642066 0.606619
O O18 0.000000 0.727690 0.563579
O O19 0.500000 0.076127 0.704764
O O20 0.000000 0.541413 0.323609
#
# Coordination Sequence:
#
# PCOD8174358 Si02
#       8
#     8   8   8   8   8   8   8   8
#     4  12  24  36  54  83 120 154 185 233 296 351
#     4  11  22  37  59  84 113 153 197 238 282 343
#     4  10  19  33  54  81 112 145 183 233 286 335
#     4   9  18  37  61  83 112 152 191 235 287 341
#     4   9  19  36  58  83 115 149 184 232 291 342
#     4   9  18  34  59  86 110 145 196 241 280 331
#     4  10  18  32  55  81 109 145 191 237 278 336
#     4  10  21  39  62  85 113 151 195 239 284 343
#
# _framework density 20.509293
#
# number of rings (size 3 to 8) (size 9 to 14) (size 15 to 20)
#    0.000    2.000    1.250    3.000    0.000    3.500 
#    2.250    1.875    0.000    0.000    0.000    0.000 
#    0.000    0.000    0.000    0.000    0.000    0.000 
#
# Total GULP energy -396704.445977 kJ/mol
# GULP energy per Si atom -12397.013937 kJ/mol
# Density = 2.046261 g / cm^3
# Si number density = 20.509293 Si / 1000 Ang^3
#
#
#
# Elastic Constant Matrix: (Units=GPa)
#
#
# Indices 1 2 3 4 5 6 
#
# 1 59.9053 19.1013 28.7147 0.0000 0.0000 0.0000
# 2 19.1013 45.0269 9.7958 0.0000 0.0000 0.0000
# 3 28.7147 9.7958 94.0427 0.0000 0.0000 0.0000
# 4 0.0000 0.0000 0.0000 24.2141 0.0000 0.0000
# 5 0.0000 0.0000 0.0000 0.0000 31.1542 0.0000
# 6 0.0000 0.0000 0.0000 0.0000 0.0000 18.5430
#
#
#
# Elastic Compliance Matrix: (Units=1/GPa)
#
#
# Indices 1 2 3 4 5 6 
#
# 1 0.022104 -0.008092 -0.005906 0.000000 0.000000 0.000000
# 2 -0.008092 0.025686 -0.000205 0.000000 0.000000 0.000000
# 3 -0.005906 -0.000205 0.012458 0.000000 0.000000 0.000000
# 4 0.000000 0.000000 0.000000 0.041298 0.000000 0.000000
# 5 0.000000 0.000000 0.000000 0.000000 0.032098 0.000000
# 6 0.000000 0.000000 0.000000 0.000000 0.000000 0.053929
#
#
# Mechanical properties :
#
#
# Convention : Reuss Voigt Hill
#
# Bulk Modulus (GPa) = 31.40466 34.91094 33.15780
# Shear Modulus (GPa) = 22.06578 24.20645 23.13611
#
# Velocity S-wave (km/s) = 3.28364 3.43923 3.36233
# Velocity P-wave (km/s) = 5.45179 5.72975 5.59250
#
# Compressibility (1/GPa) = 0.03184241
#
# Stress axis : x y z
#
# Youngs Moduli (GPa) = 45.23981 38.93115 80.26821
#
# Poissons Ratio (x) = 0.31504 0.47409
# Poissons Ratio (y) = 0.36609 0.01643
# Poissons Ratio (z) = 0.26720 0.00797
#
# Static dielectric constant tensor:
#      x y z
#    x 3.523120 0.000000 0.000000 
#    y 0.000000 3.773030 0.000000 
#    z 0.000000 0.000000 3.852750 
# 
# 
# High freq. dielectric constant tensor:
#      x y z
#    x 1.780630 0.000000 0.000000 
#    y 0.000000 1.792350 0.000000 
#    z 0.000000 0.000000 1.806580 
# 
# From -- ./inp_files/10989.got.cif
#   From: 2010.03.12/outbox.cif.g09.slc.cpg/sg36_6_cif.got.tgz:10989.got - 2010.04.14 02:13:53.
