data_PCOD8174636
_publ_section_title
;
Structure prediction by ZEFSAII (Michael W. Deem and Ramdas Pophale) SiO2 
 PCOD8174636
Probable space group: C M C 21
;
_chemical_formula_sum "Si O2"
_cell_formula_units_Z 64
_cell_length_a 8.702648
_cell_length_b 24.320459
_cell_length_c 14.615501
_cell_angle_alpha 90.000000
_cell_angle_beta 90.000000
_cell_angle_gamma 90.000000
_cell_volume 3093.405774
_symmetry_space_group_name_H-M "C M C 21"
_symmetry_group_IT_number 36
_symmetry_cell_setting 'orthorhombic'
loop_
_space_group_symop_operation_xyz
x,y,z
-x,-y,1/2+z
x,-y,1/2+z
-x,y,z
1/2+x,1/2+y,z
1/2-x,1/2-y,1/2+z
1/2+x,1/2-y,1/2+z
1/2-x,1/2+y,z
loop_
_atom_site_type_symbol
_atom_site_label
_atom_site_fract_x
_atom_site_fract_y
_atom_site_fract_z
Si Si1 0.826002 0.280896 0.794120
Si Si2 0.819146 0.496876 0.196088
Si Si3 0.820620 0.803435 0.978066
Si Si4 0.676074 0.062457 0.871432
Si Si5 0.177959 0.590194 0.069227
Si Si6 0.678797 0.114567 0.605394
Si Si7 0.318840 0.704978 0.096003
Si Si8 0.171897 0.157387 0.774091
O O1 0.725043 0.309578 0.872046
O O2 0.758498 0.291587 0.694742
O O3 0.822639 0.216835 0.819354
O O4 0.000000 0.303856 0.796767
O O5 0.774284 0.488207 0.303749
O O6 0.758051 0.445173 0.136485
O O7 0.000000 0.499113 0.182908
O O8 0.754956 0.554181 0.154608
O O9 0.000000 0.793064 0.988631
O O10 0.773442 0.862464 0.019693
O O11 0.736097 0.753274 0.028963
O O12 0.500000 0.077385 0.846760
O O13 0.694644 0.050540 0.979233
O O14 0.780751 0.115016 0.852311
O O15 0.000000 0.606526 0.083671
O O16 0.274933 0.645402 0.055330
O O17 0.500000 0.114066 0.580382
O O18 0.709440 0.155910 0.689795
O O19 0.500000 0.709914 0.106058
O O20 0.000000 0.144152 0.738307
#
# Coordination Sequence:
#
# PCOD8174636 Si02
#       8
#     8   8   8   8   8   8   8   8
#     4  11  23  39  59  87 121 160 202 244 302 365
#     4   8  17  35  58  86 115 149 198 251 298 357
#     4  12  24  39  60  89 124 161 202 246 301 364
#     4   9  18  33  57  85 113 152 201 247 299 354
#     4  10  20  38  61  85 118 157 203 251 301 362
#     4  10  19  35  59  85 115 149 195 245 296 352
#     4  12  25  41  61  88 125 163 203 252 306 363
#     4  10  19  32  55  83 113 147 192 244 295 349
#
# _framework density 20.689171999999999
#
# number of rings (size 3 to 8) (size 9 to 14) (size 15 to 20)
#    0.000    1.750    1.250    4.875    0.000    4.000 
#    2.250    3.125    0.000    0.000    0.000    0.000 
#    0.000    0.000    0.000    0.000    0.000    0.000 
#
# Total GULP energy -396671.415610 kJ/mol
# GULP energy per Si atom -12395.981738 kJ/mol
# Density = 2.064208 g / cm^3
# Si number density = 20.689172 Si / 1000 Ang^3
#
#
#
# Elastic Constant Matrix: (Units=GPa)
#
#
# Indices 1 2 3 4 5 6 
#
# 1 81.1968 12.6750 12.6049 0.0000 0.0000 0.0000
# 2 12.6750 45.6573 7.6866 0.0000 0.0000 0.0000
# 3 12.6049 7.6866 91.0906 0.0000 0.0000 0.0000
# 4 0.0000 0.0000 0.0000 26.2548 0.0000 0.0000
# 5 0.0000 0.0000 0.0000 0.0000 28.2993 0.0000
# 6 0.0000 0.0000 0.0000 0.0000 0.0000 23.0972
#
#
#
# Elastic Compliance Matrix: (Units=1/GPa)
#
#
# Indices 1 2 3 4 5 6 
#
# 1 0.013079 -0.003374 -0.001525 0.000000 0.000000 0.000000
# 2 -0.003374 0.023088 -0.001481 0.000000 0.000000 0.000000
# 3 -0.001525 -0.001481 0.011314 0.000000 0.000000 0.000000
# 4 0.000000 0.000000 0.000000 0.038088 0.000000 0.000000
# 5 0.000000 0.000000 0.000000 0.000000 0.035337 0.000000
# 6 0.000000 0.000000 0.000000 0.000000 0.000000 0.043295
#
#
# Mechanical properties :
#
#
# Convention : Reuss Voigt Hill
#
# Bulk Modulus (GPa) = 28.80157 31.54198 30.17177
# Shear Modulus (GPa) = 26.52003 27.86214 27.19109
#
# Velocity S-wave (km/s) = 3.58415 3.67372 3.62921
# Velocity P-wave (km/s) = 5.57490 5.76834 5.67244
#
# Compressibility (1/GPa) = 0.03472033
#
# Stress axis : x y z
#
# Youngs Moduli (GPa) = 76.45708 43.31179 88.38498
#
# Poissons Ratio (x) = 0.14614 0.13480
# Poissons Ratio (y) = 0.25798 0.13093
# Poissons Ratio (z) = 0.11661 0.06416
#
# Static dielectric constant tensor:
#      x y z
#    x 3.650150 0.000000 0.000000 
#    y 0.000000 3.741720 0.000000 
#    z 0.000000 0.000000 3.813650 
# 
# 
# High freq. dielectric constant tensor:
#      x y z
#    x 1.796320 0.000000 0.000000 
#    y 0.000000 1.791370 0.000000 
#    z 0.000000 0.000000 1.815240 
# 
# From -- ./inp_files/10962.got.cif
#   From: 2010.03.12/outbox.cif.g09.slc.cpg/sg36_6_cif.got.tgz:10962.got - 2010.04.14 02:13:53.
