data_PCOD8174061
_publ_section_title
;
Structure prediction by ZEFSAII (Michael W. Deem and Ramdas Pophale) SiO2 
 PCOD8174061
Probable space group: C M M 2
;
_chemical_formula_sum "Si O2"
_cell_formula_units_Z 40
_cell_length_a 26.290468
_cell_length_b 7.524686
_cell_length_c 10.202568
_cell_angle_alpha 90.000000
_cell_angle_beta 90.000000
_cell_angle_gamma 90.000000
_cell_volume 2018.348689
_symmetry_space_group_name_H-M "C M M 2"
_symmetry_group_IT_number 35
_symmetry_cell_setting 'orthorhombic'
loop_
_space_group_symop_operation_xyz
x,y,z
-x,-y,z
-x,y,z
x,-y,z
1/2+x,1/2+y,z
1/2-x,1/2-y,z
1/2-x,1/2+y,z
1/2+x,1/2-y,z
loop_
_atom_site_type_symbol
_atom_site_label
_atom_site_fract_x
_atom_site_fract_y
_atom_site_fract_z
Si Si1 0.559693 0.500000 0.851851
Si Si2 0.808410 0.208252 0.005264
Si Si3 0.631883 0.203243 0.754528
Si Si4 0.190651 0.707469 0.501669
Si Si5 0.059281 0.000000 0.160335
Si Si6 0.870055 0.299376 0.252191
O O1 0.500000 0.500000 0.824197
O O2 0.582956 0.323345 0.786646
O O3 0.572392 0.500000 0.006153
O O4 0.750000 0.250000 0.019229
O O5 0.835713 0.305876 0.123880
O O6 0.820606 0.000000 0.010222
O O7 0.827504 0.291600 0.870658
O O8 0.660832 0.283896 0.627698
O O9 0.613387 0.000000 0.733518
O O10 0.184128 0.500000 0.503731
O O11 0.250000 0.750000 0.505274
O O12 0.163928 0.781962 0.370466
O O13 0.081239 0.824264 0.229049
O O14 0.000000 0.000000 0.186439
O O15 0.888998 0.500000 0.282625
#
# Coordination Sequence:
#
# PCOD8174061 Si02
#       6
#     4   8   8   8   4   8
#     4  11  24  43  67  95 123 163 217 271 320 365
#     4  12  22  36  58  90 123 163 210 252 308 381
#     4  11  22  41  61  90 127 161 206 263 310 369
#     4  10  24  38  60  93 127 170 208 244 309 382
#     4  11  24  43  67  95 123 163 217 271 320 365
#     4  11  22  41  61  90 127 161 206 263 310 369
#
# _framework density 19.818180999999999
#
# number of rings (size 3 to 8) (size 9 to 14) (size 15 to 20)
#    0.000    1.000    4.000    3.000    2.800    4.000 
#    0.000    4.000    0.000    3.600    0.000    0.000 
#    0.000    0.000    0.000    0.000    0.000    0.000 
#
# Total GULP energy -248044.429539 kJ/mol
# GULP energy per Si atom -12402.221477 kJ/mol
# Density = 1.977307 g / cm^3
# Si number density = 19.818181 Si / 1000 Ang^3
#
#
#
# Elastic Constant Matrix: (Units=GPa)
#
#
# Indices 1 2 3 4 5 6 
#
# 1 143.9571 57.2475 46.6205 0.0000 0.0000 0.0000
# 2 57.2475 111.9829 32.4240 0.0000 0.0000 0.0000
# 3 46.6205 32.4240 124.3183 0.0000 0.0000 0.0000
# 4 0.0000 0.0000 0.0000 33.5787 0.0000 0.0000
# 5 0.0000 0.0000 0.0000 0.0000 37.7621 0.0000
# 6 0.0000 0.0000 0.0000 0.0000 0.0000 35.5793
#
#
#
# Elastic Compliance Matrix: (Units=1/GPa)
#
#
# Indices 1 2 3 4 5 6 
#
# 1 0.009360 -0.004077 -0.002447 0.000000 0.000000 0.000000
# 2 -0.004077 0.011435 -0.001454 0.000000 0.000000 0.000000
# 3 -0.002447 -0.001454 0.009341 0.000000 0.000000 0.000000
# 4 0.000000 0.000000 0.000000 0.029781 0.000000 0.000000
# 5 0.000000 0.000000 0.000000 0.000000 0.026482 0.000000
# 6 0.000000 0.000000 0.000000 0.000000 0.000000 0.028106
#
#
# Mechanical properties :
#
#
# Convention : Reuss Voigt Hill
#
# Bulk Modulus (GPa) = 70.51501 72.53802 71.52652
# Shear Modulus (GPa) = 36.98627 37.64843 37.31735
#
# Velocity S-wave (km/s) = 4.32473 4.36327 4.34405
# Velocity P-wave (km/s) = 7.78434 7.87816 7.83139
#
# Compressibility (1/GPa) = 0.01418138
#
# Stress axis : x y z
#
# Youngs Moduli (GPa) = 106.83690 87.45226 107.05946
#
# Poissons Ratio (x) = 0.35650 0.26196
# Poissons Ratio (y) = 0.43552 0.15562
# Poissons Ratio (z) = 0.26142 0.12712
#
# Static dielectric constant tensor:
#      x y z
#    x 3.272300 0.000000 0.000000 
#    y 0.000000 3.950930 0.000000 
#    z 0.000000 0.000000 4.136390 
# 
# 
# High freq. dielectric constant tensor:
#      x y z
#    x 1.761130 0.000000 0.000000 
#    y 0.000000 1.784110 0.000000 
#    z 0.000000 0.000000 1.783800 
# 
# From -- ./inp_files/10093.got.cif
#   From: 2010.03.12/outbox.cif.g09.slc.cpg/sg35_6_cif.got.tgz:10093.got - 2010.04.14 02:02:04.
