data_PCOD8174948
_publ_section_title
;
Structure prediction by ZEFSAII (Michael W. Deem and Ramdas Pophale) SiO2 
 PCOD8174948
Probable space group: C M C 21
;
_chemical_formula_sum "Si O2"
_cell_formula_units_Z 64
_cell_length_a 8.495871
_cell_length_b 15.350392
_cell_length_c 23.746091
_cell_angle_alpha 90.000000
_cell_angle_beta 90.000000
_cell_angle_gamma 90.000000
_cell_volume 3096.845276
_symmetry_space_group_name_H-M "C M C 21"
_symmetry_group_IT_number 36
_symmetry_cell_setting 'orthorhombic'
loop_
_space_group_symop_operation_xyz
x,y,z
-x,-y,1/2+z
x,-y,1/2+z
-x,y,z
1/2+x,1/2+y,z
1/2-x,1/2-y,1/2+z
1/2+x,1/2-y,1/2+z
1/2-x,1/2+y,z
loop_
_atom_site_type_symbol
_atom_site_label
_atom_site_fract_x
_atom_site_fract_y
_atom_site_fract_z
Si Si1 0.314780 0.231498 0.006480
Si Si2 0.815893 0.111710 0.580994
Si Si3 0.317975 0.225203 0.880639
Si Si4 0.178901 0.720668 0.268497
Si Si5 0.317819 0.971517 0.783527
Si Si6 0.682261 0.539328 0.890790
Si Si7 0.817862 0.625907 0.702165
Si Si8 0.685587 0.036007 0.007633
O O1 0.500000 0.228928 0.014160
O O2 0.244135 0.303653 0.048781
O O3 0.250709 0.134238 0.020185
O O4 0.269862 0.258862 0.942723
O O5 0.786951 0.123440 0.646711
O O6 0.000000 0.101924 0.568844
O O7 0.728982 0.024921 0.559923
O O8 0.500000 0.244313 0.867340
O O9 0.209978 0.272881 0.835204
O O10 0.290833 0.122072 0.877458
O O11 0.208674 0.620217 0.251461
O O12 0.294484 0.782040 0.233257
O O13 0.000000 0.748662 0.255737
O O14 0.500000 0.984113 0.799383
O O15 0.216008 0.970740 0.840958
O O16 0.259389 0.048277 0.742528
O O17 0.500000 0.565460 0.891395
O O18 0.730530 0.499176 0.951227
O O19 0.000000 0.614749 0.686101
O O20 0.500000 0.036978 0.997562
#
# Coordination Sequence:
#
# PCOD8174948 Si02
#       8
#     8   8   8   8   8   8   8   8
#     4   8  19  38  60  85 120 162 198 239 304 366
#     4  11  23  41  64  91 121 159 208 261 303 361
#     4  10  19  36  60  88 125 164 197 243 307 373
#     4  11  23  39  61  92 120 156 204 257 306 360
#     4  10  23  41  61  87 123 163 205 251 310 370
#     4  11  21  35  60  92 126 161 203 253 306 361
#     4  11  24  44  64  85 121 169 208 252 309 372
#     4  10  21  40  62  88 122 162 203 246 307 375
#
# _framework density 20.666191000000001
#
# number of rings (size 3 to 8) (size 9 to 14) (size 15 to 20)
#    0.000    1.750    1.250    3.750    1.750    2.500 
#    0.000   11.875    0.000    0.000    0.000    0.000 
#    0.000    0.000    0.000    0.000    0.000    0.000 
#
# Total GULP energy -396893.027697 kJ/mol
# GULP energy per Si atom -12402.907116 kJ/mol
# Density = 2.061915 g / cm^3
# Si number density = 20.666191 Si / 1000 Ang^3
#
#
#
# Elastic Constant Matrix: (Units=GPa)
#
#
# Indices 1 2 3 4 5 6 
#
# 1 53.8522 21.2200 18.1213 0.0000 0.0000 0.0000
# 2 21.2200 95.6741 43.0404 0.0000 0.0000 0.0000
# 3 18.1213 43.0404 104.4051 0.0000 0.0000 0.0000
# 4 0.0000 0.0000 0.0000 21.1897 0.0000 0.0000
# 5 0.0000 0.0000 0.0000 0.0000 34.6061 0.0000
# 6 0.0000 0.0000 0.0000 0.0000 0.0000 25.7018
#
#
#
# Elastic Compliance Matrix: (Units=1/GPa)
#
#
# Indices 1 2 3 4 5 6 
#
# 1 0.020712 -0.003654 -0.002088 0.000000 0.000000 0.000000
# 2 -0.003654 0.013477 -0.004921 0.000000 0.000000 0.000000
# 3 -0.002088 -0.004921 0.011969 0.000000 0.000000 0.000000
# 4 0.000000 0.000000 0.000000 0.047193 0.000000 0.000000
# 5 0.000000 0.000000 0.000000 0.000000 0.028897 0.000000
# 6 0.000000 0.000000 0.000000 0.000000 0.000000 0.038908
#
#
# Mechanical properties :
#
#
# Convention : Reuss Voigt Hill
#
# Bulk Modulus (GPa) = 40.27428 46.52166 43.39797
# Shear Modulus (GPa) = 26.21093 27.73617 26.97355
#
# Velocity S-wave (km/s) = 3.56518 3.66745 3.61668
# Velocity P-wave (km/s) = 6.03968 6.36344 6.20367
#
# Compressibility (1/GPa) = 0.02482974
#
# Stress axis : x y z
#
# Youngs Moduli (GPa) = 48.28099 74.20258 83.54648
#
# Poissons Ratio (x) = 0.27116 0.17448
# Poissons Ratio (y) = 0.17643 0.41117
# Poissons Ratio (z) = 0.10083 0.36518
#
# Static dielectric constant tensor:
#      x y z
#    x 3.502030 0.000000 0.000000 
#    y 0.000000 3.856710 0.000000 
#    z 0.000000 0.000000 3.708930 
# 
# 
# High freq. dielectric constant tensor:
#      x y z
#    x 1.798850 0.000000 0.000000 
#    y 0.000000 1.810980 0.000000 
#    z 0.000000 0.000000 1.802270 
# 
# From -- ./inp_files/15593.got.cif
#   From: 2010.03.12/outbox.cif.g09.slc.cpg/sg36_8_cif.got.tgz:15593.got - 2010.04.14 02:13:53.
