data_PCOD8174795
_publ_section_title
;
Structure prediction by ZEFSAII (Michael W. Deem and Ramdas Pophale) SiO2 
 PCOD8174795
Probable space group: C M C 21
;
_chemical_formula_sum "Si O2"
_cell_formula_units_Z 64
_cell_length_a 8.935972
_cell_length_b 19.939410
_cell_length_c 19.872405
_cell_angle_alpha 90.000000
_cell_angle_beta 90.000000
_cell_angle_gamma 90.000000
_cell_volume 3540.825566
_symmetry_space_group_name_H-M "C M C 21"
_symmetry_group_IT_number 36
_symmetry_cell_setting 'orthorhombic'
loop_
_space_group_symop_operation_xyz
x,y,z
-x,-y,1/2+z
x,-y,1/2+z
-x,y,z
1/2+x,1/2+y,z
1/2-x,1/2-y,1/2+z
1/2+x,1/2-y,1/2+z
1/2-x,1/2+y,z
loop_
_atom_site_type_symbol
_atom_site_label
_atom_site_fract_x
_atom_site_fract_y
_atom_site_fract_z
Si Si1 0.171055 0.335881 0.662620
Si Si2 0.672806 0.668089 0.765419
Si Si3 0.325981 0.482747 0.281325
Si Si4 0.824085 0.412785 0.031114
Si Si5 0.326452 0.015453 0.142506
Si Si6 0.822650 0.586653 0.379243
Si Si7 0.327850 0.694952 0.614423
Si Si8 0.676471 0.300017 0.798280
O O1 0.195978 0.406053 0.624426
O O2 0.205978 0.274871 0.611508
O O3 0.277380 0.332452 0.727254
O O4 0.000000 0.329168 0.688789
O O5 0.500000 0.689614 0.769780
O O6 0.701006 0.595556 0.798018
O O7 0.722417 0.666828 0.687249
O O8 0.769262 0.723183 0.805285
O O9 0.500000 0.501935 0.286548
O O10 0.272289 0.497342 0.206356
O O11 0.233019 0.525025 0.334564
O O12 0.766702 0.472922 0.079077
O O13 0.764671 0.341166 0.056310
O O14 0.000000 0.408597 0.033179
O O15 0.769712 0.427134 0.955520
O O16 0.500000 0.999666 0.158453
O O17 0.750342 0.656753 0.357289
O O18 0.000000 0.592026 0.372096
O O19 0.500000 0.678820 0.600869
O O20 0.500000 0.302814 0.806035
#
# Coordination Sequence:
#
# PCOD8174795 Si02
#       8
#     8   8   8   8   8   8   8   8
#     4   9  18  33  54  80 111 145 176 220 284 330
#     4   9  19  35  55  81 114 144 174 223 287 335
#     4  11  21  35  57  86 113 143 188 234 279 336
#     4  10  22  37  55  80 110 149 192 229 277 339
#     4  10  19  34  57  82 110 147 186 227 278 332
#     4  11  23  39  55  76 115 158 190 230 285 337
#     4   9  17  32  53  78 108 143 179 221 277 331
#     4  11  21  33  54  83 109 139 189 236 271 328
#
# _framework density 18.074881000000001
#
# number of rings (size 3 to 8) (size 9 to 14) (size 15 to 20)
#    0.000    2.000    2.500    2.625    0.000    4.000 
#    0.000    1.250    0.000    1.500    0.000    0.000 
#    0.000    0.000    0.000    0.000    0.000    0.000 
#
# Total GULP energy -396824.555258 kJ/mol
# GULP energy per Si atom -12400.767352 kJ/mol
# Density = 1.803374 g / cm^3
# Si number density = 18.074881 Si / 1000 Ang^3
#
#
#
# Elastic Constant Matrix: (Units=GPa)
#
#
# Indices 1 2 3 4 5 6 
#
# 1 70.0566 45.0523 48.0473 0.0000 0.0000 0.0000
# 2 45.0523 129.2226 64.0915 0.0000 0.0000 0.0000
# 3 48.0473 64.0915 117.0358 0.0000 0.0000 0.0000
# 4 0.0000 0.0000 0.0000 23.2066 0.0000 0.0000
# 5 0.0000 0.0000 0.0000 0.0000 20.3714 0.0000
# 6 0.0000 0.0000 0.0000 0.0000 0.0000 30.2120
#
#
#
# Elastic Compliance Matrix: (Units=1/GPa)
#
#
# Indices 1 2 3 4 5 6 
#
# 1 0.021459 -0.004273 -0.006470 0.000000 0.000000 0.000000
# 2 -0.004273 0.011475 -0.004530 0.000000 0.000000 0.000000
# 3 -0.006470 -0.004530 0.013681 0.000000 0.000000 0.000000
# 4 0.000000 0.000000 0.000000 0.043091 0.000000 0.000000
# 5 0.000000 0.000000 0.000000 0.000000 0.049088 0.000000
# 6 0.000000 0.000000 0.000000 0.000000 0.000000 0.033099
#
#
# Mechanical properties :
#
#
# Convention : Reuss Voigt Hill
#
# Bulk Modulus (GPa) = 62.22622 70.07746 66.15184
# Shear Modulus (GPa) = 24.06209 25.36628 24.71419
#
# Velocity S-wave (km/s) = 3.65258 3.75026 3.70174
# Velocity P-wave (km/s) = 7.23119 7.58996 7.41274
#
# Compressibility (1/GPa) = 0.01607040
#
# Stress axis : x y z
#
# Youngs Moduli (GPa) = 46.60021 87.14674 73.09298
#
# Poissons Ratio (x) = 0.37234 0.47291
# Poissons Ratio (y) = 0.19910 0.33110
# Poissons Ratio (z) = 0.30150 0.39476
#
# Static dielectric constant tensor:
#      x y z
#    x 3.291470 0.000000 0.000000 
#    y 0.000000 3.669610 0.000000 
#    z 0.000000 0.000000 3.231140 
# 
# 
# High freq. dielectric constant tensor:
#      x y z
#    x 1.699800 0.000000 0.000000 
#    y 0.000000 1.717010 0.000000 
#    z 0.000000 0.000000 1.667640 
# 
# From -- ./inp_files/13854.got.cif
#   From: 2010.03.12/outbox.cif.g09.slc.cpg/sg36_7_cif.got.tgz:13854.got - 2010.04.14 02:13:53.
