data_PCOD8174954
_publ_section_title
;
Structure prediction by ZEFSAII (Michael W. Deem and Ramdas Pophale) SiO2 
 PCOD8174954
Probable space group: C M C 21
;
_chemical_formula_sum "Si O2"
_cell_formula_units_Z 48
_cell_length_a 8.690492
_cell_length_b 30.485534
_cell_length_c 8.883367
_cell_angle_alpha 90.000000
_cell_angle_beta 90.000000
_cell_angle_gamma 90.000000
_cell_volume 2353.508523
_symmetry_space_group_name_H-M "C M C 21"
_symmetry_group_IT_number 36
_symmetry_cell_setting 'orthorhombic'
loop_
_space_group_symop_operation_xyz
x,y,z
-x,-y,1/2+z
x,-y,1/2+z
-x,y,z
1/2+x,1/2+y,z
1/2-x,1/2-y,1/2+z
1/2+x,1/2-y,1/2+z
1/2-x,1/2+y,z
loop_
_atom_site_type_symbol
_atom_site_label
_atom_site_fract_x
_atom_site_fract_y
_atom_site_fract_z
Si Si1 0.820457 0.786837 0.697070
Si Si2 0.177551 0.119411 0.674019
Si Si3 0.676634 0.706835 0.852116
Si Si4 0.182489 0.049661 0.193916
Si Si5 0.816955 0.963810 0.359684
Si Si6 0.320947 0.131901 0.355590
O O1 0.783611 0.737923 0.751935
O O2 0.768914 0.791341 0.524426
O O3 0.724653 0.820189 0.798543
O O4 0.000000 0.797020 0.716731
O O5 0.198454 0.157398 0.796499
O O6 0.238687 0.074739 0.749188
O O7 0.280738 0.129004 0.530370
O O8 0.000000 0.115123 0.622944
O O9 0.500000 0.722244 0.836335
O O10 0.231602 0.095950 0.259547
O O11 0.000000 0.048104 0.188520
O O12 0.245819 0.010156 0.297722
O O13 0.250906 0.043848 0.026256
O O14 0.000000 0.963680 0.366517
O O15 0.500000 0.124215 0.333101
#
# Coordination Sequence:
#
# PCOD8174954 Si02
#       6
#     8   8   8   8   8   8
#     4  11  23  40  62  86 115 152 191 233 283 340
#     4  10  20  38  62  87 116 151 190 233 283 339
#     4  10  22  39  61  90 119 147 186 235 285 339
#     4  10  19  36  61  88 116 149 191 236 285 339
#     4   9  18  34  62  92 115 146 191 237 280 339
#     4  12  25  39  56  83 117 153 195 240 286 336
#
# _framework density 20.395081000000001
#
# number of rings (size 3 to 8) (size 9 to 14) (size 15 to 20)
#    0.000    1.667    0.000    5.000    0.000   10.000 
#    0.000    5.833    0.000    0.000    0.000    0.000 
#    0.000    0.000    0.000    0.000    0.000    0.000 
#
# Total GULP energy -297738.701519 kJ/mol
# GULP energy per Si atom -12405.779230 kJ/mol
# Density = 2.034866 g / cm^3
# Si number density = 20.395081 Si / 1000 Ang^3
#
#
#
# Elastic Constant Matrix: (Units=GPa)
#
#
# Indices 1 2 3 4 5 6 
#
# 1 28.7682 14.3823 26.3847 0.0000 0.0000 0.0000
# 2 14.3823 74.4703 -0.7669 0.0000 0.0000 0.0000
# 3 26.3847 -0.7669 98.8556 0.0000 0.0000 0.0000
# 4 0.0000 0.0000 0.0000 43.3403 0.0000 0.0000
# 5 0.0000 0.0000 0.0000 0.0000 18.2849 0.0000
# 6 0.0000 0.0000 0.0000 0.0000 0.0000 20.8086
#
#
#
# Elastic Compliance Matrix: (Units=1/GPa)
#
#
# Indices 1 2 3 4 5 6 
#
# 1 0.052998 -0.010382 -0.014226 0.000000 0.000000 0.000000
# 2 -0.010382 0.015463 0.002891 0.000000 0.000000 0.000000
# 3 -0.014226 0.002891 0.013935 0.000000 0.000000 0.000000
# 4 0.000000 0.000000 0.000000 0.023073 0.000000 0.000000
# 5 0.000000 0.000000 0.000000 0.000000 0.054690 0.000000
# 6 0.000000 0.000000 0.000000 0.000000 0.000000 0.048057
#
#
# Mechanical properties :
#
#
# Convention : Reuss Voigt Hill
#
# Bulk Modulus (GPa) = 25.66568 31.34381 28.50474
# Shear Modulus (GPa) = 18.89375 27.29303 23.09339
#
# Velocity S-wave (km/s) = 3.04696 3.66213 3.36862
# Velocity P-wave (km/s) = 4.99902 5.76917 5.39785
#
# Compressibility (1/GPa) = 0.03896254
#
# Stress axis : x y z
#
# Youngs Moduli (GPa) = 18.86856 64.67056 71.76129
#
# Poissons Ratio (x) = 0.67141 1.02086
# Poissons Ratio (y) = 0.19589 -0.20746
# Poissons Ratio (z) = 0.26842 -0.18696
#
# Static dielectric constant tensor:
#      x y z
#    x 3.400270 0.000000 0.000000 
#    y 0.000000 3.791310 0.000000 
#    z 0.000000 0.000000 3.898200 
# 
# 
# High freq. dielectric constant tensor:
#      x y z
#    x 1.764380 0.000000 0.000000 
#    y 0.000000 1.813240 0.000000 
#    z 0.000000 0.000000 1.814650 
# 
# From -- ./inp_files/2694.got.cif
#   From: 2010.03.12/outbox.cif.g09.slc.cpg/sg36_2_cif.got.tgz:2694.got - 2010.04.14 02:13:53.
