data_PCOD8174420
_publ_section_title
;
Structure prediction by ZEFSAII (Michael W. Deem and Ramdas Pophale) SiO2 
 PCOD8174420
Probable space group: C M C 21
;
_chemical_formula_sum "Si O2"
_cell_formula_units_Z 64
_cell_length_a 8.953075
_cell_length_b 15.458108
_cell_length_c 23.909548
_cell_angle_alpha 90.000000
_cell_angle_beta 90.000000
_cell_angle_gamma 90.000000
_cell_volume 3309.024067
_symmetry_space_group_name_H-M "C M C 21"
_symmetry_group_IT_number 36
_symmetry_cell_setting 'orthorhombic'
loop_
_space_group_symop_operation_xyz
x,y,z
-x,-y,1/2+z
x,-y,1/2+z
-x,y,z
1/2+x,1/2+y,z
1/2-x,1/2-y,1/2+z
1/2+x,1/2-y,1/2+z
1/2-x,1/2+y,z
loop_
_atom_site_type_symbol
_atom_site_label
_atom_site_fract_x
_atom_site_fract_y
_atom_site_fract_z
Si Si1 0.176806 0.841750 0.861130
Si Si2 0.675528 0.907368 0.479405
Si Si3 0.676812 0.661207 0.085638
Si Si4 0.677720 0.498965 0.786127
Si Si5 0.171492 0.166916 0.596698
Si Si6 0.322640 0.502339 0.159355
Si Si7 0.823348 0.351839 0.355498
Si Si8 0.828390 0.086843 0.478858
O O1 0.239739 0.914682 0.818995
O O2 0.233576 0.746249 0.844065
O O3 0.229863 0.863648 0.923894
O O4 0.000000 0.841202 0.859299
O O5 0.500000 0.897966 0.487904
O O6 0.755216 0.845384 0.523795
O O7 0.724999 0.878189 0.417820
O O8 0.725029 0.005041 0.490123
O O9 0.500000 0.659329 0.081476
O O10 0.730413 0.750450 0.113628
O O11 0.738877 0.583614 0.124323
O O12 0.500000 0.503709 0.789644
O O13 0.735380 0.491273 0.722728
O O14 0.742362 0.586527 0.811715
O O15 0.187229 0.151278 0.530583
O O16 0.000000 0.184455 0.612965
O O17 0.236581 0.085749 0.631249
O O18 0.500000 0.503432 0.157037
O O19 0.000000 0.360749 0.347502
O O20 0.000000 0.055411 0.472086
#
# Coordination Sequence:
#
# PCOD8174420 Si02
#       8
#     8   8   8   8   8   8   8   8
#     4   9  18  33  56  81 108 144 186 223 272 335
#     4  11  21  34  56  85 117 148 184 232 287 339
#     4  11  22  38  59  85 114 149 191 232 277 339
#     4  10  20  37  60  82 106 146 197 236 269 326
#     4  10  20  37  58  81 114 150 182 229 290 341
#     4   9  20  38  58  80 111 149 188 233 283 330
#     4  10  21  37  56  82 115 149 182 229 287 337
#     4  10  18  34  59  82 109 151 190 224 281 345
#
# _framework density 19.341049000000002
#
# number of rings (size 3 to 8) (size 9 to 14) (size 15 to 20)
#    0.000    2.000    2.500    1.500    0.000    4.000 
#    0.000    4.375    0.000    0.000    0.000    0.000 
#    0.000    0.000    0.000    0.000    0.000    0.000 
#
# Total GULP energy -396863.872908 kJ/mol
# GULP energy per Si atom -12401.996028 kJ/mol
# Density = 1.929703 g / cm^3
# Si number density = 19.341049 Si / 1000 Ang^3
#
#
#
# Elastic Constant Matrix: (Units=GPa)
#
#
# Indices 1 2 3 4 5 6 
#
# 1 37.8384 29.4650 27.0357 0.0000 0.0000 0.0000
# 2 29.4650 152.1152 55.9013 0.0000 0.0000 0.0000
# 3 27.0357 55.9013 128.9962 0.0000 0.0000 0.0000
# 4 0.0000 0.0000 0.0000 17.5711 0.0000 0.0000
# 5 0.0000 0.0000 0.0000 0.0000 14.4850 0.0000
# 6 0.0000 0.0000 0.0000 0.0000 0.0000 33.7663
#
#
#
# Elastic Compliance Matrix: (Units=1/GPa)
#
#
# Indices 1 2 3 4 5 6 
#
# 1 0.033660 -0.004671 -0.005030 0.000000 0.000000 0.000000
# 2 -0.004671 0.008468 -0.002690 0.000000 0.000000 0.000000
# 3 -0.005030 -0.002690 0.009972 0.000000 0.000000 0.000000
# 4 0.000000 0.000000 0.000000 0.056912 0.000000 0.000000
# 5 0.000000 0.000000 0.000000 0.000000 0.069037 0.000000
# 6 0.000000 0.000000 0.000000 0.000000 0.000000 0.029615
#
#
# Mechanical properties :
#
#
# Convention : Reuss Voigt Hill
#
# Bulk Modulus (GPa) = 36.60896 60.41710 48.51303
# Shear Modulus (GPa) = 20.69936 26.93432 23.81684
#
# Velocity S-wave (km/s) = 3.27499 3.73580 3.51296
# Velocity P-wave (km/s) = 5.76801 7.06497 6.44918
#
# Compressibility (1/GPa) = 0.02731572
#
# Stress axis : x y z
#
# Youngs Moduli (GPa) = 29.70887 118.09816 100.27748
#
# Poissons Ratio (x) = 0.55169 0.50442
# Poissons Ratio (y) = 0.13878 0.26979
# Poissons Ratio (z) = 0.14944 0.31773
#
# Static dielectric constant tensor:
#      x y z
#    x 3.199070 0.000000 0.000000 
#    y 0.000000 3.723950 0.000000 
#    z 0.000000 0.000000 3.688400 
# 
# 
# High freq. dielectric constant tensor:
#      x y z
#    x 1.719220 0.000000 0.000000 
#    y 0.000000 1.767160 0.000000 
#    z 0.000000 0.000000 1.753410 
# 
# From -- ./inp_files/16552.got.cif
#   From: 2010.03.12/outbox.cif.g09.slc.cpg/sg36_9_cif.got.tgz:16552.got - 2010.04.14 02:13:53.
