data_PCOD8174146
_publ_section_title
;
Structure prediction by ZEFSAII (Michael W. Deem and Ramdas Pophale) SiO2 
 PCOD8174146
Probable space group: C M M 2
;
_chemical_formula_sum "Si O2"
_cell_formula_units_Z 40
_cell_length_a 15.413990
_cell_length_b 10.355515
_cell_length_c 12.836529
_cell_angle_alpha 90.000000
_cell_angle_beta 90.000000
_cell_angle_gamma 90.000000
_cell_volume 2048.964251
_symmetry_space_group_name_H-M "C M M 2"
_symmetry_group_IT_number 35
_symmetry_cell_setting 'orthorhombic'
loop_
_space_group_symop_operation_xyz
x,y,z
-x,-y,z
-x,y,z
x,-y,z
1/2+x,1/2+y,z
1/2-x,1/2-y,z
1/2-x,1/2+y,z
1/2+x,1/2-y,z
loop_
_atom_site_type_symbol
_atom_site_label
_atom_site_fract_x
_atom_site_fract_y
_atom_site_fract_z
Si Si1 0.756067 0.000000 0.668900
Si Si2 0.900262 0.347908 0.949098
Si Si3 0.250000 0.750000 0.808149
Si Si4 0.095738 0.000000 0.498363
Si Si5 0.348243 0.246017 0.393460
Si Si6 0.601309 0.854903 0.184401
Si Si7 0.903533 0.500000 0.518178
O O1 0.766006 0.873663 0.737720
O O2 0.833266 0.000000 0.587256
O O3 0.662764 0.000000 0.613722
O O4 0.882631 0.500000 0.935398
O O5 0.836171 0.266602 0.876984
O O6 0.000000 0.316382 0.919156
O O7 0.881362 0.304180 0.067690
O O8 0.103862 0.123972 0.425073
O O9 0.000000 0.000000 0.549412
O O10 0.250000 0.250000 0.433866
O O11 0.350423 0.235155 0.267997
O O12 0.394451 0.124484 0.445636
O O13 0.500000 0.852972 0.209200
O O14 0.637631 0.000000 0.195269
O O15 0.000000 0.500000 0.567120
#
# Coordination Sequence:
#
# PCOD8174146 Si02
#       7
#     4   8   4   4   8   8   4
#     4  12  26  44  62  94 124 156 218 268 314 364
#     4   9  20  41  66  94 126 164 210 254 307 374
#     4  12  24  42  68  92 126 156 210 272 316 364
#     4  12  26  44  61  87 132 169 197 254 325 368
#     4  12  22  39  63  96 131 163 207 251 306 376
#     4   9  18  35  63  95 125 164 211 249 293 370
#     4  12  24  44  69  89 118 167 223 258 297 372
#
# _framework density 19.52206
#
# number of rings (size 3 to 8) (size 9 to 14) (size 15 to 20)
#    0.000    1.200    4.000    4.200    1.400    1.600 
#    0.000    1.000    0.000    2.400    0.000    0.000 
#    0.000    0.000    0.000    0.000    0.000    0.000 
#
# Total GULP energy -248056.425557 kJ/mol
# GULP energy per Si atom -12402.821278 kJ/mol
# Density = 1.947763 g / cm^3
# Si number density = 19.522060 Si / 1000 Ang^3
#
#
#
# Elastic Constant Matrix: (Units=GPa)
#
#
# Indices 1 2 3 4 5 6 
#
# 1 144.6757 48.5958 66.8983 0.0000 0.0000 0.0000
# 2 48.5958 138.0138 68.9380 0.0000 0.0000 0.0000
# 3 66.8983 68.9380 131.2263 0.0000 0.0000 0.0000
# 4 0.0000 0.0000 0.0000 69.2740 0.0000 0.0000
# 5 0.0000 0.0000 0.0000 0.0000 18.4307 0.0000
# 6 0.0000 0.0000 0.0000 0.0000 0.0000 40.7529
#
#
#
# Elastic Compliance Matrix: (Units=1/GPa)
#
#
# Indices 1 2 3 4 5 6 
#
# 1 0.009192 -0.001215 -0.004048 0.000000 0.000000 0.000000
# 2 -0.001215 0.009984 -0.004626 0.000000 0.000000 0.000000
# 3 -0.004048 -0.004626 0.012114 0.000000 0.000000 0.000000
# 4 0.000000 0.000000 0.000000 0.014435 0.000000 0.000000
# 5 0.000000 0.000000 0.000000 0.000000 0.054257 0.000000
# 6 0.000000 0.000000 0.000000 0.000000 0.000000 0.024538
#
#
# Mechanical properties :
#
#
# Convention : Reuss Voigt Hill
#
# Bulk Modulus (GPa) = 86.85537 86.97557 86.91547
# Shear Modulus (GPa) = 33.75315 40.99043 37.37179
#
# Velocity S-wave (km/s) = 4.16261 4.58722 4.38006
# Velocity P-wave (km/s) = 8.22742 8.52678 8.37844
#
# Compressibility (1/GPa) = 0.01151339
#
# Stress axis : x y z
#
# Youngs Moduli (GPa) = 108.79391 100.16167 82.54902
#
# Poissons Ratio (x) = 0.12166 0.33414
# Poissons Ratio (y) = 0.13214 0.38185
# Poissons Ratio (z) = 0.44038 0.46332
#
# Static dielectric constant tensor:
#      x y z
#    x 3.604970 0.000000 0.000000 
#    y 0.000000 3.351860 0.000000 
#    z 0.000000 0.000000 3.643870 
# 
# 
# High freq. dielectric constant tensor:
#      x y z
#    x 1.767260 0.000000 0.000000 
#    y 0.000000 1.753530 0.000000 
#    z 0.000000 0.000000 1.765640 
# 
# From -- ./inp_files/14870.got.cif
#   From: 2010.03.12/outbox.cif.g09.slc.cpg/sg35_8_cif.got.tgz:14870.got - 2010.04.14 02:02:04.
