data_PCOD8174460
_publ_section_title
;
Structure prediction by ZEFSAII (Michael W. Deem and Ramdas Pophale) SiO2 
 PCOD8174460
Probable space group: C M C 21
;
_chemical_formula_sum "Si O2"
_cell_formula_units_Z 40
_cell_length_a 13.937614
_cell_length_b 9.582921
_cell_length_c 13.641548
_cell_angle_alpha 90.000000
_cell_angle_beta 90.000000
_cell_angle_gamma 90.000000
_cell_volume 1822.006811
_symmetry_space_group_name_H-M "C M C 21"
_symmetry_group_IT_number 36
_symmetry_cell_setting 'orthorhombic'
loop_
_space_group_symop_operation_xyz
x,y,z
-x,-y,1/2+z
x,-y,1/2+z
-x,y,z
1/2+x,1/2+y,z
1/2-x,1/2-y,1/2+z
1/2+x,1/2-y,1/2+z
1/2-x,1/2+y,z
loop_
_atom_site_type_symbol
_atom_site_label
_atom_site_fract_x
_atom_site_fract_y
_atom_site_fract_z
Si Si1 0.809858 0.888882 0.922130
Si Si2 0.000000 0.604188 0.785589
Si Si3 0.339522 0.119656 0.253080
Si Si4 0.203097 0.392056 0.542444
Si Si5 0.000000 0.629519 0.011611
Si Si6 0.500000 0.402322 0.796565
Si Si7 0.000000 0.816736 0.192870
O O1 0.724834 0.859229 0.847006
O O2 0.907601 0.918891 0.866058
O O3 0.814535 0.759818 0.996068
O O4 0.784487 0.024862 0.985871
O O5 0.096259 0.520173 0.762067
O O6 0.000000 0.756464 0.734202
O O7 0.000000 0.661649 0.897148
O O8 0.270188 0.112391 0.157544
O O9 0.406647 0.254338 0.246173
O O10 0.095224 0.461256 0.538247
O O11 0.000000 0.772796 0.077805
O O12 0.500000 0.518168 0.710605
#
# Coordination Sequence:
#
# PCOD8174460 Si02
#       7
#     8   4   8   8   4   4   4
#     4  12  23  42  64  94 138 175 221 275 328 397
#     4  11  20  43  75  91 132 177 225 268 329 416
#     4  10  23  43  68  96 126 180 227 269 330 405
#     4  11  24  41  68  96 133 172 222 277 329 394
#     4  10  18  44  65  93 127 175 214 270 329 397
#     4  12  24  39  64  98 132 179 210 277 344 373
#     4   9  22  38  66  96 133 159 217 281 332 386
#
# _framework density 21.953814000000001
#
# number of rings (size 3 to 8) (size 9 to 14) (size 15 to 20)
#    0.000    1.200    4.000    1.800    0.000    6.400 
#    0.000    0.000    0.000    0.000    0.000    0.000 
#    0.000    0.000    0.000    0.000    0.000    0.000 
#
# Total GULP energy -247902.235513 kJ/mol
# GULP energy per Si atom -12395.111776 kJ/mol
# Density = 2.190385 g / cm^3
# Si number density = 21.953814 Si / 1000 Ang^3
#
#
#
# Elastic Constant Matrix: (Units=GPa)
#
#
# Indices 1 2 3 4 5 6 
#
# 1 92.2818 29.9258 23.0738 0.0000 0.0000 0.0000
# 2 29.9258 117.3225 38.5111 0.0000 0.0000 0.0000
# 3 23.0738 38.5111 126.9547 0.0000 0.0000 0.0000
# 4 0.0000 0.0000 0.0000 35.2150 0.0000 0.0000
# 5 0.0000 0.0000 0.0000 0.0000 -4.5077 0.0000
# 6 0.0000 0.0000 0.0000 0.0000 0.0000 8.3813
#
#
#
# Elastic Compliance Matrix: (Units=1/GPa)
#
#
# Indices 1 2 3 4 5 6 
#
# 1 0.012032 -0.002611 -0.001395 0.000000 0.000000 0.000000
# 2 -0.002611 0.010033 -0.002569 0.000000 0.000000 0.000000
# 3 -0.001395 -0.002569 0.008910 0.000000 0.000000 0.000000
# 4 0.000000 0.000000 0.000000 0.028397 0.000000 0.000000
# 5 0.000000 0.000000 0.000000 0.000000 -0.221843 0.000000
# 6 0.000000 0.000000 0.000000 0.000000 0.000000 0.119313
#
#
# Mechanical properties :
#
#
# Convention : Reuss Voigt Hill
#
# Bulk Modulus (GPa) = 56.10159 57.73116 56.91638
# Shear Modulus (GPa) = -207.74823 24.15428 -91.79698
#
# Velocity S-wave (km/s) = -9.73833 3.32057 -6.47337
# Velocity P-wave (km/s) = 10.04176 6.40744 5.46725
#
# Compressibility (1/GPa) = 0.01782481
#
# Stress axis : x y z
#
# Youngs Moduli (GPa) = 83.11260 99.67335 112.23921
#
# Poissons Ratio (x) = 0.26027 0.15654
# Poissons Ratio (y) = 0.21702 0.28832
# Poissons Ratio (z) = 0.11592 0.25604
#
# Static dielectric constant tensor:
#      x y z
#    x 4.370920 0.000000 0.000000 
#    y 0.000000 3.846580 0.000000 
#    z 0.000000 0.000000 4.111690 
# 
# 
# High freq. dielectric constant tensor:
#      x y z
#    x 1.874420 0.000000 0.000000 
#    y 0.000000 1.842850 0.000000 
#    z 0.000000 0.000000 1.871190 
# 
# From -- ./inp_files/11977.got.cif
#   From: 2010.03.12/outbox.cif.g09.slc.cpg/sg36_6_cif.got.tgz:11977.got - 2010.04.14 02:13:53.
