data_PCOD8174754
_publ_section_title
;
Structure prediction by ZEFSAII (Michael W. Deem and Ramdas Pophale) SiO2 
 PCOD8174754
Probable space group: C M C 21
;
_chemical_formula_sum "Si O2"
_cell_formula_units_Z 64
_cell_length_a 8.487734
_cell_length_b 22.855195
_cell_length_c 16.488842
_cell_angle_alpha 90.000000
_cell_angle_beta 90.000000
_cell_angle_gamma 90.000000
_cell_volume 3198.650931
_symmetry_space_group_name_H-M "C M C 21"
_symmetry_group_IT_number 36
_symmetry_cell_setting 'orthorhombic'
loop_
_space_group_symop_operation_xyz
x,y,z
-x,-y,1/2+z
x,-y,1/2+z
-x,y,z
1/2+x,1/2+y,z
1/2-x,1/2-y,1/2+z
1/2+x,1/2-y,1/2+z
1/2-x,1/2+y,z
loop_
_atom_site_type_symbol
_atom_site_label
_atom_site_fract_x
_atom_site_fract_y
_atom_site_fract_z
Si Si1 0.314282 0.787463 0.955810
Si Si2 0.819231 0.971267 0.767882
Si Si3 0.176679 0.460273 0.493665
Si Si4 0.180936 0.894391 0.631197
Si Si5 0.186807 0.284535 0.301154
Si Si6 0.187164 0.765494 0.626338
Si Si7 0.814693 0.089208 0.834925
Si Si8 0.820310 0.419773 0.923486
O O1 0.500000 0.776278 0.948871
O O2 0.236524 0.755700 0.877798
O O3 0.270745 0.856116 0.955175
O O4 0.249153 0.765610 0.043662
O O5 0.729757 0.932968 0.699869
O O6 0.794883 0.939162 0.852621
O O7 0.000000 0.967732 0.744587
O O8 0.771608 0.039897 0.767158
O O9 0.306672 0.431613 0.550145
O O10 0.204022 0.429561 0.408182
O O11 0.198832 0.530768 0.492979
O O12 0.000000 0.444822 0.522467
O O13 0.259772 0.830765 0.623089
O O14 0.000000 0.882365 0.652156
O O15 0.243284 0.260558 0.213120
O O16 0.270698 0.346913 0.305374
O O17 0.000000 0.291664 0.303842
O O18 0.000000 0.763230 0.622485
O O19 0.000000 0.086079 0.857815
O O20 0.000000 0.419363 0.891525
#
# Coordination Sequence:
#
# PCOD8174754 Si02
#       8
#     8   8   8   8   8   8   8   8
#     4  10  20  37  58  80 110 152 189 221 270 334
#     4   9  19  34  54  77 104 139 180 221 268 327
#     4  10  20  34  53  80 108 138 179 228 273 322
#     4  10  19  34  54  77 105 140 180 223 272 327
#     4  11  22  37  58  84 111 144 185 232 277 325
#     4   9  20  36  55  78 108 145 184 221 269 332
#     4  10  20  36  55  77 106 142 180 223 276 332
#     4   9  19  34  53  77 106 138 179 225 271 319
#
# _framework density 20.008436
#
# number of rings (size 3 to 8) (size 9 to 14) (size 15 to 20)
#    0.000    2.250    0.000    2.625    0.000    5.000 
#    0.000    3.750    0.000    0.000    0.000    0.000 
#    0.000    0.000    0.000    0.000    0.000    0.000 
#
# Total GULP energy -396477.944219 kJ/mol
# GULP energy per Si atom -12389.935757 kJ/mol
# Density = 1.996290 g / cm^3
# Si number density = 20.008436 Si / 1000 Ang^3
#
#
#
# Elastic Constant Matrix: (Units=GPa)
#
#
# Indices 1 2 3 4 5 6 
#
# 1 22.7288 19.8216 9.4687 0.0000 0.0000 0.0000
# 2 19.8216 188.6536 75.9011 0.0000 0.0000 0.0000
# 3 9.4687 75.9011 114.9306 0.0000 0.0000 0.0000
# 4 0.0000 0.0000 0.0000 31.3189 0.0000 0.0000
# 5 0.0000 0.0000 0.0000 0.0000 21.7178 0.0000
# 6 0.0000 0.0000 0.0000 0.0000 0.0000 14.1943
#
#
#
# Elastic Compliance Matrix: (Units=1/GPa)
#
#
# Indices 1 2 3 4 5 6 
#
# 1 0.048497 -0.004750 -0.000858 0.000000 0.000000 0.000000
# 2 -0.004750 0.007684 -0.004683 0.000000 0.000000 0.000000
# 3 -0.000858 -0.004683 0.011864 0.000000 0.000000 0.000000
# 4 0.000000 0.000000 0.000000 0.031930 0.000000 0.000000
# 5 0.000000 0.000000 0.000000 0.000000 0.046045 0.000000
# 6 0.000000 0.000000 0.000000 0.000000 0.000000 0.070451
#
#
# Mechanical properties :
#
#
# Convention : Reuss Voigt Hill
#
# Bulk Modulus (GPa) = 21.06949 59.63287 40.35118
# Shear Modulus (GPa) = 19.77255 28.18764 23.98009
#
# Velocity S-wave (km/s) = 3.14699 3.75745 3.46569
# Velocity P-wave (km/s) = 4.87421 6.97805 6.01877
#
# Compressibility (1/GPa) = 0.04746199
#
# Stress axis : x y z
#
# Youngs Moduli (GPa) = 20.61974 130.14009 84.28516
#
# Poissons Ratio (x) = 0.61819 0.07235
# Poissons Ratio (y) = 0.09795 0.39473
# Poissons Ratio (z) = 0.01770 0.60948
#
# Static dielectric constant tensor:
#      x y z
#    x 3.373150 0.000000 0.000000 
#    y 0.000000 3.996000 0.000000 
#    z 0.000000 0.000000 3.749650 
# 
# 
# High freq. dielectric constant tensor:
#      x y z
#    x 1.757570 0.000000 0.000000 
#    y 0.000000 1.801030 0.000000 
#    z 0.000000 0.000000 1.775240 
# 
# From -- ./inp_files/11047.got.cif
#   From: 2010.03.12/outbox.cif.g09.slc.cpg/sg36_6_cif.got.tgz:11047.got - 2010.04.14 02:13:53.
