data_PCOD8174506
_publ_section_title
;
Structure prediction by ZEFSAII (Michael W. Deem and Ramdas Pophale) SiO2 
 PCOD8174506
Probable space group: C M C 21
;
_chemical_formula_sum "Si O2"
_cell_formula_units_Z 64
_cell_length_a 9.808780
_cell_length_b 22.689008
_cell_length_c 16.459673
_cell_angle_alpha 90.000000
_cell_angle_beta 90.000000
_cell_angle_gamma 90.000000
_cell_volume 3663.124716
_symmetry_space_group_name_H-M "C M C 21"
_symmetry_group_IT_number 36
_symmetry_cell_setting 'orthorhombic'
loop_
_space_group_symop_operation_xyz
x,y,z
-x,-y,1/2+z
x,-y,1/2+z
-x,y,z
1/2+x,1/2+y,z
1/2-x,1/2-y,1/2+z
1/2+x,1/2-y,1/2+z
1/2-x,1/2+y,z
loop_
_atom_site_type_symbol
_atom_site_label
_atom_site_fract_x
_atom_site_fract_y
_atom_site_fract_z
Si Si1 0.341094 0.844225 0.761630
Si Si2 0.845610 0.127968 0.849305
Si Si3 0.656769 0.881138 0.588798
Si Si4 0.847225 0.323577 0.060734
Si Si5 0.840414 0.215326 0.707102
Si Si6 0.352266 0.699796 0.004148
Si Si7 0.837930 0.593008 0.422156
Si Si8 0.660813 0.040558 0.938548
O O1 0.500000 0.837276 0.777795
O O2 0.314627 0.889413 0.685287
O O3 0.284665 0.777961 0.742981
O O4 0.274828 0.874338 0.842140
O O5 0.813880 0.160027 0.765530
O O6 0.821903 0.179010 0.914127
O O7 0.739391 0.075891 0.867990
O O8 0.000000 0.102754 0.851533
O O9 0.500000 0.866035 0.573999
O O10 0.738228 0.822483 0.565881
O O11 0.699442 0.935801 0.529963
O O12 0.743974 0.304860 0.129775
O O13 0.000000 0.337243 0.095410
O O14 0.854966 0.269799 0.997756
O O15 0.789582 0.377165 0.006450
O O16 0.000000 0.221777 0.685112
O O17 0.500000 0.675880 0.034443
O O18 0.787255 0.525945 0.428725
O O19 0.000000 0.595209 0.416840
O O20 0.500000 0.046793 0.922912
#
# Coordination Sequence:
#
# PCOD8174506 Si02
#       8
#     8   8   8   8   8   8   8   8
#     4   9  16  29  51  74  97 129 167 203 243 296
#     4   9  18  32  51  72  95 128 165 201 242 296
#     4   9  16  28  49  74  96 124 163 205 239 282
#     4  10  19  31  49  73 103 130 158 202 251 295
#     4  10  19  32  51  75 100 128 165 203 246 302
#     4   9  16  28  48  72  97 125 156 195 247 295
#     4   9  18  33  50  73 102 134 168 204 245 296
#     4   9  18  33  51  73 100 128 166 207 243 286
#
# _framework density 17.471423000000001
#
# number of rings (size 3 to 8) (size 9 to 14) (size 15 to 20)
#    0.000    2.750    1.250    0.750    0.000    3.500 
#    2.250    0.625    0.000    4.500    0.000    0.000 
#    0.000    0.000    0.000    0.000    0.000    0.000 
#
# Total GULP energy -396472.233611 kJ/mol
# GULP energy per Si atom -12389.757300 kJ/mol
# Density = 1.743166 g / cm^3
# Si number density = 17.471423 Si / 1000 Ang^3
#
#
#
# Elastic Constant Matrix: (Units=GPa)
#
#
# Indices 1 2 3 4 5 6 
#
# 1 42.6728 36.4878 33.8959 0.0000 0.0000 0.0000
# 2 36.4878 122.9367 62.3180 0.0000 0.0000 0.0000
# 3 33.8959 62.3180 93.6772 0.0000 0.0000 0.0000
# 4 0.0000 0.0000 0.0000 24.3070 0.0000 0.0000
# 5 0.0000 0.0000 0.0000 0.0000 22.4638 0.0000
# 6 0.0000 0.0000 0.0000 0.0000 0.0000 19.2155
#
#
#
# Elastic Compliance Matrix: (Units=1/GPa)
#
#
# Indices 1 2 3 4 5 6 
#
# 1 0.035684 -0.006105 -0.008851 0.000000 0.000000 0.000000
# 2 -0.006105 0.013317 -0.006650 0.000000 0.000000 0.000000
# 3 -0.008851 -0.006650 0.018302 0.000000 0.000000 0.000000
# 4 0.000000 0.000000 0.000000 0.041140 0.000000 0.000000
# 5 0.000000 0.000000 0.000000 0.000000 0.044516 0.000000
# 6 0.000000 0.000000 0.000000 0.000000 0.000000 0.052041
#
#
# Mechanical properties :
#
#
# Convention : Reuss Voigt Hill
#
# Bulk Modulus (GPa) = 41.50820 58.29889 49.90354
# Shear Modulus (GPa) = 19.51272 21.63626 20.57449
#
# Velocity S-wave (km/s) = 3.34554 3.52288 3.43535
# Velocity P-wave (km/s) = 6.22357 7.07023 6.66037
#
# Compressibility (1/GPa) = 0.02409163
#
# Stress axis : x y z
#
# Youngs Moduli (GPa) = 28.02349 75.09063 54.64001
#
# Poissons Ratio (x) = 0.45839 0.48361
# Poissons Ratio (y) = 0.17107 0.36337
# Poissons Ratio (z) = 0.24803 0.49938
#
# Static dielectric constant tensor:
#      x y z
#    x 3.101770 0.000000 0.000000 
#    y 0.000000 3.345190 0.000000 
#    z 0.000000 0.000000 3.383330 
# 
# 
# High freq. dielectric constant tensor:
#      x y z
#    x 1.646230 0.000000 0.000000 
#    y 0.000000 1.667360 0.000000 
#    z 0.000000 0.000000 1.676120 
# 
# From -- ./inp_files/13997.got.cif
#   From: 2010.03.12/outbox.cif.g09.slc.cpg/sg36_7_cif.got.tgz:13997.got - 2010.04.14 02:13:53.
