data_PCOD8174983
_publ_section_title
;
Structure prediction by ZEFSAII (Michael W. Deem and Ramdas Pophale) SiO2 
 PCOD8174983
Probable space group: C M C 21
;
_chemical_formula_sum "Si O2"
_cell_formula_units_Z 48
_cell_length_a 13.645160
_cell_length_b 11.776913
_cell_length_c 15.023036
_cell_angle_alpha 90.000000
_cell_angle_beta 90.000000
_cell_angle_gamma 90.000000
_cell_volume 2414.169769
_symmetry_space_group_name_H-M "C M C 21"
_symmetry_group_IT_number 36
_symmetry_cell_setting 'orthorhombic'
loop_
_space_group_symop_operation_xyz
x,y,z
-x,-y,1/2+z
x,-y,1/2+z
-x,y,z
1/2+x,1/2+y,z
1/2-x,1/2-y,1/2+z
1/2+x,1/2-y,1/2+z
1/2-x,1/2+y,z
loop_
_atom_site_type_symbol
_atom_site_label
_atom_site_fract_x
_atom_site_fract_y
_atom_site_fract_z
Si Si1 0.390026 0.328439 0.501680
Si Si2 0.699859 0.894974 0.920488
Si Si3 0.887407 0.867629 0.190433
Si Si4 0.248792 0.984997 0.589982
Si Si5 0.606628 0.522889 0.356491
Si Si6 0.387424 0.888281 0.736002
O O1 0.500000 0.295856 0.534730
O O2 0.334829 0.221575 0.461899
O O3 0.324926 0.377397 0.582792
O O4 0.397501 0.422668 0.426943
O O5 0.811377 0.884749 0.882637
O O6 0.631769 0.929320 0.837050
O O7 0.694940 0.992573 0.996449
O O8 0.859043 0.744413 0.228131
O O9 0.000000 0.868252 0.157495
O O10 0.815687 0.901365 0.109396
O O11 0.868245 0.965330 0.262738
O O12 0.326905 0.963448 0.666856
O O13 0.500000 0.583553 0.352669
O O14 0.500000 0.908882 0.712852
#
# Coordination Sequence:
#
# PCOD8174983 Si02
#       6
#     8   8   8   8   8   8
#     4  10  20  37  60  86 114 153 196 236 292 355
#     4  11  21  37  61  87 121 156 195 241 295 358
#     4  10  19  37  62  85 113 150 196 247 295 346
#     4  11  23  38  59  92 118 150 196 258 293 345
#     4   9  18  34  60  87 110 145 197 243 285 343
#     4  11  23  39  60  85 118 162 202 239 298 363
#
# _framework density 19.882611000000001
#
# number of rings (size 3 to 8) (size 9 to 14) (size 15 to 20)
#    0.000    1.667    3.333    2.000    0.000    2.000 
#    0.000    0.833    0.000    7.000    0.000    0.000 
#    0.000    0.000    0.000    0.000    0.000    0.000 
#
# Total GULP energy -297545.202482 kJ/mol
# GULP energy per Si atom -12397.716770 kJ/mol
# Density = 1.983736 g / cm^3
# Si number density = 19.882611 Si / 1000 Ang^3
#
#
#
# Elastic Constant Matrix: (Units=GPa)
#
#
# Indices 1 2 3 4 5 6 
#
# 1 117.4654 54.7251 41.3577 0.0000 0.0000 0.0000
# 2 54.7251 53.6949 33.7220 0.0000 0.0000 0.0000
# 3 41.3577 33.7220 100.0828 0.0000 0.0000 0.0000
# 4 0.0000 0.0000 0.0000 27.3038 0.0000 0.0000
# 5 0.0000 0.0000 0.0000 0.0000 23.7292 0.0000
# 6 0.0000 0.0000 0.0000 0.0000 0.0000 -9.6708
#
#
#
# Elastic Compliance Matrix: (Units=1/GPa)
#
#
# Indices 1 2 3 4 5 6 
#
# 1 0.016374 -0.015778 -0.001450 0.000000 0.000000 0.000000
# 2 -0.015778 0.038825 -0.006562 0.000000 0.000000 0.000000
# 3 -0.001450 -0.006562 0.012802 0.000000 0.000000 0.000000
# 4 0.000000 0.000000 0.000000 0.036625 0.000000 0.000000
# 5 0.000000 0.000000 0.000000 0.000000 0.042142 0.000000
# 6 0.000000 0.000000 0.000000 0.000000 0.000000 -0.103404
#
#
# Mechanical properties :
#
#
# Convention : Reuss Voigt Hill
#
# Bulk Modulus (GPa) = 48.96734 58.98365 53.97550
# Shear Modulus (GPa) = 51.15024 17.70168 34.42596
#
# Velocity S-wave (km/s) = 5.07759 2.98704 4.16560
# Velocity P-wave (km/s) = 7.68490 6.45189 7.09523
#
# Compressibility (1/GPa) = 0.02042177
#
# Stress axis : x y z
#
# Youngs Moduli (GPa) = 61.07129 25.75651 78.11273
#
# Poissons Ratio (x) = 0.40638 0.11329
# Poissons Ratio (y) = 0.96356 0.51257
# Poissons Ratio (z) = 0.08857 0.16901
#
# Static dielectric constant tensor:
#      x y z
#    x 4.047860 0.000000 0.000000 
#    y 0.000000 3.355070 0.000000 
#    z 0.000000 0.000000 3.728520 
# 
# 
# High freq. dielectric constant tensor:
#      x y z
#    x 1.785530 0.000000 0.000000 
#    y 0.000000 1.743610 0.000000 
#    z 0.000000 0.000000 1.781390 
# 
# From -- ./inp_files/12076.got.cif
#   From: 2010.03.12/outbox.cif.g09.slc.cpg/sg36_7_cif.got.tgz:12076.got - 2010.04.14 02:13:53.
