data_PCOD8174194
_publ_section_title
;
Structure prediction by ZEFSAII (Michael W. Deem and Ramdas Pophale) SiO2 
 PCOD8174194
Probable space group: C M C 21
;
_chemical_formula_sum "Si O2"
_cell_formula_units_Z 64
_cell_length_a 8.891795
_cell_length_b 19.058511
_cell_length_c 20.488196
_cell_angle_alpha 90.000000
_cell_angle_beta 90.000000
_cell_angle_gamma 90.000000
_cell_volume 3472.019285
_symmetry_space_group_name_H-M "C M C 21"
_symmetry_group_IT_number 36
_symmetry_cell_setting 'orthorhombic'
loop_
_space_group_symop_operation_xyz
x,y,z
-x,-y,1/2+z
x,-y,1/2+z
-x,y,z
1/2+x,1/2+y,z
1/2-x,1/2-y,1/2+z
1/2+x,1/2-y,1/2+z
1/2-x,1/2+y,z
loop_
_atom_site_type_symbol
_atom_site_label
_atom_site_fract_x
_atom_site_fract_y
_atom_site_fract_z
Si Si1 0.175392 0.432095 0.687160
Si Si2 0.172315 0.001629 0.445843
Si Si3 0.678205 0.282819 0.714154
Si Si4 0.821884 0.687916 0.339598
Si Si5 0.827270 0.595287 0.045903
Si Si6 0.174899 0.040534 0.306654
Si Si7 0.323954 0.247552 0.087740
Si Si8 0.323837 0.341375 0.966709
O O1 0.264428 0.360279 0.697668
O O2 0.197326 0.452793 0.611155
O O3 0.251209 0.487963 0.738326
O O4 0.000000 0.421651 0.703376
O O5 0.194365 0.987715 0.367839
O O6 0.236010 0.078366 0.465822
O O7 0.000000 0.998924 0.465935
O O8 0.250645 0.939317 0.483946
O O9 0.500000 0.278732 0.718519
O O10 0.749662 0.260578 0.784377
O O11 0.737418 0.233593 0.655041
O O12 0.767554 0.609659 0.324331
O O13 0.761411 0.705665 0.412172
O O14 0.000000 0.694892 0.337568
O O15 0.764535 0.673807 0.057769
O O16 0.000000 0.600730 0.027546
O O17 0.000000 0.058918 0.296186
O O18 0.500000 0.240853 0.103826
O O19 0.288641 0.309622 0.037385
O O20 0.500000 0.339170 0.949526
#
# Coordination Sequence:
#
# PCOD8174194 Si02
#       8
#     8   8   8   8   8   8   8   8
#     4   9  16  27  43  65  90 117 152 190 229 268
#     4   9  18  30  46  69  94 121 151 185 227 272
#     4  10  17  26  43  67  93 119 151 190 230 271
#     4  10  17  26  43  67  93 119 151 190 230 271
#     4   9  18  30  46  69  94 121 151 185 227 272
#     4   9  16  27  43  65  90 117 152 190 229 268
#     4   9  18  33  50  68  93 123 155 191 230 272
#     4   9  18  33  50  68  93 123 155 191 230 272
#
# _framework density 18.433076
#
# number of rings (size 3 to 8) (size 9 to 14) (size 15 to 20)
#    0.000    2.750    0.000    6.000    0.000    5.500 
#    0.000    0.000    0.000    1.500    0.000    3.500 
#    0.000    0.000    0.000    0.000    0.000    0.000 
#
# Total GULP energy -396456.057793 kJ/mol
# GULP energy per Si atom -12389.251806 kJ/mol
# Density = 1.839112 g / cm^3
# Si number density = 18.433076 Si / 1000 Ang^3
#
#
#
# Elastic Constant Matrix: (Units=GPa)
#
#
# Indices 1 2 3 4 5 6 
#
# 1 85.0510 -1.9875 14.3178 0.0000 0.0000 0.0000
# 2 -1.9875 17.1238 -9.5413 0.0000 0.0000 0.0000
# 3 14.3178 -9.5413 25.3448 0.0000 0.0000 0.0000
# 4 0.0000 0.0000 0.0000 22.5305 0.0000 0.0000
# 5 0.0000 0.0000 0.0000 0.0000 38.6826 0.0000
# 6 0.0000 0.0000 0.0000 0.0000 0.0000 15.0249
#
#
#
# Elastic Compliance Matrix: (Units=1/GPa)
#
#
# Indices 1 2 3 4 5 6 
#
# 1 0.013139 -0.003304 -0.008667 0.000000 0.000000 0.000000
# 2 -0.003304 0.074730 0.029999 0.000000 0.000000 0.000000
# 3 -0.008667 0.029999 0.055645 0.000000 0.000000 0.000000
# 4 0.000000 0.000000 0.000000 0.044384 0.000000 0.000000
# 5 0.000000 0.000000 0.000000 0.000000 0.025851 0.000000
# 6 0.000000 0.000000 0.000000 0.000000 0.000000 0.066556
#
#
# Mechanical properties :
#
#
# Convention : Reuss Voigt Hill
#
# Bulk Modulus (GPa) = 5.56878 14.78864 10.17871
# Shear Modulus (GPa) = 16.44161 23.56296 20.00228
#
# Velocity S-wave (km/s) = 2.98981 3.57921 3.29770
# Velocity P-wave (km/s) = 3.86604 5.01211 4.47591
#
# Compressibility (1/GPa) = 0.17957249
#
# Stress axis : x y z
#
# Youngs Moduli (GPa) = 76.10696 13.38150 17.97098
#
# Poissons Ratio (x) = 0.04421 0.15575
# Poissons Ratio (y) = 0.25145 -0.53912
# Poissons Ratio (z) = 0.65958 -0.40144
#
# Static dielectric constant tensor:
#      x y z
#    x 3.426400 0.000000 0.000000 
#    y 0.000000 2.832150 0.000000 
#    z 0.000000 0.000000 4.423420 
# 
# 
# High freq. dielectric constant tensor:
#      x y z
#    x 1.717150 0.000000 0.000000 
#    y 0.000000 1.637820 0.000000 
#    z 0.000000 0.000000 1.740710 
# 
# From -- ./inp_files/15778.got.cif
#   From: 2010.03.12/outbox.cif.g09.slc.cpg/sg36_8_cif.got.tgz:15778.got - 2010.04.14 02:13:53.
