data_PCOD8174664
_publ_section_title
;
Structure prediction by ZEFSAII (Michael W. Deem and Ramdas Pophale) SiO2 
 PCOD8174664
Probable space group: C M C 21
;
_chemical_formula_sum "Si O2"
_cell_formula_units_Z 48
_cell_length_a 8.757599
_cell_length_b 18.917153
_cell_length_c 15.154051
_cell_angle_alpha 90.000000
_cell_angle_beta 90.000000
_cell_angle_gamma 90.000000
_cell_volume 2510.554053
_symmetry_space_group_name_H-M "C M C 21"
_symmetry_group_IT_number 36
_symmetry_cell_setting 'orthorhombic'
loop_
_space_group_symop_operation_xyz
x,y,z
-x,-y,1/2+z
x,-y,1/2+z
-x,y,z
1/2+x,1/2+y,z
1/2-x,1/2-y,1/2+z
1/2+x,1/2-y,1/2+z
1/2-x,1/2+y,z
loop_
_atom_site_type_symbol
_atom_site_label
_atom_site_fract_x
_atom_site_fract_y
_atom_site_fract_z
Si Si1 0.323618 0.588584 0.242660
Si Si2 0.667039 0.795925 0.964497
Si Si3 0.669125 0.041704 0.413020
Si Si4 0.823588 0.982301 0.089052
Si Si5 0.682692 0.838978 0.145458
Si Si6 0.317325 0.764211 0.779635
O O1 0.500000 0.601942 0.264461
O O2 0.256634 0.537894 0.319571
O O3 0.301170 0.551795 0.148157
O O4 0.240261 0.663867 0.234741
O O5 0.500000 0.761765 0.974693
O O6 0.652965 0.877755 0.940618
O O7 0.748343 0.758435 0.880919
O O8 0.747167 0.793383 0.060665
O O9 0.500000 0.008110 0.402158
O O10 0.758792 0.000905 0.491216
O O11 0.734724 0.919523 0.138346
O O12 0.000000 0.960687 0.080658
O O13 0.500000 0.836404 0.148403
O O14 0.754361 0.804857 0.232015
O O15 0.500000 0.765510 0.779769
#
# Coordination Sequence:
#
# PCOD8174664 Si02
#       6
#     8   8   8   8   8   8
#     4  10  20  34  53  77 104 135 172 212 254 302
#     4   7  14  29  48  69  94 127 163 199 243 297
#     4   9  17  31  52  75 100 133 171 209 251 303
#     4  10  20  34  53  77 104 135 172 212 254 302
#     4  10  19  33  53  76 102 133 170 211 256 304
#     4  10  19  33  53  76 102 133 170 211 256 304
#
# _framework density 19.119285000000001
#
# number of rings (size 3 to 8) (size 9 to 14) (size 15 to 20)
#    0.000    2.667    0.000    4.500    0.000    2.667 
#    0.000    4.167    0.000    4.000    0.000    0.000 
#    0.000    0.000    0.000    0.000    0.000    0.000 
#
# Total GULP energy -297376.349120 kJ/mol
# GULP energy per Si atom -12390.681213 kJ/mol
# Density = 1.907577 g / cm^3
# Si number density = 19.119285 Si / 1000 Ang^3
#
#
#
# Elastic Constant Matrix: (Units=GPa)
#
#
# Indices 1 2 3 4 5 6 
#
# 1 91.4872 6.9516 10.2251 0.0000 0.0000 0.0000
# 2 6.9516 22.0388 -10.2410 0.0000 0.0000 0.0000
# 3 10.2251 -10.2410 31.9969 0.0000 0.0000 0.0000
# 4 0.0000 0.0000 0.0000 29.3582 0.0000 0.0000
# 5 0.0000 0.0000 0.0000 0.0000 30.7308 0.0000
# 6 0.0000 0.0000 0.0000 0.0000 0.0000 24.9458
#
#
#
# Elastic Compliance Matrix: (Units=1/GPa)
#
#
# Indices 1 2 3 4 5 6 
#
# 1 0.012100 -0.006594 -0.005977 0.000000 0.000000 0.000000
# 2 -0.006594 0.056895 0.020317 0.000000 0.000000 0.000000
# 3 -0.005977 0.020317 0.039666 0.000000 0.000000 0.000000
# 4 0.000000 0.000000 0.000000 0.034062 0.000000 0.000000
# 5 0.000000 0.000000 0.000000 0.000000 0.032541 0.000000
# 6 0.000000 0.000000 0.000000 0.000000 0.000000 0.040087
#
#
# Mechanical properties :
#
#
# Convention : Reuss Voigt Hill
#
# Bulk Modulus (GPa) = 8.05455 17.71047 12.88251
# Shear Modulus (GPa) = 20.72604 26.24610 23.48607
#
# Velocity S-wave (km/s) = 3.29605 3.70909 3.50865
# Velocity P-wave (km/s) = 4.32518 5.25608 4.81319
#
# Compressibility (1/GPa) = 0.12415351
#
# Stress axis : x y z
#
# Youngs Moduli (GPa) = 82.64766 17.57610 25.21059
#
# Poissons Ratio (x) = 0.11590 0.15069
# Poissons Ratio (y) = 0.54497 -0.51221
# Poissons Ratio (z) = 0.49399 -0.35710
#
# Static dielectric constant tensor:
#      x y z
#    x 3.536730 0.000000 0.000000 
#    y 0.000000 3.004030 0.000000 
#    z 0.000000 0.000000 4.047560 
# 
# 
# High freq. dielectric constant tensor:
#      x y z
#    x 1.741930 0.000000 0.000000 
#    y 0.000000 1.696460 0.000000 
#    z 0.000000 0.000000 1.760110 
# 
# From -- ./inp_files/6738.got.cif
#   From: 2010.03.12/outbox.cif.g09.slc.cpg/sg36_4_cif.got.tgz:6738.got - 2010.04.14 02:13:53.
