data_PCOD8174670
_publ_section_title
;
Structure prediction by ZEFSAII (Michael W. Deem and Ramdas Pophale) SiO2 
 PCOD8174670
Probable space group: C M C 21
;
_chemical_formula_sum "Si O2"
_cell_formula_units_Z 64
_cell_length_a 8.838697
_cell_length_b 27.923356
_cell_length_c 13.931116
_cell_angle_alpha 90.000000
_cell_angle_beta 90.000000
_cell_angle_gamma 90.000000
_cell_volume 3438.284170
_symmetry_space_group_name_H-M "C M C 21"
_symmetry_group_IT_number 36
_symmetry_cell_setting 'orthorhombic'
loop_
_space_group_symop_operation_xyz
x,y,z
-x,-y,1/2+z
x,-y,1/2+z
-x,y,z
1/2+x,1/2+y,z
1/2-x,1/2-y,1/2+z
1/2+x,1/2-y,1/2+z
1/2-x,1/2+y,z
loop_
_atom_site_type_symbol
_atom_site_label
_atom_site_fract_x
_atom_site_fract_y
_atom_site_fract_z
Si Si1 0.177932 0.272481 0.827290
Si Si2 0.822532 0.315899 0.233795
Si Si3 0.177782 0.859139 0.728420
Si Si4 0.175911 0.674313 0.517896
Si Si5 0.173688 0.982164 0.452867
Si Si6 0.827287 0.890571 0.351027
Si Si7 0.822017 0.911822 0.919933
Si Si8 0.822042 0.600808 0.040095
O O1 0.230493 0.218858 0.804880
O O2 0.271927 0.305703 0.754895
O O3 0.000000 0.278535 0.808862
O O4 0.219669 0.286174 0.937532
O O5 0.777039 0.306392 0.122906
O O6 0.771225 0.369637 0.263199
O O7 0.000000 0.309111 0.249952
O O8 0.224603 0.894508 0.814341
O O9 0.272009 0.875278 0.637791
O O10 0.000000 0.859992 0.706171
O O11 0.257085 0.623796 0.499643
O O12 0.000000 0.662787 0.514948
O O13 0.183754 0.949044 0.355661
O O14 0.269079 0.955240 0.536551
O O15 0.000000 0.985723 0.487273
O O16 0.243052 0.034588 0.434024
O O17 0.758942 0.870861 0.452202
O O18 0.000000 0.873382 0.340365
O O19 0.000000 0.911885 0.931700
O O20 0.000000 0.604615 0.028060
#
# Coordination Sequence:
#
# PCOD8174670 Si02
#       8
#     8   8   8   8   8   8   8   8
#     4  10  21  38  58  80 109 147 191 233 280 336
#     4  11  22  38  58  83 114 148 188 233 287 343
#     4  10  19  34  56  82 111 144 182 231 283 333
#     4   9  21  39  57  81 114 147 181 230 286 336
#     4   8  17  35  54  77 109 145 183 227 277 323
#     4   9  19  36  55  76 109 144 180 229 278 322
#     4   9  18  35  59  82 109 146 188 229 273 331
#     4  10  19  33  53  79 109 143 183 224 272 330
#
# _framework density 18.613937
#
# number of rings (size 3 to 8) (size 9 to 14) (size 15 to 20)
#    0.750    1.750    0.000    2.250    0.000    3.500 
#    2.250    3.750    0.000    0.000    0.000    0.000 
#    0.000    0.000    0.000    0.000    0.000    0.000 
#
# Total GULP energy -396622.403484 kJ/mol
# GULP energy per Si atom -12394.450109 kJ/mol
# Density = 1.857157 g / cm^3
# Si number density = 18.613937 Si / 1000 Ang^3
#
#
#
# Elastic Constant Matrix: (Units=GPa)
#
#
# Indices 1 2 3 4 5 6 
#
# 1 57.7215 17.3152 29.8552 0.0000 0.0000 0.0000
# 2 17.3152 81.9377 36.2688 0.0000 0.0000 0.0000
# 3 29.8552 36.2688 91.8032 0.0000 0.0000 0.0000
# 4 0.0000 0.0000 0.0000 19.7004 0.0000 0.0000
# 5 0.0000 0.0000 0.0000 0.0000 30.0808 0.0000
# 6 0.0000 0.0000 0.0000 0.0000 0.0000 26.6145
#
#
#
# Elastic Compliance Matrix: (Units=1/GPa)
#
#
# Indices 1 2 3 4 5 6 
#
# 1 0.021025 -0.001717 -0.006159 0.000000 0.000000 0.000000
# 2 -0.001717 0.014931 -0.005341 0.000000 0.000000 0.000000
# 3 -0.006159 -0.005341 0.015006 0.000000 0.000000 0.000000
# 4 0.000000 0.000000 0.000000 0.050760 0.000000 0.000000
# 5 0.000000 0.000000 0.000000 0.000000 0.033244 0.000000
# 6 0.000000 0.000000 0.000000 0.000000 0.000000 0.037573
#
#
# Mechanical properties :
#
#
# Convention : Reuss Voigt Hill
#
# Bulk Modulus (GPa) = 40.76812 44.26008 42.51410
# Shear Modulus (GPa) = 24.13714 25.14737 24.64225
#
# Velocity S-wave (km/s) = 3.60491 3.67958 3.64244
# Velocity P-wave (km/s) = 6.26711 6.47163 6.37019
#
# Compressibility (1/GPa) = 0.02452897
#
# Stress axis : x y z
#
# Youngs Moduli (GPa) = 47.56158 66.97427 66.64065
#
# Poissons Ratio (x) = 0.11498 0.41047
# Poissons Ratio (y) = 0.08165 0.35590
# Poissons Ratio (z) = 0.29295 0.35768
#
# Static dielectric constant tensor:
#      x y z
#    x 3.367600 0.000000 0.000000 
#    y 0.000000 3.495430 0.000000 
#    z 0.000000 0.000000 3.331110 
# 
# 
# High freq. dielectric constant tensor:
#      x y z
#    x 1.726960 0.000000 0.000000 
#    y 0.000000 1.714830 0.000000 
#    z 0.000000 0.000000 1.709160 
# 
# From -- ./inp_files/11216.got.cif
#   From: 2010.03.12/outbox.cif.g09.slc.cpg/sg36_6_cif.got.tgz:11216.got - 2010.04.14 02:13:53.
