data_PCOD8174589
_publ_section_title
;
Structure prediction by ZEFSAII (Michael W. Deem and Ramdas Pophale) SiO2 
 PCOD8174589
Probable space group: C M C 21
;
_chemical_formula_sum "Si O2"
_cell_formula_units_Z 48
_cell_length_a 8.990329
_cell_length_b 18.602324
_cell_length_c 15.067321
_cell_angle_alpha 90.000000
_cell_angle_beta 90.000000
_cell_angle_gamma 90.000000
_cell_volume 2519.874026
_symmetry_space_group_name_H-M "C M C 21"
_symmetry_group_IT_number 36
_symmetry_cell_setting 'orthorhombic'
loop_
_space_group_symop_operation_xyz
x,y,z
-x,-y,1/2+z
x,-y,1/2+z
-x,y,z
1/2+x,1/2+y,z
1/2-x,1/2-y,1/2+z
1/2+x,1/2-y,1/2+z
1/2-x,1/2+y,z
loop_
_atom_site_type_symbol
_atom_site_label
_atom_site_fract_x
_atom_site_fract_y
_atom_site_fract_z
Si Si1 0.327372 0.340169 0.474950
Si Si2 0.164181 0.040753 0.194099
Si Si3 0.327711 0.228654 0.327017
Si Si4 0.175365 0.486184 0.521574
Si Si5 0.323768 0.583679 0.381830
Si Si6 0.336539 0.290980 0.658021
O O1 0.500000 0.363157 0.484564
O O2 0.296619 0.300714 0.382490
O O3 0.229119 0.411486 0.479135
O O4 0.285819 0.284418 0.555019
O O5 0.277126 0.004513 0.124711
O O6 0.217122 0.033098 0.296566
O O7 0.155664 0.124873 0.176439
O O8 0.000000 0.006456 0.181237
O O9 0.500000 0.206771 0.328798
O O10 0.232431 0.164511 0.368196
O O11 0.278875 0.246088 0.225631
O O12 0.245501 0.552031 0.468160
O O13 0.000000 0.490527 0.515468
O O14 0.500000 0.585971 0.395516
O O15 0.500000 0.256239 0.672304
#
# Coordination Sequence:
#
# PCOD8174589 Si02
#       6
#     8   8   8   8   8   8
#     4   9  19  35  52  71 101 137 166 198 247 302
#     4   8  16  32  52  71  95 132 170 202 244 300
#     4  10  19  32  52  77 101 127 165 210 250 290
#     4  11  21  32  52  79 103 129 166 212 252 292
#     4  10  20  35  54  74 101 136 169 203 248 302
#     4   8  15  30  50  70  95 131 168 199 241 298
#
# _framework density 19.048572
#
# number of rings (size 3 to 8) (size 9 to 14) (size 15 to 20)
#    0.000    2.667    0.000    4.500    0.000    8.000 
#    0.000    1.667    0.000    4.000    0.000    0.000 
#    0.000    0.000    0.000    0.000    0.000    0.000 
#
# Total GULP energy -297483.214492 kJ/mol
# GULP energy per Si atom -12395.133937 kJ/mol
# Density = 1.900522 g / cm^3
# Si number density = 19.048572 Si / 1000 Ang^3
#
#
#
# Elastic Constant Matrix: (Units=GPa)
#
#
# Indices 1 2 3 4 5 6 
#
# 1 92.8083 11.9294 9.0417 0.0000 0.0000 0.0000
# 2 11.9294 16.4408 -10.5383 0.0000 0.0000 0.0000
# 3 9.0417 -10.5383 32.4576 0.0000 0.0000 0.0000
# 4 0.0000 0.0000 0.0000 27.8210 0.0000 0.0000
# 5 0.0000 0.0000 0.0000 0.0000 32.5150 0.0000
# 6 0.0000 0.0000 0.0000 0.0000 0.0000 23.2640
#
#
#
# Elastic Compliance Matrix: (Units=1/GPa)
#
#
# Indices 1 2 3 4 5 6 
#
# 1 0.013639 -0.015573 -0.008856 0.000000 0.000000 0.000000
# 2 -0.015573 0.094591 0.035050 0.000000 0.000000 0.000000
# 3 -0.008856 0.035050 0.044656 0.000000 0.000000 0.000000
# 4 0.000000 0.000000 0.000000 0.035944 0.000000 0.000000
# 5 0.000000 0.000000 0.000000 0.000000 0.030755 0.000000
# 6 0.000000 0.000000 0.000000 0.000000 0.000000 0.042985
#
#
# Mechanical properties :
#
#
# Convention : Reuss Voigt Hill
#
# Bulk Modulus (GPa) = 5.74288 18.06359 11.90324
# Shear Modulus (GPa) = 16.70163 25.47158 21.08661
#
# Velocity S-wave (km/s) = 2.96428 3.66073 3.33076
# Velocity P-wave (km/s) = 3.83893 5.23177 4.58851
#
# Compressibility (1/GPa) = 0.17412851
#
# Stress axis : x y z
#
# Youngs Moduli (GPa) = 73.31678 10.57184 22.39317
#
# Poissons Ratio (x) = 0.16464 0.19831
# Poissons Ratio (y) = 1.14178 -0.78488
# Poissons Ratio (z) = 0.64928 -0.37054
#
# Static dielectric constant tensor:
#      x y z
#    x 3.481450 0.000000 0.000000 
#    y 0.000000 2.962180 0.000000 
#    z 0.000000 0.000000 4.167890 
# 
# 
# High freq. dielectric constant tensor:
#      x y z
#    x 1.739620 0.000000 0.000000 
#    y 0.000000 1.691510 0.000000 
#    z 0.000000 0.000000 1.756710 
# 
# From -- ./inp_files/6748.got.cif
#   From: 2010.03.12/outbox.cif.g09.slc.cpg/sg36_4_cif.got.tgz:6748.got - 2010.04.14 02:13:53.
