data_PCOD8174686
_publ_section_title
;
Structure prediction by ZEFSAII (Michael W. Deem and Ramdas Pophale) SiO2 
 PCOD8174686
Probable space group: C M C 21
;
_chemical_formula_sum "Si O2"
_cell_formula_units_Z 64
_cell_length_a 14.924263
_cell_length_b 11.376255
_cell_length_c 17.432332
_cell_angle_alpha 90.000000
_cell_angle_beta 90.000000
_cell_angle_gamma 90.000000
_cell_volume 2959.700054
_symmetry_space_group_name_H-M "C M C 21"
_symmetry_group_IT_number 36
_symmetry_cell_setting 'orthorhombic'
loop_
_space_group_symop_operation_xyz
x,y,z
-x,-y,1/2+z
x,-y,1/2+z
-x,y,z
1/2+x,1/2+y,z
1/2-x,1/2-y,1/2+z
1/2+x,1/2-y,1/2+z
1/2-x,1/2+y,z
loop_
_atom_site_type_symbol
_atom_site_label
_atom_site_fract_x
_atom_site_fract_y
_atom_site_fract_z
Si Si1 0.402499 0.653978 0.538710
Si Si2 0.722945 0.028690 0.160922
Si Si3 0.398919 0.945865 0.933466
Si Si4 0.399413 0.405923 0.202744
Si Si5 0.896583 0.326268 0.777379
Si Si6 0.098747 0.120478 0.016631
Si Si7 0.598768 0.159547 0.599868
Si Si8 0.283717 0.144211 0.992333
O O1 0.500000 0.688290 0.504961
O O2 0.397882 0.681609 0.628905
O O3 0.386061 0.515223 0.535445
O O4 0.327786 0.726441 0.493051
O O5 0.822220 0.004996 0.195715
O O6 0.673889 0.900930 0.152250
O O7 0.668571 0.106327 0.219993
O O8 0.722268 0.091150 0.078319
O O9 0.500000 0.991124 0.923541
O O10 0.370043 0.863834 0.863128
O O11 0.387758 0.873224 0.010897
O O12 0.338110 0.062232 0.934830
O O13 0.500000 0.464058 0.209423
O O14 0.381792 0.315177 0.272490
O O15 0.000000 0.357577 0.758169
O O16 0.000000 0.142270 0.978712
O O17 0.106732 0.197665 0.096075
O O18 0.181486 0.156552 0.961171
O O19 0.500000 0.120660 0.629228
#
# Coordination Sequence:
#
# PCOD8174686 Si02
#       8
#     8   8   8   8   8   8   8   8
#     4  10  19  33  54  84 113 144 186 233 280 336
#     4  11  20  32  59  88 113 140 189 240 285 331
#     4   9  20  38  58  84 115 148 189 236 289 342
#     4  10  20  34  54  81 117 152 187 229 281 343
#     4  10  21  39  59  81 112 154 194 230 280 349
#     4  10  21  35  53  82 118 149 183 230 287 343
#     4   9  19  35  57  87 118 147 184 240 295 338
#     4  11  20  32  58  85 114 144 186 238 287 330
#
# _framework density 21.623813999999999
#
# number of rings (size 3 to 8) (size 9 to 14) (size 15 to 20)
#    0.000    2.000    2.500    1.500    1.750    1.000 
#    2.250    0.000    0.000    0.000    3.250    0.000 
#    0.000    0.000    0.000    0.000    0.000    0.000 
#
# Total GULP energy -396459.629878 kJ/mol
# GULP energy per Si atom -12389.363434 kJ/mol
# Density = 2.157460 g / cm^3
# Si number density = 21.623814 Si / 1000 Ang^3
#
#
#
# Elastic Constant Matrix: (Units=GPa)
#
#
# Indices 1 2 3 4 5 6 
#
# 1 148.2216 47.2100 16.0360 0.0000 0.0000 0.0000
# 2 47.2100 83.6285 -6.0792 0.0000 0.0000 0.0000
# 3 16.0360 -6.0792 31.6858 0.0000 0.0000 0.0000
# 4 0.0000 0.0000 0.0000 16.6278 0.0000 0.0000
# 5 0.0000 0.0000 0.0000 0.0000 15.1529 0.0000
# 6 0.0000 0.0000 0.0000 0.0000 0.0000 38.1846
#
#
#
# Elastic Compliance Matrix: (Units=1/GPa)
#
#
# Indices 1 2 3 4 5 6 
#
# 1 0.009137 -0.005572 -0.005693 0.000000 0.000000 0.000000
# 2 -0.005572 0.015525 0.005799 0.000000 0.000000 0.000000
# 3 -0.005693 0.005799 0.035554 0.000000 0.000000 0.000000
# 4 0.000000 0.000000 0.000000 0.060140 0.000000 0.000000
# 5 0.000000 0.000000 0.000000 0.000000 0.065994 0.000000
# 6 0.000000 0.000000 0.000000 0.000000 0.000000 0.026189
#
#
# Mechanical properties :
#
#
# Convention : Reuss Voigt Hill
#
# Bulk Modulus (GPa) = 20.29136 41.98548 31.13842
# Shear Modulus (GPa) = 20.84202 27.75101 24.29652
#
# Velocity S-wave (km/s) = 3.10795 3.58628 3.35565
# Velocity P-wave (km/s) = 4.72052 6.05037 5.42634
#
# Compressibility (1/GPa) = 0.04928205
#
# Stress axis : x y z
#
# Youngs Moduli (GPa) = 109.44031 64.41333 28.12634
#
# Poissons Ratio (x) = 0.35892 0.16014
# Poissons Ratio (y) = 0.60981 -0.16309
# Poissons Ratio (z) = 0.62309 -0.37351
#
# Static dielectric constant tensor:
#      x y z
#    x 4.416240 0.000000 0.000000 
#    y 0.000000 3.881760 0.000000 
#    z 0.000000 0.000000 3.449470 
# 
# 
# High freq. dielectric constant tensor:
#      x y z
#    x 1.877020 0.000000 0.000000 
#    y 0.000000 1.850840 0.000000 
#    z 0.000000 0.000000 1.784350 
# 
# From -- ./inp_files/14735.got.cif
#   From: 2010.03.12/outbox.cif.g09.slc.cpg/sg36_8_cif.got.tgz:14735.got - 2010.04.14 02:13:53.
