data_PCOD8174087
_publ_section_title
;
Structure prediction by ZEFSAII (Michael W. Deem and Ramdas Pophale) SiO2 
 PCOD8174087
Probable space group: C M M 2
;
_chemical_formula_sum "Si O2"
_cell_formula_units_Z 32
_cell_length_a 10.514983
_cell_length_b 17.171546
_cell_length_c 9.345022
_cell_angle_alpha 90.000000
_cell_angle_beta 90.000000
_cell_angle_gamma 90.000000
_cell_volume 1687.323288
_symmetry_space_group_name_H-M "C M M 2"
_symmetry_group_IT_number 35
_symmetry_cell_setting 'orthorhombic'
loop_
_space_group_symop_operation_xyz
x,y,z
-x,-y,z
-x,y,z
x,-y,z
1/2+x,1/2+y,z
1/2-x,1/2-y,z
1/2-x,1/2+y,z
1/2+x,1/2-y,z
loop_
_atom_site_type_symbol
_atom_site_label
_atom_site_fract_x
_atom_site_fract_y
_atom_site_fract_z
Si Si1 0.500000 0.908008 0.422251
Si Si2 0.000000 0.593046 0.750626
Si Si3 0.000000 0.914528 0.907530
Si Si4 0.270516 0.093612 0.231616
Si Si5 0.000000 0.085251 0.247310
Si Si6 0.762811 0.341700 0.919530
O O1 0.500000 0.881653 0.585179
O O2 0.624341 0.875198 0.341528
O O3 0.500000 0.000000 0.408527
O O4 0.126054 0.630415 0.815609
O O5 0.000000 0.500000 0.772101
O O6 0.128510 0.871980 0.857233
O O7 0.000000 0.000000 0.837222
O O8 0.000000 0.920912 0.076977
O O9 0.133266 0.126556 0.289946
O O10 0.265882 0.000000 0.219819
O O11 0.299866 0.126411 0.075324
O O12 0.000000 0.000000 0.318263
O O13 0.750000 0.250000 0.926481
#
# Coordination Sequence:
#
# PCOD8174087 Si02
#       6
#     4   4   4   8   4   8
#     4   9  19  33  53  79 108 143 190 231 266 322
#     4  11  22  38  57  81 114 156 194 227 270 333
#     4   9  17  32  51  75 104 138 176 220 272 328
#     4   9  16  31  53  78 105 139 181 230 278 327
#     4   7  12  23  45  71  96 123 160 210 266 313
#     4  11  21  34  56  85 112 141 182 235 285 330
#
# _framework density 18.964948
#
# number of rings (size 3 to 8) (size 9 to 14) (size 15 to 20)
#    0.000    2.500    0.000    5.250    0.000    1.000 
#    0.000    2.500    0.000    4.500    0.000    0.000 
#    0.000    0.000    0.000    0.000    0.000    0.000 
#
# Total GULP energy -198266.114989 kJ/mol
# GULP energy per Si atom -12391.632187 kJ/mol
# Density = 1.892178 g / cm^3
# Si number density = 18.964948 Si / 1000 Ang^3
#
#
#
# Elastic Constant Matrix: (Units=GPa)
#
#
# Indices 1 2 3 4 5 6 
#
# 1 217.7551 40.9418 86.6969 0.0000 0.0000 0.0000
# 2 40.9418 81.5842 26.5140 0.0000 0.0000 0.0000
# 3 86.6969 26.5140 108.6605 0.0000 0.0000 0.0000
# 4 0.0000 0.0000 0.0000 9.1223 0.0000 0.0000
# 5 0.0000 0.0000 0.0000 0.0000 6.7711 0.0000
# 6 0.0000 0.0000 0.0000 0.0000 0.0000 23.0446
#
#
#
# Elastic Compliance Matrix: (Units=1/GPa)
#
#
# Indices 1 2 3 4 5 6 
#
# 1 0.006975 -0.001837 -0.005117 0.000000 0.000000 0.000000
# 2 -0.001837 0.013797 -0.001901 0.000000 0.000000 0.000000
# 3 -0.005117 -0.001901 0.013749 0.000000 0.000000 0.000000
# 4 0.000000 0.000000 0.000000 0.109621 0.000000 0.000000
# 5 0.000000 0.000000 0.000000 0.000000 0.147686 0.000000
# 6 0.000000 0.000000 0.000000 0.000000 0.000000 0.043394
#
#
# Mechanical properties :
#
#
# Convention : Reuss Voigt Hill
#
# Bulk Modulus (GPa) = 59.48226 79.58948 69.53587
# Shear Modulus (GPa) = 13.94561 24.71074 19.32818
#
# Velocity S-wave (km/s) = 2.71465 3.61358 3.19588
# Velocity P-wave (km/s) = 6.42325 7.71157 7.09671
#
# Compressibility (1/GPa) = 0.01681174
#
# Stress axis : x y z
#
# Youngs Moduli (GPa) = 143.36982 72.47952 72.73118
#
# Poissons Ratio (x) = 0.13317 0.37215
# Poissons Ratio (y) = 0.26343 0.13823
# Poissons Ratio (z) = 0.73359 0.13775
#
# Static dielectric constant tensor:
#      x y z
#    x 4.158570 0.000000 0.000000 
#    y 0.000000 3.246640 0.000000 
#    z 0.000000 0.000000 3.190140 
# 
# 
# High freq. dielectric constant tensor:
#      x y z
#    x 1.769560 0.000000 0.000000 
#    y 0.000000 1.711210 0.000000 
#    z 0.000000 0.000000 1.698180 
# 
# From -- ./inp_files/5720.got.cif
#   From: 2010.03.12/outbox.cif.g09.slc.cpg/sg35_3_cif.got.tgz:5720.got - 2010.04.14 02:02:04.
