data_PCOD8174694
_publ_section_title
;
Structure prediction by ZEFSAII (Michael W. Deem and Ramdas Pophale) SiO2 
 PCOD8174694
Probable space group: C M C 21
;
_chemical_formula_sum "Si O2"
_cell_formula_units_Z 64
_cell_length_a 8.546068
_cell_length_b 18.680290
_cell_length_c 20.976828
_cell_angle_alpha 90.000000
_cell_angle_beta 90.000000
_cell_angle_gamma 90.000000
_cell_volume 3348.804352
_symmetry_space_group_name_H-M "C M C 21"
_symmetry_group_IT_number 36
_symmetry_cell_setting 'orthorhombic'
loop_
_space_group_symop_operation_xyz
x,y,z
-x,-y,1/2+z
x,-y,1/2+z
-x,y,z
1/2+x,1/2+y,z
1/2-x,1/2-y,1/2+z
1/2+x,1/2-y,1/2+z
1/2-x,1/2+y,z
loop_
_atom_site_type_symbol
_atom_site_label
_atom_site_fract_x
_atom_site_fract_y
_atom_site_fract_z
Si Si1 0.182325 0.666468 0.103010
Si Si2 0.684748 0.330722 0.113116
Si Si3 0.682739 0.582539 0.986866
Si Si4 0.820390 0.425301 0.220909
Si Si5 0.313468 0.419366 0.993626
Si Si6 0.685668 0.419107 0.718953
Si Si7 0.321380 0.933991 0.361747
Si Si8 0.679689 0.583692 0.357594
O O1 0.233931 0.748572 0.108161
O O2 0.221966 0.628036 0.168824
O O3 0.000000 0.658631 0.088108
O O4 0.279299 0.632355 0.046078
O O5 0.500000 0.340767 0.118121
O O6 0.762260 0.362116 0.176141
O O7 0.753418 0.371990 0.051242
O O8 0.500000 0.584972 0.973507
O O9 0.741196 0.501642 0.002634
O O10 0.772464 0.613156 0.923550
O O11 0.721311 0.497131 0.208704
O O12 0.801055 0.395044 0.293408
O O13 0.000000 0.443926 0.206266
O O14 0.500000 0.416408 0.993044
O O15 0.250627 0.386563 0.925096
O O16 0.500000 0.408095 0.711460
O O17 0.750618 0.392530 0.789021
O O18 0.500000 0.960941 0.368972
O O19 0.199106 0.998725 0.362686
O O20 0.500000 0.604200 0.354293
#
# Coordination Sequence:
#
# PCOD8174694 Si02
#       8
#     8   8   8   8   8   8   8   8
#     4  11  23  36  50  73 107 143 179 221 266 312
#     4  10  21  36  53  73 104 144 179 217 265 314
#     4  10  19  33  56  80 102 133 174 218 262 317
#     4  10  20  34  55  81 107 136 174 220 264 311
#     4   8  15  31  54  77  97 124 167 212 256 307
#     4  10  19  33  55  79 104 137 175 216 265 319
#     4   9  17  30  50  78 108 133 162 209 265 314
#     4   8  15  29  51  77 101 128 168 215 259 310
#
# _framework density 19.111298000000001
#
# number of rings (size 3 to 8) (size 9 to 14) (size 15 to 20)
#    0.000    2.500    0.000    3.375    0.000    4.000 
#    0.000    3.750    0.000    3.000    0.000    0.000 
#    0.000    0.000    0.000    0.000    0.000    0.000 
#
# Total GULP energy -396488.063246 kJ/mol
# GULP energy per Si atom -12390.251976 kJ/mol
# Density = 1.906780 g / cm^3
# Si number density = 19.111298 Si / 1000 Ang^3
#
#
#
# Elastic Constant Matrix: (Units=GPa)
#
#
# Indices 1 2 3 4 5 6 
#
# 1 37.5266 21.6397 25.5545 0.0000 0.0000 0.0000
# 2 21.6397 78.8503 63.5135 0.0000 0.0000 0.0000
# 3 25.5545 63.5135 179.2633 0.0000 0.0000 0.0000
# 4 0.0000 0.0000 0.0000 0.6034 0.0000 0.0000
# 5 0.0000 0.0000 0.0000 0.0000 30.6656 0.0000
# 6 0.0000 0.0000 0.0000 0.0000 0.0000 20.1485
#
#
#
# Elastic Compliance Matrix: (Units=1/GPa)
#
#
# Indices 1 2 3 4 5 6 
#
# 1 0.032183 -0.007188 -0.002041 0.000000 0.000000 0.000000
# 2 -0.007188 0.019353 -0.005832 0.000000 0.000000 0.000000
# 3 -0.002041 -0.005832 0.007936 0.000000 0.000000 0.000000
# 4 0.000000 0.000000 0.000000 1.657181 0.000000 0.000000
# 5 0.000000 0.000000 0.000000 0.000000 0.032610 0.000000
# 6 0.000000 0.000000 0.000000 0.000000 0.000000 0.049631
#
#
# Mechanical properties :
#
#
# Convention : Reuss Voigt Hill
#
# Bulk Modulus (GPa) = 34.07320 57.45063 45.76191
# Shear Modulus (GPa) = 2.71917 22.61235 12.66576
#
# Velocity S-wave (km/s) = 1.19411 3.44349 2.57716
# Velocity P-wave (km/s) = 4.44620 6.77765 5.73172
#
# Compressibility (1/GPa) = 0.02934858
#
# Stress axis : x y z
#
# Youngs Moduli (GPa) = 31.07258 51.67248 126.01419
#
# Poissons Ratio (x) = 0.37144 0.25718
# Poissons Ratio (y) = 0.22336 0.73491
# Poissons Ratio (z) = 0.06342 0.30135
#
# Static dielectric constant tensor:
#      x y z
#    x 3.358750 0.000000 0.000000 
#    y 0.000000 3.150320 0.000000 
#    z 0.000000 0.000000 4.135930 
# 
# 
# High freq. dielectric constant tensor:
#      x y z
#    x 1.732910 0.000000 0.000000 
#    y 0.000000 1.693410 0.000000 
#    z 0.000000 0.000000 1.775520 
# 
# From -- ./inp_files/15816.got.cif
#   From: 2010.03.12/outbox.cif.g09.slc.cpg/sg36_8_cif.got.tgz:15816.got - 2010.04.14 02:13:53.
