data_PCOD8174057
_publ_section_title
;
Structure prediction by ZEFSAII (Michael W. Deem and Ramdas Pophale) SiO2 
 PCOD8174057
Probable space group: C M M 2
;
_chemical_formula_sum "Si O2"
_cell_formula_units_Z 48
_cell_length_a 10.966262
_cell_length_b 15.488282
_cell_length_c 14.014210
_cell_angle_alpha 90.000000
_cell_angle_beta 90.000000
_cell_angle_gamma 90.000000
_cell_volume 2380.293365
_symmetry_space_group_name_H-M "C M M 2"
_symmetry_group_IT_number 35
_symmetry_cell_setting 'orthorhombic'
loop_
_space_group_symop_operation_xyz
x,y,z
-x,-y,z
-x,y,z
x,-y,z
1/2+x,1/2+y,z
1/2-x,1/2-y,z
1/2-x,1/2+y,z
1/2+x,1/2-y,z
loop_
_atom_site_type_symbol
_atom_site_label
_atom_site_fract_x
_atom_site_fract_y
_atom_site_fract_z
Si Si1 0.366409 0.404365 0.670000
Si Si2 0.255176 0.844835 0.493635
Si Si3 0.000000 0.600373 0.809420
Si Si4 0.000000 0.601720 0.592610
Si Si5 0.858327 0.000000 0.156689
Si Si6 0.355636 0.500000 0.377937
Si Si7 0.146719 0.825653 0.051999
Si Si8 0.250394 0.345400 0.851118
O O1 0.500000 0.378419 0.704227
O O2 0.359407 0.500000 0.623439
O O3 0.327777 0.338359 0.588310
O O4 0.286416 0.407824 0.764903
O O5 0.250000 0.750000 0.445041
O O6 0.387965 0.869198 0.528730
O O7 0.203961 0.913554 0.419074
O O8 0.000000 0.641065 0.700962
O O9 0.112035 0.630104 0.875833
O O10 0.000000 0.500000 0.796821
O O11 0.000000 0.500000 0.602794
O O12 0.823371 0.000000 0.266895
O O13 0.809941 0.910159 0.110983
O O14 0.000000 0.000000 0.137850
O O15 0.500000 0.500000 0.397740
O O16 0.250000 0.750000 0.073416
O O17 0.000000 0.801532 0.070530
O O18 0.159985 0.852304 0.941264
O O19 0.250000 0.250000 0.808088
#
# Coordination Sequence:
#
# PCOD8174057 Si02
#       8
#     8   8   4   4   4   4   8   8
#     4  11  22  36  56  87 126 168 215 266 306 366
#     4  12  25  39  64  93 127 169 215 261 316 382
#     4  11  24  38  56  86 128 181 218 256 314 369
#     4  11  22  42  60  83 133 176 213 262 318 368
#     4   9  22  46  75  96 123 167 207 263 332 397
#     4  11  24  47  70  95 128 161 211 267 326 393
#     4  10  23  43  70 100 132 169 215 265 324 387
#     4  11  24  36  59  87 131 168 216 256 311 374
#
# _framework density 20.165583000000002
#
# number of rings (size 3 to 8) (size 9 to 14) (size 15 to 20)
#    0.000    1.167    3.333    2.000   10.500    0.667 
#    0.000    0.417    3.667    0.000    0.000    0.000 
#    0.000    0.000    0.000    0.000    0.000    0.000 
#
# Total GULP energy -297390.780521 kJ/mol
# GULP energy per Si atom -12391.282522 kJ/mol
# Density = 2.011969 g / cm^3
# Si number density = 20.165583 Si / 1000 Ang^3
#
#
#
# Elastic Constant Matrix: (Units=GPa)
#
#
# Indices 1 2 3 4 5 6 
#
# 1 118.8088 45.1837 27.3329 0.0000 0.0000 0.0000
# 2 45.1837 133.8965 53.3660 0.0000 0.0000 0.0000
# 3 27.3329 53.3660 84.5014 0.0000 0.0000 0.0000
# 4 0.0000 0.0000 0.0000 28.4881 0.0000 0.0000
# 5 0.0000 0.0000 0.0000 0.0000 19.6652 0.0000
# 6 0.0000 0.0000 0.0000 0.0000 0.0000 31.4280
#
#
#
# Elastic Compliance Matrix: (Units=1/GPa)
#
#
# Indices 1 2 3 4 5 6 
#
# 1 0.009786 -0.002727 -0.001443 0.000000 0.000000 0.000000
# 2 -0.002727 0.010741 -0.005901 0.000000 0.000000 0.000000
# 3 -0.001443 -0.005901 0.016028 0.000000 0.000000 0.000000
# 4 0.000000 0.000000 0.000000 0.035102 0.000000 0.000000
# 5 0.000000 0.000000 0.000000 0.000000 0.050851 0.000000
# 6 0.000000 0.000000 0.000000 0.000000 0.000000 0.031819
#
#
# Mechanical properties :
#
#
# Convention : Reuss Voigt Hill
#
# Bulk Modulus (GPa) = 60.93182 65.44132 63.18657
# Shear Modulus (GPa) = 27.78707 30.00455 28.89581
#
# Velocity S-wave (km/s) = 3.71610 3.86153 3.78951
# Velocity P-wave (km/s) = 6.97810 7.23908 7.10979
#
# Compressibility (1/GPa) = 0.01641179
#
# Stress axis : x y z
#
# Youngs Moduli (GPa) = 102.18648 93.10413 62.39222
#
# Poissons Ratio (x) = 0.25391 0.09004
# Poissons Ratio (y) = 0.27868 0.36818
# Poissons Ratio (z) = 0.14746 0.54941
#
# Static dielectric constant tensor:
#      x y z
#    x 3.976520 0.000000 0.000000 
#    y 0.000000 3.787920 0.000000 
#    z 0.000000 0.000000 3.442190 
# 
# 
# High freq. dielectric constant tensor:
#      x y z
#    x 1.798320 0.000000 0.000000 
#    y 0.000000 1.798320 0.000000 
#    z 0.000000 0.000000 1.759860 
# 
# From -- ./inp_files/16373.got.cif
#   From: 2010.03.12/outbox.cif.g09.slc.cpg/sg35_9_cif.got.tgz:16373.got - 2010.04.14 02:02:04.
