data_PCOD8174195
_publ_section_title
;
Structure prediction by ZEFSAII (Michael W. Deem and Ramdas Pophale) SiO2 
 PCOD8174195
Probable space group: C M C 21
;
_chemical_formula_sum "Si O2"
_cell_formula_units_Z 64
_cell_length_a 8.777962
_cell_length_b 17.369973
_cell_length_c 19.217628
_cell_angle_alpha 90.000000
_cell_angle_beta 90.000000
_cell_angle_gamma 90.000000
_cell_volume 2930.168682
_symmetry_space_group_name_H-M "C M C 21"
_symmetry_group_IT_number 36
_symmetry_cell_setting 'orthorhombic'
loop_
_space_group_symop_operation_xyz
x,y,z
-x,-y,1/2+z
x,-y,1/2+z
-x,y,z
1/2+x,1/2+y,z
1/2-x,1/2-y,1/2+z
1/2+x,1/2-y,1/2+z
1/2-x,1/2+y,z
loop_
_atom_site_type_symbol
_atom_site_label
_atom_site_fract_x
_atom_site_fract_y
_atom_site_fract_z
Si Si1 0.821330 0.763119 0.607680
Si Si2 0.173962 0.351829 0.812208
Si Si3 0.675655 0.484363 0.554798
Si Si4 0.321670 0.303426 0.234905
Si Si5 0.676809 0.163828 0.989772
Si Si6 0.176882 0.045909 0.413955
Si Si7 0.824979 0.398830 0.346932
Si Si8 0.674593 0.913087 0.669921
O O1 0.759193 0.696446 0.659226
O O2 0.738556 0.760444 0.531235
O O3 0.781092 0.844560 0.642661
O O4 0.000000 0.752736 0.597571
O O5 0.228216 0.271587 0.779103
O O6 0.278198 0.372959 0.878532
O O7 0.193793 0.419298 0.753226
O O8 0.000000 0.346201 0.837261
O O9 0.500000 0.485368 0.575945
O O10 0.718537 0.405657 0.516242
O O11 0.712444 0.550618 0.497286
O O12 0.772284 0.490087 0.627363
O O13 0.500000 0.304522 0.221081
O O14 0.271641 0.377879 0.278614
O O15 0.500000 0.148905 0.007838
O O16 0.698932 0.167588 0.906285
O O17 0.000000 0.027166 0.402418
O O18 0.276579 0.980911 0.376715
O O19 0.000000 0.404026 0.324408
O O20 0.500000 0.893086 0.652103
#
# Coordination Sequence:
#
# PCOD8174195 Si02
#       8
#     8   8   8   8   8   8   8   8
#     4  10  17  26  44  69  95 123 158 199 240 284
#     4   9  19  33  49  71  98 128 161 198 240 287
#     4   9  16  26  42  67  94 120 155 197 238 281
#     4  10  20  34  51  72 100 130 162 202 246 291
#     4   9  16  27  44  67  94 123 156 196 240 283
#     4  10  20  32  49  73 100 130 162 198 240 287
#     4  10  20  33  51  74 100 130 163 200 242 290
#     4   9  16  27  44  67  93 122 157 198 242 283
#
# _framework density 21.841747000000002
#
# number of rings (size 3 to 8) (size 9 to 14) (size 15 to 20)
#    0.000    2.500    0.000    5.625    0.000    6.000 
#    0.000    0.000    0.000    1.500    0.000    3.500 
#    0.000    0.000    0.000    0.000    0.000    0.000 
#
# Total GULP energy -396492.029161 kJ/mol
# GULP energy per Si atom -12390.375911 kJ/mol
# Density = 2.179203 g / cm^3
# Si number density = 21.841747 Si / 1000 Ang^3
#
#
#
# Elastic Constant Matrix: (Units=GPa)
#
#
# Indices 1 2 3 4 5 6 
#
# 1 69.6217 -1.9423 4.3439 0.0000 0.0000 0.0000
# 2 -1.9423 6.6713 -16.9950 0.0000 0.0000 0.0000
# 3 4.3439 -16.9950 20.8224 0.0000 0.0000 0.0000
# 4 0.0000 0.0000 0.0000 25.2858 0.0000 0.0000
# 5 0.0000 0.0000 0.0000 0.0000 36.1861 0.0000
# 6 0.0000 0.0000 0.0000 0.0000 0.0000 18.8912
#
#
#
# Elastic Compliance Matrix: (Units=1/GPa)
#
#
# Indices 1 2 3 4 5 6 
#
# 1 0.014478 0.003224 -0.000389 0.000000 0.000000 0.000000
# 2 0.003224 -0.138174 -0.113449 0.000000 0.000000 0.000000
# 3 -0.000389 -0.113449 -0.044489 0.000000 0.000000 0.000000
# 4 0.000000 0.000000 0.000000 0.039548 0.000000 0.000000
# 5 0.000000 0.000000 0.000000 0.000000 0.027635 0.000000
# 6 0.000000 0.000000 0.000000 0.000000 0.000000 0.052935
#
#
# Mechanical properties :
#
#
# Convention : Reuss Voigt Hill
#
# Bulk Modulus (GPa) = -2.56796 7.54762 2.48983
# Shear Modulus (GPa) = 115.32597 23.51988 69.42292
#
# Velocity S-wave (km/s) = 7.27429 3.28507 5.64389
# Velocity P-wave (km/s) = 8.32920 4.22516 6.60407
#
# Compressibility (1/GPa) = -0.38941492
#
# Stress axis : x y z
#
# Youngs Moduli (GPa) = 69.07244 -7.23723 -22.47739
#
# Poissons Ratio (x) = 0.02333 -0.00875
# Poissons Ratio (y) = -0.22266 -2.55003
# Poissons Ratio (z) = 0.02689 -0.82105
#
# Static dielectric constant tensor:
#      x y z
#    x 3.795890 0.000000 0.000000 
#    y 0.000000 3.334830 0.000000 
#    z 0.000000 0.000000 4.768520 
# 
# 
# High freq. dielectric constant tensor:
#      x y z
#    x 1.860880 0.000000 0.000000 
#    y 0.000000 1.797150 0.000000 
#    z 0.000000 0.000000 1.872990 
# 
# From -- ./inp_files/15739.got.cif
#   From: 2010.03.12/outbox.cif.g09.slc.cpg/sg36_8_cif.got.tgz:15739.got - 2010.04.14 02:13:53.
