data_PCOD8174677
_publ_section_title
;
Structure prediction by ZEFSAII (Michael W. Deem and Ramdas Pophale) SiO2 
 PCOD8174677
Probable space group: C M C 21
;
_chemical_formula_sum "Si O2"
_cell_formula_units_Z 48
_cell_length_a 9.518187
_cell_length_b 20.204384
_cell_length_c 13.966294
_cell_angle_alpha 90.000000
_cell_angle_beta 90.000000
_cell_angle_gamma 90.000000
_cell_volume 2685.845501
_symmetry_space_group_name_H-M "C M C 21"
_symmetry_group_IT_number 36
_symmetry_cell_setting 'orthorhombic'
loop_
_space_group_symop_operation_xyz
x,y,z
-x,-y,1/2+z
x,-y,1/2+z
-x,y,z
1/2+x,1/2+y,z
1/2-x,1/2-y,1/2+z
1/2+x,1/2-y,1/2+z
1/2-x,1/2+y,z
loop_
_atom_site_type_symbol
_atom_site_label
_atom_site_fract_x
_atom_site_fract_y
_atom_site_fract_z
Si Si1 0.662888 0.309503 0.985650
Si Si2 0.833264 0.934061 0.525871
Si Si3 0.666506 0.613160 0.820496
Si Si4 0.333058 0.429319 0.116182
Si Si5 0.159525 0.318269 0.609419
Si Si6 0.837077 0.736879 0.318632
O O1 0.500000 0.321350 0.961499
O O2 0.750892 0.311341 0.888186
O O3 0.720717 0.367175 0.054554
O O4 0.689474 0.239223 0.034141
O O5 0.784937 0.926874 0.414983
O O6 0.765165 0.877818 0.590871
O O7 0.000000 0.927032 0.534874
O O8 0.777885 0.003878 0.566304
O O9 0.500000 0.615723 0.813027
O O10 0.726181 0.577059 0.724976
O O11 0.722544 0.688342 0.825684
O O12 0.500000 0.429010 0.118871
O O13 0.189214 0.289229 0.713087
O O14 0.000000 0.343976 0.600296
O O15 0.000000 0.734484 0.347797
#
# Coordination Sequence:
#
# PCOD8174677 Si02
#       6
#     8   8   8   8   8   8
#     4  10  19  33  54  79 103 133 177 222 255 300
#     4  10  20  33  55  81 104 135 177 222 257 303
#     4   9  16  30  51  75 104 137 171 208 261 316
#     4   9  18  33  53  78 108 139 172 215 268 312
#     4  10  20  34  53  76 105 141 172 208 264 317
#     4  10  19  33  54  77 106 143 175 209 261 318
#
# _framework density 17.871468
#
# number of rings (size 3 to 8) (size 9 to 14) (size 15 to 20)
#    0.000    2.333    3.333    0.000    0.000    2.000 
#    0.000    4.167    0.000    3.000    0.000    0.000 
#    0.000    0.000    0.000    0.000    0.000    0.000 
#
# Total GULP energy -297590.093489 kJ/mol
# GULP energy per Si atom -12399.587229 kJ/mol
# Density = 1.783079 g / cm^3
# Si number density = 17.871468 Si / 1000 Ang^3
#
#
#
# Elastic Constant Matrix: (Units=GPa)
#
#
# Indices 1 2 3 4 5 6 
#
# 1 31.6743 22.5126 33.9683 0.0000 0.0000 0.0000
# 2 22.5126 96.4242 50.1909 0.0000 0.0000 0.0000
# 3 33.9683 50.1909 115.3040 0.0000 0.0000 0.0000
# 4 0.0000 0.0000 0.0000 29.4873 0.0000 0.0000
# 5 0.0000 0.0000 0.0000 0.0000 26.3646 0.0000
# 6 0.0000 0.0000 0.0000 0.0000 0.0000 23.2660
#
#
#
# Elastic Compliance Matrix: (Units=1/GPa)
#
#
# Indices 1 2 3 4 5 6 
#
# 1 0.047923 -0.004965 -0.011957 0.000000 0.000000 0.000000
# 2 -0.004965 0.013923 -0.004598 0.000000 0.000000 0.000000
# 3 -0.011957 -0.004598 0.014197 0.000000 0.000000 0.000000
# 4 0.000000 0.000000 0.000000 0.033913 0.000000 0.000000
# 5 0.000000 0.000000 0.000000 0.000000 0.037930 0.000000
# 6 0.000000 0.000000 0.000000 0.000000 0.000000 0.042981
#
#
# Mechanical properties :
#
#
# Convention : Reuss Voigt Hill
#
# Bulk Modulus (GPa) = 30.29993 50.74955 40.52474
# Shear Modulus (GPa) = 20.41586 24.93897 22.67742
#
# Velocity S-wave (km/s) = 3.38357 3.73964 3.56605
# Velocity P-wave (km/s) = 5.67942 6.86332 6.29925
#
# Compressibility (1/GPa) = 0.03300338
#
# Stress axis : x y z
#
# Youngs Moduli (GPa) = 20.86681 71.82129 70.43906
#
# Poissons Ratio (x) = 0.35659 0.84222
# Poissons Ratio (y) = 0.10360 0.32388
# Poissons Ratio (z) = 0.24950 0.33024
#
# Static dielectric constant tensor:
#      x y z
#    x 2.923730 0.000000 0.000000 
#    y 0.000000 3.365370 0.000000 
#    z 0.000000 0.000000 3.519220 
# 
# 
# High freq. dielectric constant tensor:
#      x y z
#    x 1.648960 0.000000 0.000000 
#    y 0.000000 1.690170 0.000000 
#    z 0.000000 0.000000 1.708020 
# 
# From -- ./inp_files/7676.got.cif
#   From: 2010.03.12/outbox.cif.g09.slc.cpg/sg36_4_cif.got.tgz:7676.got - 2010.04.14 02:13:53.
