data_PCOD8174531
_publ_section_title
;
Structure prediction by ZEFSAII (Michael W. Deem and Ramdas Pophale) SiO2 
 PCOD8174531
Probable space group: C M C 21
;
_chemical_formula_sum "Si O2"
_cell_formula_units_Z 48
_cell_length_a 8.619506
_cell_length_b 31.069520
_cell_length_c 9.683587
_cell_angle_alpha 90.000000
_cell_angle_beta 90.000000
_cell_angle_gamma 90.000000
_cell_volume 2593.302501
_symmetry_space_group_name_H-M "C M C 21"
_symmetry_group_IT_number 36
_symmetry_cell_setting 'orthorhombic'
loop_
_space_group_symop_operation_xyz
x,y,z
-x,-y,1/2+z
x,-y,1/2+z
-x,y,z
1/2+x,1/2+y,z
1/2-x,1/2-y,1/2+z
1/2+x,1/2-y,1/2+z
1/2-x,1/2+y,z
loop_
_atom_site_type_symbol
_atom_site_label
_atom_site_fract_x
_atom_site_fract_y
_atom_site_fract_z
Si Si1 0.328518 0.130063 0.516560
Si Si2 0.669558 0.116379 0.192537
Si Si3 0.818243 0.041977 0.540083
Si Si4 0.814996 0.292059 0.671007
Si Si5 0.682955 0.717495 0.468065
Si Si6 0.185606 0.524856 0.245933
O O1 0.500000 0.129072 0.584738
O O2 0.344702 0.124807 0.354322
O O3 0.226417 0.091066 0.577114
O O4 0.248642 0.175762 0.547795
O O5 0.500000 0.112453 0.124480
O O6 0.751634 0.159628 0.131915
O O7 0.750949 0.069653 0.175454
O O8 0.770339 0.014259 0.672464
O O9 0.000000 0.038697 0.511949
O O10 0.727058 0.023999 0.407478
O O11 0.746725 0.275915 0.815069
O O12 0.763058 0.259464 0.552563
O O13 0.000000 0.294956 0.687196
O O14 0.500000 0.712916 0.462729
O O15 0.000000 0.521714 0.231788
#
# Coordination Sequence:
#
# PCOD8174531 Si02
#       6
#     8   8   8   8   8   8
#     4   9  17  32  52  72  98 135 173 207 252 311
#     4   7  13  28  50  70  91 126 170 207 239 291
#     4  11  21  34  53  79 107 134 171 219 262 301
#     4   9  18  33  51  73 102 133 167 208 252 300
#     4  10  19  31  51  77 102 132 171 212 253 297
#     4  10  19  34  55  77 102 138 178 211 254 312
#
# _framework density 18.509218000000001
#
# number of rings (size 3 to 8) (size 9 to 14) (size 15 to 20)
#    0.000    2.667    0.000    5.000    0.000    1.333 
#    0.000    2.500    0.000    6.000    0.000    0.000 
#    0.000    0.000    0.000    0.000    0.000    0.000 
#
# Total GULP energy -297366.921832 kJ/mol
# GULP energy per Si atom -12390.288410 kJ/mol
# Density = 1.846709 g / cm^3
# Si number density = 18.509218 Si / 1000 Ang^3
#
#
#
# Elastic Constant Matrix: (Units=GPa)
#
#
# Indices 1 2 3 4 5 6 
#
# 1 66.0859 19.9935 7.5010 0.0000 0.0000 0.0000
# 2 19.9935 38.3814 -5.0206 0.0000 0.0000 0.0000
# 3 7.5010 -5.0206 23.6035 0.0000 0.0000 0.0000
# 4 0.0000 0.0000 0.0000 30.6132 0.0000 0.0000
# 5 0.0000 0.0000 0.0000 0.0000 22.5190 0.0000
# 6 0.0000 0.0000 0.0000 0.0000 0.0000 27.4035
#
#
#
# Elastic Compliance Matrix: (Units=1/GPa)
#
#
# Indices 1 2 3 4 5 6 
#
# 1 0.019527 -0.011298 -0.008609 0.000000 0.000000 0.000000
# 2 -0.011298 0.033337 0.010681 0.000000 0.000000 0.000000
# 3 -0.008609 0.010681 0.047374 0.000000 0.000000 0.000000
# 4 0.000000 0.000000 0.000000 0.032666 0.000000 0.000000
# 5 0.000000 0.000000 0.000000 0.000000 0.044407 0.000000
# 6 0.000000 0.000000 0.000000 0.000000 0.000000 0.036492
#
#
# Mechanical properties :
#
#
# Convention : Reuss Voigt Hill
#
# Bulk Modulus (GPa) = 12.22684 19.22429 15.72556
# Shear Modulus (GPa) = 19.26667 23.14694 21.20681
#
# Velocity S-wave (km/s) = 3.22983 3.54017 3.38855
# Velocity P-wave (km/s) = 4.53092 5.20761 4.88101
#
# Compressibility (1/GPa) = 0.08178729
#
# Stress axis : x y z
#
# Youngs Moduli (GPa) = 51.21113 29.99688 21.10852
#
# Poissons Ratio (x) = 0.33890 0.18172
# Poissons Ratio (y) = 0.57858 -0.22547
# Poissons Ratio (z) = 0.44086 -0.32040
#
# Static dielectric constant tensor:
#      x y z
#    x 3.339780 0.000000 0.000000 
#    y 0.000000 4.065020 0.000000 
#    z 0.000000 0.000000 2.976300 
# 
# 
# High freq. dielectric constant tensor:
#      x y z
#    x 1.708700 0.000000 0.000000 
#    y 0.000000 1.741890 0.000000 
#    z 0.000000 0.000000 1.671270 
# 
# From -- ./inp_files/2727.got.cif
#   From: 2010.03.12/outbox.cif.g09.slc.cpg/sg36_2_cif.got.tgz:2727.got - 2010.04.14 02:13:53.
