data_PCOD8174992
_publ_section_title
;
Structure prediction by ZEFSAII (Michael W. Deem and Ramdas Pophale) SiO2 
 PCOD8174992
Probable space group: C M C 21
;
_chemical_formula_sum "Si O2"
_cell_formula_units_Z 64
_cell_length_a 8.769226
_cell_length_b 32.545889
_cell_length_c 10.827427
_cell_angle_alpha 90.000000
_cell_angle_beta 90.000000
_cell_angle_gamma 90.000000
_cell_volume 3090.172093
_symmetry_space_group_name_H-M "C M C 21"
_symmetry_group_IT_number 36
_symmetry_cell_setting 'orthorhombic'
loop_
_space_group_symop_operation_xyz
x,y,z
-x,-y,1/2+z
x,-y,1/2+z
-x,y,z
1/2+x,1/2+y,z
1/2-x,1/2-y,1/2+z
1/2+x,1/2-y,1/2+z
1/2-x,1/2+y,z
loop_
_atom_site_type_symbol
_atom_site_label
_atom_site_fract_x
_atom_site_fract_y
_atom_site_fract_z
Si Si1 0.332235 0.073966 0.355180
Si Si2 0.318673 0.866569 0.056023
Si Si3 0.828173 0.074513 0.002961
Si Si4 0.169610 0.640773 0.143458
Si Si5 0.828855 0.074267 0.715457
Si Si6 0.680238 0.278963 0.000327
Si Si7 0.679809 0.275879 0.718348
Si Si8 0.181511 0.490089 0.671945
O O1 0.500000 0.061734 0.402981
O O2 0.249061 0.096950 0.467958
O O3 0.345697 0.106881 0.247199
O O4 0.255046 0.032870 0.297532
O O5 0.500000 0.861150 0.045964
O O6 0.265252 0.883484 0.188920
O O7 0.242472 0.824393 0.019029
O O8 0.754384 0.119292 0.028591
O O9 0.729338 0.037235 0.055817
O O10 0.000000 0.073657 0.057245
O O11 0.828468 0.067247 0.859225
O O12 0.269200 0.677844 0.195297
O O13 0.000000 0.656237 0.104228
O O14 0.000000 0.078609 0.664239
O O15 0.750072 0.034899 0.652711
O O16 0.500000 0.279470 0.012655
O O17 0.745124 0.251785 0.111948
O O18 0.726174 0.263468 0.860776
O O19 0.500000 0.271934 0.702765
O O20 0.000000 0.492607 0.677139
#
# Coordination Sequence:
#
# PCOD8174992 Si02
#       8
#     8   8   8   8   8   8   8   8
#     4   8  17  34  59  89 116 147 192 245 299 355
#     4  11  22  40  65  92 123 163 207 255 313 377
#     4  10  22  40  59  85 123 161 203 255 310 374
#     4  10  19  37  65  92 119 154 199 251 307 369
#     4  11  25  41  57  86 126 165 206 256 314 373
#     4  11  25  44  67  98 133 170 217 270 327 391
#     4  11  24  42  67  99 131 170 216 266 324 390
#     4  10  21  38  61  89 119 156 206 258 308 367
#
# _framework density 20.710819999999998
#
# number of rings (size 3 to 8) (size 9 to 14) (size 15 to 20)
#    0.000    1.750    1.250    3.375    1.750    4.500 
#    0.000    1.250    0.000    0.000    0.000    0.000 
#    0.000    0.000    0.000    0.000    0.000    0.000 
#
# Total GULP energy -396551.303540 kJ/mol
# GULP energy per Si atom -12392.228236 kJ/mol
# Density = 2.066368 g / cm^3
# Si number density = 20.710820 Si / 1000 Ang^3
#
#
#
# Elastic Constant Matrix: (Units=GPa)
#
#
# Indices 1 2 3 4 5 6 
#
# 1 92.1049 45.3377 48.7125 0.0000 0.0000 0.0000
# 2 45.3377 88.6113 49.8653 0.0000 0.0000 0.0000
# 3 48.7125 49.8653 90.8347 0.0000 0.0000 0.0000
# 4 0.0000 0.0000 0.0000 29.1666 0.0000 0.0000
# 5 0.0000 0.0000 0.0000 0.0000 30.0504 0.0000
# 6 0.0000 0.0000 0.0000 0.0000 0.0000 35.3083
#
#
#
# Elastic Compliance Matrix: (Units=1/GPa)
#
#
# Indices 1 2 3 4 5 6 
#
# 1 0.016574 -0.005033 -0.006125 0.000000 0.000000 0.000000
# 2 -0.005033 0.017858 -0.007105 0.000000 0.000000 0.000000
# 3 -0.006125 -0.007105 0.018194 0.000000 0.000000 0.000000
# 4 0.000000 0.000000 0.000000 0.034286 0.000000 0.000000
# 5 0.000000 0.000000 0.000000 0.000000 0.033277 0.000000
# 6 0.000000 0.000000 0.000000 0.000000 0.000000 0.028322
#
#
# Mechanical properties :
#
#
# Convention : Reuss Voigt Hill
#
# Bulk Modulus (GPa) = 62.10923 62.15353 62.13138
# Shear Modulus (GPa) = 26.25979 27.41407 26.83693
#
# Velocity S-wave (km/s) = 3.56466 3.64216 3.60362
# Velocity P-wave (km/s) = 6.85538 6.91104 6.88327
#
# Compressibility (1/GPa) = 0.01610067
#
# Stress axis : x y z
#
# Youngs Moduli (GPa) = 60.33437 55.99575 54.96297
#
# Poissons Ratio (x) = 0.28184 0.33667
# Poissons Ratio (y) = 0.30367 0.39049
# Poissons Ratio (z) = 0.36957 0.39783
#
# Static dielectric constant tensor:
#      x y z
#    x 3.936930 0.000000 0.000000 
#    y 0.000000 3.835070 0.000000 
#    z 0.000000 0.000000 3.975720 
# 
# 
# High freq. dielectric constant tensor:
#      x y z
#    x 1.810790 0.000000 0.000000 
#    y 0.000000 1.810400 0.000000 
#    z 0.000000 0.000000 1.814600 
# 
# From -- ./inp_files/7200.got.cif
#   From: 2010.03.12/outbox.cif.g09.slc.cpg/sg36_4_cif.got.tgz:7200.got - 2010.04.14 02:13:53.
