data_PCOD8174486
_publ_section_title
;
Structure prediction by ZEFSAII (Michael W. Deem and Ramdas Pophale) SiO2 
 PCOD8174486
Probable space group: C M C 21
;
_chemical_formula_sum "Si O2"
_cell_formula_units_Z 64
_cell_length_a 9.036963
_cell_length_b 20.046132
_cell_length_c 20.114064
_cell_angle_alpha 90.000000
_cell_angle_beta 90.000000
_cell_angle_gamma 90.000000
_cell_volume 3643.786459
_symmetry_space_group_name_H-M "C M C 21"
_symmetry_group_IT_number 36
_symmetry_cell_setting 'orthorhombic'
loop_
_space_group_symop_operation_xyz
x,y,z
-x,-y,1/2+z
x,-y,1/2+z
-x,y,z
1/2+x,1/2+y,z
1/2-x,1/2-y,1/2+z
1/2+x,1/2-y,1/2+z
1/2-x,1/2+y,z
loop_
_atom_site_type_symbol
_atom_site_label
_atom_site_fract_x
_atom_site_fract_y
_atom_site_fract_z
Si Si1 0.670798 0.663941 0.110090
Si Si2 0.172362 0.692634 0.653067
Si Si3 0.327638 0.192634 0.975378
Si Si4 0.175457 0.088872 0.738983
Si Si5 0.175457 0.088872 0.889461
Si Si6 0.673132 0.481214 0.992316
Si Si7 0.673132 0.518786 0.136129
Si Si8 0.170798 0.836059 0.018355
O O1 0.500000 0.664783 0.086378
O O2 0.705289 0.727891 0.156023
O O3 0.705750 0.596733 0.151801
O O4 0.770568 0.663038 0.044683
O O5 0.256377 0.658592 0.714223
O O6 0.229432 0.663038 0.583762
O O7 0.000000 0.677114 0.659153
O O8 0.500000 0.177114 0.969291
O O9 0.243623 0.158592 0.914222
O O10 0.294711 0.272109 0.972421
O O11 0.227272 0.075792 0.814222
O O12 0.000000 0.094553 0.734383
O O13 0.239843 0.027971 0.694126
O O14 0.000000 0.094553 0.894062
O O15 0.239843 0.027971 0.934319
O O16 0.500000 0.495833 0.994596
O O17 0.742225 0.500000 0.064222
O O18 0.705750 0.403267 0.976644
O O19 0.500000 0.504167 0.133849
O O20 0.000000 0.835217 0.042067
#
# Coordination Sequence:
#
# PCOD8174486 Si02
#       8
#     8   8   8   8   8   8   8   8
#     4   9  17  31  51  74  99 127 163 204 245 288
#     4  10  19  30  48  75 104 130 158 199 250 297
#     4  10  19  30  48  75 104 130 158 199 250 297
#     4  10  20  34  52  72  96 131 170 205 247 300
#     4  10  20  34  52  72  96 131 170 205 247 300
#     4   9  15  28  52  75  95 123 164 211 245 278
#     4   9  15  28  52  75  95 123 164 211 245 278
#     4   9  17  31  51  74  99 127 163 204 245 288
#
# _framework density 17.564146000000001
#
# number of rings (size 3 to 8) (size 9 to 14) (size 15 to 20)
#    0.000    2.500    2.500    0.750    0.000    1.500 
#    0.000    3.750    0.000    4.500    0.000    0.000 
#    0.000    0.000    0.000    0.000    0.000    0.000 
#
# Total GULP energy -396690.402026 kJ/mol
# GULP energy per Si atom -12396.575063 kJ/mol
# Density = 1.752417 g / cm^3
# Si number density = 17.564146 Si / 1000 Ang^3
#
#
#
# Elastic Constant Matrix: (Units=GPa)
#
#
# Indices 1 2 3 4 5 6 
#
# 1 27.5980 26.8112 30.9070 0.0000 0.0000 0.0000
# 2 26.8112 145.9387 80.6407 0.0000 0.0000 0.0000
# 3 30.9070 80.6407 131.8013 0.0000 0.0000 0.0000
# 4 0.0000 0.0000 0.0000 28.3293 0.0000 0.0000
# 5 0.0000 0.0000 0.0000 0.0000 19.2449 0.0000
# 6 0.0000 0.0000 0.0000 0.0000 0.0000 23.9445
#
#
#
# Elastic Compliance Matrix: (Units=1/GPa)
#
#
# Indices 1 2 3 4 5 6 
#
# 1 0.050751 -0.004151 -0.009361 0.000000 0.000000 0.000000
# 2 -0.004151 0.010692 -0.005568 0.000000 0.000000 0.000000
# 3 -0.009361 -0.005568 0.013189 0.000000 0.000000 0.000000
# 4 0.000000 0.000000 0.000000 0.035299 0.000000 0.000000
# 5 0.000000 0.000000 0.000000 0.000000 0.051962 0.000000
# 6 0.000000 0.000000 0.000000 0.000000 0.000000 0.041763
#
#
# Mechanical properties :
#
#
# Convention : Reuss Voigt Hill
#
# Bulk Modulus (GPa) = 27.41912 64.67287 46.04600
# Shear Modulus (GPa) = 19.68712 25.43567 22.56140
#
# Velocity S-wave (km/s) = 3.35157 3.80960 3.58790
# Velocity P-wave (km/s) = 5.53373 7.50011 6.59066
#
# Compressibility (1/GPa) = 0.03647090
#
# Stress axis : x y z
#
# Youngs Moduli (GPa) = 19.70411 93.53214 75.82050
#
# Poissons Ratio (x) = 0.38826 0.70977
# Poissons Ratio (y) = 0.08179 0.42217
# Poissons Ratio (z) = 0.18445 0.52079
#
# Static dielectric constant tensor:
#      x y z
#    x 3.029080 0.000000 0.000000 
#    y 0.000000 3.577410 0.000000 
#    z 0.000000 0.000000 3.164660 
# 
# 
# High freq. dielectric constant tensor:
#      x y z
#    x 1.651710 0.000000 0.000000 
#    y 0.000000 1.696250 0.000000 
#    z 0.000000 0.000000 1.648590 
# 
# From -- ./inp_files/15785.got.cif
#   From: 2010.03.12/outbox.cif.g09.slc.cpg/sg36_8_cif.got.tgz:15785.got - 2010.04.14 02:13:53.
