data_PCOD8174362
_publ_section_title
;
Structure prediction by ZEFSAII (Michael W. Deem and Ramdas Pophale) SiO2 
 PCOD8174362
Probable space group: C M C 21
;
_chemical_formula_sum "Si O2"
_cell_formula_units_Z 64
_cell_length_a 9.415752
_cell_length_b 32.214370
_cell_length_c 11.063843
_cell_angle_alpha 90.000000
_cell_angle_beta 90.000000
_cell_angle_gamma 90.000000
_cell_volume 3355.912726
_symmetry_space_group_name_H-M "C M C 21"
_symmetry_group_IT_number 36
_symmetry_cell_setting 'orthorhombic'
loop_
_space_group_symop_operation_xyz
x,y,z
-x,-y,1/2+z
x,-y,1/2+z
-x,y,z
1/2+x,1/2+y,z
1/2-x,1/2-y,1/2+z
1/2+x,1/2-y,1/2+z
1/2-x,1/2+y,z
loop_
_atom_site_type_symbol
_atom_site_label
_atom_site_fract_x
_atom_site_fract_y
_atom_site_fract_z
Si Si1 0.332000 0.613456 0.264130
Si Si2 0.160009 0.741631 0.287798
Si Si3 0.832748 0.978411 0.833253
Si Si4 0.835563 0.668628 0.101267
Si Si5 0.165773 0.681072 0.834343
Si Si6 0.159427 0.386072 0.158403
Si Si7 0.330539 0.533058 0.606123
Si Si8 0.158872 0.668243 0.437085
O O1 0.500000 0.616991 0.248553
O O2 0.282839 0.566947 0.293664
O O3 0.254981 0.628538 0.142211
O O4 0.280354 0.641597 0.373745
O O5 0.194489 0.707475 0.186783
O O6 0.258002 0.781176 0.266397
O O7 0.187882 0.717486 0.416030
O O8 0.000000 0.758013 0.277765
O O9 0.000000 0.982550 0.830429
O O10 0.773092 0.008760 0.726231
O O11 0.782915 0.986841 0.974318
O O12 0.000000 0.655656 0.097050
O O13 0.779730 0.681685 0.970782
O O14 0.203790 0.634779 0.785234
O O15 0.000000 0.689629 0.821358
O O16 0.268269 0.420744 0.114629
O O17 0.000000 0.405207 0.161019
O O18 0.162758 0.344606 0.075847
O O19 0.500000 0.536495 0.607207
O O20 0.000000 0.658636 0.381809
#
# Coordination Sequence:
#
# PCOD8174362 Si02
#       8
#     8   8   8   8   8   8   8   8
#     4  10  18  32  56  84 104 133 184 228 264 325
#     4   9  19  34  53  77 105 141 183 225 272 323
#     4   9  19  34  56  84 113 142 181 232 283 335
#     4   9  20  38  53  74 110 147 177 221 282 335
#     4  10  22  37  54  77 110 147 183 225 279 333
#     4  10  21  37  56  81 111 147 186 227 275 330
#     4  10  20  38  59  82 113 150 188 232 288 344
#     4   9  18  34  55  77 108 143 174 220 275 323
#
# _framework density 19.070817000000002
#
# number of rings (size 3 to 8) (size 9 to 14) (size 15 to 20)
#    0.000    2.500    1.250    1.125    1.750    4.000 
#    0.000    3.125    0.000    0.000    0.000    0.000 
#    0.000    0.000    0.000    0.000    0.000    0.000 
#
# Total GULP energy -396464.172008 kJ/mol
# GULP energy per Si atom -12389.505375 kJ/mol
# Density = 1.902741 g / cm^3
# Si number density = 19.070817 Si / 1000 Ang^3
#
#
#
# Elastic Constant Matrix: (Units=GPa)
#
#
# Indices 1 2 3 4 5 6 
#
# 1 47.3047 32.3087 29.9660 0.0000 0.0000 0.0000
# 2 32.3087 80.2787 45.7468 0.0000 0.0000 0.0000
# 3 29.9660 45.7468 109.4313 0.0000 0.0000 0.0000
# 4 0.0000 0.0000 0.0000 23.0223 0.0000 0.0000
# 5 0.0000 0.0000 0.0000 0.0000 21.5724 0.0000
# 6 0.0000 0.0000 0.0000 0.0000 0.0000 29.8290
#
#
#
# Elastic Compliance Matrix: (Units=1/GPa)
#
#
# Indices 1 2 3 4 5 6 
#
# 1 0.030581 -0.009892 -0.004239 0.000000 0.000000 0.000000
# 2 -0.009892 0.019552 -0.005465 0.000000 0.000000 0.000000
# 3 -0.004239 -0.005465 0.012583 0.000000 0.000000 0.000000
# 4 0.000000 0.000000 0.000000 0.043436 0.000000 0.000000
# 5 0.000000 0.000000 0.000000 0.000000 0.046355 0.000000
# 6 0.000000 0.000000 0.000000 0.000000 0.000000 0.033524
#
#
# Mechanical properties :
#
#
# Convention : Reuss Voigt Hill
#
# Bulk Modulus (GPa) = 42.50801 50.33975 46.42388
# Shear Modulus (GPa) = 21.45330 23.48431 22.46880
#
# Velocity S-wave (km/s) = 3.35763 3.51298 3.43618
# Velocity P-wave (km/s) = 6.11306 6.55043 6.33552
#
# Compressibility (1/GPa) = 0.02352498
#
# Stress axis : x y z
#
# Youngs Moduli (GPa) = 32.70024 51.14641 79.47017
#
# Poissons Ratio (x) = 0.50594 0.33686
# Poissons Ratio (y) = 0.32347 0.43428
# Poissons Ratio (z) = 0.13861 0.27950
#
# Static dielectric constant tensor:
#      x y z
#    x 3.277500 0.000000 0.000000 
#    y 0.000000 3.383660 0.000000 
#    z 0.000000 0.000000 3.876160 
# 
# 
# High freq. dielectric constant tensor:
#      x y z
#    x 1.723050 0.000000 0.000000 
#    y 0.000000 1.727920 0.000000 
#    z 0.000000 0.000000 1.751300 
# 
# From -- ./inp_files/7268.got.cif
#   From: 2010.03.12/outbox.cif.g09.slc.cpg/sg36_4_cif.got.tgz:7268.got - 2010.04.14 02:13:53.
