data_PCOD8174385
_publ_section_title
;
Structure prediction by ZEFSAII (Michael W. Deem and Ramdas Pophale) SiO2 
 PCOD8174385
Probable space group: C M C 21
;
_chemical_formula_sum "Si O2"
_cell_formula_units_Z 48
_cell_length_a 9.058050
_cell_length_b 15.130201
_cell_length_c 19.109640
_cell_angle_alpha 90.000000
_cell_angle_beta 90.000000
_cell_angle_gamma 90.000000
_cell_volume 2618.978401
_symmetry_space_group_name_H-M "C M C 21"
_symmetry_group_IT_number 36
_symmetry_cell_setting 'orthorhombic'
loop_
_space_group_symop_operation_xyz
x,y,z
-x,-y,1/2+z
x,-y,1/2+z
-x,y,z
1/2+x,1/2+y,z
1/2-x,1/2-y,1/2+z
1/2+x,1/2-y,1/2+z
1/2-x,1/2+y,z
loop_
_atom_site_type_symbol
_atom_site_label
_atom_site_fract_x
_atom_site_fract_y
_atom_site_fract_z
Si Si1 0.175344 0.457129 0.358760
Si Si2 0.824940 0.381380 0.950497
Si Si3 0.174423 0.718304 0.197914
Si Si4 0.324333 0.863951 0.108202
Si Si5 0.674993 0.019419 0.208168
Si Si6 0.325614 0.275931 0.353179
O O1 0.228857 0.526571 0.417205
O O2 0.235774 0.490094 0.283741
O O3 0.247857 0.364681 0.378604
O O4 0.000000 0.446343 0.357632
O O5 0.764801 0.300822 0.903779
O O6 0.000000 0.378902 0.949599
O O7 0.764971 0.373755 0.029290
O O8 0.256097 0.775243 0.139540
O O9 0.231225 0.617554 0.189366
O O10 0.220636 0.753145 0.274160
O O11 0.000000 0.725491 0.186535
O O12 0.500000 0.856239 0.111645
O O13 0.267958 0.949912 0.150526
O O14 0.500000 0.021358 0.211583
O O15 0.500000 0.286885 0.359811
#
# Coordination Sequence:
#
# PCOD8174385 Si02
#       6
#     8   8   8   8   8   8
#     4  10  18  33  56  79 100 132 177 215 248 301
#     4   9  19  35  54  75 105 141 170 206 264 317
#     4  10  19  33  54  77 104 138 172 209 259 312
#     4  10  20  35  54  78 105 134 173 218 258 301
#     4   9  17  31  53  76 100 132 171 210 249 301
#     4  10  19  33  53  77 104 137 171 208 260 314
#
# _framework density 18.327756999999998
#
# number of rings (size 3 to 8) (size 9 to 14) (size 15 to 20)
#    0.000    2.333    3.333    0.000    0.000    1.333 
#    0.000    5.833    0.000    0.000    0.000    0.000 
#    0.000    0.000    0.000    0.000    0.000    0.000 
#
# Total GULP energy -297617.081263 kJ/mol
# GULP energy per Si atom -12400.711719 kJ/mol
# Density = 1.828604 g / cm^3
# Si number density = 18.327757 Si / 1000 Ang^3
#
#
#
# Elastic Constant Matrix: (Units=GPa)
#
#
# Indices 1 2 3 4 5 6 
#
# 1 16.0476 20.7984 17.2670 0.0000 0.0000 0.0000
# 2 20.7984 148.8335 49.9111 0.0000 0.0000 0.0000
# 3 17.2670 49.9111 124.8410 0.0000 0.0000 0.0000
# 4 0.0000 0.0000 0.0000 35.9682 0.0000 0.0000
# 5 0.0000 0.0000 0.0000 0.0000 17.6240 0.0000
# 6 0.0000 0.0000 0.0000 0.0000 0.0000 30.1289
#
#
#
# Elastic Compliance Matrix: (Units=1/GPa)
#
#
# Indices 1 2 3 4 5 6 
#
# 1 0.082228 -0.008865 -0.007829 0.000000 0.000000 0.000000
# 2 -0.008865 0.008715 -0.002258 0.000000 0.000000 0.000000
# 3 -0.007829 -0.002258 0.009996 0.000000 0.000000 0.000000
# 4 0.000000 0.000000 0.000000 0.027802 0.000000 0.000000
# 5 0.000000 0.000000 0.000000 0.000000 0.056741 0.000000
# 6 0.000000 0.000000 0.000000 0.000000 0.000000 0.033191
#
#
# Mechanical properties :
#
#
# Convention : Reuss Voigt Hill
#
# Bulk Modulus (GPa) = 15.86429 51.74166 33.80297
# Shear Modulus (GPa) = 18.01223 30.19393 24.10308
#
# Velocity S-wave (km/s) = 3.13834 4.06327 3.63038
# Velocity P-wave (km/s) = 4.66979 7.09269 6.00471
#
# Compressibility (1/GPa) = 0.06303467
#
# Stress axis : x y z
#
# Youngs Moduli (GPa) = 12.16125 114.74433 100.04235
#
# Poissons Ratio (x) = 1.01726 0.78321
# Poissons Ratio (y) = 0.10781 0.22590
# Poissons Ratio (z) = 0.09521 0.25910
#
# Static dielectric constant tensor:
#      x y z
#    x 2.912970 0.000000 0.000000 
#    y 0.000000 3.568180 0.000000 
#    z 0.000000 0.000000 3.549010 
# 
# 
# High freq. dielectric constant tensor:
#      x y z
#    x 1.665460 0.000000 0.000000 
#    y 0.000000 1.728120 0.000000 
#    z 0.000000 0.000000 1.713480 
# 
# From -- ./inp_files/11530.got.cif
#   From: 2010.03.12/outbox.cif.g09.slc.cpg/sg36_6_cif.got.tgz:11530.got - 2010.04.14 02:13:53.
