data_PCOD8174390
_publ_section_title
;
Structure prediction by ZEFSAII (Michael W. Deem and Ramdas Pophale) SiO2 
 PCOD8174390
Probable space group: C M C 21
;
_chemical_formula_sum "Si O2"
_cell_formula_units_Z 64
_cell_length_a 8.838025
_cell_length_b 20.665403
_cell_length_c 19.080418
_cell_angle_alpha 90.000000
_cell_angle_beta 90.000000
_cell_angle_gamma 90.000000
_cell_volume 3484.873271
_symmetry_space_group_name_H-M "C M C 21"
_symmetry_group_IT_number 36
_symmetry_cell_setting 'orthorhombic'
loop_
_space_group_symop_operation_xyz
x,y,z
-x,-y,1/2+z
x,-y,1/2+z
-x,y,z
1/2+x,1/2+y,z
1/2-x,1/2-y,1/2+z
1/2+x,1/2-y,1/2+z
1/2-x,1/2+y,z
loop_
_atom_site_type_symbol
_atom_site_label
_atom_site_fract_x
_atom_site_fract_y
_atom_site_fract_z
Si Si1 0.320722 0.809324 0.921170
Si Si2 0.822153 0.865494 0.628793
Si Si3 0.822676 0.497120 0.137598
Si Si4 0.820982 0.439347 0.413679
Si Si5 0.176928 0.562771 0.495368
Si Si6 0.321263 0.188125 0.997054
Si Si7 0.677495 0.511455 0.781090
Si Si8 0.675556 0.637540 0.288188
O O1 0.500000 0.800905 0.927261
O O2 0.256634 0.870486 0.965321
O O3 0.239452 0.747607 0.952759
O O4 0.275276 0.818392 0.839822
O O5 0.747082 0.934687 0.614493
O O6 0.753856 0.813625 0.574295
O O7 0.787999 0.841905 0.708136
O O8 0.000000 0.872805 0.617124
O O9 0.750238 0.468521 0.207455
O O10 0.000000 0.508230 0.147661
O O11 0.787466 0.444148 0.077670
O O12 0.754116 0.501241 0.454781
O O13 0.771660 0.375732 0.455157
O O14 0.743607 0.439009 0.337705
O O15 0.000000 0.442212 0.404157
O O16 0.000000 0.562362 0.480901
O O17 0.500000 0.193333 0.006077
O O18 0.500000 0.520063 0.774331
O O19 0.721134 0.437465 0.799244
O O20 0.500000 0.648554 0.305654
#
# Coordination Sequence:
#
# PCOD8174390 Si02
#       8
#     8   8   8   8   8   8   8   8
#     4  11  22  37  58  83 113 147 187 234 279 331
#     4  10  20  35  56  84 115 145 186 236 283 330
#     4  10  18  33  56  82 113 150 188 229 280 337
#     4  10  19  36  58  81 108 144 187 228 273 332
#     4   9  18  34  56  83 109 139 185 230 273 328
#     4  11  23  39  58  82 115 151 190 231 282 344
#     4  10  20  33  52  85 118 144 182 235 285 330
#     4   9  19  35  54  80 113 146 181 225 277 334
#
# _framework density 18.365086999999999
#
# number of rings (size 3 to 8) (size 9 to 14) (size 15 to 20)
#    0.000    2.000    2.500    2.625    0.000    3.500 
#    0.000    3.750    0.000    3.000    0.000    0.000 
#    0.000    0.000    0.000    0.000    0.000    0.000 
#
# Total GULP energy -396841.943627 kJ/mol
# GULP energy per Si atom -12401.310738 kJ/mol
# Density = 1.832329 g / cm^3
# Si number density = 18.365087 Si / 1000 Ang^3
#
#
#
# Elastic Constant Matrix: (Units=GPa)
#
#
# Indices 1 2 3 4 5 6 
#
# 1 37.2272 39.6107 32.1428 0.0000 0.0000 0.0000
# 2 39.6107 92.9076 63.1288 0.0000 0.0000 0.0000
# 3 32.1428 63.1288 130.1398 0.0000 0.0000 0.0000
# 4 0.0000 0.0000 0.0000 27.4522 0.0000 0.0000
# 5 0.0000 0.0000 0.0000 0.0000 31.7297 0.0000
# 6 0.0000 0.0000 0.0000 0.0000 0.0000 25.7842
#
#
#
# Elastic Compliance Matrix: (Units=1/GPa)
#
#
# Indices 1 2 3 4 5 6 
#
# 1 0.049935 -0.019256 -0.002992 0.000000 0.000000 0.000000
# 2 -0.019256 0.023481 -0.006634 0.000000 0.000000 0.000000
# 3 -0.002992 -0.006634 0.011641 0.000000 0.000000 0.000000
# 4 0.000000 0.000000 0.000000 0.036427 0.000000 0.000000
# 5 0.000000 0.000000 0.000000 0.000000 0.031516 0.000000
# 6 0.000000 0.000000 0.000000 0.000000 0.000000 0.038784
#
#
# Mechanical properties :
#
#
# Convention : Reuss Voigt Hill
#
# Bulk Modulus (GPa) = 36.64147 58.89326 47.76736
# Shear Modulus (GPa) = 19.33139 25.35269 22.34204
#
# Velocity S-wave (km/s) = 3.24792 3.71952 3.49169
# Velocity P-wave (km/s) = 5.83613 7.11225 6.50555
#
# Compressibility (1/GPa) = 0.02729148
#
# Stress axis : x y z
#
# Youngs Moduli (GPa) = 20.02610 42.58756 85.90125
#
# Poissons Ratio (x) = 0.82008 0.25704
# Poissons Ratio (y) = 0.38563 0.56989
# Poissons Ratio (z) = 0.05992 0.28254
#
# Static dielectric constant tensor:
#      x y z
#    x 3.296170 0.000000 0.000000 
#    y 0.000000 3.234420 0.000000 
#    z 0.000000 0.000000 3.552000 
# 
# 
# High freq. dielectric constant tensor:
#      x y z
#    x 1.710950 0.000000 0.000000 
#    y 0.000000 1.682650 0.000000 
#    z 0.000000 0.000000 1.727820 
# 
# From -- ./inp_files/13965.got.cif
#   From: 2010.03.12/outbox.cif.g09.slc.cpg/sg36_7_cif.got.tgz:13965.got - 2010.04.14 02:13:53.
