data_PCOD8174955
_publ_section_title
;
Structure prediction by ZEFSAII (Michael W. Deem and Ramdas Pophale) SiO2 
 PCOD8174955
Probable space group: C M C 21
;
_chemical_formula_sum "Si O2"
_cell_formula_units_Z 64
_cell_length_a 21.214517
_cell_length_b 14.088669
_cell_length_c 9.485865
_cell_angle_alpha 90.000000
_cell_angle_beta 90.000000
_cell_angle_gamma 90.000000
_cell_volume 2835.176196
_symmetry_space_group_name_H-M "C M C 21"
_symmetry_group_IT_number 36
_symmetry_cell_setting 'orthorhombic'
loop_
_space_group_symop_operation_xyz
x,y,z
-x,-y,1/2+z
x,-y,1/2+z
-x,y,z
1/2+x,1/2+y,z
1/2-x,1/2-y,1/2+z
1/2+x,1/2-y,1/2+z
1/2-x,1/2+y,z
loop_
_atom_site_type_symbol
_atom_site_label
_atom_site_fract_x
_atom_site_fract_y
_atom_site_fract_z
Si Si1 0.069865 0.776064 0.298170
Si Si2 0.072203 0.430825 0.380671
Si Si3 0.654282 0.016069 0.148598
Si Si4 0.285438 0.187615 0.603539
Si Si5 0.570168 0.604462 0.046826
Si Si6 0.195388 0.304746 0.775929
Si Si7 0.607103 0.726061 0.288609
Si Si8 0.928359 0.896036 0.027269
O O1 0.101389 0.822008 0.438139
O O2 0.118809 0.693286 0.263579
O O3 0.068009 0.857418 0.183756
O O4 0.000000 0.731578 0.322212
O O5 0.097037 0.496516 0.255236
O O6 0.121166 0.444923 0.507887
O O7 0.071154 0.322303 0.327520
O O8 0.000000 0.458598 0.420494
O O9 0.695189 0.921369 0.122370
O O10 0.706859 0.090694 0.208720
O O11 0.219707 0.217743 0.677607
O O12 0.280771 0.208311 0.436451
O O13 0.331392 0.256281 0.693906
O O14 0.500000 0.587629 0.989035
O O15 0.565566 0.651983 0.199662
O O16 0.602456 0.500919 0.042014
O O17 0.619061 0.668578 0.433795
O O18 0.000000 0.894360 0.965103
#
# Coordination Sequence:
#
# PCOD8174955 Si02
#       8
#     8   8   8   8   8   8   8   8
#     4  10  22  40  65 100 137 176 226 288 358 422
#     4  11  23  41  73 110 149 197 240 298 376 444
#     4  11  25  49  73 106 151 184 246 307 356 440
#     4  11  28  48  72 102 136 192 237 299 361 419
#     4  10  19  36  61  92 139 181 227 291 346 416
#     4  12  26  50  74 101 142 187 240 295 358 433
#     4  11  22  41  62  98 141 185 248 293 359 435
#     4  10  20  35  60  95 138 186 230 287 352 417
#
# _framework density 22.573550999999998
#
# number of rings (size 3 to 8) (size 9 to 14) (size 15 to 20)
#    0.000    1.250    2.500    3.000    5.250    4.000 
#    4.500    0.000    0.000    0.000    0.000    0.000 
#    0.000    0.000    0.000    0.000    0.000    0.000 
#
# Total GULP energy -396515.587508 kJ/mol
# GULP energy per Si atom -12391.112110 kJ/mol
# Density = 2.252217 g / cm^3
# Si number density = 22.573551 Si / 1000 Ang^3
#
#
#
# Elastic Constant Matrix: (Units=GPa)
#
#
# Indices 1 2 3 4 5 6 
#
# 1 61.6332 26.5363 31.9840 0.0000 0.0000 0.0000
# 2 26.5363 111.2441 43.3916 0.0000 0.0000 0.0000
# 3 31.9840 43.3916 127.0483 0.0000 0.0000 0.0000
# 4 0.0000 0.0000 0.0000 31.7553 0.0000 0.0000
# 5 0.0000 0.0000 0.0000 0.0000 31.4749 0.0000
# 6 0.0000 0.0000 0.0000 0.0000 0.0000 22.0058
#
#
#
# Elastic Compliance Matrix: (Units=1/GPa)
#
#
# Indices 1 2 3 4 5 6 
#
# 1 0.019587 -0.003172 -0.003848 0.000000 0.000000 0.000000
# 2 -0.003172 0.010884 -0.002919 0.000000 0.000000 0.000000
# 3 -0.003848 -0.002919 0.009837 0.000000 0.000000 0.000000
# 4 0.000000 0.000000 0.000000 0.031491 0.000000 0.000000
# 5 0.000000 0.000000 0.000000 0.000000 0.031771 0.000000
# 6 0.000000 0.000000 0.000000 0.000000 0.000000 0.045442
#
#
# Mechanical properties :
#
#
# Convention : Reuss Voigt Hill
#
# Bulk Modulus (GPa) = 48.94371 55.97216 52.45793
# Shear Modulus (GPa) = 28.45755 30.24811 29.35283
#
# Velocity S-wave (km/s) = 3.55443 3.66454 3.60991
# Velocity P-wave (km/s) = 6.21082 6.53869 6.37686
#
# Compressibility (1/GPa) = 0.02043164
#
# Stress axis : x y z
#
# Youngs Moduli (GPa) = 51.05336 91.87501 101.66061
#
# Poissons Ratio (x) = 0.29138 0.39118
# Poissons Ratio (y) = 0.16192 0.29675
# Poissons Ratio (z) = 0.19645 0.26818
#
# Static dielectric constant tensor:
#      x y z
#    x 3.861320 0.000000 0.000000 
#    y 0.000000 4.206000 0.000000 
#    z 0.000000 0.000000 4.239670 
# 
# 
# High freq. dielectric constant tensor:
#      x y z
#    x 1.862610 0.000000 0.000000 
#    y 0.000000 1.895650 0.000000 
#    z 0.000000 0.000000 1.908630 
# 
# From -- ./inp_files/5673.got.cif
#   From: 2010.03.12/outbox.cif.g09.slc.cpg/sg36_3_cif.got.tgz:5673.got - 2010.04.14 02:13:53.
