data_PCOD8174096
_publ_section_title
;
Structure prediction by ZEFSAII (Michael W. Deem and Ramdas Pophale) SiO2 
 PCOD8174096
Probable space group: C M M 2
;
_chemical_formula_sum "Si O2"
_cell_formula_units_Z 48
_cell_length_a 13.701422
_cell_length_b 20.047433
_cell_length_c 9.064622
_cell_angle_alpha 90.000000
_cell_angle_beta 90.000000
_cell_angle_gamma 90.000000
_cell_volume 2489.855320
_symmetry_space_group_name_H-M "C M M 2"
_symmetry_group_IT_number 35
_symmetry_cell_setting 'orthorhombic'
loop_
_space_group_symop_operation_xyz
x,y,z
-x,-y,z
-x,y,z
x,-y,z
1/2+x,1/2+y,z
1/2-x,1/2-y,z
1/2-x,1/2+y,z
1/2+x,1/2-y,z
loop_
_atom_site_type_symbol
_atom_site_label
_atom_site_fract_x
_atom_site_fract_y
_atom_site_fract_z
Si Si1 0.000000 0.210479 0.284900
Si Si2 0.000000 0.153603 0.611392
Si Si3 0.710033 0.316116 0.207731
Si Si4 0.198779 0.425066 0.395868
Si Si5 0.500000 0.852356 0.423218
Si Si6 0.692358 0.424274 0.694579
Si Si7 0.500000 0.203280 0.750418
Si Si8 0.293329 0.182013 0.885151
O O1 0.000000 0.172361 0.440129
O O2 0.093493 0.190826 0.185393
O O3 0.000000 0.288646 0.317919
O O4 0.092908 0.108625 0.642470
O O5 0.000000 0.217678 0.718716
O O6 0.750000 0.250000 0.294992
O O7 0.725507 0.382129 0.301741
O O8 0.773096 0.318662 0.058918
O O9 0.201654 0.500000 0.333501
O O10 0.091625 0.396426 0.379888
O O11 0.229035 0.422765 0.565176
O O12 0.500000 0.834998 0.595578
O O13 0.672445 0.500000 0.747177
O O14 0.738910 0.383223 0.827448
O O15 0.407761 0.180771 0.848076
O O16 0.250000 0.250000 0.813054
#
# Coordination Sequence:
#
# PCOD8174096 Si02
#       8
#     4   4   8   8   4   8   4   8
#     4  11  22  38  66  98 121 163 213 262 316 366
#     4  11  21  37  67  93 127 162 213 264 305 372
#     4  11  24  41  64  93 129 165 205 263 316 376
#     4  11  23  40  63  93 128 166 211 258 312 372
#     4  11  21  37  67  93 127 162 213 264 305 372
#     4  11  23  40  63  93 128 166 211 258 312 372
#     4  11  22  38  66  98 121 163 213 262 316 366
#     4  11  24  41  64  93 129 165 205 263 316 376
#
# _framework density 19.278230000000001
#
# number of rings (size 3 to 8) (size 9 to 14) (size 15 to 20)
#    0.000    1.000    6.667    0.500    0.000    5.333 
#    0.000    0.833    0.000    0.000    0.000    0.000 
#    0.000    0.000    0.000    0.000    0.000    0.000 
#
# Total GULP energy -297632.420344 kJ/mol
# GULP energy per Si atom -12401.350848 kJ/mol
# Density = 1.923435 g / cm^3
# Si number density = 19.278230 Si / 1000 Ang^3
#
#
#
# Elastic Constant Matrix: (Units=GPa)
#
#
# Indices 1 2 3 4 5 6 
#
# 1 120.1844 34.4688 11.8905 0.0000 0.0000 0.0000
# 2 34.4688 148.4534 29.2620 0.0000 0.0000 0.0000
# 3 11.8905 29.2620 57.1049 0.0000 0.0000 0.0000
# 4 0.0000 0.0000 0.0000 22.8942 0.0000 0.0000
# 5 0.0000 0.0000 0.0000 0.0000 37.1159 0.0000
# 6 0.0000 0.0000 0.0000 0.0000 0.0000 65.1512
#
#
#
# Elastic Compliance Matrix: (Units=1/GPa)
#
#
# Indices 1 2 3 4 5 6 
#
# 1 0.008955 -0.001904 -0.000889 0.000000 0.000000 0.000000
# 2 -0.001904 0.007898 -0.003651 0.000000 0.000000 0.000000
# 3 -0.000889 -0.003651 0.019567 0.000000 0.000000 0.000000
# 4 0.000000 0.000000 0.000000 0.043679 0.000000 0.000000
# 5 0.000000 0.000000 0.000000 0.000000 0.026943 0.000000
# 6 0.000000 0.000000 0.000000 0.000000 0.000000 0.015349
#
#
# Mechanical properties :
#
#
# Convention : Reuss Voigt Hill
#
# Bulk Modulus (GPa) = 42.49379 52.99838 47.74609
# Shear Modulus (GPa) = 34.93537 41.70703 38.32120
#
# Velocity S-wave (km/s) = 4.26157 4.65631 4.46331
# Velocity P-wave (km/s) = 6.80477 7.51394 7.16813
#
# Compressibility (1/GPa) = 0.02353285
#
# Stress axis : x y z
#
# Youngs Moduli (GPa) = 111.67532 126.61831 51.10551
#
# Poissons Ratio (x) = 0.24107 0.04543
# Poissons Ratio (y) = 0.21262 0.18656
# Poissons Ratio (z) = 0.09927 0.46223
#
# Static dielectric constant tensor:
#      x y z
#    x 3.585430 0.000000 0.000000 
#    y 0.000000 3.837780 0.000000 
#    z 0.000000 0.000000 3.247860 
# 
# 
# High freq. dielectric constant tensor:
#      x y z
#    x 1.767540 0.000000 0.000000 
#    y 0.000000 1.758580 0.000000 
#    z 0.000000 0.000000 1.731080 
# 
# From -- ./inp_files/7374.got.cif
#   From: 2010.03.12/outbox.cif.g09.slc.cpg/sg35_4_cif.got.tgz:7374.got - 2010.04.14 02:02:04.
