data_PCOD8174957
_publ_section_title
;
Structure prediction by ZEFSAII (Michael W. Deem and Ramdas Pophale) SiO2 
 PCOD8174957
Probable space group: C M C 21
;
_chemical_formula_sum "Si O2"
_cell_formula_units_Z 64
_cell_length_a 8.746542
_cell_length_b 29.074276
_cell_length_c 12.581530
_cell_angle_alpha 90.000000
_cell_angle_beta 90.000000
_cell_angle_gamma 90.000000
_cell_volume 3199.475230
_symmetry_space_group_name_H-M "C M C 21"
_symmetry_group_IT_number 36
_symmetry_cell_setting 'orthorhombic'
loop_
_space_group_symop_operation_xyz
x,y,z
-x,-y,1/2+z
x,-y,1/2+z
-x,y,z
1/2+x,1/2+y,z
1/2-x,1/2-y,1/2+z
1/2+x,1/2-y,1/2+z
1/2-x,1/2+y,z
loop_
_atom_site_type_symbol
_atom_site_label
_atom_site_fract_x
_atom_site_fract_y
_atom_site_fract_z
Si Si1 0.676768 0.967280 0.475460
Si Si2 0.181776 0.331083 0.367260
Si Si3 0.324370 0.821247 0.740651
Si Si4 0.818113 0.565253 0.536445
Si Si5 0.324937 0.922334 0.264640
Si Si6 0.179806 0.125083 0.062466
Si Si7 0.676075 0.719856 0.680004
Si Si8 0.680420 0.166183 0.479898
O O1 0.500000 0.964263 0.511418
O O2 0.693719 0.962716 0.348999
O O3 0.761267 0.926448 0.538146
O O4 0.750153 0.017814 0.490334
O O5 0.248522 0.376142 0.309413
O O6 0.250642 0.335026 0.485646
O O7 0.241555 0.290437 0.292724
O O8 0.000000 0.328623 0.378791
O O9 0.500000 0.837393 0.742552
O O10 0.227466 0.861029 0.682319
O O11 0.304670 0.774668 0.672601
O O12 0.270170 0.814888 0.863887
O O13 0.747272 0.564384 0.654691
O O14 0.764343 0.612721 0.481768
O O15 0.000000 0.561797 0.530910
O O16 0.500000 0.910590 0.240106
O O17 0.000000 0.125319 0.050788
O O18 0.500000 0.705216 0.687673
O O19 0.745715 0.695784 0.575334
O O20 0.500000 0.169671 0.499176
#
# Coordination Sequence:
#
# PCOD8174957 Si02
#       8
#     8   8   8   8   8   8   8   8
#     4   9  18  32  55  84 115 153 197 246 298 355
#     4  10  19  36  62  85 112 151 197 248 297 347
#     4  10  24  42  60  86 122 161 203 248 301 361
#     4   9  16  30  56  86 112 147 201 250 291 348
#     4   8  14  27  49  80 110 140 188 241 286 336
#     4  11  23  39  59  85 120 157 200 247 303 360
#     4  11  23  38  58  90 123 154 196 247 305 363
#     4  10  21  40  63  88 118 157 206 253 299 358
#
# _framework density 20.003281000000001
#
# number of rings (size 3 to 8) (size 9 to 14) (size 15 to 20)
#    0.000    2.250    1.250    2.625    1.750    2.500 
#    0.000    4.375    0.000    3.000    0.000    0.000 
#    0.000    0.000    0.000    0.000    0.000    0.000 
#
# Total GULP energy -396493.590938 kJ/mol
# GULP energy per Si atom -12390.424717 kJ/mol
# Density = 1.995775 g / cm^3
# Si number density = 20.003281 Si / 1000 Ang^3
#
#
#
# Elastic Constant Matrix: (Units=GPa)
#
#
# Indices 1 2 3 4 5 6 
#
# 1 83.3379 37.9443 38.6018 0.0000 0.0000 0.0000
# 2 37.9443 103.9270 47.8134 0.0000 0.0000 0.0000
# 3 38.6018 47.8134 109.5104 0.0000 0.0000 0.0000
# 4 0.0000 0.0000 0.0000 30.3918 0.0000 0.0000
# 5 0.0000 0.0000 0.0000 0.0000 25.6445 0.0000
# 6 0.0000 0.0000 0.0000 0.0000 0.0000 20.3180
#
#
#
# Elastic Compliance Matrix: (Units=1/GPa)
#
#
# Indices 1 2 3 4 5 6 
#
# 1 0.015534 -0.003945 -0.003753 0.000000 0.000000 0.000000
# 2 -0.003945 0.013043 -0.004304 0.000000 0.000000 0.000000
# 3 -0.003753 -0.004304 0.012334 0.000000 0.000000 0.000000
# 4 0.000000 0.000000 0.000000 0.032904 0.000000 0.000000
# 5 0.000000 0.000000 0.000000 0.000000 0.038995 0.000000
# 6 0.000000 0.000000 0.000000 0.000000 0.000000 0.049218
#
#
# Mechanical properties :
#
#
# Convention : Reuss Voigt Hill
#
# Bulk Modulus (GPa) = 59.15029 60.61047 59.88038
# Shear Modulus (GPa) = 26.08712 26.76524 26.42618
#
# Velocity S-wave (km/s) = 3.61521 3.66189 3.63863
# Velocity P-wave (km/s) = 6.86009 6.94589 6.90312
#
# Compressibility (1/GPa) = 0.01690609
#
# Stress axis : x y z
#
# Youngs Moduli (GPa) = 64.37520 76.67238 81.07837
#
# Poissons Ratio (x) = 0.30245 0.30431
# Poissons Ratio (y) = 0.25394 0.34896
# Poissons Ratio (z) = 0.24162 0.33000
#
# Static dielectric constant tensor:
#      x y z
#    x 3.293520 0.000000 0.000000 
#    y 0.000000 3.777660 0.000000 
#    z 0.000000 0.000000 3.860650 
# 
# 
# High freq. dielectric constant tensor:
#      x y z
#    x 1.745120 0.000000 0.000000 
#    y 0.000000 1.781300 0.000000 
#    z 0.000000 0.000000 1.789180 
# 
# From -- ./inp_files/7070.got.cif
#   From: 2010.03.12/outbox.cif.g09.slc.cpg/sg36_4_cif.got.tgz:7070.got - 2010.04.14 02:13:53.
