data_PCOD8174827
_publ_section_title
;
Structure prediction by ZEFSAII (Michael W. Deem and Ramdas Pophale) SiO2 
 PCOD8174827
Probable space group: C M C 21
;
_chemical_formula_sum "Si O2"
_cell_formula_units_Z 64
_cell_length_a 18.124244
_cell_length_b 17.507171
_cell_length_c 8.970805
_cell_angle_alpha 90.000000
_cell_angle_beta 90.000000
_cell_angle_gamma 90.000000
_cell_volume 2846.474453
_symmetry_space_group_name_H-M "C M C 21"
_symmetry_group_IT_number 36
_symmetry_cell_setting 'orthorhombic'
loop_
_space_group_symop_operation_xyz
x,y,z
-x,-y,1/2+z
x,-y,1/2+z
-x,y,z
1/2+x,1/2+y,z
1/2-x,1/2-y,1/2+z
1/2+x,1/2-y,1/2+z
1/2-x,1/2+y,z
loop_
_atom_site_type_symbol
_atom_site_label
_atom_site_fract_x
_atom_site_fract_y
_atom_site_fract_z
Si Si1 0.860965 0.981171 0.511800
Si Si2 0.881987 0.100111 0.732022
Si Si3 0.275901 0.421145 0.782085
Si Si4 0.276039 0.850786 0.248430
Si Si5 0.382874 0.924092 0.655292
Si Si6 0.731261 0.225695 0.447565
Si Si7 0.918937 0.434657 0.319030
Si Si8 0.917981 0.267506 0.790231
O O1 0.909850 0.931548 0.393937
O O2 0.831813 0.924798 0.641934
O O3 0.910006 0.046881 0.595537
O O4 0.796429 0.022284 0.417208
O O5 0.791771 0.089642 0.734629
O O6 0.907993 0.186563 0.704175
O O7 0.196808 0.443270 0.719695
O O8 0.275065 0.336507 0.850680
O O9 0.267469 0.807738 0.407791
O O10 0.356736 0.887473 0.226954
O O11 0.260428 0.786787 0.122760
O O12 0.386960 0.945318 0.483145
O O13 0.408949 0.836682 0.673634
O O14 0.434004 0.982746 0.746231
O O15 0.643390 0.225113 0.417150
O O16 0.000000 0.393665 0.319634
O O17 0.000000 0.270608 0.860812
#
# Coordination Sequence:
#
# PCOD8174827 Si02
#       8
#     8   8   8   8   8   8   8   8
#     4  10  19  34  59  94 123 151 202 260 319 375
#     4  10  21  38  64  92 124 160 206 261 324 377
#     4  10  19  34  58  87 120 158 198 258 309 366
#     4  11  24  40  61  93 126 167 214 260 317 374
#     4  11  24  41  61  89 127 176 218 256 306 372
#     4  10  24  38  62  91 121 163 208 263 315 368
#     4  12  26  41  62  91 133 175 216 259 310 376
#     4  10  23  42  64  87 124 170 215 257 320 378
#
# _framework density 22.483953
#
# number of rings (size 3 to 8) (size 9 to 14) (size 15 to 20)
#    0.000    1.500    1.250    4.125   12.250    0.500 
#    0.000    0.625    0.000    0.000    0.000    0.000 
#    0.000    0.000    0.000    0.000    0.000    0.000 
#
# Total GULP energy -396604.559587 kJ/mol
# GULP energy per Si atom -12393.892487 kJ/mol
# Density = 2.243278 g / cm^3
# Si number density = 22.483953 Si / 1000 Ang^3
#
#
#
# Elastic Constant Matrix: (Units=GPa)
#
#
# Indices 1 2 3 4 5 6 
#
# 1 60.0021 19.5228 2.2877 0.0000 0.0000 0.0000
# 2 19.5228 113.6332 45.5743 0.0000 0.0000 0.0000
# 3 2.2877 45.5743 110.2983 0.0000 0.0000 0.0000
# 4 0.0000 0.0000 0.0000 37.7804 0.0000 0.0000
# 5 0.0000 0.0000 0.0000 0.0000 6.2945 0.0000
# 6 0.0000 0.0000 0.0000 0.0000 0.0000 13.0129
#
#
#
# Elastic Compliance Matrix: (Units=1/GPa)
#
#
# Indices 1 2 3 4 5 6 
#
# 1 0.017758 -0.003480 0.001070 0.000000 0.000000 0.000000
# 2 -0.003480 0.011230 -0.004568 0.000000 0.000000 0.000000
# 3 0.001070 -0.004568 0.010932 0.000000 0.000000 0.000000
# 4 0.000000 0.000000 0.000000 0.026469 0.000000 0.000000
# 5 0.000000 0.000000 0.000000 0.000000 0.158870 0.000000
# 6 0.000000 0.000000 0.000000 0.000000 0.000000 0.076847
#
#
# Mechanical properties :
#
#
# Convention : Reuss Voigt Hill
#
# Bulk Modulus (GPa) = 38.51682 46.52259 42.51971
# Shear Modulus (GPa) = 15.39807 25.85412 20.62609
#
# Velocity S-wave (km/s) = 2.61980 3.39468 3.03210
# Velocity P-wave (km/s) = 5.13022 6.00846 5.58662
#
# Compressibility (1/GPa) = 0.02596268
#
# Stress axis : x y z
#
# Youngs Moduli (GPa) = 56.31419 89.04585 91.47775
#
# Poissons Ratio (x) = 0.30986 -0.09784
# Poissons Ratio (y) = 0.19596 0.41787
# Poissons Ratio (z) = -0.06023 0.40676
#
# Static dielectric constant tensor:
#      x y z
#    x 3.795320 0.000000 0.000000 
#    y 0.000000 4.218520 0.000000 
#    z 0.000000 0.000000 4.027610 
# 
# 
# High freq. dielectric constant tensor:
#      x y z
#    x 1.857500 0.000000 0.000000 
#    y 0.000000 1.896010 0.000000 
#    z 0.000000 0.000000 1.884380 
# 
# From -- ./inp_files/5346.got.cif
#   From: 2010.03.12/outbox.cif.g09.slc.cpg/sg36_3_cif.got.tgz:5346.got - 2010.04.14 02:13:53.
