data_PCOD8174561
_publ_section_title
;
Structure prediction by ZEFSAII (Michael W. Deem and Ramdas Pophale) SiO2 
 PCOD8174561
Probable space group: C M C 21
;
_chemical_formula_sum "Si O2"
_cell_formula_units_Z 64
_cell_length_a 9.054568
_cell_length_b 22.888589
_cell_length_c 17.680096
_cell_angle_alpha 90.000000
_cell_angle_beta 90.000000
_cell_angle_gamma 90.000000
_cell_volume 3664.134224
_symmetry_space_group_name_H-M "C M C 21"
_symmetry_group_IT_number 36
_symmetry_cell_setting 'orthorhombic'
loop_
_space_group_symop_operation_xyz
x,y,z
-x,-y,1/2+z
x,-y,1/2+z
-x,y,z
1/2+x,1/2+y,z
1/2-x,1/2-y,1/2+z
1/2+x,1/2-y,1/2+z
1/2-x,1/2+y,z
loop_
_atom_site_type_symbol
_atom_site_label
_atom_site_fract_x
_atom_site_fract_y
_atom_site_fract_z
Si Si1 0.167059 0.171085 0.326190
Si Si2 0.676511 0.445689 0.347270
Si Si3 0.671348 0.115532 0.713554
Si Si4 0.338232 0.668972 0.927509
Si Si5 0.334765 0.273288 0.266002
Si Si6 0.831887 0.627309 0.545085
Si Si7 0.175121 0.435045 0.893560
Si Si8 0.836777 0.767926 0.987866
O O1 0.248687 0.211385 0.263849
O O2 0.261128 0.111868 0.334308
O O3 0.162511 0.204928 0.404891
O O4 0.000000 0.156715 0.299380
O O5 0.500000 0.449546 0.339993
O O6 0.742227 0.431261 0.264594
O O7 0.724761 0.395005 0.406355
O O8 0.744883 0.504455 0.378463
O O9 0.500000 0.117724 0.738246
O O10 0.740181 0.179962 0.719418
O O11 0.688578 0.095839 0.626053
O O12 0.500000 0.662682 0.964425
O O13 0.350134 0.706321 0.851716
O O14 0.236095 0.703406 0.986934
O O15 0.500000 0.266483 0.231343
O O16 0.780606 0.583202 0.479075
O O17 0.744867 0.688327 0.544551
O O18 0.000000 0.645048 0.529895
O O19 0.000000 0.441034 0.882128
O O20 0.000000 0.759174 0.019834
#
# Coordination Sequence:
#
# PCOD8174561 Si02
#       8
#     8   8   8   8   8   8   8   8
#     4   9  16  27  44  68  95 122 153 192 234 280
#     4  10  20  33  49  72  99 130 168 210 250 294
#     4  10  19  32  50  72  97 128 163 203 250 301
#     4   8  15  27  43  63  91 121 148 184 233 282
#     4   9  16  27  44  68  95 122 151 188 235 285
#     4   9  19  33  49  70  98 129 161 199 249 301
#     4  10  19  32  50  72  98 131 169 210 249 291
#     4   9  16  25  43  69  93 117 149 188 232 280
#
# _framework density 17.466608000000001
#
# number of rings (size 3 to 8) (size 9 to 14) (size 15 to 20)
#    0.000    2.750    0.000    3.000    0.000    8.000 
#    0.000    0.000    0.000    1.500    0.000    3.500 
#    0.000    0.000    0.000    0.000    0.000    0.000 
#
# Total GULP energy -396672.586222 kJ/mol
# GULP energy per Si atom -12396.018319 kJ/mol
# Density = 1.742685 g / cm^3
# Si number density = 17.466608 Si / 1000 Ang^3
#
#
#
# Elastic Constant Matrix: (Units=GPa)
#
#
# Indices 1 2 3 4 5 6 
#
# 1 121.7319 62.0200 36.4556 0.0000 0.0000 0.0000
# 2 62.0200 127.7385 41.0032 0.0000 0.0000 0.0000
# 3 36.4556 41.0032 53.1654 0.0000 0.0000 0.0000
# 4 0.0000 0.0000 0.0000 15.1324 0.0000 0.0000
# 5 0.0000 0.0000 0.0000 0.0000 17.3241 0.0000
# 6 0.0000 0.0000 0.0000 0.0000 0.0000 33.7329
#
#
#
# Elastic Compliance Matrix: (Units=1/GPa)
#
#
# Indices 1 2 3 4 5 6 
#
# 1 0.011796 -0.004161 -0.004879 0.000000 0.000000 0.000000
# 2 -0.004161 0.011872 -0.006303 0.000000 0.000000 0.000000
# 3 -0.004879 -0.006303 0.027016 0.000000 0.000000 0.000000
# 4 0.000000 0.000000 0.000000 0.066083 0.000000 0.000000
# 5 0.000000 0.000000 0.000000 0.000000 0.057723 0.000000
# 6 0.000000 0.000000 0.000000 0.000000 0.000000 0.029645
#
#
# Mechanical properties :
#
#
# Convention : Reuss Voigt Hill
#
# Bulk Modulus (GPa) = 50.00645 64.62148 57.31397
# Shear Modulus (GPa) = 20.70501 24.11502 22.41002
#
# Velocity S-wave (km/s) = 3.44671 3.71972 3.58581
# Velocity P-wave (km/s) = 6.67320 7.45157 7.07310
#
# Compressibility (1/GPa) = 0.01999742
#
# Stress axis : x y z
#
# Youngs Moduli (GPa) = 84.77475 84.23234 37.01490
#
# Poissons Ratio (x) = 0.35049 0.18061
# Poissons Ratio (y) = 0.35274 0.23330
# Poissons Ratio (z) = 0.41365 0.53091
#
# Static dielectric constant tensor:
#      x y z
#    x 3.540400 0.000000 0.000000 
#    y 0.000000 3.202390 0.000000 
#    z 0.000000 0.000000 2.917130 
# 
# 
# High freq. dielectric constant tensor:
#      x y z
#    x 1.693140 0.000000 0.000000 
#    y 0.000000 1.661710 0.000000 
#    z 0.000000 0.000000 1.631610 
# 
# From -- ./inp_files/13785.got.cif
#   From: 2010.03.12/outbox.cif.g09.slc.cpg/sg36_7_cif.got.tgz:13785.got - 2010.04.14 02:13:53.
