data_PCOD8174461
_publ_section_title
;
Structure prediction by ZEFSAII (Michael W. Deem and Ramdas Pophale) SiO2 
 PCOD8174461
Probable space group: C M C 21
;
_chemical_formula_sum "Si O2"
_cell_formula_units_Z 60
_cell_length_a 23.914199
_cell_length_b 35.861583
_cell_length_c 5.179019
_cell_angle_alpha 90.000000
_cell_angle_beta 90.000000
_cell_angle_gamma 90.000000
_cell_volume 4441.532041
_symmetry_space_group_name_H-M "C M C 21"
_symmetry_group_IT_number 36
_symmetry_cell_setting 'orthorhombic'
loop_
_space_group_symop_operation_xyz
x,y,z
-x,-y,1/2+z
x,-y,1/2+z
-x,y,z
1/2+x,1/2+y,z
1/2-x,1/2-y,1/2+z
1/2+x,1/2-y,1/2+z
1/2-x,1/2+y,z
loop_
_atom_site_type_symbol
_atom_site_label
_atom_site_fract_x
_atom_site_fract_y
_atom_site_fract_z
Si Si1 0.562333 0.344872 0.875000
Si Si2 0.500000 0.477654 0.927297
Si Si3 0.215626 0.293839 0.367907
Si Si4 0.790741 0.860641 0.376745
Si Si5 0.103080 0.191611 0.873099
Si Si6 0.620359 0.524842 0.335714
Si Si7 0.330968 0.397023 0.878472
Si Si8 0.677005 0.759049 0.868162
O O1 0.500000 0.362770 0.871378
O O2 0.568695 0.318168 0.628533
O O3 0.608005 0.377730 0.877984
O O4 0.566833 0.318271 0.123141
O O5 0.500000 0.486401 0.233532
O O6 0.442119 0.456732 0.858531
O O7 0.233065 0.337389 0.368823
O O8 0.270144 0.268160 0.369223
O O9 0.177854 0.285191 0.616822
O O10 0.178400 0.285728 0.116705
O O11 0.840571 0.831652 0.365650
O O12 0.793695 0.884316 0.637712
O O13 0.795501 0.888013 0.133200
O O14 0.119732 0.235213 0.871502
O O15 0.629315 0.505851 0.058099
O O16 0.663412 0.558485 0.364944
#
# Coordination Sequence:
#
# PCOD8174461 Si02
#       8
#     8   4   8   8   8   8   8   8
#     4  10  19  29  40  52  68  93 118 144 176 216
#     4   8  16  28  40  52  64  76  96 136 178 208
#     4   9  15  23  37  54  72  88 109 126 156 203
#     4   9  17  28  38  55  73  90 106 132 166 208
#     4   9  17  28  38  52  72  88 114 142 165 199
#     4  10  19  31  43  55  67  83 109 144 181 219
#     4  10  19  29  42  53  70  90 111 141 178 219
#     4   9  15  23  37  54  69  91 108 132 160 189
#
# _framework density 13.508853
#
# number of rings (size 3 to 8) (size 9 to 14) (size 15 to 20)
#    0.000    2.667    0.000    2.800    0.933    6.400 
#    0.000    0.000    0.000    0.000    0.000    0.000 
#    0.000    0.000    0.000    0.000    0.000    0.000 
#
# Total GULP energy -371851.887767 kJ/mol
# GULP energy per Si atom -12395.062926 kJ/mol
# Density = 1.347811 g / cm^3
# Si number density = 13.508853 Si / 1000 Ang^3
#
#
#
# Elastic Constant Matrix: (Units=GPa)
#
#
# Indices 1 2 3 4 5 6 
#
# 1 11.5136 15.8426 9.2761 0.0000 0.0000 0.0000
# 2 15.8426 54.1318 18.4638 0.0000 0.0000 0.0000
# 3 9.2761 18.4638 100.9071 0.0000 0.0000 0.0000
# 4 0.0000 0.0000 0.0000 12.6561 0.0000 0.0000
# 5 0.0000 0.0000 0.0000 0.0000 46.1426 0.0000
# 6 0.0000 0.0000 0.0000 0.0000 0.0000 23.8654
#
#
#
# Elastic Compliance Matrix: (Units=1/GPa)
#
#
# Indices 1 2 3 4 5 6 
#
# 1 0.148843 -0.041484 -0.006092 0.000000 0.000000 0.000000
# 2 -0.041484 0.031265 -0.001907 0.000000 0.000000 0.000000
# 3 -0.006092 -0.001907 0.010819 0.000000 0.000000 0.000000
# 4 0.000000 0.000000 0.000000 0.079013 0.000000 0.000000
# 5 0.000000 0.000000 0.000000 0.000000 0.021672 0.000000
# 6 0.000000 0.000000 0.000000 0.000000 0.000000 0.041902
#
#
# Mechanical properties :
#
#
# Convention : Reuss Voigt Hill
#
# Bulk Modulus (GPa) = 10.87415 28.19083 19.53249
# Shear Modulus (GPa) = 10.79601 24.73084 17.76343
#
# Velocity S-wave (km/s) = 2.83005 4.28333 3.63015
# Velocity P-wave (km/s) = 4.32966 6.73619 5.66225
#
# Compressibility (1/GPa) = 0.09196120
#
# Stress axis : x y z
#
# Youngs Moduli (GPa) = 6.71847 31.98472 92.42886
#
# Poissons Ratio (x) = 1.32684 0.56309
# Poissons Ratio (y) = 0.27871 0.17629
# Poissons Ratio (z) = 0.04093 0.06101
#
# Static dielectric constant tensor:
#      x y z
#    x 2.371890 0.000000 0.000000 
#    y 0.000000 2.483700 0.000000 
#    z 0.000000 0.000000 2.954560 
# 
# 
# High freq. dielectric constant tensor:
#      x y z
#    x 1.455590 0.000000 0.000000 
#    y 0.000000 1.484890 0.000000 
#    z 0.000000 0.000000 1.541040 
# 
# From -- ./inp_files/1517.got.cif
#   From: 2010.03.12/outbox.cif.g09.slc.cpg/sg36_1_cif.got.tgz:1517.got - 2010.04.14 02:13:53.
