data_PCOD8174950
_publ_section_title
;
Structure prediction by ZEFSAII (Michael W. Deem and Ramdas Pophale) SiO2 
 PCOD8174950
Probable space group: C M C 21
;
_chemical_formula_sum "Si O2"
_cell_formula_units_Z 64
_cell_length_a 9.233157
_cell_length_b 31.875464
_cell_length_c 10.837521
_cell_angle_alpha 90.000000
_cell_angle_beta 90.000000
_cell_angle_gamma 90.000000
_cell_volume 3189.603416
_symmetry_space_group_name_H-M "C M C 21"
_symmetry_group_IT_number 36
_symmetry_cell_setting 'orthorhombic'
loop_
_space_group_symop_operation_xyz
x,y,z
-x,-y,1/2+z
x,-y,1/2+z
-x,y,z
1/2+x,1/2+y,z
1/2-x,1/2-y,1/2+z
1/2+x,1/2-y,1/2+z
1/2-x,1/2+y,z
loop_
_atom_site_type_symbol
_atom_site_label
_atom_site_fract_x
_atom_site_fract_y
_atom_site_fract_z
Si Si1 0.827461 0.276600 0.095560
Si Si2 0.163350 0.578276 0.077859
Si Si3 0.661569 0.643069 0.511246
Si Si4 0.328760 0.725834 0.845411
Si Si5 0.160194 0.070997 0.709825
Si Si6 0.330412 0.986693 0.049682
Si Si7 0.328964 0.366860 0.414700
Si Si8 0.336713 0.084185 0.362942
O O1 0.758972 0.322105 0.076762
O O2 0.756390 0.257414 0.222475
O O3 0.000000 0.278882 0.114086
O O4 0.788733 0.250604 0.971197
O O5 0.223027 0.534169 0.021688
O O6 0.173527 0.572036 0.222575
O O7 0.000000 0.587173 0.034259
O O8 0.258606 0.619052 0.043656
O O9 0.500000 0.660578 0.481444
O O10 0.649999 0.603713 0.599468
O O11 0.738970 0.625421 0.388310
O O12 0.500000 0.728736 0.817722
O O13 0.275604 0.678348 0.869303
O O14 0.258848 0.031501 0.674722
O O15 0.227425 0.096614 0.823829
O O16 0.000000 0.054234 0.742185
O O17 0.500000 0.987809 0.076200
O O18 0.285141 0.957326 0.935808
O O19 0.500000 0.365583 0.427891
O O20 0.500000 0.095856 0.403406
#
# Coordination Sequence:
#
# PCOD8174950 Si02
#       8
#     8   8   8   8   8   8   8   8
#     4  11  23  39  65  97 124 159 204 253 307 368
#     4  10  22  36  54  82 116 153 192 243 300 351
#     4  10  19  36  61  84 112 149 188 235 292 349
#     4  10  23  44  64  88 127 163 202 255 310 368
#     4   9  18  34  57  81 107 143 187 232 279 336
#     4   9  19  34  55  80 110 149 188 236 291 342
#     4  10  21  39  59  81 114 154 191 238 292 351
#     4   9  19  36  53  79 116 148 192 244 289 351
#
# _framework density 20.065190000000001
#
# number of rings (size 3 to 8) (size 9 to 14) (size 15 to 20)
#    0.000    2.250    1.250    0.750    1.750    4.500 
#    0.000    2.500    0.000    0.000    0.000    0.000 
#    0.000    0.000    0.000    0.000    0.000    0.000 
#
# Total GULP energy -396618.778748 kJ/mol
# GULP energy per Si atom -12394.336836 kJ/mol
# Density = 2.001952 g / cm^3
# Si number density = 20.065190 Si / 1000 Ang^3
#
#
#
# Elastic Constant Matrix: (Units=GPa)
#
#
# Indices 1 2 3 4 5 6 
#
# 1 66.0050 36.0710 40.2037 0.0000 0.0000 0.0000
# 2 36.0710 63.8905 36.0910 0.0000 0.0000 0.0000
# 3 40.2037 36.0910 90.1045 0.0000 0.0000 0.0000
# 4 0.0000 0.0000 0.0000 27.4774 0.0000 0.0000
# 5 0.0000 0.0000 0.0000 0.0000 33.5471 0.0000
# 6 0.0000 0.0000 0.0000 0.0000 0.0000 24.9648
#
#
#
# Elastic Compliance Matrix: (Units=1/GPa)
#
#
# Indices 1 2 3 4 5 6 
#
# 1 0.024999 -0.010098 -0.007110 0.000000 0.000000 0.000000
# 2 -0.010098 0.024308 -0.005231 0.000000 0.000000 0.000000
# 3 -0.007110 -0.005231 0.016366 0.000000 0.000000 0.000000
# 4 0.000000 0.000000 0.000000 0.036394 0.000000 0.000000
# 5 0.000000 0.000000 0.000000 0.000000 0.029809 0.000000
# 6 0.000000 0.000000 0.000000 0.000000 0.000000 0.040056
#
#
# Mechanical properties :
#
#
# Convention : Reuss Voigt Hill
#
# Bulk Modulus (GPa) = 48.08648 49.41460 48.75054
# Shear Modulus (GPa) = 22.34738 24.37348 23.36043
#
# Velocity S-wave (km/s) = 3.34089 3.48906 3.41578
# Velocity P-wave (km/s) = 6.23693 6.39624 6.31708
#
# Compressibility (1/GPa) = 0.02079587
#
# Stress axis : x y z
#
# Youngs Moduli (GPa) = 40.00121 41.13949 61.10339
#
# Poissons Ratio (x) = 0.41542 0.43443
# Poissons Ratio (y) = 0.40392 0.31962
# Poissons Ratio (z) = 0.28440 0.21519
#
# Static dielectric constant tensor:
#      x y z
#    x 3.804030 0.000000 0.000000 
#    y 0.000000 3.610450 0.000000 
#    z 0.000000 0.000000 3.700070 
# 
# 
# High freq. dielectric constant tensor:
#      x y z
#    x 1.776150 0.000000 0.000000 
#    y 0.000000 1.775710 0.000000 
#    z 0.000000 0.000000 1.782880 
# 
# From -- ./inp_files/7069.got.cif
#   From: 2010.03.12/outbox.cif.g09.slc.cpg/sg36_4_cif.got.tgz:7069.got - 2010.04.14 02:13:53.
