data_PCOD8174618
_publ_section_title
;
Structure prediction by ZEFSAII (Michael W. Deem and Ramdas Pophale) SiO2 
 PCOD8174618
Probable space group: C M C 21
;
_chemical_formula_sum "Si O2"
_cell_formula_units_Z 64
_cell_length_a 8.887691
_cell_length_b 20.713310
_cell_length_c 19.056570
_cell_angle_alpha 90.000000
_cell_angle_beta 90.000000
_cell_angle_gamma 90.000000
_cell_volume 3508.190648
_symmetry_space_group_name_H-M "C M C 21"
_symmetry_group_IT_number 36
_symmetry_cell_setting 'orthorhombic'
loop_
_space_group_symop_operation_xyz
x,y,z
-x,-y,1/2+z
x,-y,1/2+z
-x,y,z
1/2+x,1/2+y,z
1/2-x,1/2-y,1/2+z
1/2+x,1/2-y,1/2+z
1/2-x,1/2+y,z
loop_
_atom_site_type_symbol
_atom_site_label
_atom_site_fract_x
_atom_site_fract_y
_atom_site_fract_z
Si Si1 0.824580 0.566114 0.724800
Si Si2 0.677115 0.808964 0.143226
Si Si3 0.174725 0.634135 0.345312
Si Si4 0.678396 0.679435 0.212637
Si Si5 0.326285 0.502343 0.848186
Si Si6 0.325860 0.060697 0.135235
Si Si7 0.173065 0.006640 0.007181
Si Si8 0.825431 0.371140 0.002816
O O1 0.761130 0.630449 0.687683
O O2 0.730754 0.557986 0.796258
O O3 0.793543 0.506908 0.672854
O O4 0.000000 0.571659 0.743446
O O5 0.500000 0.807331 0.152393
O O6 0.744956 0.742089 0.172323
O O7 0.718609 0.817436 0.060772
O O8 0.263223 0.681371 0.292853
O O9 0.228146 0.561056 0.334187
O O10 0.205556 0.657349 0.425179
O O11 0.000000 0.636455 0.325924
O O12 0.500000 0.679545 0.212978
O O13 0.734867 0.615764 0.174471
O O14 0.500000 0.485088 0.834053
O O15 0.302840 0.528496 0.926891
O O16 0.500000 0.079357 0.135582
O O17 0.268677 0.055092 0.055349
O O18 0.000000 0.011108 0.029772
O O19 0.225383 0.933374 0.016943
O O20 0.000000 0.392028 0.010647
#
# Coordination Sequence:
#
# PCOD8174618 Si02
#       8
#     8   8   8   8   8   8   8   8
#     4  10  19  34  57  80 106 140 181 224 267 322
#     4   9  19  37  57  79 106 143 183 221 272 326
#     4  10  19  32  54  80 107 141 181 225 270 323
#     4  11  22  36  56  79 111 147 180 223 272 326
#     4  10  20  33  52  81 114 143 178 225 275 323
#     4  11  21  35  57  81 108 141 181 226 267 320
#     4  10  20  33  52  82 114 142 177 225 278 324
#     4   9  17  34  57  78 104 141 185 225 267 324
#
# _framework density 18.243022
#
# number of rings (size 3 to 8) (size 9 to 14) (size 15 to 20)
#    0.000    2.000    2.500    1.875    0.000    2.500 
#    0.000    3.750    0.000    4.500    0.000    0.000 
#    0.000    0.000    0.000    0.000    0.000    0.000 
#
# Total GULP energy -396832.322044 kJ/mol
# GULP energy per Si atom -12401.010064 kJ/mol
# Density = 1.820150 g / cm^3
# Si number density = 18.243022 Si / 1000 Ang^3
#
#
#
# Elastic Constant Matrix: (Units=GPa)
#
#
# Indices 1 2 3 4 5 6 
#
# 1 70.3271 33.6337 50.1609 0.0000 0.0000 0.0000
# 2 33.6337 77.1770 51.7180 0.0000 0.0000 0.0000
# 3 50.1609 51.7180 141.0876 0.0000 0.0000 0.0000
# 4 0.0000 0.0000 0.0000 29.0298 0.0000 0.0000
# 5 0.0000 0.0000 0.0000 0.0000 32.6582 0.0000
# 6 0.0000 0.0000 0.0000 0.0000 0.0000 19.5989
#
#
#
# Elastic Compliance Matrix: (Units=1/GPa)
#
#
# Indices 1 2 3 4 5 6 
#
# 1 0.020618 -0.005400 -0.005351 0.000000 0.000000 0.000000
# 2 -0.005400 0.018591 -0.004895 0.000000 0.000000 0.000000
# 3 -0.005351 -0.004895 0.010785 0.000000 0.000000 0.000000
# 4 0.000000 0.000000 0.000000 0.034447 0.000000 0.000000
# 5 0.000000 0.000000 0.000000 0.000000 0.030620 0.000000
# 6 0.000000 0.000000 0.000000 0.000000 0.000000 0.051023
#
#
# Mechanical properties :
#
#
# Convention : Reuss Voigt Hill
#
# Bulk Modulus (GPa) = 53.46968 62.17964 57.82466
# Shear Modulus (GPa) = 24.55681 26.46266 25.50973
#
# Velocity S-wave (km/s) = 3.67289 3.81276 3.74348
# Velocity P-wave (km/s) = 6.88187 7.31716 7.10285
#
# Compressibility (1/GPa) = 0.01870219
#
# Stress axis : x y z
#
# Youngs Moduli (GPa) = 48.50073 53.79066 92.72459
#
# Poissons Ratio (x) = 0.29044 0.49618
# Poissons Ratio (y) = 0.26188 0.45389
# Poissons Ratio (z) = 0.25953 0.26331
#
# Static dielectric constant tensor:
#      x y z
#    x 3.333360 0.000000 0.000000 
#    y 0.000000 3.218900 0.000000 
#    z 0.000000 0.000000 3.723660 
# 
# 
# High freq. dielectric constant tensor:
#      x y z
#    x 1.704300 0.000000 0.000000 
#    y 0.000000 1.673120 0.000000 
#    z 0.000000 0.000000 1.724930 
# 
# From -- ./inp_files/13917.got.cif
#   From: 2010.03.12/outbox.cif.g09.slc.cpg/sg36_7_cif.got.tgz:13917.got - 2010.04.14 02:13:53.
