data_PCOD8174416
_publ_section_title
;
Structure prediction by ZEFSAII (Michael W. Deem and Ramdas Pophale) SiO2 
 PCOD8174416
Probable space group: C M C 21
;
_chemical_formula_sum "Si O2"
_cell_formula_units_Z 64
_cell_length_a 9.095959
_cell_length_b 29.036536
_cell_length_c 13.967423
_cell_angle_alpha 90.000000
_cell_angle_beta 90.000000
_cell_angle_gamma 90.000000
_cell_volume 3689.007894
_symmetry_space_group_name_H-M "C M C 21"
_symmetry_group_IT_number 36
_symmetry_cell_setting 'orthorhombic'
loop_
_space_group_symop_operation_xyz
x,y,z
-x,-y,1/2+z
x,-y,1/2+z
-x,y,z
1/2+x,1/2+y,z
1/2-x,1/2-y,1/2+z
1/2+x,1/2-y,1/2+z
1/2-x,1/2+y,z
loop_
_atom_site_type_symbol
_atom_site_label
_atom_site_fract_x
_atom_site_fract_y
_atom_site_fract_z
Si Si1 0.674989 0.573053 0.204340
Si Si2 0.825368 0.177300 0.184931
Si Si3 0.325497 0.998264 0.573243
Si Si4 0.832127 0.678379 0.635524
Si Si5 0.334297 0.461486 0.909639
Si Si6 0.173217 0.236112 0.010777
Si Si7 0.331275 0.241874 0.814931
Si Si8 0.665568 0.413246 0.093782
O O1 0.500000 0.569539 0.190316
O O2 0.730160 0.625669 0.201796
O O3 0.758209 0.547439 0.119286
O O4 0.725988 0.551478 0.305366
O O5 0.767392 0.210641 0.269813
O O6 0.000000 0.180674 0.185678
O O7 0.768692 0.196213 0.082502
O O8 0.500000 0.997088 0.578206
O O9 0.270764 0.000755 0.461823
O O10 0.262166 0.042971 0.630780
O O11 0.782272 0.714223 0.553739
O O12 0.812800 0.700832 0.739275
O O13 0.730094 0.634082 0.631090
O O14 0.000000 0.663193 0.618604
O O15 0.500000 0.481472 0.902595
O O16 0.334809 0.415474 0.977018
O O17 0.243035 0.227890 0.908335
O O18 0.000000 0.232822 0.999897
O O19 0.500000 0.248370 0.844045
O O20 0.500000 0.418387 0.134043
#
# Coordination Sequence:
#
# PCOD8174416 Si02
#       8
#     8   8   8   8   8   8   8   8
#     4  10  18  34  58  78 101 136 179 222 259 306
#     4   8  17  33  53  76 103 137 173 211 257 306
#     4  10  20  34  51  75 108 137 163 208 267 318
#     4   9  18  32  49  73 104 136 168 213 266 309
#     4   8  18  33  52  79 102 126 169 217 256 303
#     4   9  18  33  50  73 105 137 171 210 258 308
#     4   9  18  32  51  74 102 138 176 209 252 307
#     4   9  18  33  52  76  99 127 171 214 253 305
#
# _framework density 17.348838000000001
#
# number of rings (size 3 to 8) (size 9 to 14) (size 15 to 20)
#    0.750    2.250    0.000    2.625    1.750    1.500 
#    0.000    4.375    0.000    4.500    0.000    0.000 
#    0.000    0.000    0.000    0.000    0.000    0.000 
#
# Total GULP energy -396553.628557 kJ/mol
# GULP energy per Si atom -12392.300892 kJ/mol
# Density = 1.730935 g / cm^3
# Si number density = 17.348838 Si / 1000 Ang^3
#
#
#
# Elastic Constant Matrix: (Units=GPa)
#
#
# Indices 1 2 3 4 5 6 
#
# 1 60.1143 34.8180 25.0299 0.0000 0.0000 0.0000
# 2 34.8180 75.4891 36.1969 0.0000 0.0000 0.0000
# 3 25.0299 36.1969 92.9749 0.0000 0.0000 0.0000
# 4 0.0000 0.0000 0.0000 18.2955 0.0000 0.0000
# 5 0.0000 0.0000 0.0000 0.0000 25.2454 0.0000
# 6 0.0000 0.0000 0.0000 0.0000 0.0000 25.7825
#
#
#
# Elastic Compliance Matrix: (Units=1/GPa)
#
#
# Indices 1 2 3 4 5 6 
#
# 1 0.023182 -0.009467 -0.002555 0.000000 0.000000 0.000000
# 2 -0.009467 0.020154 -0.005298 0.000000 0.000000 0.000000
# 3 -0.002555 -0.005298 0.013506 0.000000 0.000000 0.000000
# 4 0.000000 0.000000 0.000000 0.054658 0.000000 0.000000
# 5 0.000000 0.000000 0.000000 0.000000 0.039611 0.000000
# 6 0.000000 0.000000 0.000000 0.000000 0.000000 0.038786
#
#
# Mechanical properties :
#
#
# Convention : Reuss Voigt Hill
#
# Bulk Modulus (GPa) = 45.04093 46.74087 45.89090
# Shear Modulus (GPa) = 21.55751 22.70024 22.12888
#
# Velocity S-wave (km/s) = 3.52886 3.62119 3.57532
# Velocity P-wave (km/s) = 6.52856 6.66965 6.59949
#
# Compressibility (1/GPa) = 0.02220203
#
# Stress axis : x y z
#
# Youngs Moduli (GPa) = 43.13650 49.61874 74.04169
#
# Poissons Ratio (x) = 0.46975 0.18919
# Poissons Ratio (y) = 0.40838 0.39224
# Poissons Ratio (z) = 0.11022 0.26286
#
# Static dielectric constant tensor:
#      x y z
#    x 3.006770 0.000000 0.000000 
#    y 0.000000 3.150910 0.000000 
#    z 0.000000 0.000000 3.156250 
# 
# 
# High freq. dielectric constant tensor:
#      x y z
#    x 1.654640 0.000000 0.000000 
#    y 0.000000 1.659140 0.000000 
#    z 0.000000 0.000000 1.661180 
# 
# From -- ./inp_files/11217.got.cif
#   From: 2010.03.12/outbox.cif.g09.slc.cpg/sg36_6_cif.got.tgz:11217.got - 2010.04.14 02:13:53.
