data_PCOD8174327
_publ_section_title
;
Structure prediction by ZEFSAII (Michael W. Deem and Ramdas Pophale) SiO2 
 PCOD8174327
Probable space group: C M C 21
;
_chemical_formula_sum "Si O2"
_cell_formula_units_Z 48
_cell_length_a 27.811567
_cell_length_b 13.898371
_cell_length_c 5.248274
_cell_angle_alpha 90.000000
_cell_angle_beta 90.000000
_cell_angle_gamma 90.000000
_cell_volume 2028.644090
_symmetry_space_group_name_H-M "C M C 21"
_symmetry_group_IT_number 36
_symmetry_cell_setting 'orthorhombic'
loop_
_space_group_symop_operation_xyz
x,y,z
-x,-y,1/2+z
x,-y,1/2+z
-x,y,z
1/2+x,1/2+y,z
1/2-x,1/2-y,1/2+z
1/2+x,1/2-y,1/2+z
1/2-x,1/2+y,z
loop_
_atom_site_type_symbol
_atom_site_label
_atom_site_fract_x
_atom_site_fract_y
_atom_site_fract_z
Si Si1 0.396182 0.436344 0.347400
Si Si2 0.641720 0.095613 0.334619
Si Si3 0.202535 0.840859 0.310136
Si Si4 0.397499 0.114153 0.834839
Si Si5 0.500000 0.936134 0.339559
Si Si6 0.000000 0.940789 0.264338
Si Si7 0.256694 0.873261 0.809970
O O1 0.390913 0.484001 0.625654
O O2 0.354692 0.356135 0.318208
O O3 0.449269 0.385317 0.319681
O O4 0.630425 0.157738 0.589966
O O5 0.696884 0.057249 0.321490
O O6 0.608521 0.001567 0.349977
O O7 0.626930 0.159373 0.087597
O O8 0.226591 0.892391 0.554824
O O9 0.215676 0.729333 0.314235
O O10 0.223011 0.889945 0.053680
O O11 0.454207 0.134987 0.821275
O O12 0.500000 0.011887 0.111181
O O13 0.000000 0.029260 0.467115
#
# Coordination Sequence:
#
# PCOD8174327 Si02
#       7
#     8   8   8   8   4   4   8
#     4  10  19  35  55  84 109 133 171 221 269 313
#     4  10  18  32  45  70  95 130 169 210 251 300
#     4  10  21  38  54  77 102 143 180 203 253 318
#     4  10  19  30  48  72  99 126 173 208 268 285
#     4  12  16  30  48  67  97 138 166 216 250 322
#     4   8  16  30  54  77 107 136 158 204 276 328
#     4  10  21  37  55  70 106 149 177 205 252 312
#
# _framework density 23.661124000000001
#
# number of rings (size 3 to 8) (size 9 to 14) (size 15 to 20)
#    0.000    2.000    3.333    2.000    0.000    0.000 
#   18.000    0.000    0.000    3.000    0.000    2.333 
#    0.000    0.000    0.000    0.000    0.000    0.000 
#
# Total GULP energy -297377.548884 kJ/mol
# GULP energy per Si atom -12390.731204 kJ/mol
# Density = 2.360727 g / cm^3
# Si number density = 23.661124 Si / 1000 Ang^3
#
#
#
# Elastic Constant Matrix: (Units=GPa)
#
#
# Indices 1 2 3 4 5 6 
#
# 1 201.5483 10.3254 34.1806 0.0000 0.0000 0.0000
# 2 10.3254 13.8379 -1.0521 0.0000 0.0000 0.0000
# 3 34.1806 -1.0521 187.0052 0.0000 0.0000 0.0000
# 4 0.0000 0.0000 0.0000 3.0303 0.0000 0.0000
# 5 0.0000 0.0000 0.0000 0.0000 42.6493 0.0000
# 6 0.0000 0.0000 0.0000 0.0000 0.0000 17.1392
#
#
#
# Elastic Compliance Matrix: (Units=1/GPa)
#
#
# Indices 1 2 3 4 5 6 
#
# 1 0.005339 -0.004060 -0.000999 0.000000 0.000000 0.000000
# 2 -0.004060 0.075383 0.001166 0.000000 0.000000 0.000000
# 3 -0.000999 0.001166 0.005537 0.000000 0.000000 0.000000
# 4 0.000000 0.000000 0.000000 0.330001 0.000000 0.000000
# 5 0.000000 0.000000 0.000000 0.000000 0.023447 0.000000
# 6 0.000000 0.000000 0.000000 0.000000 0.000000 0.058346
#
#
# Mechanical properties :
#
#
# Convention : Reuss Voigt Hill
#
# Bulk Modulus (GPa) = 12.74308 54.36658 33.55483
# Shear Modulus (GPa) = 9.39859 36.49292 22.94575
#
# Velocity S-wave (km/s) = 1.99519 3.93149 3.11749
# Velocity P-wave (km/s) = 3.27186 6.60575 5.21253
#
# Compressibility (1/GPa) = 0.07847398
#
# Stress axis : x y z
#
# Youngs Moduli (GPa) = 187.30324 13.26561 180.61811
#
# Poissons Ratio (x) = 0.05385 0.18038
# Poissons Ratio (y) = 0.76039 -0.21063
# Poissons Ratio (z) = 0.18706 -0.01547
#
# Static dielectric constant tensor:
#      x y z
#    x 4.772560 0.000000 0.000000 
#    y 0.000000 3.311340 0.000000 
#    z 0.000000 0.000000 7.975010 
# 
# 
# High freq. dielectric constant tensor:
#      x y z
#    x 1.963670 0.000000 0.000000 
#    y 0.000000 1.848780 0.000000 
#    z 0.000000 0.000000 1.973460 
# 
# From -- ./inp_files/1756.got.cif
#   From: 2010.03.12/outbox.cif.g09.slc.cpg/sg36_1_cif.got.tgz:1756.got - 2010.04.14 02:13:53.
