data_PCOD8174999
_publ_section_title
;
Structure prediction by ZEFSAII (Michael W. Deem and Ramdas Pophale) SiO2 
 PCOD8174999
Probable space group: C M C 21
;
_chemical_formula_sum "Si O2"
_cell_formula_units_Z 64
_cell_length_a 18.559238
_cell_length_b 14.080093
_cell_length_c 11.942592
_cell_angle_alpha 90.000000
_cell_angle_beta 90.000000
_cell_angle_gamma 90.000000
_cell_volume 3120.787947
_symmetry_space_group_name_H-M "C M C 21"
_symmetry_group_IT_number 36
_symmetry_cell_setting 'orthorhombic'
loop_
_space_group_symop_operation_xyz
x,y,z
-x,-y,1/2+z
x,-y,1/2+z
-x,y,z
1/2+x,1/2+y,z
1/2-x,1/2-y,1/2+z
1/2+x,1/2-y,1/2+z
1/2-x,1/2+y,z
loop_
_atom_site_type_symbol
_atom_site_label
_atom_site_fract_x
_atom_site_fract_y
_atom_site_fract_z
Si Si1 0.292052 0.142626 0.738400
Si Si2 0.127120 0.155562 0.984342
Si Si3 0.580422 0.205612 0.297267
Si Si4 0.808455 0.434336 0.701563
Si Si5 0.210162 0.669247 0.988373
Si Si6 0.850165 0.149093 0.223233
Si Si7 0.584708 0.543845 0.430096
Si Si8 0.356066 0.328941 0.110937
O O1 0.290261 0.121028 0.869307
O O2 0.337962 0.237294 0.723270
O O3 0.212291 0.151170 0.689268
O O4 0.327409 0.045783 0.693908
O O5 0.099860 0.133079 0.111706
O O6 0.088733 0.239437 0.915732
O O7 0.206981 0.190929 0.014997
O O8 0.121574 0.059033 0.911407
O O9 0.500000 0.162356 0.294396
O O10 0.639367 0.121346 0.288447
O O11 0.587283 0.277039 0.191842
O O12 0.825967 0.402097 0.576117
O O13 0.725409 0.409019 0.729657
O O14 0.167358 0.767610 0.001989
O O15 0.895342 0.114951 0.330027
O O16 0.500000 0.529389 0.432140
O O17 0.609624 0.578908 0.553813
#
# Coordination Sequence:
#
# PCOD8174999 Si02
#       8
#     8   8   8   8   8   8   8   8
#     4  12  20  39  68  97 124 165 216 276 321 367
#     4  11  22  40  63  94 129 169 217 264 325 383
#     4  11  23  41  62  91 132 170 213 264 319 387
#     4  10  23  38  65  99 125 172 221 263 321 381
#     4  10  19  38  62  96 125 159 210 275 320 365
#     4  11  23  42  65  95 130 166 222 278 318 381
#     4  12  27  41  60  93 135 174 209 261 333 404
#     4  11  21  39  67  93 124 163 212 265 329 378
#
# _framework density 20.507641
#
# number of rings (size 3 to 8) (size 9 to 14) (size 15 to 20)
#    0.000    1.000    6.250    3.000    1.750    2.000 
#    0.000    0.625    0.000    3.000    0.000    0.000 
#    0.000    0.000    0.000    0.000    0.000    0.000 
#
# Total GULP energy -396512.202247 kJ/mol
# GULP energy per Si atom -12391.006320 kJ/mol
# Density = 2.046097 g / cm^3
# Si number density = 20.507641 Si / 1000 Ang^3
#
#
#
# Elastic Constant Matrix: (Units=GPa)
#
#
# Indices 1 2 3 4 5 6 
#
# 1 76.7397 18.0293 25.7018 0.0000 0.0000 0.0000
# 2 18.0293 109.9200 18.0301 0.0000 0.0000 0.0000
# 3 25.7018 18.0301 94.8832 0.0000 0.0000 0.0000
# 4 0.0000 0.0000 0.0000 20.3942 0.0000 0.0000
# 5 0.0000 0.0000 0.0000 0.0000 21.2086 0.0000
# 6 0.0000 0.0000 0.0000 0.0000 0.0000 14.9373
#
#
#
# Elastic Compliance Matrix: (Units=1/GPa)
#
#
# Indices 1 2 3 4 5 6 
#
# 1 0.014672 -0.001811 -0.003630 0.000000 0.000000 0.000000
# 2 -0.001811 0.009614 -0.001336 0.000000 0.000000 0.000000
# 3 -0.003630 -0.001336 0.011777 0.000000 0.000000 0.000000
# 4 0.000000 0.000000 0.000000 0.049034 0.000000 0.000000
# 5 0.000000 0.000000 0.000000 0.000000 0.047151 0.000000
# 6 0.000000 0.000000 0.000000 0.000000 0.000000 0.066947
#
#
# Mechanical properties :
#
#
# Convention : Reuss Voigt Hill
#
# Bulk Modulus (GPa) = 44.42976 45.00725 44.71850
# Shear Modulus (GPa) = 22.70133 25.96013 24.33073
#
# Velocity S-wave (km/s) = 3.33072 3.56178 3.44819
# Velocity P-wave (km/s) = 6.04182 6.23772 6.14056
#
# Compressibility (1/GPa) = 0.02250744
#
# Stress axis : x y z
#
# Youngs Moduli (GPa) = 68.15501 104.01743 84.91448
#
# Poissons Ratio (x) = 0.18839 0.30826
# Poissons Ratio (y) = 0.12344 0.11347
# Poissons Ratio (z) = 0.24742 0.13899
#
# Static dielectric constant tensor:
#      x y z
#    x 3.409280 0.000000 0.000000 
#    y 0.000000 3.756490 0.000000 
#    z 0.000000 0.000000 4.151490 
# 
# 
# High freq. dielectric constant tensor:
#      x y z
#    x 1.767660 0.000000 0.000000 
#    y 0.000000 1.800530 0.000000 
#    z 0.000000 0.000000 1.819850 
# 
# From -- ./inp_files/8984.got.cif
#   From: 2010.03.12/outbox.cif.g09.slc.cpg/sg36_5_cif.got.tgz:8984.got - 2010.04.14 02:13:53.
