data_PCOD8174409
_publ_section_title
;
Structure prediction by ZEFSAII (Michael W. Deem and Ramdas Pophale) SiO2 
 PCOD8174409
Probable space group: C M C 21
;
_chemical_formula_sum "Si O2"
_cell_formula_units_Z 64
_cell_length_a 8.985848
_cell_length_b 20.090568
_cell_length_c 19.762762
_cell_angle_alpha 90.000000
_cell_angle_beta 90.000000
_cell_angle_gamma 90.000000
_cell_volume 3567.787042
_symmetry_space_group_name_H-M "C M C 21"
_symmetry_group_IT_number 36
_symmetry_cell_setting 'orthorhombic'
loop_
_space_group_symop_operation_xyz
x,y,z
-x,-y,1/2+z
x,-y,1/2+z
-x,y,z
1/2+x,1/2+y,z
1/2-x,1/2-y,1/2+z
1/2+x,1/2-y,1/2+z
1/2-x,1/2+y,z
loop_
_atom_site_type_symbol
_atom_site_label
_atom_site_fract_x
_atom_site_fract_y
_atom_site_fract_z
Si Si1 0.324089 0.173072 0.565800
Si Si2 0.324101 0.728716 0.321751
Si Si3 0.824939 0.407590 0.822331
Si Si4 0.175130 0.777709 0.457347
Si Si5 0.672386 0.572714 0.941921
Si Si6 0.326162 0.944809 0.974988
Si Si7 0.675608 0.843149 0.217319
Si Si8 0.675651 0.539297 0.790473
O O1 0.500000 0.168204 0.563058
O O2 0.273878 0.238606 0.524593
O O3 0.259410 0.106657 0.529864
O O4 0.268897 0.178394 0.642734
O O5 0.500000 0.718286 0.324373
O O6 0.247132 0.660920 0.296888
O O7 0.266016 0.749116 0.394917
O O8 0.277351 0.785083 0.268374
O O9 0.786382 0.416125 0.901327
O O10 0.751188 0.467469 0.779985
O O11 0.000000 0.406753 0.808587
O O12 0.215335 0.854724 0.469776
O O13 0.000000 0.768364 0.441376
O O14 0.500000 0.557728 0.949525
O O15 0.755304 0.517327 0.986471
O O16 0.720853 0.568530 0.863629
O O17 0.500000 0.953966 0.983990
O O18 0.500000 0.856655 0.219740
O O19 0.759850 0.911062 0.234706
O O20 0.500000 0.532327 0.781419
#
# Coordination Sequence:
#
# PCOD8174409 Si02
#       8
#     8   8   8   8   8   8   8   8
#     4   9  18  35  56  76 102 142 186 220 261 325
#     4  11  21  32  51  81 112 142 178 226 272 318
#     4  10  19  33  55  80 106 139 178 221 270 320
#     4  10  18  34  56  77 102 140 183 222 268 320
#     4   9  18  30  50  78 106 132 167 219 269 312
#     4   9  17  31  53  76 100 133 173 216 261 315
#     4  10  21  36  54  77 109 148 183 218 269 329
#     4  10  19  33  53  79 109 138 174 224 270 317
#
# _framework density 17.938291
#
# number of rings (size 3 to 8) (size 9 to 14) (size 15 to 20)
#    0.000    2.250    2.500    1.125    0.000    2.000 
#    0.000    2.500    0.000    1.500    0.000    0.000 
#    0.000    0.000    0.000    0.000    0.000    0.000 
#
# Total GULP energy -396838.373982 kJ/mol
# GULP energy per Si atom -12401.199187 kJ/mol
# Density = 1.789746 g / cm^3
# Si number density = 17.938291 Si / 1000 Ang^3
#
#
#
# Elastic Constant Matrix: (Units=GPa)
#
#
# Indices 1 2 3 4 5 6 
#
# 1 47.5299 39.4704 18.5029 0.0000 0.0000 0.0000
# 2 39.4704 140.0480 41.9669 0.0000 0.0000 0.0000
# 3 18.5029 41.9669 70.6540 0.0000 0.0000 0.0000
# 4 0.0000 0.0000 0.0000 27.1492 0.0000 0.0000
# 5 0.0000 0.0000 0.0000 0.0000 17.5126 0.0000
# 6 0.0000 0.0000 0.0000 0.0000 0.0000 35.3895
#
#
#
# Elastic Compliance Matrix: (Units=1/GPa)
#
#
# Indices 1 2 3 4 5 6 
#
# 1 0.028060 -0.006942 -0.003225 0.000000 0.000000 0.000000
# 2 -0.006942 0.010404 -0.004362 0.000000 0.000000 0.000000
# 3 -0.003225 -0.004362 0.017589 0.000000 0.000000 0.000000
# 4 0.000000 0.000000 0.000000 0.036834 0.000000 0.000000
# 5 0.000000 0.000000 0.000000 0.000000 0.057102 0.000000
# 6 0.000000 0.000000 0.000000 0.000000 0.000000 0.028257
#
#
# Mechanical properties :
#
#
# Convention : Reuss Voigt Hill
#
# Bulk Modulus (GPa) = 37.04360 50.90138 43.97249
# Shear Modulus (GPa) = 23.11602 26.56301 24.83952
#
# Velocity S-wave (km/s) = 3.59366 3.85229 3.72522
# Velocity P-wave (km/s) = 6.15748 6.94437 6.56273
#
# Compressibility (1/GPa) = 0.02699522
#
# Stress axis : x y z
#
# Youngs Moduli (GPa) = 35.63849 96.11782 56.85419
#
# Poissons Ratio (x) = 0.66723 0.18335
# Poissons Ratio (y) = 0.24739 0.24799
# Poissons Ratio (z) = 0.11493 0.41924
#
# Static dielectric constant tensor:
#      x y z
#    x 3.178980 0.000000 0.000000 
#    y 0.000000 3.598100 0.000000 
#    z 0.000000 0.000000 3.235870 
# 
# 
# High freq. dielectric constant tensor:
#      x y z
#    x 1.683670 0.000000 0.000000 
#    y 0.000000 1.711060 0.000000 
#    z 0.000000 0.000000 1.665560 
# 
# From -- ./inp_files/15771.got.cif
#   From: 2010.03.12/outbox.cif.g09.slc.cpg/sg36_8_cif.got.tgz:15771.got - 2010.04.14 02:13:53.
