data_PCOD8174206
_publ_section_title
;
Structure prediction by ZEFSAII (Michael W. Deem and Ramdas Pophale) SiO2 
 PCOD8174206
Probable space group: C M C 21
;
_chemical_formula_sum "Si O2"
_cell_formula_units_Z 64
_cell_length_a 8.885439
_cell_length_b 20.715164
_cell_length_c 19.573567
_cell_angle_alpha 90.000000
_cell_angle_beta 90.000000
_cell_angle_gamma 90.000000
_cell_volume 3602.775846
_symmetry_space_group_name_H-M "C M C 21"
_symmetry_group_IT_number 36
_symmetry_cell_setting 'orthorhombic'
loop_
_space_group_symop_operation_xyz
x,y,z
-x,-y,1/2+z
x,-y,1/2+z
-x,y,z
1/2+x,1/2+y,z
1/2-x,1/2-y,1/2+z
1/2+x,1/2-y,1/2+z
1/2-x,1/2+y,z
loop_
_atom_site_type_symbol
_atom_site_label
_atom_site_fract_x
_atom_site_fract_y
_atom_site_fract_z
Si Si1 0.177534 0.860233 0.109070
Si Si2 0.677724 0.567705 0.977715
Si Si3 0.321325 0.361959 0.260830
Si Si4 0.820501 0.192150 0.900804
Si Si5 0.678694 0.507888 0.112668
Si Si6 0.177950 0.319874 0.974966
Si Si7 0.678640 0.493741 0.761360
Si Si8 0.323436 0.438464 0.899719
O O1 0.228466 0.837146 0.185333
O O2 0.000000 0.852687 0.099106
O O3 0.228909 0.934326 0.098328
O O4 0.259020 0.816940 0.052072
O O5 0.500000 0.575258 0.981196
O O6 0.746357 0.632851 0.945609
O O7 0.720766 0.506878 0.931627
O O8 0.743991 0.555141 0.054057
O O9 0.500000 0.365571 0.262055
O O10 0.263581 0.315283 0.321954
O O11 0.257289 0.434112 0.274301
O O12 0.759100 0.258396 0.932914
O O13 0.000000 0.190556 0.902278
O O14 0.500000 0.509340 0.110667
O O15 0.736619 0.531247 0.187261
O O16 0.229491 0.383167 0.935438
O O17 0.000000 0.318329 0.979000
O O18 0.500000 0.499324 0.761422
O O19 0.727101 0.443465 0.820182
O O20 0.500000 0.423477 0.908954
#
# Coordination Sequence:
#
# PCOD8174206 Si02
#       8
#     8   8   8   8   8   8   8   8
#     4   9  16  29  51  74  92 117 160 206 240 275
#     4   9  14  24  46  72  93 114 153 205 242 271
#     4   8  13  25  48  74  93 113 155 208 244 273
#     4   9  17  29  44  68  98 128 159 193 235 283
#     4   8  13  22  42  75  99 110 140 200 253 274
#     4  11  22  32  44  68 105 138 158 183 231 295
#     4   8  13  22  42  73  98 111 142 201 250 272
#     4  10  17  29  51  74  92 117 159 206 241 271
#
# _framework density 17.76408
#
# number of rings (size 3 to 8) (size 9 to 14) (size 15 to 20)
#    0.000    3.000    2.500    1.875    0.000    0.000 
#    0.000    1.250    0.000    7.500    0.000    0.000 
#    0.000    0.000    0.000    0.000    0.000    0.000 
#
# Total GULP energy -396472.402152 kJ/mol
# GULP energy per Si atom -12389.762567 kJ/mol
# Density = 1.772365 g / cm^3
# Si number density = 17.764080 Si / 1000 Ang^3
#
#
#
# Elastic Constant Matrix: (Units=GPa)
#
#
# Indices 1 2 3 4 5 6 
#
# 1 18.9609 19.3320 23.1735 0.0000 0.0000 0.0000
# 2 19.3320 70.2024 58.4508 0.0000 0.0000 0.0000
# 3 23.1735 58.4508 178.7896 0.0000 0.0000 0.0000
# 4 0.0000 0.0000 0.0000 29.7414 0.0000 0.0000
# 5 0.0000 0.0000 0.0000 0.0000 15.2037 0.0000
# 6 0.0000 0.0000 0.0000 0.0000 0.0000 13.6501
#
#
#
# Elastic Compliance Matrix: (Units=1/GPa)
#
#
# Indices 1 2 3 4 5 6 
#
# 1 0.075458 -0.017362 -0.004104 0.000000 0.000000 0.000000
# 2 -0.017362 0.023567 -0.005454 0.000000 0.000000 0.000000
# 3 -0.004104 -0.005454 0.007908 0.000000 0.000000 0.000000
# 4 0.000000 0.000000 0.000000 0.033623 0.000000 0.000000
# 5 0.000000 0.000000 0.000000 0.000000 0.065773 0.000000
# 6 0.000000 0.000000 0.000000 0.000000 0.000000 0.073259
#
#
# Mechanical properties :
#
#
# Convention : Reuss Voigt Hill
#
# Bulk Modulus (GPa) = 18.83517 52.20729 35.52123
# Shear Modulus (GPa) = 14.23981 22.85213 18.54597
#
# Velocity S-wave (km/s) = 2.83434 3.59057 3.23463
# Velocity P-wave (km/s) = 4.61923 6.82954 5.83009
#
# Compressibility (1/GPa) = 0.05309216
#
# Stress axis : x y z
#
# Youngs Moduli (GPa) = 13.25234 42.43246 126.44993
#
# Poissons Ratio (x) = 0.73672 0.51899
# Poissons Ratio (y) = 0.23009 0.68969
# Poissons Ratio (z) = 0.05439 0.23144
#
# Static dielectric constant tensor:
#      x y z
#    x 2.648160 0.000000 0.000000 
#    y 0.000000 3.223260 0.000000 
#    z 0.000000 0.000000 4.024740 
# 
# 
# High freq. dielectric constant tensor:
#      x y z
#    x 1.618480 0.000000 0.000000 
#    y 0.000000 1.658230 0.000000 
#    z 0.000000 0.000000 1.715220 
# 
# From -- ./inp_files/15700.got.cif
#   From: 2010.03.12/outbox.cif.g09.slc.cpg/sg36_8_cif.got.tgz:15700.got - 2010.04.14 02:13:53.
