data_PCOD8174489
_publ_section_title
;
Structure prediction by ZEFSAII (Michael W. Deem and Ramdas Pophale) SiO2 
 PCOD8174489
Probable space group: C M C 21
;
_chemical_formula_sum "Si O2"
_cell_formula_units_Z 64
_cell_length_a 8.941463
_cell_length_b 20.065964
_cell_length_c 20.028030
_cell_angle_alpha 90.000000
_cell_angle_beta 90.000000
_cell_angle_gamma 90.000000
_cell_volume 3593.410610
_symmetry_space_group_name_H-M "C M C 21"
_symmetry_group_IT_number 36
_symmetry_cell_setting 'orthorhombic'
loop_
_space_group_symop_operation_xyz
x,y,z
-x,-y,1/2+z
x,-y,1/2+z
-x,y,z
1/2+x,1/2+y,z
1/2-x,1/2-y,1/2+z
1/2+x,1/2-y,1/2+z
1/2-x,1/2+y,z
loop_
_atom_site_type_symbol
_atom_site_label
_atom_site_fract_x
_atom_site_fract_y
_atom_site_fract_z
Si Si1 0.325476 0.428728 0.356670
Si Si2 0.177458 0.912087 0.208376
Si Si3 0.325425 0.023779 0.460066
Si Si4 0.329347 0.829998 0.987810
Si Si5 0.822544 0.017142 0.098752
Si Si6 0.676209 0.849267 0.588584
Si Si7 0.323820 0.705129 0.621125
Si Si8 0.828702 0.814414 0.454903
O O1 0.500000 0.447160 0.357402
O O2 0.258077 0.427028 0.281823
O O3 0.238976 0.485419 0.396694
O O4 0.298109 0.355226 0.387412
O O5 0.231533 0.838576 0.184224
O O6 0.000000 0.913908 0.212126
O O7 0.235219 0.966368 0.155254
O O8 0.500000 0.007906 0.467327
O O9 0.294788 0.102481 0.446988
O O10 0.245578 0.000743 0.527393
O O11 0.500000 0.829542 0.011887
O O12 0.295877 0.764332 0.942590
O O13 0.231772 0.829889 0.054123
O O14 0.764542 0.089648 0.121715
O O15 0.000000 0.016942 0.092209
O O16 0.500000 0.861332 0.594761
O O17 0.729491 0.781869 0.626844
O O18 0.718818 0.843419 0.510836
O O19 0.500000 0.703321 0.615631
O O20 0.000000 0.825067 0.478870
#
# Coordination Sequence:
#
# PCOD8174489 Si02
#       8
#     8   8   8   8   8   8   8   8
#     4  10  20  35  55  76 102 140 181 218 259 316
#     4   9  19  35  54  76 102 137 183 221 255 310
#     4  11  21  33  51  78 110 137 172 221 266 312
#     4   9  18  31  49  76 105 131 166 215 261 303
#     4  11  20  33  54  76 103 139 179 220 260 310
#     4  10  19  30  50  79 108 131 164 217 267 304
#     4   9  17  32  52  75 102 134 170 213 258 305
#     4   9  17  31  51  74 100 133 173 209 254 312
#
# _framework density 17.810376999999999
#
# number of rings (size 3 to 8) (size 9 to 14) (size 15 to 20)
#    0.000    2.250    2.500    1.125    0.000    1.000 
#    0.000    3.125    0.000    3.000    0.000    0.000 
#    0.000    0.000    0.000    0.000    0.000    0.000 
#
# Total GULP energy -396689.186464 kJ/mol
# GULP energy per Si atom -12396.537077 kJ/mol
# Density = 1.776984 g / cm^3
# Si number density = 17.810377 Si / 1000 Ang^3
#
#
#
# Elastic Constant Matrix: (Units=GPa)
#
#
# Indices 1 2 3 4 5 6 
#
# 1 45.5522 35.5916 24.7127 0.0000 0.0000 0.0000
# 2 35.5916 141.3473 61.3504 0.0000 0.0000 0.0000
# 3 24.7127 61.3504 103.1697 0.0000 0.0000 0.0000
# 4 0.0000 0.0000 0.0000 26.4384 0.0000 0.0000
# 5 0.0000 0.0000 0.0000 0.0000 13.8331 0.0000
# 6 0.0000 0.0000 0.0000 0.0000 0.0000 25.6866
#
#
#
# Elastic Compliance Matrix: (Units=1/GPa)
#
#
# Indices 1 2 3 4 5 6 
#
# 1 0.028194 -0.005618 -0.003413 0.000000 0.000000 0.000000
# 2 -0.005618 0.010656 -0.004991 0.000000 0.000000 0.000000
# 3 -0.003413 -0.004991 0.013478 0.000000 0.000000 0.000000
# 4 0.000000 0.000000 0.000000 0.037824 0.000000 0.000000
# 5 0.000000 0.000000 0.000000 0.000000 0.072290 0.000000
# 6 0.000000 0.000000 0.000000 0.000000 0.000000 0.038931
#
#
# Mechanical properties :
#
#
# Convention : Reuss Voigt Hill
#
# Bulk Modulus (GPa) = 41.17824 59.26431 50.22128
# Shear Modulus (GPa) = 21.05175 24.41925 22.73550
#
# Velocity S-wave (km/s) = 3.44174 3.70681 3.57673
# Velocity P-wave (km/s) = 6.24217 7.18805 6.73174
#
# Compressibility (1/GPa) = 0.02428467
#
# Stress axis : x y z
#
# Youngs Moduli (GPa) = 35.46875 93.84763 74.19543
#
# Poissons Ratio (x) = 0.52724 0.25320
# Poissons Ratio (y) = 0.19927 0.37028
# Poissons Ratio (z) = 0.12104 0.46836
#
# Static dielectric constant tensor:
#      x y z
#    x 3.217500 0.000000 0.000000 
#    y 0.000000 3.865250 0.000000 
#    z 0.000000 0.000000 3.190160 
# 
# 
# High freq. dielectric constant tensor:
#      x y z
#    x 1.680130 0.000000 0.000000 
#    y 0.000000 1.710760 0.000000 
#    z 0.000000 0.000000 1.654290 
# 
# From -- ./inp_files/13941.got.cif
#   From: 2010.03.12/outbox.cif.g09.slc.cpg/sg36_7_cif.got.tgz:13941.got - 2010.04.14 02:13:53.
