data_PCOD8174949
_publ_section_title
;
Structure prediction by ZEFSAII (Michael W. Deem and Ramdas Pophale) SiO2 
 PCOD8174949
Probable space group: C M C 21
;
_chemical_formula_sum "Si O2"
_cell_formula_units_Z 64
_cell_length_a 9.050790
_cell_length_b 24.144713
_cell_length_c 14.579598
_cell_angle_alpha 90.000000
_cell_angle_beta 90.000000
_cell_angle_gamma 90.000000
_cell_volume 3186.060991
_symmetry_space_group_name_H-M "C M C 21"
_symmetry_group_IT_number 36
_symmetry_cell_setting 'orthorhombic'
loop_
_space_group_symop_operation_xyz
x,y,z
-x,-y,1/2+z
x,-y,1/2+z
-x,y,z
1/2+x,1/2+y,z
1/2-x,1/2-y,1/2+z
1/2+x,1/2-y,1/2+z
1/2-x,1/2+y,z
loop_
_atom_site_type_symbol
_atom_site_label
_atom_site_fract_x
_atom_site_fract_y
_atom_site_fract_z
Si Si1 0.832707 0.415032 0.961330
Si Si2 0.826482 0.643258 0.284124
Si Si3 0.333262 0.201081 0.554436
Si Si4 0.325997 0.477988 0.464321
Si Si5 0.672634 0.960011 0.270846
Si Si6 0.326371 0.059050 0.135691
Si Si7 0.674134 0.834029 0.244850
Si Si8 0.176671 0.246012 0.871736
O O1 0.768957 0.399159 0.861363
O O2 0.724326 0.461727 0.000442
O O3 0.000000 0.438861 0.956690
O O4 0.828397 0.362698 0.026533
O O5 0.785049 0.617147 0.186216
O O6 0.766442 0.705326 0.302274
O O7 0.000000 0.646517 0.300031
O O8 0.500000 0.221582 0.564200
O O9 0.261617 0.200693 0.656498
O O10 0.261181 0.239833 0.474940
O O11 0.500000 0.472086 0.459975
O O12 0.259798 0.466726 0.365027
O O13 0.262470 0.436087 0.540769
O O14 0.500000 0.967383 0.292197
O O15 0.708936 0.898962 0.232049
O O16 0.723204 0.006173 0.197073
O O17 0.500000 0.055413 0.115275
O O18 0.500000 0.824820 0.255221
O O19 0.753865 0.811193 0.336335
O O20 0.000000 0.241542 0.873311
#
# Coordination Sequence:
#
# PCOD8174949 Si02
#       8
#     8   8   8   8   8   8   8   8
#     4   9  15  32  59  80 100 137 190 236 266 313
#     4   8  15  31  58  82  98 129 186 235 268 314
#     4   8  16  33  60  85 105 138 189 236 273 319
#     4  12  24  34  49  82 123 153 175 217 289 351
#     4  10  21  39  62  83 107 148 197 237 272 324
#     4  10  19  36  61  83 105 143 194 238 273 323
#     4  10  20  36  57  84 112 144 187 233 275 324
#     4   9  18  35  58  83 110 142 178 226 284 336
#
# _framework density 20.087499000000001
#
# number of rings (size 3 to 8) (size 9 to 14) (size 15 to 20)
#    0.000    2.500    1.250    3.375    0.000    3.000 
#    2.250    5.625    0.000    0.000    0.000    0.000 
#    0.000    0.000    0.000    0.000    0.000    0.000 
#
# Total GULP energy -396501.425569 kJ/mol
# GULP energy per Si atom -12390.669549 kJ/mol
# Density = 2.004178 g / cm^3
# Si number density = 20.087499 Si / 1000 Ang^3
#
#
#
# Elastic Constant Matrix: (Units=GPa)
#
#
# Indices 1 2 3 4 5 6 
#
# 1 48.7105 11.5110 30.2086 0.0000 0.0000 0.0000
# 2 11.5110 37.9073 7.3274 0.0000 0.0000 0.0000
# 3 30.2086 7.3274 95.1584 0.0000 0.0000 0.0000
# 4 0.0000 0.0000 0.0000 23.9494 0.0000 0.0000
# 5 0.0000 0.0000 0.0000 0.0000 19.9609 0.0000
# 6 0.0000 0.0000 0.0000 0.0000 0.0000 18.5291
#
#
#
# Elastic Compliance Matrix: (Units=1/GPa)
#
#
# Indices 1 2 3 4 5 6 
#
# 1 0.027129 -0.006673 -0.008098 0.000000 0.000000 0.000000
# 2 -0.006673 0.028420 -0.000070 0.000000 0.000000 0.000000
# 3 -0.008098 -0.000070 0.013085 0.000000 0.000000 0.000000
# 4 0.000000 0.000000 0.000000 0.041755 0.000000 0.000000
# 5 0.000000 0.000000 0.000000 0.000000 0.050098 0.000000
# 6 0.000000 0.000000 0.000000 0.000000 0.000000 0.053969
#
#
# Mechanical properties :
#
#
# Convention : Reuss Voigt Hill
#
# Bulk Modulus (GPa) = 25.67294 31.09669 28.38481
# Shear Modulus (GPa) = 19.44607 21.33648 20.39128
#
# Velocity S-wave (km/s) = 3.11476 3.26264 3.18956
# Velocity P-wave (km/s) = 5.07384 5.45044 5.26551
#
# Compressibility (1/GPa) = 0.03895152
#
# Stress axis : x y z
#
# Youngs Moduli (GPa) = 36.86153 35.18658 76.42304
#
# Poissons Ratio (x) = 0.23478 0.61890
# Poissons Ratio (y) = 0.24596 0.00536
# Poissons Ratio (z) = 0.29852 0.00247
#
# Static dielectric constant tensor:
#      x y z
#    x 3.181320 0.000000 0.000000 
#    y 0.000000 3.645300 0.000000 
#    z 0.000000 0.000000 3.868930 
# 
# 
# High freq. dielectric constant tensor:
#      x y z
#    x 1.732980 0.000000 0.000000 
#    y 0.000000 1.776550 0.000000 
#    z 0.000000 0.000000 1.794890 
# 
# From -- ./inp_files/11114.got.cif
#   From: 2010.03.12/outbox.cif.g09.slc.cpg/sg36_6_cif.got.tgz:11114.got - 2010.04.14 02:13:53.
