data_PCOD8174910
_publ_section_title
;
Structure prediction by ZEFSAII (Michael W. Deem and Ramdas Pophale) SiO2 
 PCOD8174910
Probable space group: C M C 21
;
_chemical_formula_sum "Si O2"
_cell_formula_units_Z 64
_cell_length_a 9.158347
_cell_length_b 27.025496
_cell_length_c 13.002485
_cell_angle_alpha 90.000000
_cell_angle_beta 90.000000
_cell_angle_gamma 90.000000
_cell_volume 3218.230372
_symmetry_space_group_name_H-M "C M C 21"
_symmetry_group_IT_number 36
_symmetry_cell_setting 'orthorhombic'
loop_
_space_group_symop_operation_xyz
x,y,z
-x,-y,1/2+z
x,-y,1/2+z
-x,y,z
1/2+x,1/2+y,z
1/2-x,1/2-y,1/2+z
1/2+x,1/2-y,1/2+z
1/2-x,1/2+y,z
loop_
_atom_site_type_symbol
_atom_site_label
_atom_site_fract_x
_atom_site_fract_y
_atom_site_fract_z
Si Si1 0.336487 0.050638 0.722810
Si Si2 0.173787 0.297223 0.060841
Si Si3 0.163816 0.486612 0.918792
Si Si4 0.671963 0.477236 0.595656
Si Si5 0.671284 0.123765 0.396524
Si Si6 0.670231 0.882120 0.667635
Si Si7 0.827426 0.302563 0.495611
Si Si8 0.172555 0.341762 0.277046
O O1 0.500000 0.060677 0.678741
O O2 0.271036 0.101826 0.767022
O O3 0.342493 0.007078 0.804666
O O4 0.231248 0.030620 0.633918
O O5 0.223347 0.311049 0.176767
O O6 0.000000 0.292392 0.053202
O O7 0.235475 0.338170 0.980482
O O8 0.245792 0.246103 0.030866
O O9 0.232159 0.431433 0.916250
O O10 0.000000 0.487648 0.966476
O O11 0.270397 0.524208 0.978955
O O12 0.500000 0.475196 0.602508
O O13 0.736139 0.431593 0.658363
O O14 0.500000 0.121087 0.411751
O O15 0.707777 0.141333 0.279690
O O16 0.500000 0.896490 0.660642
O O17 0.714417 0.844608 0.577738
O O18 0.766495 0.318014 0.382798
O O19 0.000000 0.292826 0.494505
O O20 0.000000 0.342285 0.286337
#
# Coordination Sequence:
#
# PCOD8174910 Si02
#       8
#     8   8   8   8   8   8   8   8
#     4  10  19  37  64  86 108 152 205 244 281 333
#     4  10  21  37  59  85 118 153 189 238 301 358
#     4  10  19  35  61  86 112 154 206 244 277 334
#     4  12  24  35  53  87 129 160 185 231 299 356
#     4   9  18  35  60  88 111 146 200 252 287 335
#     4  10  20  39  62  84 112 151 207 251 283 340
#     4  10  22  39  62  88 113 148 197 249 294 342
#     4   9  19  37  59  86 117 150 193 243 290 344
#
# _framework density 19.886704999999999
#
# number of rings (size 3 to 8) (size 9 to 14) (size 15 to 20)
#    0.000    2.000    1.250    2.625    1.750    5.000 
#    0.000    3.750    0.000    0.000    0.000    0.000 
#    0.000    0.000    0.000    0.000    0.000    0.000 
#
# Total GULP energy -396719.615711 kJ/mol
# GULP energy per Si atom -12397.487991 kJ/mol
# Density = 1.984144 g / cm^3
# Si number density = 19.886705 Si / 1000 Ang^3
#
#
#
# Elastic Constant Matrix: (Units=GPa)
#
#
# Indices 1 2 3 4 5 6 
#
# 1 54.7919 37.7229 30.5220 0.0000 0.0000 0.0000
# 2 37.7229 126.4898 56.4915 0.0000 0.0000 0.0000
# 3 30.5220 56.4915 140.8646 0.0000 0.0000 0.0000
# 4 0.0000 0.0000 0.0000 36.1005 0.0000 0.0000
# 5 0.0000 0.0000 0.0000 0.0000 12.6908 0.0000
# 6 0.0000 0.0000 0.0000 0.0000 0.0000 30.6110
#
#
#
# Elastic Compliance Matrix: (Units=1/GPa)
#
#
# Indices 1 2 3 4 5 6 
#
# 1 0.023852 -0.005854 -0.002821 0.000000 0.000000 0.000000
# 2 -0.005854 0.011067 -0.003170 0.000000 0.000000 0.000000
# 3 -0.002821 -0.003170 0.008981 0.000000 0.000000 0.000000
# 4 0.000000 0.000000 0.000000 0.027700 0.000000 0.000000
# 5 0.000000 0.000000 0.000000 0.000000 0.078797 0.000000
# 6 0.000000 0.000000 0.000000 0.000000 0.000000 0.032668
#
#
# Mechanical properties :
#
#
# Convention : Reuss Voigt Hill
#
# Bulk Modulus (GPa) = 49.47493 63.51322 56.49408
# Shear Modulus (GPa) = 23.41997 29.04111 26.23054
#
# Velocity S-wave (km/s) = 3.43544 3.82557 3.63574
# Velocity P-wave (km/s) = 6.37721 7.17776 6.78929
#
# Compressibility (1/GPa) = 0.02021225
#
# Stress axis : x y z
#
# Youngs Moduli (GPa) = 41.92475 90.35661 111.34044
#
# Poissons Ratio (x) = 0.52892 0.31406
# Poissons Ratio (y) = 0.24541 0.35295
# Poissons Ratio (z) = 0.11826 0.28643
#
# Static dielectric constant tensor:
#      x y z
#    x 3.181000 0.000000 0.000000 
#    y 0.000000 3.639240 0.000000 
#    z 0.000000 0.000000 3.968200 
# 
# 
# High freq. dielectric constant tensor:
#      x y z
#    x 1.725840 0.000000 0.000000 
#    y 0.000000 1.778130 0.000000 
#    z 0.000000 0.000000 1.795970 
# 
# From -- ./inp_files/7117.got.cif
#   From: 2010.03.12/outbox.cif.g09.slc.cpg/sg36_4_cif.got.tgz:7117.got - 2010.04.14 02:13:53.
