data_PCOD8174569
_publ_section_title
;
Structure prediction by ZEFSAII (Michael W. Deem and Ramdas Pophale) SiO2 
 PCOD8174569
Probable space group: C M C 21
;
_chemical_formula_sum "Si O2"
_cell_formula_units_Z 64
_cell_length_a 9.070760
_cell_length_b 18.814703
_cell_length_c 20.803809
_cell_angle_alpha 90.000000
_cell_angle_beta 90.000000
_cell_angle_gamma 90.000000
_cell_volume 3550.454090
_symmetry_space_group_name_H-M "C M C 21"
_symmetry_group_IT_number 36
_symmetry_cell_setting 'orthorhombic'
loop_
_space_group_symop_operation_xyz
x,y,z
-x,-y,1/2+z
x,-y,1/2+z
-x,y,z
1/2+x,1/2+y,z
1/2-x,1/2-y,1/2+z
1/2+x,1/2-y,1/2+z
1/2-x,1/2+y,z
loop_
_atom_site_type_symbol
_atom_site_label
_atom_site_fract_x
_atom_site_fract_y
_atom_site_fract_z
Si Si1 0.172986 0.302247 0.432940
Si Si2 0.669570 0.201931 0.076139
Si Si3 0.667340 0.044958 0.330518
Si Si4 0.666326 0.288480 0.699112
Si Si5 0.330132 0.213113 0.325819
Si Si6 0.669328 0.547205 0.931889
Si Si7 0.837377 0.042149 0.208546
Si Si8 0.332356 0.559295 0.072831
O O1 0.200945 0.268950 0.504180
O O2 0.240903 0.246492 0.384047
O O3 0.249272 0.378125 0.423131
O O4 0.000000 0.311974 0.419949
O O5 0.500000 0.210567 0.095741
O O6 0.765718 0.240501 0.131662
O O7 0.708408 0.119161 0.073023
O O8 0.500000 0.020861 0.339258
O O9 0.687478 0.128961 0.332234
O O10 0.721907 0.014872 0.261382
O O11 0.762377 0.012931 0.387512
O O12 0.500000 0.259928 0.705722
O O13 0.761418 0.259188 0.758828
O O14 0.672733 0.373363 0.698883
O O15 0.500000 0.236603 0.328431
O O16 0.500000 0.558697 0.912579
O O17 0.683679 0.517669 0.005342
O O18 0.806333 0.009963 0.136636
O O19 0.000000 0.020340 0.232921
O O20 0.500000 0.591628 0.077156
#
# Coordination Sequence:
#
# PCOD8174569 Si02
#       8
#     8   8   8   8   8   8   8   8
#     4  10  20  33  50  73 101 130 161 200 243 288
#     4   9  16  26  43  68  95 122 155 196 239 283
#     4  10  20  32  47  71 100 128 160 198 239 284
#     4   9  16  27  45  68  94 123 157 199 242 284
#     4  10  20  33  50  72  99 130 164 202 243 290
#     4  10  19  32  51  73  98 129 162 197 240 289
#     4   8  14  26  44  66  91 119 154 195 237 281
#     4   8  15  27  44  67  92 119 155 197 239 283
#
# _framework density 18.025863999999999
#
# number of rings (size 3 to 8) (size 9 to 14) (size 15 to 20)
#    0.000    2.750    0.000    3.000    0.000    6.500 
#    0.000    0.000    0.000    1.500    0.000    5.250 
#    0.000    0.000    0.000    0.000    0.000    0.000 
#
# Total GULP energy -396544.753062 kJ/mol
# GULP energy per Si atom -12392.023533 kJ/mol
# Density = 1.798484 g / cm^3
# Si number density = 18.025864 Si / 1000 Ang^3
#
#
#
# Elastic Constant Matrix: (Units=GPa)
#
#
# Indices 1 2 3 4 5 6 
#
# 1 152.0838 29.4078 111.2211 0.0000 0.0000 0.0000
# 2 29.4078 18.4351 33.9759 0.0000 0.0000 0.0000
# 3 111.2211 33.9759 213.5230 0.0000 0.0000 0.0000
# 4 0.0000 0.0000 0.0000 21.2571 0.0000 0.0000
# 5 0.0000 0.0000 0.0000 0.0000 34.2277 0.0000
# 6 0.0000 0.0000 0.0000 0.0000 0.0000 21.5074
#
#
#
# Elastic Compliance Matrix: (Units=1/GPa)
#
#
# Indices 1 2 3 4 5 6 
#
# 1 0.011958 -0.010748 -0.004519 0.000000 0.000000 0.000000
# 2 -0.010748 0.086413 -0.008152 0.000000 0.000000 0.000000
# 3 -0.004519 -0.008152 0.008334 0.000000 0.000000 0.000000
# 4 0.000000 0.000000 0.000000 0.047043 0.000000 0.000000
# 5 0.000000 0.000000 0.000000 0.000000 0.029216 0.000000
# 6 0.000000 0.000000 0.000000 0.000000 0.000000 0.046496
#
#
# Mechanical properties :
#
#
# Convention : Reuss Voigt Hill
#
# Bulk Modulus (GPa) = 16.70317 81.47240 49.08779
# Shear Modulus (GPa) = 16.87748 29.36089 23.11918
#
# Velocity S-wave (km/s) = 3.06321 4.04024 3.58516
# Velocity P-wave (km/s) = 4.66876 8.18904 6.66550
#
# Compressibility (1/GPa) = 0.05986886
#
# Stress axis : x y z
#
# Youngs Moduli (GPa) = 83.62523 11.57234 119.98873
#
# Poissons Ratio (x) = 0.12438 0.54218
# Poissons Ratio (y) = 0.89879 0.97811
# Poissons Ratio (z) = 0.37787 0.09433
#
# Static dielectric constant tensor:
#      x y z
#    x 3.508930 0.000000 0.000000 
#    y 0.000000 2.658670 0.000000 
#    z 0.000000 0.000000 3.875150 
# 
# 
# High freq. dielectric constant tensor:
#      x y z
#    x 1.714480 0.000000 0.000000 
#    y 0.000000 1.618710 0.000000 
#    z 0.000000 0.000000 1.726070 
# 
# From -- ./inp_files/15636.got.cif
#   From: 2010.03.12/outbox.cif.g09.slc.cpg/sg36_8_cif.got.tgz:15636.got - 2010.04.14 02:13:53.
