data_PCOD8174739
_publ_section_title
;
Structure prediction by ZEFSAII (Michael W. Deem and Ramdas Pophale) SiO2 
 PCOD8174739
Probable space group: C M C 21
;
_chemical_formula_sum "Si O2"
_cell_formula_units_Z 64
_cell_length_a 9.278265
_cell_length_b 15.453376
_cell_length_c 23.393149
_cell_angle_alpha 90.000000
_cell_angle_beta 90.000000
_cell_angle_gamma 90.000000
_cell_volume 3354.121814
_symmetry_space_group_name_H-M "C M C 21"
_symmetry_group_IT_number 36
_symmetry_cell_setting 'orthorhombic'
loop_
_space_group_symop_operation_xyz
x,y,z
-x,-y,1/2+z
x,-y,1/2+z
-x,y,z
1/2+x,1/2+y,z
1/2-x,1/2-y,1/2+z
1/2+x,1/2-y,1/2+z
1/2-x,1/2+y,z
loop_
_atom_site_type_symbol
_atom_site_label
_atom_site_fract_x
_atom_site_fract_y
_atom_site_fract_z
Si Si1 0.832257 0.954647 0.071140
Si Si2 0.837011 0.708599 0.700916
Si Si3 0.668466 0.963576 0.802179
Si Si4 0.335814 0.699661 0.314451
Si Si5 0.167916 0.961279 0.201999
Si Si6 0.167179 0.626936 0.880766
Si Si7 0.328850 0.381966 0.498724
Si Si8 0.166560 0.280581 0.071211
O O1 0.800497 0.983491 0.136059
O O2 0.749927 0.867415 0.054206
O O3 0.000000 0.935661 0.062317
O O4 0.776381 0.031588 0.030884
O O5 0.816727 0.785071 0.746439
O O6 0.723526 0.634557 0.715852
O O7 0.809687 0.745376 0.637492
O O8 0.000000 0.670217 0.706296
O O9 0.500000 0.951058 0.792389
O O10 0.746439 0.970945 0.740943
O O11 0.704253 0.046954 0.839952
O O12 0.732579 0.878758 0.833559
O O13 0.500000 0.674548 0.328951
O O14 0.289743 0.785352 0.348474
O O15 0.000000 0.966954 0.216974
O O16 0.262731 0.618700 0.936467
O O17 0.000000 0.626330 0.897970
O O18 0.500000 0.380692 0.494378
O O19 0.273190 0.298397 0.533570
O O20 0.000000 0.297898 0.058094
#
# Coordination Sequence:
#
# PCOD8174739 Si02
#       8
#     8   8   8   8   8   8   8   8
#     4   9  20  37  57  84 118 151 188 235 283 337
#     4   9  17  34  59  83 118 155 184 229 289 345
#     4  11  23  39  58  85 117 151 193 241 290 342
#     4  10  21  38  60  85 113 152 192 232 289 347
#     4  10  19  33  58  87 119 153 189 234 288 344
#     4  10  23  43  60  79 115 155 192 237 287 338
#     4  10  22  39  60  84 112 152 196 234 278 338
#     4   9  19  35  58  85 114 149 188 230 282 339
#
# _framework density 19.081001000000001
#
# number of rings (size 3 to 8) (size 9 to 14) (size 15 to 20)
#    0.000    2.250    1.250    0.750    1.750    4.500 
#    0.000    5.000    0.000    0.000    0.000    0.000 
#    0.000    0.000    0.000    0.000    0.000    0.000 
#
# Total GULP energy -396867.936029 kJ/mol
# GULP energy per Si atom -12402.123001 kJ/mol
# Density = 1.903757 g / cm^3
# Si number density = 19.081001 Si / 1000 Ang^3
#
#
#
# Elastic Constant Matrix: (Units=GPa)
#
#
# Indices 1 2 3 4 5 6 
#
# 1 73.4037 58.4617 44.9197 0.0000 0.0000 0.0000
# 2 58.4617 128.5503 48.6633 0.0000 0.0000 0.0000
# 3 44.9197 48.6633 86.8306 0.0000 0.0000 0.0000
# 4 0.0000 0.0000 0.0000 13.2706 0.0000 0.0000
# 5 0.0000 0.0000 0.0000 0.0000 32.9673 0.0000
# 6 0.0000 0.0000 0.0000 0.0000 0.0000 35.6892
#
#
#
# Elastic Compliance Matrix: (Units=1/GPa)
#
#
# Indices 1 2 3 4 5 6 
#
# 1 0.025494 -0.008379 -0.008493 0.000000 0.000000 0.000000
# 2 -0.008379 0.012628 -0.002742 0.000000 0.000000 0.000000
# 3 -0.008493 -0.002742 0.017447 0.000000 0.000000 0.000000
# 4 0.000000 0.000000 0.000000 0.075354 0.000000 0.000000
# 5 0.000000 0.000000 0.000000 0.000000 0.030333 0.000000
# 6 0.000000 0.000000 0.000000 0.000000 0.000000 0.028020
#
#
# Mechanical properties :
#
#
# Convention : Reuss Voigt Hill
#
# Bulk Modulus (GPa) = 61.19774 65.87489 63.53631
# Shear Modulus (GPa) = 21.37200 25.50143 23.43671
#
# Velocity S-wave (km/s) = 3.35037 3.65976 3.50848
# Velocity P-wave (km/s) = 6.86359 7.24274 7.05571
#
# Compressibility (1/GPa) = 0.01634047
#
# Stress axis : x y z
#
# Youngs Moduli (GPa) = 39.22519 79.19019 57.31611
#
# Poissons Ratio (x) = 0.66354 0.48676
# Poissons Ratio (y) = 0.32867 0.15719
# Poissons Ratio (z) = 0.33313 0.21717
#
# Static dielectric constant tensor:
#      x y z
#    x 3.439240 0.000000 0.000000 
#    y 0.000000 3.488100 0.000000 
#    z 0.000000 0.000000 3.469330 
# 
# 
# High freq. dielectric constant tensor:
#      x y z
#    x 1.736890 0.000000 0.000000 
#    y 0.000000 1.744670 0.000000 
#    z 0.000000 0.000000 1.738980 
# 
# From -- ./inp_files/16568.got.cif
#   From: 2010.03.12/outbox.cif.g09.slc.cpg/sg36_9_cif.got.tgz:16568.got - 2010.04.14 02:13:53.
