data_PCOD8174765
_publ_section_title
;
Structure prediction by ZEFSAII (Michael W. Deem and Ramdas Pophale) SiO2 
 PCOD8174765
Probable space group: C M C 21
;
_chemical_formula_sum "Si O2"
_cell_formula_units_Z 64
_cell_length_a 9.922150
_cell_length_b 32.087280
_cell_length_c 10.924069
_cell_angle_alpha 90.000000
_cell_angle_beta 90.000000
_cell_angle_gamma 90.000000
_cell_volume 3477.948340
_symmetry_space_group_name_H-M "C M C 21"
_symmetry_group_IT_number 36
_symmetry_cell_setting 'orthorhombic'
loop_
_space_group_symop_operation_xyz
x,y,z
-x,-y,1/2+z
x,-y,1/2+z
-x,y,z
1/2+x,1/2+y,z
1/2-x,1/2-y,1/2+z
1/2+x,1/2-y,1/2+z
1/2-x,1/2+y,z
loop_
_atom_site_type_symbol
_atom_site_label
_atom_site_fract_x
_atom_site_fract_y
_atom_site_fract_z
Si Si1 0.348318 0.375728 0.970680
Si Si2 0.650130 0.675775 0.244217
Si Si3 0.647801 0.102287 0.832617
Si Si4 0.840021 0.973074 0.287728
Si Si5 0.341346 0.531497 0.509727
Si Si6 0.844993 0.672659 0.022109
Si Si7 0.157212 0.265538 0.322903
Si Si8 0.650894 0.171684 0.628640
O O1 0.500000 0.372855 0.025879
O O2 0.351790 0.365751 0.826549
O O3 0.285269 0.421424 0.995273
O O4 0.255383 0.339252 0.023199
O O5 0.500000 0.682961 0.188811
O O6 0.759162 0.668507 0.142665
O O7 0.690705 0.716723 0.323792
O O8 0.500000 0.080169 0.838702
O O9 0.768196 0.070009 0.817853
O O10 0.649076 0.133119 0.719737
O O11 0.671987 0.128623 0.954898
O O12 0.802681 0.986495 0.146071
O O13 0.000000 0.966184 0.297727
O O14 0.786686 0.004923 0.393199
O O15 0.500000 0.533087 0.495556
O O16 0.000000 0.680905 0.058056
O O17 0.782749 0.710924 0.941884
O O18 0.208366 0.287127 0.197074
O O19 0.000000 0.276271 0.328086
O O20 0.500000 0.178923 0.574850
#
# Coordination Sequence:
#
# PCOD8174765 Si02
#       8
#     8   8   8   8   8   8   8   8
#     4  10  20  34  52  78 109 138 173 220 268 313
#     4  10  21  34  51  77 109 139 175 224 268 308
#     4   9  18  34  55  78 102 133 173 218 265 310
#     4  10  19  34  56  79 105 141 182 223 270 329
#     4   9  19  34  53  79 109 139 177 223 273 328
#     4   9  19  36  54  73 105 142 175 214 267 326
#     4   8  17  34  52  73 103 140 174 215 267 312
#     4   9  17  32  55  75  98 134 175 213 256 314
#
# _framework density 18.401651999999999
#
# number of rings (size 3 to 8) (size 9 to 14) (size 15 to 20)
#    0.000    2.750    1.250    1.500    1.750    2.000 
#    0.000    6.250    0.000    0.000    0.000    0.000 
#    0.000    0.000    0.000    0.000    0.000    0.000 
#
# Total GULP energy -396513.371166 kJ/mol
# GULP energy per Si atom -12391.042849 kJ/mol
# Density = 1.835977 g / cm^3
# Si number density = 18.401652 Si / 1000 Ang^3
#
#
#
# Elastic Constant Matrix: (Units=GPa)
#
#
# Indices 1 2 3 4 5 6 
#
# 1 55.7479 20.0783 36.9665 0.0000 0.0000 0.0000
# 2 20.0783 64.7703 35.2804 0.0000 0.0000 0.0000
# 3 36.9665 35.2804 104.6142 0.0000 0.0000 0.0000
# 4 0.0000 0.0000 0.0000 21.1970 0.0000 0.0000
# 5 0.0000 0.0000 0.0000 0.0000 25.9791 0.0000
# 6 0.0000 0.0000 0.0000 0.0000 0.0000 18.6810
#
#
#
# Elastic Compliance Matrix: (Units=1/GPa)
#
#
# Indices 1 2 3 4 5 6 
#
# 1 0.024044 -0.003462 -0.007329 0.000000 0.000000 0.000000
# 2 -0.003462 0.019412 -0.005323 0.000000 0.000000 0.000000
# 3 -0.007329 -0.005323 0.013944 0.000000 0.000000 0.000000
# 4 0.000000 0.000000 0.000000 0.047177 0.000000 0.000000
# 5 0.000000 0.000000 0.000000 0.000000 0.038492 0.000000
# 6 0.000000 0.000000 0.000000 0.000000 0.000000 0.053530
#
#
# Mechanical properties :
#
#
# Convention : Reuss Voigt Hill
#
# Bulk Modulus (GPa) = 39.72575 45.53142 42.62859
# Shear Modulus (GPa) = 21.07765 22.02524 21.55144
#
# Velocity S-wave (km/s) = 3.38808 3.46340 3.42595
# Velocity P-wave (km/s) = 6.07787 6.38673 6.23421
#
# Compressibility (1/GPa) = 0.02517259
#
# Stress axis : x y z
#
# Youngs Moduli (GPa) = 41.58964 51.51499 71.71568
#
# Poissons Ratio (x) = 0.17832 0.52560
# Poissons Ratio (y) = 0.14396 0.38177
# Poissons Ratio (z) = 0.30481 0.27423
#
# Static dielectric constant tensor:
#      x y z
#    x 3.353950 0.000000 0.000000 
#    y 0.000000 3.506470 0.000000 
#    z 0.000000 0.000000 3.446310 
# 
# 
# High freq. dielectric constant tensor:
#      x y z
#    x 1.689470 0.000000 0.000000 
#    y 0.000000 1.706900 0.000000 
#    z 0.000000 0.000000 1.711070 
# 
# From -- ./inp_files/3591.got.cif
#   From: 2010.03.12/outbox.cif.g09.slc.cpg/sg36_2_cif.got.tgz:3591.got - 2010.04.14 02:13:53.
