data_PCOD8174678
_publ_section_title
;
Structure prediction by ZEFSAII (Michael W. Deem and Ramdas Pophale) SiO2 
 PCOD8174678
Probable space group: C M C 21
;
_chemical_formula_sum "Si O2"
_cell_formula_units_Z 60
_cell_length_a 26.864092
_cell_length_b 19.668105
_cell_length_c 5.345637
_cell_angle_alpha 90.000000
_cell_angle_beta 90.000000
_cell_angle_gamma 90.000000
_cell_volume 2824.451675
_symmetry_space_group_name_H-M "C M C 21"
_symmetry_group_IT_number 36
_symmetry_cell_setting 'orthorhombic'
loop_
_space_group_symop_operation_xyz
x,y,z
-x,-y,1/2+z
x,-y,1/2+z
-x,y,z
1/2+x,1/2+y,z
1/2-x,1/2-y,1/2+z
1/2+x,1/2-y,1/2+z
1/2-x,1/2+y,z
loop_
_atom_site_type_symbol
_atom_site_label
_atom_site_fract_x
_atom_site_fract_y
_atom_site_fract_z
Si Si1 0.601644 0.522680 0.412360
Si Si2 0.223382 0.171380 0.013357
Si Si3 0.554145 0.241636 0.724225
Si Si4 0.638026 0.668058 0.376048
Si Si5 0.323136 0.215772 0.223018
Si Si6 0.425569 0.838251 0.735170
Si Si7 0.500000 0.043375 0.252688
Si Si8 0.789780 0.967961 0.320893
O O1 0.572436 0.486532 0.645129
O O2 0.612384 0.600657 0.484003
O O3 0.651578 0.482371 0.327524
O O4 0.204833 0.248245 0.955213
O O5 0.218241 0.113833 0.798708
O O6 0.189164 0.145455 0.241544
O O7 0.281944 0.175758 0.066202
O O8 0.500000 0.276536 0.764802
O O9 0.597716 0.297227 0.690471
O O10 0.549758 0.200764 0.466221
O O11 0.564227 0.194236 0.964335
O O12 0.649989 0.720921 0.591944
O O13 0.365767 0.160956 0.291197
O O14 0.449290 0.912904 0.730351
O O15 0.500000 0.008977 0.524113
O O16 0.764787 0.997947 0.574999
#
# Coordination Sequence:
#
# PCOD8174678 Si02
#       8
#     8   8   8   8   8   8   4   8
#     4  10  19  33  54  78 109 152 204 240 276 348
#     4  12  21  36  58  88 123 167 207 252 312 384
#     4  11  21  39  65  95 123 156 203 266 324 373
#     4  11  22  35  59  87 119 159 208 254 313 379
#     4  11  24  37  57  93 129 164 206 269 327 376
#     4  11  23  42  65  94 126 163 204 269 322 385
#     4  12  24  44  74  96 124 172 224 268 334 412
#     4  10  20  34  54  77 108 152 210 240 275 347
#
# _framework density 21.243061000000001
#
# number of rings (size 3 to 8) (size 9 to 14) (size 15 to 20)
#    0.000    1.067    6.667    2.400    0.000    0.000 
#    0.000    1.333    0.000    0.800    0.000    0.000 
#    0.000    0.000    0.000    0.000    0.000    0.000 
#
# Total GULP energy -371733.737131 kJ/mol
# GULP energy per Si atom -12391.124571 kJ/mol
# Density = 2.119471 g / cm^3
# Si number density = 21.243061 Si / 1000 Ang^3
#
#
#
# Elastic Constant Matrix: (Units=GPa)
#
#
# Indices 1 2 3 4 5 6 
#
# 1 112.9734 29.6968 5.2902 0.0000 0.0000 0.0000
# 2 29.6968 90.7323 14.8204 0.0000 0.0000 0.0000
# 3 5.2902 14.8204 110.5034 0.0000 0.0000 0.0000
# 4 0.0000 0.0000 0.0000 36.4275 0.0000 0.0000
# 5 0.0000 0.0000 0.0000 0.0000 42.0127 0.0000
# 6 0.0000 0.0000 0.0000 0.0000 0.0000 22.0036
#
#
#
# Elastic Compliance Matrix: (Units=1/GPa)
#
#
# Indices 1 2 3 4 5 6 
#
# 1 0.009685 -0.003164 -0.000039 0.000000 0.000000 0.000000
# 2 -0.003164 0.012302 -0.001498 0.000000 0.000000 0.000000
# 3 -0.000039 -0.001498 0.009252 0.000000 0.000000 0.000000
# 4 0.000000 0.000000 0.000000 0.027452 0.000000 0.000000
# 5 0.000000 0.000000 0.000000 0.000000 0.023802 0.000000
# 6 0.000000 0.000000 0.000000 0.000000 0.000000 0.045447
#
#
# Mechanical properties :
#
#
# Convention : Reuss Voigt Hill
#
# Bulk Modulus (GPa) = 45.79504 45.98045 45.88775
# Shear Modulus (GPa) = 34.57296 37.71553 36.14424
#
# Velocity S-wave (km/s) = 4.03860 4.21815 4.12935
# Velocity P-wave (km/s) = 6.58418 6.73912 6.66210
#
# Compressibility (1/GPa) = 0.02183642
#
# Stress axis : x y z
#
# Youngs Moduli (GPa) = 103.25176 81.29021 108.08069
#
# Poissons Ratio (x) = 0.25716 0.00426
# Poissons Ratio (y) = 0.32664 0.16195
# Poissons Ratio (z) = 0.00407 0.12181
#
# Static dielectric constant tensor:
#      x y z
#    x 3.807470 0.000000 0.000000 
#    y 0.000000 3.796540 0.000000 
#    z 0.000000 0.000000 4.232890 
# 
# 
# High freq. dielectric constant tensor:
#      x y z
#    x 1.802980 0.000000 0.000000 
#    y 0.000000 1.819900 0.000000 
#    z 0.000000 0.000000 1.848360 
# 
# From -- ./inp_files/1775.got.cif
#   From: 2010.03.12/outbox.cif.g09.slc.cpg/sg36_1_cif.got.tgz:1775.got - 2010.04.14 02:13:53.
