data_PCOD8174320
_publ_section_title
;
Structure prediction by ZEFSAII (Michael W. Deem and Ramdas Pophale) SiO2 
 PCOD8174320
Probable space group: C M C 21
;
_chemical_formula_sum "Si O2"
_cell_formula_units_Z 64
_cell_length_a 8.615013
_cell_length_b 20.099829
_cell_length_c 19.769848
_cell_angle_alpha 90.000000
_cell_angle_beta 90.000000
_cell_angle_gamma 90.000000
_cell_volume 3423.352576
_symmetry_space_group_name_H-M "C M C 21"
_symmetry_group_IT_number 36
_symmetry_cell_setting 'orthorhombic'
loop_
_space_group_symop_operation_xyz
x,y,z
-x,-y,1/2+z
x,-y,1/2+z
-x,y,z
1/2+x,1/2+y,z
1/2-x,1/2-y,1/2+z
1/2+x,1/2-y,1/2+z
1/2-x,1/2+y,z
loop_
_atom_site_type_symbol
_atom_site_label
_atom_site_fract_x
_atom_site_fract_y
_atom_site_fract_z
Si Si1 0.819859 0.702838 0.772460
Si Si2 0.819324 0.795535 0.949290
Si Si3 0.680852 0.420868 0.033390
Si Si4 0.318436 0.663485 0.913399
Si Si5 0.681832 0.020005 0.290085
Si Si6 0.681978 0.081698 0.679064
Si Si7 0.180933 0.667155 0.309147
Si Si8 0.817102 0.472911 0.434967
O O1 0.768014 0.667394 0.841531
O O2 0.786308 0.654447 0.709928
O O3 0.727244 0.771862 0.759943
O O4 0.000000 0.719758 0.778797
O O5 0.725183 0.726998 0.959822
O O6 0.779005 0.828162 0.877479
O O7 0.000000 0.778484 0.951748
O O8 0.771419 0.847465 0.007507
O O9 0.500000 0.434191 0.020635
O O10 0.719304 0.425727 0.111854
O O11 0.778415 0.475910 0.994021
O O12 0.500000 0.662765 0.899900
O O13 0.264754 0.597090 0.951809
O O14 0.500000 0.007099 0.293203
O O15 0.720901 0.097011 0.273545
O O16 0.749382 0.973771 0.230760
O O17 0.749866 0.000170 0.363463
O O18 0.500000 0.071028 0.664025
O O19 0.000000 0.671318 0.327949
O O20 0.000000 0.461980 0.432393
#
# Coordination Sequence:
#
# PCOD8174320 Si02
#       8
#     8   8   8   8   8   8   8   8
#     4  10  19  34  55  81 112 147 187 229 280 341
#     4  10  20  35  54  79 113 149 186 229 281 339
#     4  11  24  39  56  85 118 150 194 241 289 345
#     4  11  21  33  55  87 116 142 185 238 286 331
#     4   9  18  34  57  84 111 145 192 234 276 339
#     4  10  21  39  59  79 109 155 199 232 282 349
#     4  10  18  31  55  85 112 139 181 234 283 328
#     4  11  20  37  61  84 115 153 192 235 287 344
#
# _framework density 18.695124
#
# number of rings (size 3 to 8) (size 9 to 14) (size 15 to 20)
#    0.000    1.750    2.500    4.500    0.000    2.500 
#    0.000    2.500    0.000    4.500    0.000    0.000 
#    0.000    0.000    0.000    0.000    0.000    0.000 
#
# Total GULP energy -396844.752334 kJ/mol
# GULP energy per Si atom -12401.398510 kJ/mol
# Density = 1.865257 g / cm^3
# Si number density = 18.695124 Si / 1000 Ang^3
#
#
#
# Elastic Constant Matrix: (Units=GPa)
#
#
# Indices 1 2 3 4 5 6 
#
# 1 38.1163 33.8880 13.1557 0.0000 0.0000 0.0000
# 2 33.8880 140.8145 53.0061 0.0000 0.0000 0.0000
# 3 13.1557 53.0061 90.4439 0.0000 0.0000 0.0000
# 4 0.0000 0.0000 0.0000 26.8106 0.0000 0.0000
# 5 0.0000 0.0000 0.0000 0.0000 25.3310 0.0000
# 6 0.0000 0.0000 0.0000 0.0000 0.0000 31.1899
#
#
#
# Elastic Compliance Matrix: (Units=1/GPa)
#
#
# Indices 1 2 3 4 5 6 
#
# 1 0.033379 -0.007962 -0.000189 0.000000 0.000000 0.000000
# 2 -0.007962 0.011011 -0.005295 0.000000 0.000000 0.000000
# 3 -0.000189 -0.005295 0.014187 0.000000 0.000000 0.000000
# 4 0.000000 0.000000 0.000000 0.037299 0.000000 0.000000
# 5 0.000000 0.000000 0.000000 0.000000 0.039477 0.000000
# 6 0.000000 0.000000 0.000000 0.000000 0.000000 0.032062
#
#
# Mechanical properties :
#
#
# Convention : Reuss Voigt Hill
#
# Bulk Modulus (GPa) = 31.55998 52.16383 41.86191
# Shear Modulus (GPa) = 24.40586 27.95460 26.18023
#
# Velocity S-wave (km/s) = 3.61704 3.87109 3.74622
# Velocity P-wave (km/s) = 5.86192 6.92412 6.41504
#
# Compressibility (1/GPa) = 0.03168569
#
# Stress axis : x y z
#
# Youngs Moduli (GPa) = 29.95859 90.82027 70.48572
#
# Poissons Ratio (x) = 0.72309 0.01333
# Poissons Ratio (y) = 0.23852 0.37322
# Poissons Ratio (z) = 0.00567 0.48089
#
# Static dielectric constant tensor:
#      x y z
#    x 3.344630 0.000000 0.000000 
#    y 0.000000 3.748760 0.000000 
#    z 0.000000 0.000000 3.159840 
# 
# 
# High freq. dielectric constant tensor:
#      x y z
#    x 1.724940 0.000000 0.000000 
#    y 0.000000 1.744480 0.000000 
#    z 0.000000 0.000000 1.690980 
# 
# From -- ./inp_files/15804.got.cif
#   From: 2010.03.12/outbox.cif.g09.slc.cpg/sg36_8_cif.got.tgz:15804.got - 2010.04.14 02:13:53.
