data_PCOD8174467
_publ_section_title
;
Structure prediction by ZEFSAII (Michael W. Deem and Ramdas Pophale) SiO2 
 PCOD8174467
Probable space group: C M C 21
;
_chemical_formula_sum "Si O2"
_cell_formula_units_Z 64
_cell_length_a 9.252858
_cell_length_b 22.688096
_cell_length_c 17.979105
_cell_angle_alpha 90.000000
_cell_angle_beta 90.000000
_cell_angle_gamma 90.000000
_cell_volume 3774.348669
_symmetry_space_group_name_H-M "C M C 21"
_symmetry_group_IT_number 36
_symmetry_cell_setting 'orthorhombic'
loop_
_space_group_symop_operation_xyz
x,y,z
-x,-y,1/2+z
x,-y,1/2+z
-x,y,z
1/2+x,1/2+y,z
1/2-x,1/2-y,1/2+z
1/2+x,1/2-y,1/2+z
1/2-x,1/2+y,z
loop_
_atom_site_type_symbol
_atom_site_label
_atom_site_fract_x
_atom_site_fract_y
_atom_site_fract_z
Si Si1 0.166414 0.073341 0.128970
Si Si2 0.166012 0.125242 0.918120
Si Si3 0.162276 0.478999 0.199014
Si Si4 0.834682 0.125726 0.753861
Si Si5 0.830370 0.810081 0.106560
Si Si6 0.669205 0.970364 0.485932
Si Si7 0.340958 0.088641 0.543878
Si Si8 0.335207 0.694448 0.063705
O O1 0.180770 0.144355 0.127680
O O2 0.000000 0.053693 0.135118
O O3 0.255094 0.042235 0.196039
O O4 0.230665 0.052465 0.051683
O O5 0.182063 0.154510 0.835980
O O6 0.268381 0.066762 0.916477
O O7 0.000000 0.106314 0.933051
O O8 0.214338 0.171454 0.981875
O O9 0.242964 0.434290 0.253707
O O10 0.162365 0.451148 0.117378
O O11 0.000000 0.489772 0.228367
O O12 0.782184 0.171576 0.690376
O O13 0.000000 0.108503 0.736966
O O14 0.774220 0.858815 0.047486
O O15 0.766112 0.747226 0.087888
O O16 0.000000 0.805853 0.097678
O O17 0.500000 0.956169 0.499701
O O18 0.691157 0.041549 0.477251
O O19 0.500000 0.117016 0.533757
O O20 0.500000 0.716655 0.059573
#
# Coordination Sequence:
#
# PCOD8174467 Si02
#       8
#     8   8   8   8   8   8   8   8
#     4   9  16  27  44  65  89 119 151 183 225 275
#     4   9  18  32  49  68  92 124 157 191 237 292
#     4   9  16  26  43  68  93 116 144 182 229 274
#     4   9  18  32  48  68  94 123 156 193 237 291
#     4  10  19  29  46  70  93 121 160 202 236 273
#     4   9  16  26  43  68  93 115 143 183 230 275
#     4   8  15  27  42  62  90 118 142 176 223 271
#     4   9  18  31  47  67  92 124 161 198 237 281
#
# _framework density 16.956568999999998
#
# number of rings (size 3 to 8) (size 9 to 14) (size 15 to 20)
#    0.000    3.000    0.000    3.000    0.000    7.000 
#    0.000    0.000    0.000    1.500    0.000    5.250 
#    0.000    0.000    0.000    0.000    0.000    0.000 
#
# Total GULP energy -396478.289768 kJ/mol
# GULP energy per Si atom -12389.946555 kJ/mol
# Density = 1.691797 g / cm^3
# Si number density = 16.956569 Si / 1000 Ang^3
#
#
#
# Elastic Constant Matrix: (Units=GPa)
#
#
# Indices 1 2 3 4 5 6 
#
# 1 102.0804 63.7408 30.2965 0.0000 0.0000 0.0000
# 2 63.7408 108.2800 40.8883 0.0000 0.0000 0.0000
# 3 30.2965 40.8883 60.9290 0.0000 0.0000 0.0000
# 4 0.0000 0.0000 0.0000 16.4574 0.0000 0.0000
# 5 0.0000 0.0000 0.0000 0.0000 15.7350 0.0000
# 6 0.0000 0.0000 0.0000 0.0000 0.0000 34.3592
#
#
#
# Elastic Compliance Matrix: (Units=1/GPa)
#
#
# Indices 1 2 3 4 5 6 
#
# 1 0.015697 -0.008429 -0.002149 0.000000 0.000000 0.000000
# 2 -0.008429 0.016896 -0.007147 0.000000 0.000000 0.000000
# 3 -0.002149 -0.007147 0.022278 0.000000 0.000000 0.000000
# 4 0.000000 0.000000 0.000000 0.060763 0.000000 0.000000
# 5 0.000000 0.000000 0.000000 0.000000 0.063553 0.000000
# 6 0.000000 0.000000 0.000000 0.000000 0.000000 0.029104
#
#
# Mechanical properties :
#
#
# Convention : Reuss Voigt Hill
#
# Bulk Modulus (GPa) = 51.49213 60.12675 55.80944
# Shear Modulus (GPa) = 19.98283 22.40122 21.19203
#
# Velocity S-wave (km/s) = 3.43661 3.63863 3.53906
# Velocity P-wave (km/s) = 6.79559 7.29308 7.04873
#
# Compressibility (1/GPa) = 0.01942044
#
# Stress axis : x y z
#
# Youngs Moduli (GPa) = 63.70593 59.18498 44.88831
#
# Poissons Ratio (x) = 0.49887 0.09645
# Poissons Ratio (y) = 0.53698 0.32084
# Poissons Ratio (z) = 0.13689 0.42302
#
# Static dielectric constant tensor:
#      x y z
#    x 3.338360 0.000000 0.000000 
#    y 0.000000 3.217270 0.000000 
#    z 0.000000 0.000000 3.056720 
# 
# 
# High freq. dielectric constant tensor:
#      x y z
#    x 1.665890 0.000000 0.000000 
#    y 0.000000 1.638050 0.000000 
#    z 0.000000 0.000000 1.614290 
# 
# From -- ./inp_files/14020.got.cif
#   From: 2010.03.12/outbox.cif.g09.slc.cpg/sg36_8_cif.got.tgz:14020.got - 2010.04.14 02:13:53.
