data_PCOD8174370
_publ_section_title
;
Structure prediction by ZEFSAII (Michael W. Deem and Ramdas Pophale) SiO2 
 PCOD8174370
Probable space group: C M C 21
;
_chemical_formula_sum "Si O2"
_cell_formula_units_Z 64
_cell_length_a 9.060703
_cell_length_b 22.889226
_cell_length_c 16.311052
_cell_angle_alpha 90.000000
_cell_angle_beta 90.000000
_cell_angle_gamma 90.000000
_cell_volume 3382.789504
_symmetry_space_group_name_H-M "C M C 21"
_symmetry_group_IT_number 36
_symmetry_cell_setting 'orthorhombic'
loop_
_space_group_symop_operation_xyz
x,y,z
-x,-y,1/2+z
x,-y,1/2+z
-x,y,z
1/2+x,1/2+y,z
1/2-x,1/2-y,1/2+z
1/2+x,1/2-y,1/2+z
1/2-x,1/2+y,z
loop_
_atom_site_type_symbol
_atom_site_label
_atom_site_fract_x
_atom_site_fract_y
_atom_site_fract_z
Si Si1 0.325751 0.962360 0.163990
Si Si2 0.825139 0.592498 0.209630
Si Si3 0.660092 0.547059 0.943761
Si Si4 0.835591 0.115549 0.784738
Si Si5 0.673058 0.140623 0.037485
Si Si6 0.673388 0.285144 0.405067
Si Si7 0.825850 0.652773 0.376227
Si Si8 0.831384 0.924993 0.000153
O O1 0.500000 0.962939 0.151608
O O2 0.281726 0.906648 0.218897
O O3 0.269749 0.025311 0.198855
O O4 0.246776 0.949802 0.079601
O O5 0.776475 0.633513 0.132582
O O6 0.763289 0.621916 0.293461
O O7 0.000000 0.591490 0.213789
O O8 0.500000 0.561959 0.984856
O O9 0.657612 0.564532 0.850195
O O10 0.682735 0.478130 0.936874
O O11 0.788375 0.579382 0.993818
O O12 0.776672 0.174232 0.828957
O O13 0.000000 0.125526 0.746420
O O14 0.500000 0.151405 0.031157
O O15 0.751648 0.194649 0.990785
O O16 0.500000 0.292437 0.419913
O O17 0.718316 0.220667 0.377335
O O18 0.752338 0.628615 0.458761
O O19 0.000000 0.643803 0.382751
O O20 0.000000 0.906944 0.019174
#
# Coordination Sequence:
#
# PCOD8174370 Si02
#       8
#     8   8   8   8   8   8   8   8
#     4  11  21  35  55  84 117 146 186 233 284 345
#     4   9  19  35  57  86 113 144 188 235 285 340
#     4   9  18  33  54  80 112 146 181 221 281 343
#     4   9  18  34  54  80 109 143 184 228 279 334
#     4  10  18  32  57  85 113 144 188 238 278 329
#     4   9  20  39  59  79 112 153 193 232 281 340
#     4  10  21  40  61  80 112 155 194 234 286 340
#     4  11  22  36  55  82 116 149 184 231 286 339
#
# _framework density 18.919297
#
# number of rings (size 3 to 8) (size 9 to 14) (size 15 to 20)
#    0.000    2.250    1.250    2.625    0.000    3.000 
#    2.250    1.875    0.000    0.000    0.000    0.000 
#    0.000    0.000    0.000    0.000    0.000    0.000 
#
# Total GULP energy -396581.293584 kJ/mol
# GULP energy per Si atom -12393.165425 kJ/mol
# Density = 1.887624 g / cm^3
# Si number density = 18.919297 Si / 1000 Ang^3
#
#
#
# Elastic Constant Matrix: (Units=GPa)
#
#
# Indices 1 2 3 4 5 6 
#
# 1 58.3307 40.2177 28.3800 0.0000 0.0000 0.0000
# 2 40.2177 123.9032 52.9379 0.0000 0.0000 0.0000
# 3 28.3800 52.9379 67.0463 0.0000 0.0000 0.0000
# 4 0.0000 0.0000 0.0000 29.8430 0.0000 0.0000
# 5 0.0000 0.0000 0.0000 0.0000 30.3354 0.0000
# 6 0.0000 0.0000 0.0000 0.0000 0.0000 23.8962
#
#
#
# Elastic Compliance Matrix: (Units=1/GPa)
#
#
# Indices 1 2 3 4 5 6 
#
# 1 0.023555 -0.005109 -0.005936 0.000000 0.000000 0.000000
# 2 -0.005109 0.013288 -0.008329 0.000000 0.000000 0.000000
# 3 -0.005936 -0.008329 0.024004 0.000000 0.000000 0.000000
# 4 0.000000 0.000000 0.000000 0.033509 0.000000 0.000000
# 5 0.000000 0.000000 0.000000 0.000000 0.032965 0.000000
# 6 0.000000 0.000000 0.000000 0.000000 0.000000 0.041848
#
#
# Mechanical properties :
#
#
# Convention : Reuss Voigt Hill
#
# Bulk Modulus (GPa) = 45.25400 54.70571 49.97985
# Shear Modulus (GPa) = 23.22527 25.33121 24.27824
#
# Velocity S-wave (km/s) = 3.50751 3.66308 3.58614
# Velocity P-wave (km/s) = 6.35413 6.84609 6.60469
#
# Compressibility (1/GPa) = 0.02209750
#
# Stress axis : x y z
#
# Youngs Moduli (GPa) = 42.45455 75.25697 41.65940
#
# Poissons Ratio (x) = 0.38451 0.24730
# Poissons Ratio (y) = 0.21691 0.34698
# Poissons Ratio (z) = 0.25202 0.62681
#
# Static dielectric constant tensor:
#      x y z
#    x 3.411220 0.000000 0.000000 
#    y 0.000000 3.545660 0.000000 
#    z 0.000000 0.000000 3.602890 
# 
# 
# High freq. dielectric constant tensor:
#      x y z
#    x 1.722690 0.000000 0.000000 
#    y 0.000000 1.730560 0.000000 
#    z 0.000000 0.000000 1.731820 
# 
# From -- ./inp_files/11005.got.cif
#   From: 2010.03.12/outbox.cif.g09.slc.cpg/sg36_6_cif.got.tgz:11005.got - 2010.04.14 02:13:53.
