data_PCOD8174269
_publ_section_title
;
Structure prediction by ZEFSAII (Michael W. Deem and Ramdas Pophale) SiO2 
 PCOD8174269
Probable space group: C M C 21
;
_chemical_formula_sum "Si O2"
_cell_formula_units_Z 64
_cell_length_a 9.762840
_cell_length_b 22.563214
_cell_length_c 15.599682
_cell_angle_alpha 90.000000
_cell_angle_beta 90.000000
_cell_angle_gamma 90.000000
_cell_volume 3436.314302
_symmetry_space_group_name_H-M "C M C 21"
_symmetry_group_IT_number 36
_symmetry_cell_setting 'orthorhombic'
loop_
_space_group_symop_operation_xyz
x,y,z
-x,-y,1/2+z
x,-y,1/2+z
-x,y,z
1/2+x,1/2+y,z
1/2-x,1/2-y,1/2+z
1/2+x,1/2-y,1/2+z
1/2-x,1/2+y,z
loop_
_atom_site_type_symbol
_atom_site_label
_atom_site_fract_x
_atom_site_fract_y
_atom_site_fract_z
Si Si1 0.147546 0.906214 0.868600
Si Si2 0.152615 0.580062 0.825874
Si Si3 0.350022 0.504146 0.738955
Si Si4 0.657508 0.805781 0.596880
Si Si5 0.838120 0.206315 0.262150
Si Si6 0.849681 0.523621 0.460632
Si Si7 0.338236 0.798960 0.407075
Si Si8 0.344210 0.056586 0.115542
O O1 0.200292 0.858195 0.799527
O O2 0.000000 0.883981 0.905687
O O3 0.124471 0.970992 0.828336
O O4 0.256382 0.917954 0.944309
O O5 0.260958 0.564575 0.749977
O O6 0.141793 0.521170 0.881634
O O7 0.212480 0.635700 0.878775
O O8 0.000000 0.594877 0.788873
O O9 0.500000 0.519309 0.698384
O O10 0.264931 0.454811 0.688608
O O11 0.500000 0.786313 0.615488
O O12 0.753573 0.782529 0.674334
O O13 0.712308 0.781779 0.503857
O O14 0.665907 0.876199 0.585766
O O15 0.788928 0.252529 0.335125
O O16 0.000000 0.212232 0.241665
O O17 0.794474 0.486927 0.540683
O O18 0.000000 0.549292 0.479499
O O19 0.500000 0.800301 0.413116
O O20 0.500000 0.042281 0.145246
#
# Coordination Sequence:
#
# PCOD8174269 Si02
#       8
#     8   8   8   8   8   8   8   8
#     4   9  18  31  46  70 103 135 167 201 254 320
#     4   9  16  31  52  74  97 129 172 214 259 307
#     4  10  19  30  46  73 107 136 164 203 260 320
#     4  10  19  34  56  81 105 136 184 231 267 313
#     4  10  20  36  56  79 109 146 182 220 271 323
#     4   9  17  29  49  74  99 125 164 214 261 306
#     4   9  18  35  59  80 104 143 185 224 269 320
#     4  10  18  30  50  77 104 132 174 223 265 311
#
# _framework density 18.624606
#
# number of rings (size 3 to 8) (size 9 to 14) (size 15 to 20)
#    0.000    2.500    2.500    0.375    0.000    1.500 
#    0.000    3.125    0.000    3.000    0.000    0.000 
#    0.000    0.000    0.000    0.000    0.000    0.000 
#
# Total GULP energy -396418.774547 kJ/mol
# GULP energy per Si atom -12388.086705 kJ/mol
# Density = 1.858222 g / cm^3
# Si number density = 18.624606 Si / 1000 Ang^3
#
#
#
# Elastic Constant Matrix: (Units=GPa)
#
#
# Indices 1 2 3 4 5 6 
#
# 1 87.6036 30.0280 46.1432 0.0000 0.0000 0.0000
# 2 30.0280 54.6250 38.4498 0.0000 0.0000 0.0000
# 3 46.1432 38.4498 86.6237 0.0000 0.0000 0.0000
# 4 0.0000 0.0000 0.0000 33.6248 0.0000 0.0000
# 5 0.0000 0.0000 0.0000 0.0000 25.6394 0.0000
# 6 0.0000 0.0000 0.0000 0.0000 0.0000 17.0377
#
#
#
# Elastic Compliance Matrix: (Units=1/GPa)
#
#
# Indices 1 2 3 4 5 6 
#
# 1 0.016502 -0.004194 -0.006929 0.000000 0.000000 0.000000
# 2 -0.004194 0.027691 -0.010057 0.000000 0.000000 0.000000
# 3 -0.006929 -0.010057 0.019699 0.000000 0.000000 0.000000
# 4 0.000000 0.000000 0.000000 0.029740 0.000000 0.000000
# 5 0.000000 0.000000 0.000000 0.000000 0.039002 0.000000
# 6 0.000000 0.000000 0.000000 0.000000 0.000000 0.058693
#
#
# Mechanical properties :
#
#
# Convention : Reuss Voigt Hill
#
# Bulk Modulus (GPa) = 46.44201 50.89936 48.67069
# Shear Modulus (GPa) = 20.75835 22.87580 21.81707
#
# Velocity S-wave (km/s) = 3.34213 3.50845 3.42630
# Velocity P-wave (km/s) = 6.31531 6.61821 6.46853
#
# Compressibility (1/GPa) = 0.02153223
#
# Stress axis : x y z
#
# Youngs Moduli (GPa) = 60.59731 36.11217 50.76364
#
# Poissons Ratio (x) = 0.15147 0.35173
# Poissons Ratio (y) = 0.25417 0.51054
# Poissons Ratio (z) = 0.41987 0.36319
#
# Static dielectric constant tensor:
#      x y z
#    x 3.763640 0.000000 0.000000 
#    y 0.000000 3.239940 0.000000 
#    z 0.000000 0.000000 3.361920 
# 
# 
# High freq. dielectric constant tensor:
#      x y z
#    x 1.713530 0.000000 0.000000 
#    y 0.000000 1.698650 0.000000 
#    z 0.000000 0.000000 1.705460 
# 
# From -- ./inp_files/14038.got.cif
#   From: 2010.03.12/outbox.cif.g09.slc.cpg/sg36_8_cif.got.tgz:14038.got - 2010.04.14 02:13:53.
