data_PCOD8174880
_publ_section_title
;
Structure prediction by ZEFSAII (Michael W. Deem and Ramdas Pophale) SiO2 
 PCOD8174880
Probable space group: C M C 21
;
_chemical_formula_sum "Si O2"
_cell_formula_units_Z 64
_cell_length_a 8.751195
_cell_length_b 24.221275
_cell_length_c 15.572667
_cell_angle_alpha 90.000000
_cell_angle_beta 90.000000
_cell_angle_gamma 90.000000
_cell_volume 3300.861928
_symmetry_space_group_name_H-M "C M C 21"
_symmetry_group_IT_number 36
_symmetry_cell_setting 'orthorhombic'
loop_
_space_group_symop_operation_xyz
x,y,z
-x,-y,1/2+z
x,-y,1/2+z
-x,y,z
1/2+x,1/2+y,z
1/2-x,1/2-y,1/2+z
1/2+x,1/2-y,1/2+z
1/2-x,1/2+y,z
loop_
_atom_site_type_symbol
_atom_site_label
_atom_site_fract_x
_atom_site_fract_y
_atom_site_fract_z
Si Si1 0.682399 0.932874 0.827890
Si Si2 0.180208 0.763747 0.170253
Si Si3 0.175880 0.117949 0.732651
Si Si4 0.318548 0.193008 0.329139
Si Si5 0.675171 0.759678 0.482878
Si Si6 0.826481 0.623202 0.906386
Si Si7 0.179553 0.507137 0.983774
Si Si8 0.320379 0.007959 0.673252
O O1 0.500000 0.935240 0.828125
O O2 0.742753 0.869985 0.827991
O O3 0.745742 0.963806 0.742282
O O4 0.746773 0.964462 0.912778
O O5 0.223785 0.827515 0.181496
O O6 0.250091 0.725553 0.246379
O O7 0.247058 0.747661 0.077565
O O8 0.000000 0.754778 0.172450
O O9 0.204169 0.131156 0.831785
O O10 0.285819 0.069246 0.704245
O O11 0.000000 0.101899 0.717497
O O12 0.500000 0.193332 0.326959
O O13 0.267248 0.223099 0.415541
O O14 0.500000 0.739620 0.479407
O O15 0.688594 0.824567 0.467499
O O16 0.000000 0.617498 0.870375
O O17 0.779700 0.569341 0.959027
O O18 0.253182 0.498590 0.078306
O O19 0.000000 0.497236 0.989071
O O20 0.500000 0.999130 0.667778
#
# Coordination Sequence:
#
# PCOD8174880 Si02
#       8
#     8   8   8   8   8   8   8   8
#     4   9  18  32  52  79 108 136 172 217 264 313
#     4   9  20  36  53  77 110 144 179 217 268 328
#     4  11  21  36  56  78 109 147 182 220 271 327
#     4  10  20  36  56  78 109 146 180 218 269 328
#     4  10  21  36  56  81 108 143 184 225 270 321
#     4  10  19  35  59  82 106 137 183 233 272 313
#     4   9  18  32  53  83 108 131 172 225 271 311
#     4  10  20  35  57  82 108 138 178 227 269 315
#
# _framework density 19.388874999999999
#
# number of rings (size 3 to 8) (size 9 to 14) (size 15 to 20)
#    0.000    2.250    2.500    0.375    3.500    0.000 
#    0.000    2.500    0.000    0.000    0.000    0.000 
#    0.000    0.000    0.000    0.000    0.000    0.000 
#
# Total GULP energy -396731.211734 kJ/mol
# GULP energy per Si atom -12397.850367 kJ/mol
# Density = 1.934475 g / cm^3
# Si number density = 19.388875 Si / 1000 Ang^3
#
#
#
# Elastic Constant Matrix: (Units=GPa)
#
#
# Indices 1 2 3 4 5 6 
#
# 1 7.4109 16.1743 10.4081 0.0000 0.0000 0.0000
# 2 16.1743 127.7473 58.1315 0.0000 0.0000 0.0000
# 3 10.4081 58.1315 156.7816 0.0000 0.0000 0.0000
# 4 0.0000 0.0000 0.0000 46.6060 0.0000 0.0000
# 5 0.0000 0.0000 0.0000 0.0000 19.0447 0.0000
# 6 0.0000 0.0000 0.0000 0.0000 0.0000 18.8583
#
#
#
# Elastic Compliance Matrix: (Units=1/GPa)
#
#
# Indices 1 2 3 4 5 6 
#
# 1 0.188974 -0.021915 -0.004420 0.000000 0.000000 0.000000
# 2 -0.021915 0.011958 -0.002979 0.000000 0.000000 0.000000
# 3 -0.004420 -0.002979 0.007776 0.000000 0.000000 0.000000
# 4 0.000000 0.000000 0.000000 0.021456 0.000000 0.000000
# 5 0.000000 0.000000 0.000000 0.000000 0.052508 0.000000
# 6 0.000000 0.000000 0.000000 0.000000 0.000000 0.053027
#
#
# Mechanical properties :
#
#
# Convention : Reuss Voigt Hill
#
# Bulk Modulus (GPa) = 6.66307 51.26307 28.96307
# Shear Modulus (GPa) = 11.25227 30.71684 20.98456
#
# Velocity S-wave (km/s) = 2.41165 3.98458 3.29340
# Velocity P-wave (km/s) = 3.34645 6.90406 5.42516
#
# Compressibility (1/GPa) = 0.15008098
#
# Stress axis : x y z
#
# Youngs Moduli (GPa) = 5.29173 83.62403 128.59648
#
# Poissons Ratio (x) = 1.83264 0.56834
# Poissons Ratio (y) = 0.11597 0.38309
# Poissons Ratio (z) = 0.02339 0.24912
#
# Static dielectric constant tensor:
#      x y z
#    x 3.042360 0.000000 0.000000 
#    y 0.000000 3.409890 0.000000 
#    z 0.000000 0.000000 3.918760 
# 
# 
# High freq. dielectric constant tensor:
#      x y z
#    x 1.701220 0.000000 0.000000 
#    y 0.000000 1.768870 0.000000 
#    z 0.000000 0.000000 1.768330 
# 
# From -- ./inp_files/10878.got.cif
#   From: 2010.03.12/outbox.cif.g09.slc.cpg/sg36_6_cif.got.tgz:10878.got - 2010.04.14 02:13:53.
