data_PCOD8174779
_publ_section_title
;
Structure prediction by ZEFSAII (Michael W. Deem and Ramdas Pophale) SiO2 
 PCOD8174779
Probable space group: C M C 21
;
_chemical_formula_sum "Si O2"
_cell_formula_units_Z 64
_cell_length_a 8.641234
_cell_length_b 29.218217
_cell_length_c 12.603201
_cell_angle_alpha 90.000000
_cell_angle_beta 90.000000
_cell_angle_gamma 90.000000
_cell_volume 3182.074465
_symmetry_space_group_name_H-M "C M C 21"
_symmetry_group_IT_number 36
_symmetry_cell_setting 'orthorhombic'
loop_
_space_group_symop_operation_xyz
x,y,z
-x,-y,1/2+z
x,-y,1/2+z
-x,y,z
1/2+x,1/2+y,z
1/2-x,1/2-y,1/2+z
1/2+x,1/2-y,1/2+z
1/2-x,1/2+y,z
loop_
_atom_site_type_symbol
_atom_site_label
_atom_site_fract_x
_atom_site_fract_y
_atom_site_fract_z
Si Si1 0.169842 0.318359 0.403650
Si Si2 0.683318 0.222696 0.689421
Si Si3 0.816447 0.083387 0.182566
Si Si4 0.678587 0.681493 0.117747
Si Si5 0.317447 0.433158 0.923247
Si Si6 0.185961 0.371038 0.090882
Si Si7 0.316109 0.973521 0.488861
Si Si8 0.669496 0.084182 0.798741
O O1 0.228172 0.284481 0.311804
O O2 0.300642 0.318486 0.492001
O O3 0.151304 0.368116 0.356674
O O4 0.000000 0.303313 0.447733
O O5 0.500000 0.223826 0.675112
O O6 0.758619 0.271723 0.659551
O O7 0.744558 0.180717 0.615946
O O8 0.748730 0.134913 0.166142
O O9 0.767217 0.067368 0.300037
O O10 0.000000 0.083428 0.167990
O O11 0.746608 0.049048 0.096331
O O12 0.500000 0.682397 0.148045
O O13 0.500000 0.438339 0.934416
O O14 0.232976 0.473911 0.985495
O O15 0.261012 0.386401 0.979782
O O16 0.248716 0.405843 0.184292
O O17 0.000000 0.372896 0.086939
O O18 0.500000 0.968081 0.490153
O O19 0.243624 0.949766 0.381703
O O20 0.500000 0.063022 0.776535
#
# Coordination Sequence:
#
# PCOD8174779 Si02
#       8
#     8   8   8   8   8   8   8   8
#     4   9  16  32  54  78 106 143 187 235 282 329
#     4   8  17  33  56  82 113 152 192 232 282 339
#     4  10  23  41  58  82 121 158 189 231 289 351
#     4  10  19  34  56  83 114 151 189 231 284 338
#     4  11  25  41  56  83 122 157 190 231 290 353
#     4   9  18  37  60  83 112 150 194 236 283 335
#     4  11  22  38  62  87 110 143 194 244 287 339
#     4   8  16  32  56  82 106 134 181 240 285 326
#
# _framework density 20.112666999999998
#
# number of rings (size 3 to 8) (size 9 to 14) (size 15 to 20)
#    0.000    2.500    1.250    2.250    1.750    2.000 
#    0.000    5.625    0.000    0.000    0.000    0.000 
#    0.000    0.000    0.000    0.000    0.000    0.000 
#
# Total GULP energy -396527.474598 kJ/mol
# GULP energy per Si atom -12391.483581 kJ/mol
# Density = 2.006689 g / cm^3
# Si number density = 20.112667 Si / 1000 Ang^3
#
#
#
# Elastic Constant Matrix: (Units=GPa)
#
#
# Indices 1 2 3 4 5 6 
#
# 1 26.5174 21.3204 26.2723 0.0000 0.0000 0.0000
# 2 21.3204 119.4606 66.0273 0.0000 0.0000 0.0000
# 3 26.2723 66.0273 114.7090 0.0000 0.0000 0.0000
# 4 0.0000 0.0000 0.0000 19.8228 0.0000 0.0000
# 5 0.0000 0.0000 0.0000 0.0000 22.6004 0.0000
# 6 0.0000 0.0000 0.0000 0.0000 0.0000 17.1056
#
#
#
# Elastic Compliance Matrix: (Units=1/GPa)
#
#
# Indices 1 2 3 4 5 6 
#
# 1 0.049929 -0.003799 -0.009249 0.000000 0.000000 0.000000
# 2 -0.003799 0.012566 -0.006363 0.000000 0.000000 0.000000
# 3 -0.009249 -0.006363 0.014498 0.000000 0.000000 0.000000
# 4 0.000000 0.000000 0.000000 0.050447 0.000000 0.000000
# 5 0.000000 0.000000 0.000000 0.000000 0.044247 0.000000
# 6 0.000000 0.000000 0.000000 0.000000 0.000000 0.058460
#
#
# Mechanical properties :
#
#
# Convention : Reuss Voigt Hill
#
# Bulk Modulus (GPa) = 26.19728 54.21413 40.20571
# Shear Modulus (GPa) = 17.74986 21.71023 19.73005
#
# Velocity S-wave (km/s) = 2.97395 3.28903 3.13545
# Velocity P-wave (km/s) = 4.98458 6.43719 5.75688
#
# Compressibility (1/GPa) = 0.03817190
#
# Stress axis : x y z
#
# Youngs Moduli (GPa) = 20.02856 79.58098 68.97276
#
# Poissons Ratio (x) = 0.30233 0.63790
# Poissons Ratio (y) = 0.07609 0.43886
# Poissons Ratio (z) = 0.18524 0.50636
#
# Static dielectric constant tensor:
#      x y z
#    x 3.383980 0.000000 0.000000 
#    y 0.000000 3.965130 0.000000 
#    z 0.000000 0.000000 3.985050 
# 
# 
# High freq. dielectric constant tensor:
#      x y z
#    x 1.744000 0.000000 0.000000 
#    y 0.000000 1.791080 0.000000 
#    z 0.000000 0.000000 1.789350 
# 
# From -- ./inp_files/7173.got.cif
#   From: 2010.03.12/outbox.cif.g09.slc.cpg/sg36_4_cif.got.tgz:7173.got - 2010.04.14 02:13:53.
