data_PCOD8174655
_publ_section_title
;
Structure prediction by ZEFSAII (Michael W. Deem and Ramdas Pophale) SiO2 
 PCOD8174655
Probable space group: C M C 21
;
_chemical_formula_sum "Si O2"
_cell_formula_units_Z 64
_cell_length_a 9.496530
_cell_length_b 28.508199
_cell_length_c 12.616714
_cell_angle_alpha 90.000000
_cell_angle_beta 90.000000
_cell_angle_gamma 90.000000
_cell_volume 3415.709949
_symmetry_space_group_name_H-M "C M C 21"
_symmetry_group_IT_number 36
_symmetry_cell_setting 'orthorhombic'
loop_
_space_group_symop_operation_xyz
x,y,z
-x,-y,1/2+z
x,-y,1/2+z
-x,y,z
1/2+x,1/2+y,z
1/2-x,1/2-y,1/2+z
1/2+x,1/2-y,1/2+z
1/2-x,1/2+y,z
loop_
_atom_site_type_symbol
_atom_site_label
_atom_site_fract_x
_atom_site_fract_y
_atom_site_fract_z
Si Si1 0.345217 0.440728 0.944010
Si Si2 0.154393 0.840195 0.037118
Si Si3 0.165374 0.682712 0.912190
Si Si4 0.166977 0.783862 0.833479
Si Si5 0.660171 0.067960 0.242525
Si Si6 0.662445 0.026581 0.621623
Si Si7 0.164239 0.625955 0.716176
Si Si8 0.336236 0.832595 0.647397
O O1 0.500000 0.462384 0.919968
O O2 0.267334 0.426714 0.837590
O O3 0.363688 0.394260 0.011093
O O4 0.252758 0.476336 0.013922
O O5 0.258682 0.837588 0.136928
O O6 0.000000 0.819164 0.066840
O O7 0.217659 0.812706 0.936738
O O8 0.212457 0.730461 0.854671
O O9 0.210769 0.639301 0.836134
O O10 0.000000 0.682364 0.928327
O O11 0.228577 0.677709 0.030507
O O12 0.248300 0.802298 0.730896
O O13 0.000000 0.790103 0.815064
O O14 0.500000 0.066411 0.285348
O O15 0.682304 0.111868 0.165185
O O16 0.699231 0.020176 0.183960
O O17 0.500000 0.028701 0.587528
O O18 0.701488 0.071500 0.694790
O O19 0.000000 0.635607 0.699332
O O20 0.500000 0.818092 0.657678
#
# Coordination Sequence:
#
# PCOD8174655 Si02
#       8
#     8   8   8   8   8   8   8   8
#     4  10  19  33  52  76 106 141 179 222 271 322
#     4   9  18  32  52  75 102 137 174 220 269 314
#     4   9  20  36  54  78 110 145 178 221 278 327
#     4  10  20  36  55  76 106 142 177 219 273 328
#     4  10  20  34  55  81 108 141 181 229 276 323
#     4   9  19  34  54  80 108 142 184 226 271 321
#     4   9  18  34  55  78 106 140 179 222 266 319
#     4  10  21  37  57  82 110 140 182 229 272 326
#
# _framework density 18.736954999999998
#
# number of rings (size 3 to 8) (size 9 to 14) (size 15 to 20)
#    0.000    2.500    1.250    0.375    1.750    2.500 
#    0.000    5.000    0.000    0.000    0.000    0.000 
#    0.000    0.000    0.000    0.000    0.000    0.000 
#
# Total GULP energy -396687.956055 kJ/mol
# GULP energy per Si atom -12396.498627 kJ/mol
# Density = 1.869431 g / cm^3
# Si number density = 18.736955 Si / 1000 Ang^3
#
#
#
# Elastic Constant Matrix: (Units=GPa)
#
#
# Indices 1 2 3 4 5 6 
#
# 1 63.2739 28.4581 52.2277 0.0000 0.0000 0.0000
# 2 28.4581 87.6163 53.4075 0.0000 0.0000 0.0000
# 3 52.2277 53.4075 140.2137 0.0000 0.0000 0.0000
# 4 0.0000 0.0000 0.0000 19.1031 0.0000 0.0000
# 5 0.0000 0.0000 0.0000 0.0000 25.4308 0.0000
# 6 0.0000 0.0000 0.0000 0.0000 0.0000 13.1058
#
#
#
# Elastic Compliance Matrix: (Units=1/GPa)
#
#
# Indices 1 2 3 4 5 6 
#
# 1 0.023403 -0.002979 -0.007582 0.000000 0.000000 0.000000
# 2 -0.002979 0.015244 -0.004697 0.000000 0.000000 0.000000
# 3 -0.007582 -0.004697 0.011745 0.000000 0.000000 0.000000
# 4 0.000000 0.000000 0.000000 0.052348 0.000000 0.000000
# 5 0.000000 0.000000 0.000000 0.000000 0.039322 0.000000
# 6 0.000000 0.000000 0.000000 0.000000 0.000000 0.076302
#
#
# Mechanical properties :
#
#
# Convention : Reuss Voigt Hill
#
# Bulk Modulus (GPa) = 50.31377 62.14343 56.22860
# Shear Modulus (GPa) = 19.56895 21.99531 20.78213
#
# Velocity S-wave (km/s) = 3.23523 3.42994 3.33401
# Velocity P-wave (km/s) = 6.39270 6.99458 6.70040
#
# Compressibility (1/GPa) = 0.01987528
#
# Stress axis : x y z
#
# Youngs Moduli (GPa) = 42.72944 65.59942 85.14043
#
# Poissons Ratio (x) = 0.19545 0.64557
# Poissons Ratio (y) = 0.12731 0.39988
# Poissons Ratio (z) = 0.32399 0.30810
#
# Static dielectric constant tensor:
#      x y z
#    x 3.555260 0.000000 0.000000 
#    y 0.000000 3.462740 0.000000 
#    z 0.000000 0.000000 3.512410 
# 
# 
# High freq. dielectric constant tensor:
#      x y z
#    x 1.711180 0.000000 0.000000 
#    y 0.000000 1.723660 0.000000 
#    z 0.000000 0.000000 1.728510 
# 
# From -- ./inp_files/7089.got.cif
#   From: 2010.03.12/outbox.cif.g09.slc.cpg/sg36_4_cif.got.tgz:7089.got - 2010.04.14 02:13:53.
