data_PCOD8174400
_publ_section_title
;
Structure prediction by ZEFSAII (Michael W. Deem and Ramdas Pophale) SiO2 
 PCOD8174400
Probable space group: C M C 21
;
_chemical_formula_sum "Si O2"
_cell_formula_units_Z 64
_cell_length_a 8.695797
_cell_length_b 22.326812
_cell_length_c 16.486080
_cell_angle_alpha 90.000000
_cell_angle_beta 90.000000
_cell_angle_gamma 90.000000
_cell_volume 3200.762949
_symmetry_space_group_name_H-M "C M C 21"
_symmetry_group_IT_number 36
_symmetry_cell_setting 'orthorhombic'
loop_
_space_group_symop_operation_xyz
x,y,z
-x,-y,1/2+z
x,-y,1/2+z
-x,y,z
1/2+x,1/2+y,z
1/2-x,1/2-y,1/2+z
1/2+x,1/2-y,1/2+z
1/2-x,1/2+y,z
loop_
_atom_site_type_symbol
_atom_site_label
_atom_site_fract_x
_atom_site_fract_y
_atom_site_fract_z
Si Si1 0.322898 0.718442 0.862820
Si Si2 0.182421 0.602416 0.171769
Si Si3 0.671890 0.921562 0.960213
Si Si4 0.681200 0.634261 0.011957
Si Si5 0.678150 0.343166 0.832664
Si Si6 0.829642 0.548041 0.899862
Si Si7 0.320492 0.969777 0.127607
Si Si8 0.826683 0.106194 0.758374
O O1 0.500000 0.739214 0.866778
O O2 0.213720 0.773380 0.842637
O O3 0.296593 0.674020 0.786690
O O4 0.276601 0.687798 0.949046
O O5 0.260915 0.646002 0.103930
O O6 0.227358 0.626456 0.260088
O O7 0.244670 0.533857 0.159207
O O8 0.000000 0.606212 0.163449
O O9 0.500000 0.895008 0.975218
O O10 0.778342 0.871911 0.919220
O O11 0.660236 0.976969 0.899085
O O12 0.750098 0.946184 0.042851
O O13 0.500000 0.622391 0.010192
O O14 0.774973 0.574472 0.986324
O O15 0.500000 0.352321 0.814261
O O16 0.699065 0.565181 0.836534
O O17 0.000000 0.573743 0.878064
O O18 0.500000 0.978261 0.114109
O O19 0.289354 0.915766 0.189756
O O20 0.000000 0.097280 0.727215
#
# Coordination Sequence:
#
# PCOD8174400 Si02
#       8
#     8   8   8   8   8   8   8   8
#     4   9  21  43  63  82 116 160 201 245 300 359
#     4  11  22  40  64  91 124 162 201 243 299 366
#     4  10  21  39  59  83 120 162 198 238 295 362
#     4  10  20  36  62  93 121 152 196 251 300 347
#     4  12  26  41  60  90 120 158 208 254 304 353
#     4  10  18  33  58  86 117 156 195 231 288 360
#     4  10  21  38  60  90 122 158 199 236 292 369
#     4  10  21  36  58  89 118 150 194 248 300 344
#
# _framework density 19.995231
#
# number of rings (size 3 to 8) (size 9 to 14) (size 15 to 20)
#    0.000    1.750    1.250    4.125    0.000    8.500 
#    2.250    0.000    0.000    0.000    0.000    0.000 
#    0.000    0.000    0.000    0.000    0.000    0.000 
#
# Total GULP energy -396708.224432 kJ/mol
# GULP energy per Si atom -12397.132014 kJ/mol
# Density = 1.994972 g / cm^3
# Si number density = 19.995231 Si / 1000 Ang^3
#
#
#
# Elastic Constant Matrix: (Units=GPa)
#
#
# Indices 1 2 3 4 5 6 
#
# 1 71.0383 36.2572 21.0729 0.0000 0.0000 0.0000
# 2 36.2572 93.4829 48.6071 0.0000 0.0000 0.0000
# 3 21.0729 48.6071 96.6530 0.0000 0.0000 0.0000
# 4 0.0000 0.0000 0.0000 26.7115 0.0000 0.0000
# 5 0.0000 0.0000 0.0000 0.0000 35.8294 0.0000
# 6 0.0000 0.0000 0.0000 0.0000 0.0000 27.7283
#
#
#
# Elastic Compliance Matrix: (Units=1/GPa)
#
#
# Indices 1 2 3 4 5 6 
#
# 1 0.017573 -0.006531 -0.000547 0.000000 0.000000 0.000000
# 2 -0.006531 0.016912 -0.007081 0.000000 0.000000 0.000000
# 3 -0.000547 -0.007081 0.014027 0.000000 0.000000 0.000000
# 4 0.000000 0.000000 0.000000 0.037437 0.000000 0.000000
# 5 0.000000 0.000000 0.000000 0.000000 0.027910 0.000000
# 6 0.000000 0.000000 0.000000 0.000000 0.000000 0.036064
#
#
# Mechanical properties :
#
#
# Convention : Reuss Voigt Hill
#
# Bulk Modulus (GPa) = 49.52186 52.56096 51.04141
# Shear Modulus (GPa) = 27.03111 28.40298 27.71704
#
# Velocity S-wave (km/s) = 3.68078 3.77302 3.72719
# Velocity P-wave (km/s) = 6.54865 6.73237 6.64114
#
# Compressibility (1/GPa) = 0.02019310
#
# Stress axis : x y z
#
# Youngs Moduli (GPa) = 56.90693 59.12896 71.29285
#
# Poissons Ratio (x) = 0.38618 0.03898
# Poissons Ratio (y) = 0.37167 0.50484
# Poissons Ratio (z) = 0.03111 0.41870
#
# Static dielectric constant tensor:
#      x y z
#    x 3.540990 0.000000 0.000000 
#    y 0.000000 3.526190 0.000000 
#    z 0.000000 0.000000 3.732010 
# 
# 
# High freq. dielectric constant tensor:
#      x y z
#    x 1.776460 0.000000 0.000000 
#    y 0.000000 1.763620 0.000000 
#    z 0.000000 0.000000 1.784540 
# 
# From -- ./inp_files/10910.got.cif
#   From: 2010.03.12/outbox.cif.g09.slc.cpg/sg36_6_cif.got.tgz:10910.got - 2010.04.14 02:13:53.
