data_PCOD8174221
_publ_section_title
;
Structure prediction by ZEFSAII (Michael W. Deem and Ramdas Pophale) SiO2 
 PCOD8174221
Probable space group: C M C 21
;
_chemical_formula_sum "Si O2"
_cell_formula_units_Z 48
_cell_length_a 14.853779
_cell_length_b 34.434861
_cell_length_c 5.034574
_cell_angle_alpha 90.000000
_cell_angle_beta 90.000000
_cell_angle_gamma 90.000000
_cell_volume 2575.123256
_symmetry_space_group_name_H-M "C M C 21"
_symmetry_group_IT_number 36
_symmetry_cell_setting 'orthorhombic'
loop_
_space_group_symop_operation_xyz
x,y,z
-x,-y,1/2+z
x,-y,1/2+z
-x,y,z
1/2+x,1/2+y,z
1/2-x,1/2-y,1/2+z
1/2+x,1/2-y,1/2+z
1/2-x,1/2+y,z
loop_
_atom_site_type_symbol
_atom_site_label
_atom_site_fract_x
_atom_site_fract_y
_atom_site_fract_z
Si Si1 0.097743 0.129593 0.768990
Si Si2 0.102608 0.474582 0.264471
Si Si3 0.710289 0.102487 0.775196
Si Si4 0.634413 0.321207 0.767742
Si Si5 0.000000 0.297262 0.776681
Si Si6 0.000000 0.754346 0.775318
Si Si7 0.173859 0.652045 0.273754
O O1 0.180759 0.099740 0.807909
O O2 0.098600 0.147245 0.475345
O O3 0.000000 0.108776 0.807909
O O4 0.106611 0.164992 0.975040
O O5 0.121049 0.508902 0.472524
O O6 0.170736 0.439882 0.322909
O O7 0.000000 0.459300 0.291434
O O8 0.683256 0.117412 0.485210
O O9 0.668856 0.132500 0.985526
O O10 0.590103 0.279526 0.821933
O O11 0.742366 0.318082 0.793084
O O12 0.914256 0.323693 0.831440
O O13 0.000000 0.281469 0.477548
O O14 0.000000 0.261344 0.976856
#
# Coordination Sequence:
#
# PCOD8174221 Si02
#       7
#     8   8   8   8   4   4   8
#     4  10  17  33  57  84 103 131 186 226 265 310
#     4  10  21  36  56  85 113 144 180 209 254 318
#     4  10  21  36  60  80 109 146 171 226 270 301
#     4  10  20  35  56  76 103 138 180 233 266 318
#     4  12  26  36  52  78 106 145 180 221 280 340
#     4  12  22  36  56  74 104 147 176 227 288 312
#     4  10  23  38  53  81 107 140 187 221 267 319
#
# _framework density 18.639885
#
# number of rings (size 3 to 8) (size 9 to 14) (size 15 to 20)
#    0.000    1.667    1.667    3.000    2.333    1.333 
#    0.000    0.000    0.000    1.000    0.000    0.000 
#    0.000    0.000    0.000    0.000    0.000    0.000 
#
# Total GULP energy -297652.339466 kJ/mol
# GULP energy per Si atom -12402.180811 kJ/mol
# Density = 1.859746 g / cm^3
# Si number density = 18.639885 Si / 1000 Ang^3
#
#
#
# Elastic Constant Matrix: (Units=GPa)
#
#
# Indices 1 2 3 4 5 6 
#
# 1 164.0021 63.7832 15.6865 0.0000 0.0000 0.0000
# 2 63.7832 73.0316 5.4854 0.0000 0.0000 0.0000
# 3 15.6865 5.4854 70.1909 0.0000 0.0000 0.0000
# 4 0.0000 0.0000 0.0000 20.0334 0.0000 0.0000
# 5 0.0000 0.0000 0.0000 0.0000 20.8903 0.0000
# 6 0.0000 0.0000 0.0000 0.0000 0.0000 92.1014
#
#
#
# Elastic Compliance Matrix: (Units=1/GPa)
#
#
# Indices 1 2 3 4 5 6 
#
# 1 0.009381 -0.008083 -0.001465 0.000000 0.000000 0.000000
# 2 -0.008083 0.020738 0.000186 0.000000 0.000000 0.000000
# 3 -0.001465 0.000186 0.014560 0.000000 0.000000 0.000000
# 4 0.000000 0.000000 0.000000 0.049917 0.000000 0.000000
# 5 0.000000 0.000000 0.000000 0.000000 0.047869 0.000000
# 6 0.000000 0.000000 0.000000 0.000000 0.000000 0.010858
#
#
# Mechanical properties :
#
#
# Convention : Reuss Voigt Hill
#
# Bulk Modulus (GPa) = 38.52869 53.01499 45.77184
# Shear Modulus (GPa) = 27.67029 41.42298 34.54663
#
# Velocity S-wave (km/s) = 3.85706 4.71922 4.30975
# Velocity P-wave (km/s) = 6.36795 7.62877 7.02669
#
# Compressibility (1/GPa) = 0.02595468
#
# Stress axis : x y z
#
# Youngs Moduli (GPa) = 106.59478 48.21971 68.68267
#
# Poissons Ratio (x) = 0.38977 0.10061
# Poissons Ratio (y) = 0.86164 -0.01276
# Poissons Ratio (z) = 0.15615 -0.00896
#
# Static dielectric constant tensor:
#      x y z
#    x 3.791570 0.000000 0.000000 
#    y 0.000000 2.951650 0.000000 
#    z 0.000000 0.000000 3.588730 
# 
# 
# High freq. dielectric constant tensor:
#      x y z
#    x 1.736110 0.000000 0.000000 
#    y 0.000000 1.682110 0.000000 
#    z 0.000000 0.000000 1.747400 
# 
# From -- ./inp_files/858.got.cif
#   From: 2010.03.12/outbox.cif.g09.slc.cpg/sg36_1_cif.got.tgz:858.got - 2010.04.14 02:13:53.
