data_PCOD8174271
_publ_section_title
;
Structure prediction by ZEFSAII (Michael W. Deem and Ramdas Pophale) SiO2 
 PCOD8174271
Probable space group: C M C 21
;
_chemical_formula_sum "Si O2"
_cell_formula_units_Z 48
_cell_length_a 9.029629
_cell_length_b 18.196345
_cell_length_c 16.407309
_cell_angle_alpha 90.000000
_cell_angle_beta 90.000000
_cell_angle_gamma 90.000000
_cell_volume 2695.823324
_symmetry_space_group_name_H-M "C M C 21"
_symmetry_group_IT_number 36
_symmetry_cell_setting 'orthorhombic'
loop_
_space_group_symop_operation_xyz
x,y,z
-x,-y,1/2+z
x,-y,1/2+z
-x,y,z
1/2+x,1/2+y,z
1/2-x,1/2-y,1/2+z
1/2+x,1/2-y,1/2+z
1/2-x,1/2+y,z
loop_
_atom_site_type_symbol
_atom_site_label
_atom_site_fract_x
_atom_site_fract_y
_atom_site_fract_z
Si Si1 0.328177 0.171964 0.308110
Si Si2 0.673626 0.206376 0.898877
Si Si3 0.332109 0.658368 0.147745
Si Si4 0.826796 0.920328 0.480343
Si Si5 0.167271 0.430036 0.962007
Si Si6 0.332853 0.214703 0.538451
O O1 0.500000 0.189772 0.301792
O O2 0.243293 0.248978 0.323180
O O3 0.272593 0.137890 0.222964
O O4 0.294876 0.113227 0.378929
O O5 0.500000 0.198576 0.884808
O O6 0.743841 0.125244 0.909176
O O7 0.708908 0.251941 0.980012
O O8 0.500000 0.639733 0.172671
O O9 0.315894 0.745860 0.126032
O O10 0.283412 0.610470 0.069480
O O11 0.000000 0.912829 0.464899
O O12 0.781549 0.004847 0.474478
O O13 0.000000 0.461149 0.959354
O O14 0.186225 0.373635 0.038903
O O15 0.500000 0.232743 0.503974
#
# Coordination Sequence:
#
# PCOD8174271 Si02
#       6
#     8   8   8   8   8   8
#     4  10  20  34  52  75 103 133 167 211 257 299
#     4  10  18  30  51  74  96 127 167 204 242 295
#     4   9  18  33  52  74 100 132 169 210 255 300
#     4  10  20  34  52  75 104 134 167 209 253 299
#     4   9  18  33  52  74 101 134 170 205 247 300
#     4   8  16  32  51  72 100 130 162 203 246 291
#
# _framework density 17.805319999999998
#
# number of rings (size 3 to 8) (size 9 to 14) (size 15 to 20)
#    0.000    2.667    0.000    4.500    0.000    6.667 
#    0.000    1.667    0.000    6.000    0.000    0.000 
#    0.000    0.000    0.000    0.000    0.000    0.000 
#
# Total GULP energy -297457.501407 kJ/mol
# GULP energy per Si atom -12394.062559 kJ/mol
# Density = 1.776479 g / cm^3
# Si number density = 17.805320 Si / 1000 Ang^3
#
#
#
# Elastic Constant Matrix: (Units=GPa)
#
#
# Indices 1 2 3 4 5 6 
#
# 1 100.2504 49.3892 39.1598 0.0000 0.0000 0.0000
# 2 49.3892 110.0224 30.6522 0.0000 0.0000 0.0000
# 3 39.1598 30.6522 70.0484 0.0000 0.0000 0.0000
# 4 0.0000 0.0000 0.0000 16.1031 0.0000 0.0000
# 5 0.0000 0.0000 0.0000 0.0000 28.1618 0.0000
# 6 0.0000 0.0000 0.0000 0.0000 0.0000 32.6468
#
#
#
# Elastic Compliance Matrix: (Units=1/GPa)
#
#
# Indices 1 2 3 4 5 6 
#
# 1 0.014795 -0.004939 -0.006110 0.000000 0.000000 0.000000
# 2 -0.004939 0.012000 -0.002490 0.000000 0.000000 0.000000
# 3 -0.006110 -0.002490 0.018781 0.000000 0.000000 0.000000
# 4 0.000000 0.000000 0.000000 0.062100 0.000000 0.000000
# 5 0.000000 0.000000 0.000000 0.000000 0.035509 0.000000
# 6 0.000000 0.000000 0.000000 0.000000 0.000000 0.030631
#
#
# Mechanical properties :
#
#
# Convention : Reuss Voigt Hill
#
# Bulk Modulus (GPa) = 54.05864 57.63596 55.84730
# Shear Modulus (GPa) = 24.14771 26.12367 25.13569
#
# Velocity S-wave (km/s) = 3.68667 3.83454 3.76133
# Velocity P-wave (km/s) = 6.96770 7.21424 7.09204
#
# Compressibility (1/GPa) = 0.01849843
#
# Stress axis : x y z
#
# Youngs Moduli (GPa) = 67.59053 83.33346 53.24589
#
# Poissons Ratio (x) = 0.41161 0.32531
# Poissons Ratio (y) = 0.33385 0.13257
# Poissons Ratio (z) = 0.41295 0.20748
#
# Static dielectric constant tensor:
#      x y z
#    x 3.228760 0.000000 0.000000 
#    y 0.000000 3.313550 0.000000 
#    z 0.000000 0.000000 3.137930 
# 
# 
# High freq. dielectric constant tensor:
#      x y z
#    x 1.694000 0.000000 0.000000 
#    y 0.000000 1.680410 0.000000 
#    z 0.000000 0.000000 1.661510 
# 
# From -- ./inp_files/13551.got.cif
#   From: 2010.03.12/outbox.cif.g09.slc.cpg/sg36_7_cif.got.tgz:13551.got - 2010.04.14 02:13:53.
