data_PCOD8174919
_publ_section_title
;
Structure prediction by ZEFSAII (Michael W. Deem and Ramdas Pophale) SiO2 
 PCOD8174919
Probable space group: C M C 21
;
_chemical_formula_sum "Si O2"
_cell_formula_units_Z 64
_cell_length_a 8.667243
_cell_length_b 15.382164
_cell_length_c 23.738376
_cell_angle_alpha 90.000000
_cell_angle_beta 90.000000
_cell_angle_gamma 90.000000
_cell_volume 3164.822917
_symmetry_space_group_name_H-M "C M C 21"
_symmetry_group_IT_number 36
_symmetry_cell_setting 'orthorhombic'
loop_
_space_group_symop_operation_xyz
x,y,z
-x,-y,1/2+z
x,-y,1/2+z
-x,y,z
1/2+x,1/2+y,z
1/2-x,1/2-y,1/2+z
1/2+x,1/2-y,1/2+z
1/2-x,1/2+y,z
loop_
_atom_site_type_symbol
_atom_site_label
_atom_site_fract_x
_atom_site_fract_y
_atom_site_fract_z
Si Si1 0.322310 0.163147 0.436920
Si Si2 0.181346 0.749238 0.632664
Si Si3 0.819633 0.654352 0.939165
Si Si4 0.823015 0.420004 0.819080
Si Si5 0.180266 0.755038 0.761777
Si Si6 0.320370 0.402838 0.328784
Si Si7 0.182958 0.400482 0.562528
Si Si8 0.682476 0.093648 0.556857
O O1 0.500000 0.194747 0.441511
O O2 0.212551 0.244961 0.426838
O O3 0.299669 0.098495 0.385072
O O4 0.268002 0.113376 0.492871
O O5 0.225998 0.736508 0.697400
O O6 0.251215 0.839161 0.610829
O O7 0.251978 0.667250 0.598238
O O8 0.000000 0.754013 0.623228
O O9 0.726962 0.596268 0.894397
O O10 0.000000 0.633843 0.932406
O O11 0.758878 0.630880 0.001330
O O12 0.772695 0.338879 0.781805
O O13 0.721628 0.503721 0.802357
O O14 0.000000 0.441049 0.805327
O O15 0.224820 0.671403 0.797602
O O16 0.000000 0.773507 0.769039
O O17 0.500000 0.383409 0.321333
O O18 0.245311 0.498313 0.573666
O O19 0.000000 0.396813 0.564737
O O20 0.500000 0.093021 0.562066
#
# Coordination Sequence:
#
# PCOD8174919 Si02
#       8
#     8   8   8   8   8   8   8   8
#     4  10  19  35  62  89 119 157 200 244 303 371
#     4  10  22  40  62  86 117 158 202 252 304 355
#     4  11  21  35  59  91 127 159 197 251 306 363
#     4  11  23  40  64  93 122 160 204 252 312 369
#     4  11  24  42  62  89 123 161 210 261 308 362
#     4  12  25  41  63  91 123 164 206 251 309 369
#     4  10  21  37  60  90 121 158 201 247 298 358
#     4   9  18  36  60  85 118 157 194 238 294 359
#
# _framework density 20.222300000000001
#
# number of rings (size 3 to 8) (size 9 to 14) (size 15 to 20)
#    0.000    1.500    2.500    3.000    0.000    5.000 
#    0.000    2.500    0.000    0.000    0.000    0.000 
#    0.000    0.000    0.000    0.000    0.000    0.000 
#
# Total GULP energy -396936.927592 kJ/mol
# GULP energy per Si atom -12404.278987 kJ/mol
# Density = 2.017627 g / cm^3
# Si number density = 20.222300 Si / 1000 Ang^3
#
#
#
# Elastic Constant Matrix: (Units=GPa)
#
#
# Indices 1 2 3 4 5 6 
#
# 1 38.9677 16.6033 33.1658 0.0000 0.0000 0.0000
# 2 16.6033 126.4072 25.7274 0.0000 0.0000 0.0000
# 3 33.1658 25.7274 84.0727 0.0000 0.0000 0.0000
# 4 0.0000 0.0000 0.0000 10.6859 0.0000 0.0000
# 5 0.0000 0.0000 0.0000 0.0000 27.1368 0.0000
# 6 0.0000 0.0000 0.0000 0.0000 0.0000 31.8977
#
#
#
# Elastic Compliance Matrix: (Units=1/GPa)
#
#
# Indices 1 2 3 4 5 6 
#
# 1 0.039165 -0.002133 -0.014798 0.000000 0.000000 0.000000
# 2 -0.002133 0.008552 -0.001776 0.000000 0.000000 0.000000
# 3 -0.014798 -0.001776 0.018275 0.000000 0.000000 0.000000
# 4 0.000000 0.000000 0.000000 0.093582 0.000000 0.000000
# 5 0.000000 0.000000 0.000000 0.000000 0.036850 0.000000
# 6 0.000000 0.000000 0.000000 0.000000 0.000000 0.031350
#
#
# Mechanical properties :
#
#
# Convention : Reuss Voigt Hill
#
# Bulk Modulus (GPa) = 34.98832 44.49340 39.74086
# Shear Modulus (GPa) = 18.20068 25.54082 21.87075
#
# Velocity S-wave (km/s) = 3.00331 3.55773 3.29221
# Velocity P-wave (km/s) = 5.41903 6.23911 5.84347
#
# Compressibility (1/GPa) = 0.02858097
#
# Stress axis : x y z
#
# Youngs Moduli (GPa) = 25.53272 116.92494 54.71808
#
# Poissons Ratio (x) = 0.24935 0.80971
# Poissons Ratio (y) = 0.05445 0.09717
# Poissons Ratio (z) = 0.37783 0.20765
#
# Static dielectric constant tensor:
#      x y z
#    x 3.487060 0.000000 0.000000 
#    y 0.000000 3.819810 0.000000 
#    z 0.000000 0.000000 3.766950 
# 
# 
# High freq. dielectric constant tensor:
#      x y z
#    x 1.772790 0.000000 0.000000 
#    y 0.000000 1.802700 0.000000 
#    z 0.000000 0.000000 1.789210 
# 
# From -- ./inp_files/16580.got.cif
#   From: 2010.03.12/outbox.cif.g09.slc.cpg/sg36_9_cif.got.tgz:16580.got - 2010.04.14 02:13:53.
