data_PCOD8174483
_publ_section_title
;
Structure prediction by ZEFSAII (Michael W. Deem and Ramdas Pophale) SiO2 
 PCOD8174483
Probable space group: C M C 21
;
_chemical_formula_sum "Si O2"
_cell_formula_units_Z 64
_cell_length_a 9.214109
_cell_length_b 19.033309
_cell_length_c 20.518464
_cell_angle_alpha 90.000000
_cell_angle_beta 90.000000
_cell_angle_gamma 90.000000
_cell_volume 3598.425291
_symmetry_space_group_name_H-M "C M C 21"
_symmetry_group_IT_number 36
_symmetry_cell_setting 'orthorhombic'
loop_
_space_group_symop_operation_xyz
x,y,z
-x,-y,1/2+z
x,-y,1/2+z
-x,y,z
1/2+x,1/2+y,z
1/2-x,1/2-y,1/2+z
1/2+x,1/2-y,1/2+z
1/2-x,1/2+y,z
loop_
_atom_site_type_symbol
_atom_site_label
_atom_site_fract_x
_atom_site_fract_y
_atom_site_fract_z
Si Si1 0.329961 0.777939 0.006320
Si Si2 0.335685 0.796462 0.753352
Si Si3 0.832733 0.817238 0.628362
Si Si4 0.662115 0.962922 0.770516
Si Si5 0.829075 0.919738 0.031035
Si Si6 0.330815 0.476891 0.645304
Si Si7 0.163831 0.218054 0.377311
Si Si8 0.659996 0.551495 0.390181
O O1 0.500000 0.789352 0.991998
O O2 0.301974 0.717233 0.058800
O O3 0.251083 0.753465 0.940034
O O4 0.263583 0.849109 0.035465
O O5 0.500000 0.767597 0.752905
O O6 0.261467 0.778833 0.684167
O O7 0.333305 0.879480 0.764199
O O8 0.247211 0.758404 0.811495
O O9 0.788532 0.898792 0.622058
O O10 0.000000 0.809423 0.649181
O O11 0.500000 0.992572 0.768910
O O12 0.749277 0.998137 0.711455
O O13 0.731479 0.985646 0.839638
O O14 0.000000 0.900569 0.032093
O O15 0.791980 0.962578 0.964688
O O16 0.781198 0.968947 0.090182
O O17 0.500000 0.482709 0.659867
O O18 0.158410 0.134613 0.380167
O O19 0.000000 0.248830 0.376999
O O20 0.500000 0.520584 0.376933
#
# Coordination Sequence:
#
# PCOD8174483 Si02
#       8
#     8   8   8   8   8   8   8   8
#     4  10  19  30  46  69  96 123 152 188 230 274
#     4   9  16  26  43  67  92 117 150 192 231 268
#     4   9  18  31  47  68  94 124 154 186 227 273
#     4   9  16  25  40  65  91 114 145 185 227 265
#     4   9  18  31  48  69  91 119 154 189 227 270
#     4   9  17  31  49  67  90 120 153 186 221 268
#     4   9  16  27  44  65  90 119 153 191 228 269
#     4   8  14  25  41  62  86 112 145 185 225 263
#
# _framework density 17.785557000000001
#
# number of rings (size 3 to 8) (size 9 to 14) (size 15 to 20)
#    0.000    3.000    0.000    2.250    0.000    7.500 
#    0.000    0.000    0.000    1.500    0.000    7.000 
#    0.000    0.000    0.000    0.000    0.000    0.000 
#
# Total GULP energy -396722.689290 kJ/mol
# GULP energy per Si atom -12397.584040 kJ/mol
# Density = 1.774508 g / cm^3
# Si number density = 17.785557 Si / 1000 Ang^3
#
#
#
# Elastic Constant Matrix: (Units=GPa)
#
#
# Indices 1 2 3 4 5 6 
#
# 1 82.1012 5.0397 16.8154 0.0000 0.0000 0.0000
# 2 5.0397 13.1385 -7.2576 0.0000 0.0000 0.0000
# 3 16.8154 -7.2576 33.7468 0.0000 0.0000 0.0000
# 4 0.0000 0.0000 0.0000 21.8816 0.0000 0.0000
# 5 0.0000 0.0000 0.0000 0.0000 34.5868 0.0000
# 6 0.0000 0.0000 0.0000 0.0000 0.0000 13.8251
#
#
#
# Elastic Compliance Matrix: (Units=1/GPa)
#
#
# Indices 1 2 3 4 5 6 
#
# 1 0.014870 -0.011117 -0.009800 0.000000 0.000000 0.000000
# 2 -0.011117 0.094685 0.025903 0.000000 0.000000 0.000000
# 3 -0.009800 0.025903 0.040086 0.000000 0.000000 0.000000
# 4 0.000000 0.000000 0.000000 0.045700 0.000000 0.000000
# 5 0.000000 0.000000 0.000000 0.000000 0.028913 0.000000
# 6 0.000000 0.000000 0.000000 0.000000 0.000000 0.072332
#
#
# Mechanical properties :
#
#
# Convention : Reuss Voigt Hill
#
# Bulk Modulus (GPa) = 6.26523 17.57573 11.92048
# Shear Modulus (GPa) = 14.71366 21.68463 18.19915
#
# Velocity S-wave (km/s) = 2.87937 3.49553 3.20230
# Velocity P-wave (km/s) = 3.81899 5.11812 4.51552
#
# Compressibility (1/GPa) = 0.15961108
#
# Stress axis : x y z
#
# Youngs Moduli (GPa) = 67.25061 10.56135 24.94613
#
# Poissons Ratio (x) = 0.11741 0.24448
# Poissons Ratio (y) = 0.74765 -0.64617
# Poissons Ratio (z) = 0.65907 -0.27357
#
# Static dielectric constant tensor:
#      x y z
#    x 3.460420 0.000000 0.000000 
#    y 0.000000 2.730730 0.000000 
#    z 0.000000 0.000000 3.546110 
# 
# 
# High freq. dielectric constant tensor:
#      x y z
#    x 1.696060 0.000000 0.000000 
#    y 0.000000 1.620350 0.000000 
#    z 0.000000 0.000000 1.704360 
# 
# From -- ./inp_files/14008.got.cif
#   From: 2010.03.12/outbox.cif.g09.slc.cpg/sg36_8_cif.got.tgz:14008.got - 2010.04.14 02:13:53.
