data_PCOD8174817
_publ_section_title
;
Structure prediction by ZEFSAII (Michael W. Deem and Ramdas Pophale) SiO2 
 PCOD8174817
Probable space group: C M C 21
;
_chemical_formula_sum "Si O2"
_cell_formula_units_Z 64
_cell_length_a 8.992804
_cell_length_b 19.836722
_cell_length_c 18.829159
_cell_angle_alpha 90.000000
_cell_angle_beta 90.000000
_cell_angle_gamma 90.000000
_cell_volume 3358.891364
_symmetry_space_group_name_H-M "C M C 21"
_symmetry_group_IT_number 36
_symmetry_cell_setting 'orthorhombic'
loop_
_space_group_symop_operation_xyz
x,y,z
-x,-y,1/2+z
x,-y,1/2+z
-x,y,z
1/2+x,1/2+y,z
1/2-x,1/2-y,1/2+z
1/2+x,1/2-y,1/2+z
1/2-x,1/2+y,z
loop_
_atom_site_type_symbol
_atom_site_label
_atom_site_fract_x
_atom_site_fract_y
_atom_site_fract_z
Si Si1 0.676676 0.195482 0.694000
Si Si2 0.676817 0.873544 0.469656
Si Si3 0.671892 0.187177 0.117073
Si Si4 0.176630 0.271946 0.350826
Si Si5 0.824206 0.879632 0.874643
Si Si6 0.172160 0.425405 0.734488
Si Si7 0.823665 0.550727 0.644770
Si Si8 0.823208 0.475191 0.986327
O O1 0.500000 0.198888 0.693179
O O2 0.737316 0.245960 0.634765
O O3 0.739873 0.213547 0.772103
O O4 0.736165 0.121858 0.673072
O O5 0.500000 0.872030 0.471286
O O6 0.736085 0.843698 0.544081
O O7 0.739996 0.828219 0.405078
O O8 0.729843 0.950799 0.460023
O O9 0.500000 0.206599 0.108432
O O10 0.696203 0.134441 0.179569
O O11 0.229170 0.198174 0.376086
O O12 0.000000 0.275958 0.349068
O O13 0.773473 0.914229 0.802323
O O14 0.000000 0.885086 0.880968
O O15 0.750061 0.917074 0.940147
O O16 0.231984 0.493714 0.698803
O O17 0.000000 0.431309 0.757714
O O18 0.763698 0.535499 0.566118
O O19 0.000000 0.548907 0.642213
O O20 0.000000 0.468278 0.981235
#
# Coordination Sequence:
#
# PCOD8174817 Si02
#       8
#     8   8   8   8   8   8   8   8
#     4  10  20  35  55  79 110 145 180 219 269 326
#     4   9  18  34  57  81 106 141 183 223 267 324
#     4  10  19  34  58  83 107 136 180 229 271 318
#     4   9  19  34  52  76 106 145 183 214 259 329
#     4  11  23  37  53  79 114 147 182 222 271 336
#     4  10  19  36  60  83 104 139 185 231 273 315
#     4   9  19  35  58  86 110 137 185 234 270 321
#     4  10  20  37  59  83 109 140 184 234 274 315
#
# _framework density 19.053906999999999
#
# number of rings (size 3 to 8) (size 9 to 14) (size 15 to 20)
#    0.000    2.250    2.500    0.375    3.500    0.000 
#    0.000    1.875    0.000    2.250    0.000    0.000 
#    0.000    0.000    0.000    0.000    0.000    0.000 
#
# Total GULP energy -396822.602173 kJ/mol
# GULP energy per Si atom -12400.706318 kJ/mol
# Density = 1.901054 g / cm^3
# Si number density = 19.053907 Si / 1000 Ang^3
#
#
#
# Elastic Constant Matrix: (Units=GPa)
#
#
# Indices 1 2 3 4 5 6 
#
# 1 25.0714 31.0936 19.6682 0.0000 0.0000 0.0000
# 2 31.0936 170.6072 65.4799 0.0000 0.0000 0.0000
# 3 19.6682 65.4799 104.6252 0.0000 0.0000 0.0000
# 4 0.0000 0.0000 0.0000 41.8493 0.0000 0.0000
# 5 0.0000 0.0000 0.0000 0.0000 21.8983 0.0000
# 6 0.0000 0.0000 0.0000 0.0000 0.0000 20.9418
#
#
#
# Elastic Compliance Matrix: (Units=1/GPa)
#
#
# Indices 1 2 3 4 5 6 
#
# 1 0.053613 -0.007769 -0.005216 0.000000 0.000000 0.000000
# 2 -0.007769 0.008840 -0.004072 0.000000 0.000000 0.000000
# 3 -0.005216 -0.004072 0.013087 0.000000 0.000000 0.000000
# 4 0.000000 0.000000 0.000000 0.023895 0.000000 0.000000
# 5 0.000000 0.000000 0.000000 0.000000 0.045666 0.000000
# 6 0.000000 0.000000 0.000000 0.000000 0.000000 0.047751
#
#
# Mechanical properties :
#
#
# Convention : Reuss Voigt Hill
#
# Bulk Modulus (GPa) = 24.13968 59.19857 41.66912
# Shear Modulus (GPa) = 20.76609 29.20869 24.98739
#
# Velocity S-wave (km/s) = 3.30488 3.91954 3.62526
# Velocity P-wave (km/s) = 5.22108 7.18472 6.28012
#
# Compressibility (1/GPa) = 0.04142557
#
# Stress axis : x y z
#
# Youngs Moduli (GPa) = 18.65202 113.11829 76.41090
#
# Poissons Ratio (x) = 0.87883 0.39858
# Poissons Ratio (y) = 0.14491 0.31116
# Poissons Ratio (z) = 0.09729 0.46064
#
# Static dielectric constant tensor:
#      x y z
#    x 3.020900 0.000000 0.000000 
#    y 0.000000 3.778780 0.000000 
#    z 0.000000 0.000000 3.692810 
# 
# 
# High freq. dielectric constant tensor:
#      x y z
#    x 1.690770 0.000000 0.000000 
#    y 0.000000 1.758000 0.000000 
#    z 0.000000 0.000000 1.753020 
# 
# From -- ./inp_files/13764.got.cif
#   From: 2010.03.12/outbox.cif.g09.slc.cpg/sg36_7_cif.got.tgz:13764.got - 2010.04.14 02:13:53.
