data_PCOD8174864
_publ_section_title
;
Structure prediction by ZEFSAII (Michael W. Deem and Ramdas Pophale) SiO2 
 PCOD8174864
Probable space group: C M C 21
;
_chemical_formula_sum "Si O2"
_cell_formula_units_Z 48
_cell_length_a 8.992719
_cell_length_b 30.924618
_cell_length_c 8.893924
_cell_angle_alpha 90.000000
_cell_angle_beta 90.000000
_cell_angle_gamma 90.000000
_cell_volume 2473.368245
_symmetry_space_group_name_H-M "C M C 21"
_symmetry_group_IT_number 36
_symmetry_cell_setting 'orthorhombic'
loop_
_space_group_symop_operation_xyz
x,y,z
-x,-y,1/2+z
x,-y,1/2+z
-x,y,z
1/2+x,1/2+y,z
1/2-x,1/2-y,1/2+z
1/2+x,1/2-y,1/2+z
1/2-x,1/2+y,z
loop_
_atom_site_type_symbol
_atom_site_label
_atom_site_fract_x
_atom_site_fract_y
_atom_site_fract_z
Si Si1 0.824110 0.953653 0.373990
Si Si2 0.672101 0.713750 0.878496
Si Si3 0.827278 0.128705 0.687448
Si Si4 0.175370 0.704106 0.195064
Si Si5 0.822868 0.959961 0.712459
Si Si6 0.175626 0.380488 0.873398
O O1 0.770169 0.909727 0.295365
O O2 0.759970 0.955584 0.543201
O O3 0.000000 0.954993 0.384237
O O4 0.766707 0.994262 0.277410
O O5 0.500000 0.718991 0.919744
O O6 0.699683 0.673592 0.769931
O O7 0.735265 0.756373 0.796436
O O8 0.759490 0.706409 0.030293
O O9 0.726388 0.129280 0.541295
O O10 0.000000 0.121957 0.643886
O O11 0.226516 0.659387 0.269819
O O12 0.000000 0.707582 0.181271
O O13 0.755469 0.923165 0.816200
O O14 0.000000 0.956146 0.718399
O O15 0.000000 0.387119 0.869503
#
# Coordination Sequence:
#
# PCOD8174864 Si02
#       6
#     8   8   8   8   8   8
#     4   9  18  33  57  85 108 135 176 227 276 317
#     4  10  21  37  59  85 109 140 185 226 263 319
#     4  10  20  36  58  83 108 138 182 228 268 316
#     4  10  22  38  55  80 114 146 177 220 273 322
#     4  10  19  35  58  81 107 140 179 223 270 319
#     4  11  23  37  53  78 112 147 181 218 268 325
#
# _framework density 19.406735999999999
#
# number of rings (size 3 to 8) (size 9 to 14) (size 15 to 20)
#    0.000    2.000    0.000    3.500    0.000    6.667 
#    0.000    4.167    0.000    0.000    0.000    0.000 
#    0.000    0.000    0.000    0.000    0.000    0.000 
#
# Total GULP energy -297693.553167 kJ/mol
# GULP energy per Si atom -12403.898049 kJ/mol
# Density = 1.936256 g / cm^3
# Si number density = 19.406736 Si / 1000 Ang^3
#
#
#
# Elastic Constant Matrix: (Units=GPa)
#
#
# Indices 1 2 3 4 5 6 
#
# 1 21.5415 18.1595 15.9438 0.0000 0.0000 0.0000
# 2 18.1595 80.9738 -6.4896 0.0000 0.0000 0.0000
# 3 15.9438 -6.4896 83.6284 0.0000 0.0000 0.0000
# 4 0.0000 0.0000 0.0000 30.9871 0.0000 0.0000
# 5 0.0000 0.0000 0.0000 0.0000 31.2148 0.0000
# 6 0.0000 0.0000 0.0000 0.0000 0.0000 17.4531
#
#
#
# Elastic Compliance Matrix: (Units=1/GPa)
#
#
# Indices 1 2 3 4 5 6 
#
# 1 0.072325 -0.017433 -0.015142 0.000000 0.000000 0.000000
# 2 -0.017433 0.016629 0.004614 0.000000 0.000000 0.000000
# 3 -0.015142 0.004614 0.015203 0.000000 0.000000 0.000000
# 4 0.000000 0.000000 0.000000 0.032272 0.000000 0.000000
# 5 0.000000 0.000000 0.000000 0.000000 0.032036 0.000000
# 6 0.000000 0.000000 0.000000 0.000000 0.000000 0.057296
#
#
# Mechanical properties :
#
#
# Convention : Reuss Voigt Hill
#
# Bulk Modulus (GPa) = 20.73185 26.81900 23.77542
# Shear Modulus (GPa) = 16.79195 26.49966 21.64581
#
# Velocity S-wave (km/s) = 2.94473 3.69926 3.34335
# Velocity P-wave (km/s) = 4.71889 5.66529 5.21361
#
# Compressibility (1/GPa) = 0.04823497
#
# Stress axis : x y z
#
# Youngs Moduli (GPa) = 13.82638 60.13531 65.77864
#
# Poissons Ratio (x) = 1.04837 0.99600
# Poissons Ratio (y) = 0.24104 -0.30351
# Poissons Ratio (z) = 0.20936 -0.27747
#
# Static dielectric constant tensor:
#      x y z
#    x 3.265720 0.000000 0.000000 
#    y 0.000000 3.977590 0.000000 
#    z 0.000000 0.000000 3.656510 
# 
# 
# High freq. dielectric constant tensor:
#      x y z
#    x 1.725820 0.000000 0.000000 
#    y 0.000000 1.777340 0.000000 
#    z 0.000000 0.000000 1.772190 
# 
# From -- ./inp_files/2643.got.cif
#   From: 2010.03.12/outbox.cif.g09.slc.cpg/sg36_2_cif.got.tgz:2643.got - 2010.04.14 02:13:53.
