data_PCOD8174887
_publ_section_title
;
Structure prediction by ZEFSAII (Michael W. Deem and Ramdas Pophale) SiO2 
 PCOD8174887
Probable space group: C M C 21
;
_chemical_formula_sum "Si O2"
_cell_formula_units_Z 64
_cell_length_a 8.809451
_cell_length_b 23.019776
_cell_length_c 16.427268
_cell_angle_alpha 90.000000
_cell_angle_beta 90.000000
_cell_angle_gamma 90.000000
_cell_volume 3331.311776
_symmetry_space_group_name_H-M "C M C 21"
_symmetry_group_IT_number 36
_symmetry_cell_setting 'orthorhombic'
loop_
_space_group_symop_operation_xyz
x,y,z
-x,-y,1/2+z
x,-y,1/2+z
-x,y,z
1/2+x,1/2+y,z
1/2-x,1/2-y,1/2+z
1/2+x,1/2-y,1/2+z
1/2-x,1/2+y,z
loop_
_atom_site_type_symbol
_atom_site_label
_atom_site_fract_x
_atom_site_fract_y
_atom_site_fract_z
Si Si1 0.823449 0.597040 0.625000
Si Si2 0.823309 0.632352 0.800058
Si Si3 0.324650 0.971871 0.682581
Si Si4 0.328243 0.104993 0.033756
Si Si5 0.321505 0.929239 0.854053
Si Si6 0.680061 0.342680 0.968821
Si Si7 0.173812 0.715530 0.940424
Si Si8 0.824906 0.038039 0.899976
O O1 0.798907 0.640109 0.703087
O O2 0.757553 0.532070 0.645316
O O3 0.738574 0.624632 0.548877
O O4 0.000000 0.592563 0.601865
O O5 0.760329 0.685357 0.856899
O O6 0.735193 0.573237 0.821788
O O7 0.000000 0.622352 0.820801
O O8 0.500000 0.985073 0.699893
O O9 0.300344 0.915746 0.625270
O O10 0.251699 0.950464 0.767404
O O11 0.500000 0.087748 0.006014
O O12 0.306481 0.174069 0.019764
O O13 0.199220 0.075483 0.980219
O O14 0.500000 0.917387 0.851749
O O15 0.238052 0.871848 0.885586
O O16 0.275997 0.980705 0.915487
O O17 0.500000 0.343815 0.972775
O O18 0.749061 0.277191 0.963289
O O19 0.000000 0.728770 0.921524
O O20 0.000000 0.021798 0.888688
#
# Coordination Sequence:
#
# PCOD8174887 Si02
#       8
#     8   8   8   8   8   8   8   8
#     4  10  19  35  59  86 110 141 189 239 284 336
#     4   9  17  35  61  82 105 149 196 229 266 332
#     4   9  18  33  57  85 106 130 182 237 275 326
#     4   9  17  34  59  81 104 146 188 226 269 331
#     4  11  21  37  56  78 109 149 188 229 276 336
#     4  11  23  38  53  80 117 153 189 233 288 336
#     4   8  17  35  57  77 107 150 192 225 272 335
#     4  11  20  31  52  85 116 142 172 224 288 336
#
# _framework density 19.211651
#
# number of rings (size 3 to 8) (size 9 to 14) (size 15 to 20)
#    0.000    2.250    1.250    3.375    0.000    1.500 
#    2.250    6.250    0.000    0.000    0.000    0.000 
#    0.000    0.000    0.000    0.000    0.000    0.000 
#
# Total GULP energy -396522.456178 kJ/mol
# GULP energy per Si atom -12391.326756 kJ/mol
# Density = 1.916792 g / cm^3
# Si number density = 19.211651 Si / 1000 Ang^3
#
#
#
# Elastic Constant Matrix: (Units=GPa)
#
#
# Indices 1 2 3 4 5 6 
#
# 1 50.3235 27.7676 27.3324 0.0000 0.0000 0.0000
# 2 27.7676 150.9187 69.2011 0.0000 0.0000 0.0000
# 3 27.3324 69.2011 104.1288 0.0000 0.0000 0.0000
# 4 0.0000 0.0000 0.0000 27.5379 0.0000 0.0000
# 5 0.0000 0.0000 0.0000 0.0000 21.1872 0.0000
# 6 0.0000 0.0000 0.0000 0.0000 0.0000 20.1796
#
#
#
# Elastic Compliance Matrix: (Units=1/GPa)
#
#
# Indices 1 2 3 4 5 6 
#
# 1 0.023657 -0.002165 -0.004771 0.000000 0.000000 0.000000
# 2 -0.002165 0.009728 -0.005897 0.000000 0.000000 0.000000
# 3 -0.004771 -0.005897 0.014775 0.000000 0.000000 0.000000
# 4 0.000000 0.000000 0.000000 0.036314 0.000000 0.000000
# 5 0.000000 0.000000 0.000000 0.000000 0.047198 0.000000
# 6 0.000000 0.000000 0.000000 0.000000 0.000000 0.049555
#
#
# Mechanical properties :
#
#
# Convention : Reuss Voigt Hill
#
# Bulk Modulus (GPa) = 44.45499 61.55257 53.00378
# Shear Modulus (GPa) = 23.32184 25.85226 24.58705
#
# Velocity S-wave (km/s) = 3.48795 3.67230 3.58131
# Velocity P-wave (km/s) = 6.27781 7.07741 6.68957
#
# Compressibility (1/GPa) = 0.02249466
#
# Stress axis : x y z
#
# Youngs Moduli (GPa) = 42.27019 102.79227 67.68343
#
# Poissons Ratio (x) = 0.22256 0.32291
# Poissons Ratio (y) = 0.09152 0.39912
# Poissons Ratio (z) = 0.20166 0.60615
#
# Static dielectric constant tensor:
#      x y z
#    x 3.161410 0.000000 0.000000 
#    y 0.000000 3.746350 0.000000 
#    z 0.000000 0.000000 3.581790 
# 
# 
# High freq. dielectric constant tensor:
#      x y z
#    x 1.714530 0.000000 0.000000 
#    y 0.000000 1.741180 0.000000 
#    z 0.000000 0.000000 1.747970 
# 
# From -- ./inp_files/14101.got.cif
#   From: 2010.03.12/outbox.cif.g09.slc.cpg/sg36_8_cif.got.tgz:14101.got - 2010.04.14 02:13:53.
