data_PCOD8174945
_publ_section_title
;
Structure prediction by ZEFSAII (Michael W. Deem and Ramdas Pophale) SiO2 
 PCOD8174945
Probable space group: C M C 21
;
_chemical_formula_sum "Si O2"
_cell_formula_units_Z 64
_cell_length_a 8.296756
_cell_length_b 24.817408
_cell_length_c 14.535841
_cell_angle_alpha 90.000000
_cell_angle_beta 90.000000
_cell_angle_gamma 90.000000
_cell_volume 2992.987496
_symmetry_space_group_name_H-M "C M C 21"
_symmetry_group_IT_number 36
_symmetry_cell_setting 'orthorhombic'
loop_
_space_group_symop_operation_xyz
x,y,z
-x,-y,1/2+z
x,-y,1/2+z
-x,y,z
1/2+x,1/2+y,z
1/2-x,1/2-y,1/2+z
1/2+x,1/2-y,1/2+z
1/2-x,1/2+y,z
loop_
_atom_site_type_symbol
_atom_site_label
_atom_site_fract_x
_atom_site_fract_y
_atom_site_fract_z
Si Si1 0.309775 0.160802 0.066440
Si Si2 0.191066 0.086470 0.776092
Si Si3 0.189138 0.046163 0.104328
Si Si4 0.310101 0.571509 0.571926
Si Si5 0.808535 0.805686 0.375829
Si Si6 0.183123 0.878145 0.894244
Si Si7 0.816577 0.526129 0.300992
Si Si8 0.315011 0.793809 0.759706
O O1 0.500000 0.154167 0.074923
O O2 0.231789 0.101462 0.051137
O O3 0.239595 0.189285 0.160203
O O4 0.264922 0.197885 0.978729
O O5 0.254759 0.089707 0.671273
O O6 0.248096 0.138779 0.830479
O O7 0.000000 0.078777 0.779074
O O8 0.275411 0.035655 0.823036
O O9 0.294901 0.043325 0.195623
O O10 0.000000 0.045728 0.129087
O O11 0.235113 0.991245 0.048608
O O12 0.500000 0.576945 0.568851
O O13 0.245507 0.615347 0.497867
O O14 0.737461 0.758846 0.308901
O O15 0.000000 0.800863 0.384137
O O16 0.189189 0.939039 0.857850
O O17 0.298370 0.841756 0.832697
O O18 0.000000 0.856108 0.890334
O O19 0.000000 0.538165 0.330243
O O20 0.500000 0.781005 0.741339
#
# Coordination Sequence:
#
# PCOD8174945 Si02
#       8
#     8   8   8   8   8   8   8   8
#     4  11  23  39  61  90 123 156 197 253 310 361
#     4   9  19  39  61  83 115 157 203 250 299 362
#     4  10  19  36  60  86 118 159 204 247 297 362
#     4   8  18  34  56  87 119 153 200 249 294 353
#     4  10  23  42  65  88 116 160 209 251 304 367
#     4  11  21  35  59  89 118 158 205 248 296 361
#     4  11  21  34  54  85 123 158 193 246 307 359
#     4  10  23  43  62  86 122 161 201 252 307 357
#
# _framework density 21.383317999999999
#
# number of rings (size 3 to 8) (size 9 to 14) (size 15 to 20)
#    0.000    2.000    1.250    3.000    1.750    2.500 
#    0.000    8.125    0.000    0.000    0.000    0.000 
#    0.000    0.000    0.000    0.000    0.000    0.000 
#
# Total GULP energy -396591.325992 kJ/mol
# GULP energy per Si atom -12393.478937 kJ/mol
# Density = 2.133465 g / cm^3
# Si number density = 21.383318 Si / 1000 Ang^3
#
#
#
# Elastic Constant Matrix: (Units=GPa)
#
#
# Indices 1 2 3 4 5 6 
#
# 1 39.3891 14.2092 2.9151 0.0000 0.0000 0.0000
# 2 14.2092 106.4888 60.2308 0.0000 0.0000 0.0000
# 3 2.9151 60.2308 103.0098 0.0000 0.0000 0.0000
# 4 0.0000 0.0000 0.0000 32.5804 0.0000 0.0000
# 5 0.0000 0.0000 0.0000 0.0000 20.8734 0.0000
# 6 0.0000 0.0000 0.0000 0.0000 0.0000 22.8454
#
#
#
# Elastic Compliance Matrix: (Units=1/GPa)
#
#
# Indices 1 2 3 4 5 6 
#
# 1 0.026945 -0.004728 0.002002 0.000000 0.000000 0.000000
# 2 -0.004728 0.014860 -0.008555 0.000000 0.000000 0.000000
# 3 0.002002 -0.008555 0.014653 0.000000 0.000000 0.000000
# 4 0.000000 0.000000 0.000000 0.030693 0.000000 0.000000
# 5 0.000000 0.000000 0.000000 0.000000 0.047908 0.000000
# 6 0.000000 0.000000 0.000000 0.000000 0.000000 0.043772
#
#
# Mechanical properties :
#
#
# Convention : Reuss Voigt Hill
#
# Bulk Modulus (GPa) = 29.50135 44.84421 37.17278
# Shear Modulus (GPa) = 23.50801 26.69535 25.10168
#
# Velocity S-wave (km/s) = 3.31926 3.53713 3.42993
# Velocity P-wave (km/s) = 5.34007 6.13994 5.75392
#
# Compressibility (1/GPa) = 0.03389675
#
# Stress axis : x y z
#
# Youngs Moduli (GPa) = 37.11266 67.29310 68.24312
#
# Poissons Ratio (x) = 0.31813 -0.13660
# Poissons Ratio (y) = 0.17545 0.58383
# Poissons Ratio (z) = -0.07429 0.57571
#
# Static dielectric constant tensor:
#      x y z
#    x 3.453980 0.000000 0.000000 
#    y 0.000000 3.987180 0.000000 
#    z 0.000000 0.000000 4.302760 
# 
# 
# High freq. dielectric constant tensor:
#      x y z
#    x 1.811500 0.000000 0.000000 
#    y 0.000000 1.834260 0.000000 
#    z 0.000000 0.000000 1.844380 
# 
# From -- ./inp_files/10944.got.cif
#   From: 2010.03.12/outbox.cif.g09.slc.cpg/sg36_6_cif.got.tgz:10944.got - 2010.04.14 02:13:53.
