data_PCOD8174123
_publ_section_title
;
Structure prediction by ZEFSAII (Michael W. Deem and Ramdas Pophale) SiO2 
 PCOD8174123
Probable space group: C M M 2
;
_chemical_formula_sum "Si O2"
_cell_formula_units_Z 40
_cell_length_a 28.646158
_cell_length_b 8.783737
_cell_length_c 7.774894
_cell_angle_alpha 90.000000
_cell_angle_beta 90.000000
_cell_angle_gamma 90.000000
_cell_volume 1956.321300
_symmetry_space_group_name_H-M "C M M 2"
_symmetry_group_IT_number 35
_symmetry_cell_setting 'orthorhombic'
loop_
_space_group_symop_operation_xyz
x,y,z
-x,-y,z
-x,y,z
x,-y,z
1/2+x,1/2+y,z
1/2-x,1/2-y,z
1/2-x,1/2+y,z
1/2+x,1/2-y,z
loop_
_atom_site_type_symbol
_atom_site_label
_atom_site_fract_x
_atom_site_fract_y
_atom_site_fract_z
Si Si1 0.648119 0.319572 0.923640
Si Si2 0.799938 0.319834 0.243688
Si Si3 0.141183 0.322223 0.575063
Si Si4 0.550492 0.680589 0.058037
Si Si5 0.947364 0.823908 0.448377
O O1 0.652152 0.500000 0.937695
O O2 0.664855 0.263298 0.736766
O O3 0.680997 0.247188 0.066583
O O4 0.594516 0.260973 0.948474
O O5 0.796242 0.500000 0.226457
O O6 0.750000 0.250000 0.284537
O O7 0.833261 0.270481 0.400704
O O8 0.146038 0.500000 0.607476
O O9 0.086947 0.275329 0.565131
O O10 0.500000 0.740984 0.987037
O O11 0.549328 0.500000 0.057352
O O12 0.556698 0.736136 0.253622
O O13 0.000000 0.802082 0.517545
O O14 0.932358 0.000000 0.463103
#
# Coordination Sequence:
#
# PCOD8174123 Si02
#       5
#     8   8   8   8   8
#     4  11  22  38  65  94 124 161 204 252 300 359
#     4  11  25  45  67  89 118 156 199 253 311 368
#     4  11  24  40  60  90 129 164 200 249 304 366
#     4   8  15  30  55  87 120 156 201 248 291 344
#     4   9  17  33  59  88 120 161 209 253 295 354
#
# _framework density 20.446539000000001
#
# number of rings (size 3 to 8) (size 9 to 14) (size 15 to 20)
#    0.000    2.000    2.000    3.000    0.000    4.400 
#    0.000    4.000    0.000    1.800    0.000    0.000 
#    0.000    0.000    0.000    0.000    0.000    0.000 
#
# Total GULP energy -247983.975221 kJ/mol
# GULP energy per Si atom -12399.198761 kJ/mol
# Density = 2.040000 g / cm^3
# Si number density = 20.446539 Si / 1000 Ang^3
#
#
#
# Elastic Constant Matrix: (Units=GPa)
#
#
# Indices 1 2 3 4 5 6 
#
# 1 103.0505 40.6707 38.5024 0.0000 0.0000 0.0000
# 2 40.6707 70.4511 40.7332 0.0000 0.0000 0.0000
# 3 38.5024 40.7332 115.9037 0.0000 0.0000 0.0000
# 4 0.0000 0.0000 0.0000 32.3004 0.0000 0.0000
# 5 0.0000 0.0000 0.0000 0.0000 13.6794 0.0000
# 6 0.0000 0.0000 0.0000 0.0000 0.0000 28.6556
#
#
#
# Elastic Compliance Matrix: (Units=1/GPa)
#
#
# Indices 1 2 3 4 5 6 
#
# 1 0.012964 -0.006267 -0.002104 0.000000 0.000000 0.000000
# 2 -0.006267 0.020844 -0.005243 0.000000 0.000000 0.000000
# 3 -0.002104 -0.005243 0.011169 0.000000 0.000000 0.000000
# 4 0.000000 0.000000 0.000000 0.030959 0.000000 0.000000
# 5 0.000000 0.000000 0.000000 0.000000 0.073103 0.000000
# 6 0.000000 0.000000 0.000000 0.000000 0.000000 0.034897
#
#
# Mechanical properties :
#
#
# Convention : Reuss Voigt Hill
#
# Bulk Modulus (GPa) = 56.34502 58.80199 57.57350
# Shear Modulus (GPa) = 23.03285 26.22701 24.62993
#
# Velocity S-wave (km/s) = 3.35997 3.58538 3.47450
# Velocity P-wave (km/s) = 6.53219 6.77947 6.65698
#
# Compressibility (1/GPa) = 0.01774780
#
# Stress axis : x y z
#
# Youngs Moduli (GPa) = 77.13941 47.97558 89.52976
#
# Poissons Ratio (x) = 0.30068 0.18835
# Poissons Ratio (y) = 0.48346 0.46944
# Poissons Ratio (z) = 0.16229 0.25156
#
# Static dielectric constant tensor:
#      x y z
#    x 3.545560 0.000000 0.000000 
#    y 0.000000 3.425700 0.000000 
#    z 0.000000 0.000000 3.716560 
# 
# 
# High freq. dielectric constant tensor:
#      x y z
#    x 1.801840 0.000000 0.000000 
#    y 0.000000 1.776360 0.000000 
#    z 0.000000 0.000000 1.801460 
# 
# From -- ./inp_files/4982.got.cif
#   From: 2010.03.12/outbox.cif.g09.slc.cpg/sg35_3_cif.got.tgz:4982.got - 2010.04.14 02:02:04.
