data_PCOD8174767
_publ_section_title
;
Structure prediction by ZEFSAII (Michael W. Deem and Ramdas Pophale) SiO2 
 PCOD8174767
Probable space group: C M C 21
;
_chemical_formula_sum "Si O2"
_cell_formula_units_Z 64
_cell_length_a 8.886944
_cell_length_b 15.332632
_cell_length_c 24.080109
_cell_angle_alpha 90.000000
_cell_angle_beta 90.000000
_cell_angle_gamma 90.000000
_cell_volume 3281.161479
_symmetry_space_group_name_H-M "C M C 21"
_symmetry_group_IT_number 36
_symmetry_cell_setting 'orthorhombic'
loop_
_space_group_symop_operation_xyz
x,y,z
-x,-y,1/2+z
x,-y,1/2+z
-x,y,z
1/2+x,1/2+y,z
1/2-x,1/2-y,1/2+z
1/2+x,1/2-y,1/2+z
1/2-x,1/2+y,z
loop_
_atom_site_type_symbol
_atom_site_label
_atom_site_fract_x
_atom_site_fract_y
_atom_site_fract_z
Si Si1 0.829505 0.027030 0.815400
Si Si2 0.174029 0.518809 0.424118
Si Si3 0.669082 0.270209 0.324789
Si Si4 0.821186 0.635188 0.003050
Si Si5 0.821769 0.612199 0.127066
Si Si6 0.178129 0.547587 0.701090
Si Si7 0.819701 0.231244 0.703181
Si Si8 0.674914 0.211832 0.440500
O O1 0.761223 0.972537 0.866135
O O2 0.000000 0.996768 0.804065
O O3 0.822997 0.126905 0.833458
O O4 0.732532 0.011005 0.760303
O O5 0.239089 0.441374 0.462630
O O6 0.195130 0.610414 0.456634
O O7 0.000000 0.501473 0.410408
O O8 0.500000 0.234577 0.323121
O O9 0.743082 0.245608 0.265273
O O10 0.746716 0.227021 0.378753
O O11 0.758017 0.616269 0.064660
O O12 0.000000 0.636471 0.003296
O O13 0.762309 0.729560 0.984727
O O14 0.769937 0.522018 0.154854
O O15 0.759568 0.694846 0.161720
O O16 0.000000 0.618310 0.127314
O O17 0.254102 0.638561 0.684093
O O18 0.000000 0.559375 0.702975
O O19 0.000000 0.222262 0.704824
O O20 0.500000 0.239778 0.441067
#
# Coordination Sequence:
#
# PCOD8174767 Si02
#       8
#     8   8   8   8   8   8   8   8
#     4  10  19  34  56  81 114 148 182 226 275 333
#     4  10  21  34  55  83 112 144 185 232 279 326
#     4   8  15  29  52  76 103 135 176 219 262 322
#     4  10  21  39  56  80 113 145 185 233 272 318
#     4   9  20  37  59  79 108 152 188 218 271 338
#     4  10  20  35  57  85 113 143 181 229 280 326
#     4   9  18  35  56  79 107 147 184 220 268 329
#     4  10  20  35  55  81 108 146 187 223 277 338
#
# _framework density 19.505289999999999
#
# number of rings (size 3 to 8) (size 9 to 14) (size 15 to 20)
#    0.000    2.500    1.250    1.500    1.750    1.500 
#    0.000    4.375    0.000    0.000    0.000    0.000 
#    0.000    0.000    0.000    0.000    0.000    0.000 
#
# Total GULP energy -396720.842752 kJ/mol
# GULP energy per Si atom -12397.526336 kJ/mol
# Density = 1.946089 g / cm^3
# Si number density = 19.505290 Si / 1000 Ang^3
#
#
#
# Elastic Constant Matrix: (Units=GPa)
#
#
# Indices 1 2 3 4 5 6 
#
# 1 38.6621 19.4982 19.2081 0.0000 0.0000 0.0000
# 2 19.4982 81.5977 41.8672 0.0000 0.0000 0.0000
# 3 19.2081 41.8672 112.0579 0.0000 0.0000 0.0000
# 4 0.0000 0.0000 0.0000 29.6518 0.0000 0.0000
# 5 0.0000 0.0000 0.0000 0.0000 21.0284 0.0000
# 6 0.0000 0.0000 0.0000 0.0000 0.0000 26.2534
#
#
#
# Elastic Compliance Matrix: (Units=1/GPa)
#
#
# Indices 1 2 3 4 5 6 
#
# 1 0.030241 -0.005650 -0.003073 0.000000 0.000000 0.000000
# 2 -0.005650 0.016217 -0.005091 0.000000 0.000000 0.000000
# 3 -0.003073 -0.005091 0.011353 0.000000 0.000000 0.000000
# 4 0.000000 0.000000 0.000000 0.033725 0.000000 0.000000
# 5 0.000000 0.000000 0.000000 0.000000 0.047555 0.000000
# 6 0.000000 0.000000 0.000000 0.000000 0.000000 0.038090
#
#
# Mechanical properties :
#
#
# Convention : Reuss Voigt Hill
#
# Bulk Modulus (GPa) = 33.12943 43.71830 38.42387
# Shear Modulus (GPa) = 23.27004 25.50301 24.38653
#
# Velocity S-wave (km/s) = 3.45775 3.61985 3.53973
# Velocity P-wave (km/s) = 5.74135 6.31928 6.03723
#
# Compressibility (1/GPa) = 0.03018464
#
# Stress axis : x y z
#
# Youngs Moduli (GPa) = 33.06766 61.66281 88.08490
#
# Poissons Ratio (x) = 0.34837 0.27068
# Poissons Ratio (y) = 0.18682 0.44841
# Poissons Ratio (z) = 0.10161 0.31391
#
# Static dielectric constant tensor:
#      x y z
#    x 3.243410 0.000000 0.000000 
#    y 0.000000 3.532630 0.000000 
#    z 0.000000 0.000000 3.736310 
# 
# 
# High freq. dielectric constant tensor:
#      x y z
#    x 1.725880 0.000000 0.000000 
#    y 0.000000 1.763110 0.000000 
#    z 0.000000 0.000000 1.760330 
# 
# From -- ./inp_files/16616.got.cif
#   From: 2010.03.12/outbox.cif.g09.slc.cpg/sg36_9_cif.got.tgz:16616.got - 2010.04.14 02:13:53.
