data_PCOD8174073
_publ_section_title
;
Structure prediction by ZEFSAII (Michael W. Deem and Ramdas Pophale) SiO2 
 PCOD8174073
Probable space group: C M M 2
;
_chemical_formula_sum "Si O2"
_cell_formula_units_Z 56
_cell_length_a 8.657293
_cell_length_b 21.706614
_cell_length_c 14.724835
_cell_angle_alpha 90.000000
_cell_angle_beta 90.000000
_cell_angle_gamma 90.000000
_cell_volume 2767.098612
_symmetry_space_group_name_H-M "C M M 2"
_symmetry_group_IT_number 35
_symmetry_cell_setting 'orthorhombic'
loop_
_space_group_symop_operation_xyz
x,y,z
-x,-y,z
-x,y,z
x,-y,z
1/2+x,1/2+y,z
1/2-x,1/2-y,z
1/2-x,1/2+y,z
1/2+x,1/2-y,z
loop_
_atom_site_type_symbol
_atom_site_label
_atom_site_fract_x
_atom_site_fract_y
_atom_site_fract_z
Si Si1 0.318896 0.110204 0.105650
Si Si2 0.678245 0.374311 0.434273
Si Si3 0.316132 0.929858 0.715853
Si Si4 0.817878 0.685221 0.597971
Si Si5 0.681887 0.068115 0.916374
Si Si6 0.320907 0.500000 0.212352
Si Si7 0.178108 0.811978 0.248540
Si Si8 0.819282 0.500000 0.406823
O O1 0.500000 0.094612 0.116395
O O2 0.274498 0.172860 0.157060
O O3 0.213744 0.059184 0.152517
O O4 0.272184 0.114297 0.998694
O O5 0.500000 0.371232 0.461554
O O6 0.768281 0.323327 0.493166
O O7 0.701260 0.362895 0.326805
O O8 0.746980 0.441073 0.456581
O O9 0.500000 0.928737 0.712423
O O10 0.251388 0.874997 0.651815
O O11 0.252684 0.913164 0.817422
O O12 0.261095 0.000000 0.688980
O O13 0.750000 0.750000 0.635350
O O14 0.000000 0.689409 0.606994
O O15 0.500000 0.066152 0.906175
O O16 0.742231 0.000000 0.943289
O O17 0.500000 0.500000 0.242901
O O18 0.213898 0.500000 0.300349
O O19 0.250000 0.750000 0.288785
O O20 0.000000 0.803643 0.223106
O O21 0.000000 0.500000 0.425317
#
# Coordination Sequence:
#
# PCOD8174073 Si02
#       8
#     8   8   8   8   8   4   8   4
#     4  11  20  33  57  86 114 149 194 239 285 343
#     4  11  24  41  61  86 120 154 191 244 301 350
#     4   8  16  33  58  88 119 149 192 251 306 357
#     4  11  23  39  62  89 118 157 204 249 302 364
#     4   8  14  28  53  86 116 144 186 240 295 347
#     4  12  22  34  52  81 120 155 188 231 282 332
#     4  11  24  40  57  77 110 154 198 242 291 345
#     4  12  24  38  60  89 120 155 198 239 288 352
#
# _framework density 20.237803
#
# number of rings (size 3 to 8) (size 9 to 14) (size 15 to 20)
#    0.000    1.714    2.143    4.286    1.000    2.857 
#    0.000    0.714    0.000    5.143    0.000    0.000 
#    0.000    0.000    0.000    0.000    0.000    0.000 
#
# Total GULP energy -347076.564189 kJ/mol
# GULP energy per Si atom -12395.591578 kJ/mol
# Density = 2.019174 g / cm^3
# Si number density = 20.237803 Si / 1000 Ang^3
#
#
#
# Elastic Constant Matrix: (Units=GPa)
#
#
# Indices 1 2 3 4 5 6 
#
# 1 62.4609 32.6652 27.2057 0.0000 0.0000 0.0000
# 2 32.6652 120.2446 43.1423 0.0000 0.0000 0.0000
# 3 27.2057 43.1423 98.8067 0.0000 0.0000 0.0000
# 4 0.0000 0.0000 0.0000 35.1068 0.0000 0.0000
# 5 0.0000 0.0000 0.0000 0.0000 15.0800 0.0000
# 6 0.0000 0.0000 0.0000 0.0000 0.0000 32.6377
#
#
#
# Elastic Compliance Matrix: (Units=1/GPa)
#
#
# Indices 1 2 3 4 5 6 
#
# 1 0.019720 -0.004042 -0.003665 0.000000 0.000000 0.000000
# 2 -0.004042 0.010690 -0.003555 0.000000 0.000000 0.000000
# 3 -0.003665 -0.003555 0.012682 0.000000 0.000000 0.000000
# 4 0.000000 0.000000 0.000000 0.028485 0.000000 0.000000
# 5 0.000000 0.000000 0.000000 0.000000 0.066313 0.000000
# 6 0.000000 0.000000 0.000000 0.000000 0.000000 0.030639
#
#
# Mechanical properties :
#
#
# Convention : Reuss Voigt Hill
#
# Bulk Modulus (GPa) = 48.61749 54.17096 51.39423
# Shear Modulus (GPa) = 25.26420 28.46483 26.86452
#
# Velocity S-wave (km/s) = 3.53706 3.75443 3.64736
# Velocity P-wave (km/s) = 6.38406 6.75423 6.57175
#
# Compressibility (1/GPa) = 0.02056873
#
# Stress axis : x y z
#
# Youngs Moduli (GPa) = 50.70923 93.54714 78.85260
#
# Poissons Ratio (x) = 0.37814 0.28898
# Poissons Ratio (y) = 0.20498 0.28028
# Poissons Ratio (z) = 0.18584 0.33252
#
# Static dielectric constant tensor:
#      x y z
#    x 3.369250 0.000000 0.000000 
#    y 0.000000 3.767410 0.000000 
#    z 0.000000 0.000000 3.857630 
# 
# 
# High freq. dielectric constant tensor:
#      x y z
#    x 1.767250 0.000000 0.000000 
#    y 0.000000 1.783530 0.000000 
#    z 0.000000 0.000000 1.790700 
# 
# From -- ./inp_files/15728.got.cif
#   From: 2010.03.12/outbox.cif.g09.slc.cpg/sg35_8_cif.got.tgz:15728.got - 2010.04.14 02:02:04.
