data_PCOD8174448
_publ_section_title
;
Structure prediction by ZEFSAII (Michael W. Deem and Ramdas Pophale) SiO2 
 PCOD8174448
Probable space group: C M C 21
;
_chemical_formula_sum "Si O2"
_cell_formula_units_Z 64
_cell_length_a 8.682933
_cell_length_b 24.338651
_cell_length_c 15.489982
_cell_angle_alpha 90.000000
_cell_angle_beta 90.000000
_cell_angle_gamma 90.000000
_cell_volume 3273.511464
_symmetry_space_group_name_H-M "C M C 21"
_symmetry_group_IT_number 36
_symmetry_cell_setting 'orthorhombic'
loop_
_space_group_symop_operation_xyz
x,y,z
-x,-y,1/2+z
x,-y,1/2+z
-x,y,z
1/2+x,1/2+y,z
1/2-x,1/2-y,1/2+z
1/2+x,1/2-y,1/2+z
1/2-x,1/2+y,z
loop_
_atom_site_type_symbol
_atom_site_label
_atom_site_fract_x
_atom_site_fract_y
_atom_site_fract_z
Si Si1 0.683837 0.257538 0.305990
Si Si2 0.317948 0.183572 0.463643
Si Si3 0.678692 0.626189 0.861025
Si Si4 0.322274 0.243209 0.112531
Si Si5 0.819788 0.979320 0.609975
Si Si6 0.824581 0.375588 0.538312
Si Si7 0.318704 0.437289 0.957539
Si Si8 0.181656 0.988006 0.301684
O O1 0.500000 0.257286 0.310121
O O2 0.746687 0.214029 0.377207
O O3 0.754711 0.317434 0.327877
O O4 0.743760 0.245129 0.209904
O O5 0.500000 0.183110 0.461974
O O6 0.266614 0.215724 0.549405
O O7 0.259830 0.121519 0.466242
O O8 0.500000 0.628101 0.838572
O O9 0.754691 0.572273 0.818160
O O10 0.701977 0.621310 0.962418
O O11 0.500000 0.261152 0.110008
O O12 0.297219 0.180661 0.087526
O O13 0.715155 0.925785 0.600417
O O14 0.000000 0.964671 0.602833
O O15 0.775167 0.025959 0.540704
O O16 0.773008 0.998368 0.704914
O O17 0.000000 0.380169 0.504903
O O18 0.500000 0.427523 0.952545
O O19 0.254924 0.467689 0.871202
O O20 0.000000 0.984775 0.316431
#
# Coordination Sequence:
#
# PCOD8174448 Si02
#       8
#     8   8   8   8   8   8   8   8
#     4   9  20  37  61  85 110 152 196 234 282 342
#     4  11  23  39  59  86 118 151 192 237 285 340
#     4  10  18  37  64  83 107 145 197 244 279 331
#     4  10  22  40  60  84 115 154 194 232 285 346
#     4  10  21  38  61  84 111 149 195 237 278 333
#     4  11  22  36  58  86 118 149 186 235 290 340
#     4  10  21  38  58  82 115 152 189 232 285 340
#     4   9  19  35  59  88 108 142 197 241 276 328
#
# _framework density 19.550871000000001
#
# number of rings (size 3 to 8) (size 9 to 14) (size 15 to 20)
#    0.000    2.000    2.500    0.750    3.500    1.000 
#    0.000    2.500    0.000    0.000    0.000    0.000 
#    0.000    0.000    0.000    0.000    0.000    0.000 
#
# Total GULP energy -396727.616851 kJ/mol
# GULP energy per Si atom -12397.738027 kJ/mol
# Density = 1.950637 g / cm^3
# Si number density = 19.550871 Si / 1000 Ang^3
#
#
#
# Elastic Constant Matrix: (Units=GPa)
#
#
# Indices 1 2 3 4 5 6 
#
# 1 22.9650 33.4269 14.2327 0.0000 0.0000 0.0000
# 2 33.4269 171.7173 71.7681 0.0000 0.0000 0.0000
# 3 14.2327 71.7681 153.8061 0.0000 0.0000 0.0000
# 4 0.0000 0.0000 0.0000 34.0827 0.0000 0.0000
# 5 0.0000 0.0000 0.0000 0.0000 18.3060 0.0000
# 6 0.0000 0.0000 0.0000 0.0000 0.0000 23.4008
#
#
#
# Elastic Compliance Matrix: (Units=1/GPa)
#
#
# Indices 1 2 3 4 5 6 
#
# 1 0.060763 -0.011774 -0.000129 0.000000 0.000000 0.000000
# 2 -0.011774 0.009516 -0.003351 0.000000 0.000000 0.000000
# 3 -0.000129 -0.003351 0.008077 0.000000 0.000000 0.000000
# 4 0.000000 0.000000 0.000000 0.029340 0.000000 0.000000
# 5 0.000000 0.000000 0.000000 0.000000 0.054627 0.000000
# 6 0.000000 0.000000 0.000000 0.000000 0.000000 0.042734
#
#
# Mechanical properties :
#
#
# Convention : Reuss Voigt Hill
#
# Bulk Modulus (GPa) = 20.89950 65.26042 43.07996
# Shear Modulus (GPa) = 19.87967 30.42863 25.15415
#
# Velocity S-wave (km/s) = 3.19222 3.94938 3.59081
# Velocity P-wave (km/s) = 4.92950 7.36540 6.26694
#
# Compressibility (1/GPa) = 0.04784803
#
# Stress axis : x y z
#
# Youngs Moduli (GPa) = 16.45751 105.08647 123.80699
#
# Poissons Ratio (x) = 1.23733 0.01593
# Poissons Ratio (y) = 0.19378 0.41484
# Poissons Ratio (z) = 0.00212 0.35212
#
# Static dielectric constant tensor:
#      x y z
#    x 3.232280 0.000000 0.000000 
#    y 0.000000 3.751080 0.000000 
#    z 0.000000 0.000000 3.721810 
# 
# 
# High freq. dielectric constant tensor:
#      x y z
#    x 1.724810 0.000000 0.000000 
#    y 0.000000 1.780640 0.000000 
#    z 0.000000 0.000000 1.771720 
# 
# From -- ./inp_files/11018.got.cif
#   From: 2010.03.12/outbox.cif.g09.slc.cpg/sg36_6_cif.got.tgz:11018.got - 2010.04.14 02:13:53.
