data_PCOD8174807
_publ_section_title
;
Structure prediction by ZEFSAII (Michael W. Deem and Ramdas Pophale) SiO2 
 PCOD8174807
Probable space group: C M C 21
;
_chemical_formula_sum "Si O2"
_cell_formula_units_Z 64
_cell_length_a 13.016025
_cell_length_b 32.095877
_cell_length_c 7.523624
_cell_angle_alpha 90.000000
_cell_angle_beta 90.000000
_cell_angle_gamma 90.000000
_cell_volume 3143.074710
_symmetry_space_group_name_H-M "C M C 21"
_symmetry_group_IT_number 36
_symmetry_cell_setting 'orthorhombic'
loop_
_space_group_symop_operation_xyz
x,y,z
-x,-y,1/2+z
x,-y,1/2+z
-x,y,z
1/2+x,1/2+y,z
1/2-x,1/2-y,1/2+z
1/2+x,1/2-y,1/2+z
1/2-x,1/2+y,z
loop_
_atom_site_type_symbol
_atom_site_label
_atom_site_fract_x
_atom_site_fract_y
_atom_site_fract_z
Si Si1 0.239231 0.797897 0.011190
Si Si2 0.620185 0.273920 0.362847
Si Si3 0.205266 0.613043 0.574413
Si Si4 0.116317 0.940649 0.144900
Si Si5 0.383070 0.061859 0.876999
Si Si6 0.756004 0.586257 0.193131
Si Si7 0.619102 0.335252 0.680304
Si Si8 0.212733 0.996712 0.851930
O O1 0.165352 0.781483 0.166988
O O2 0.304481 0.837261 0.083448
O O3 0.323011 0.764116 0.957712
O O4 0.172910 0.809787 0.838482
O O5 0.500000 0.263049 0.343766
O O6 0.636820 0.313769 0.489609
O O7 0.323396 0.602938 0.639403
O O8 0.124139 0.589920 0.699685
O O9 0.184842 0.596830 0.375470
O O10 0.000000 0.932984 0.085271
O O11 0.127347 0.965956 0.329538
O O12 0.183256 0.972088 0.026989
O O13 0.500000 0.050951 0.917628
O O14 0.325047 0.017739 0.859286
O O15 0.336970 0.090334 0.034154
O O16 0.662183 0.618031 0.164809
O O17 0.713281 0.538691 0.196075
O O18 0.500000 0.338342 0.728431
#
# Coordination Sequence:
#
# PCOD8174807 Si02
#       8
#     8   8   8   8   8   8   8   8
#     4  11  21  42  66  91 134 163 204 267 308 380
#     4  11  23  39  66  99 127 168 212 254 319 384
#     4   9  23  39  62  89 122 153 205 257 305 370
#     4  10  19  34  57  84 117 154 189 243 310 359
#     4  11  23  41  61  84 121 168 212 258 309 357
#     4  10  21  41  61  88 124 156 205 263 304 366
#     4  10  22  41  68  97 126 166 209 256 324 383
#     4  10  20  37  53  86 121 150 206 248 293 365
#
# _framework density 20.362227000000001
#
# number of rings (size 3 to 8) (size 9 to 14) (size 15 to 20)
#    0.000    1.750    2.500    1.500    0.000    7.000 
#    0.000    3.750    0.000    0.000    0.000    0.000 
#    0.000    0.000    0.000    0.000    0.000    0.000 
#
# Total GULP energy -396680.695030 kJ/mol
# GULP energy per Si atom -12396.271720 kJ/mol
# Density = 2.031588 g / cm^3
# Si number density = 20.362227 Si / 1000 Ang^3
#
#
#
# Elastic Constant Matrix: (Units=GPa)
#
#
# Indices 1 2 3 4 5 6 
#
# 1 109.5248 39.9104 34.5938 0.0000 0.0000 0.0000
# 2 39.9104 97.2921 26.5534 0.0000 0.0000 0.0000
# 3 34.5938 26.5534 80.1649 0.0000 0.0000 0.0000
# 4 0.0000 0.0000 0.0000 29.2078 0.0000 0.0000
# 5 0.0000 0.0000 0.0000 0.0000 22.6943 0.0000
# 6 0.0000 0.0000 0.0000 0.0000 0.0000 25.8723
#
#
#
# Elastic Compliance Matrix: (Units=1/GPa)
#
#
# Indices 1 2 3 4 5 6 
#
# 1 0.011703 -0.003762 -0.003804 0.000000 0.000000 0.000000
# 2 -0.003762 0.012509 -0.002520 0.000000 0.000000 0.000000
# 3 -0.003804 -0.002520 0.014950 0.000000 0.000000 0.000000
# 4 0.000000 0.000000 0.000000 0.034237 0.000000 0.000000
# 5 0.000000 0.000000 0.000000 0.000000 0.044064 0.000000
# 6 0.000000 0.000000 0.000000 0.000000 0.000000 0.038651
#
#
# Mechanical properties :
#
#
# Convention : Reuss Voigt Hill
#
# Bulk Modulus (GPa) = 52.65878 54.34411 53.50144
# Shear Modulus (GPa) = 27.37951 27.94982 27.66466
#
# Velocity S-wave (km/s) = 3.67089 3.70892 3.68995
# Velocity P-wave (km/s) = 6.62453 6.71477 6.66980
#
# Compressibility (1/GPa) = 0.01899019
#
# Stress axis : x y z
#
# Youngs Moduli (GPa) = 85.44915 79.93926 66.88745
#
# Poissons Ratio (x) = 0.30077 0.25443
# Poissons Ratio (y) = 0.32150 0.16855
# Poissons Ratio (z) = 0.32504 0.20144
#
# Static dielectric constant tensor:
#      x y z
#    x 3.374110 0.000000 0.000000 
#    y 0.000000 3.828510 0.000000 
#    z 0.000000 0.000000 3.970530 
# 
# 
# High freq. dielectric constant tensor:
#      x y z
#    x 1.770920 0.000000 0.000000 
#    y 0.000000 1.801990 0.000000 
#    z 0.000000 0.000000 1.814950 
# 
# From -- ./inp_files/3608.got.cif
#   From: 2010.03.12/outbox.cif.g09.slc.cpg/sg36_2_cif.got.tgz:3608.got - 2010.04.14 02:13:53.
