data_PCOD8174098
_publ_section_title
;
Structure prediction by ZEFSAII (Michael W. Deem and Ramdas Pophale) SiO2 
 PCOD8174098
Probable space group: C M M 2
;
_chemical_formula_sum "Si O2"
_cell_formula_units_Z 56
_cell_length_a 21.488237
_cell_length_b 14.285091
_cell_length_c 9.423347
_cell_angle_alpha 90.000000
_cell_angle_beta 90.000000
_cell_angle_gamma 90.000000
_cell_volume 2892.603985
_symmetry_space_group_name_H-M "C M M 2"
_symmetry_group_IT_number 35
_symmetry_cell_setting 'orthorhombic'
loop_
_space_group_symop_operation_xyz
x,y,z
-x,-y,z
-x,y,z
x,-y,z
1/2+x,1/2+y,z
1/2-x,1/2-y,z
1/2-x,1/2+y,z
1/2+x,1/2-y,z
loop_
_atom_site_type_symbol
_atom_site_label
_atom_site_fract_x
_atom_site_fract_y
_atom_site_fract_z
Si Si1 0.250124 0.395116 0.323170
Si Si2 0.427629 0.255784 0.684854
Si Si3 0.878068 0.894543 0.915689
Si Si4 0.245412 0.640379 0.997711
Si Si5 0.428633 0.251445 0.128220
Si Si6 0.389558 0.106895 0.903743
Si Si7 0.148624 0.249801 0.399381
O O1 0.251048 0.500000 0.385964
O O2 0.241941 0.403554 0.153867
O O3 0.193668 0.339435 0.396063
O O4 0.314479 0.344988 0.363516
O O5 0.500000 0.263397 0.642152
O O6 0.409746 0.343255 0.783638
O O7 0.415550 0.158154 0.764569
O O8 0.383360 0.260083 0.550310
O O9 0.904328 0.000000 0.922569
O O10 0.803139 0.897048 0.905025
O O11 0.892664 0.838996 0.059935
O O12 0.250000 0.750000 0.021189
O O13 0.185107 0.613039 0.907241
O O14 0.500000 0.278880 0.129786
O O15 0.405602 0.234682 0.286257
O O16 0.417819 0.155781 0.042582
O O17 0.412169 0.000000 0.899530
#
# Coordination Sequence:
#
# PCOD8174098 Si02
#       7
#     8   8   8   8   8   8   8
#     4  11  21  38  64  95 124 152 191 256 319 362
#     4  11  26  44  60  83 127 173 207 247 294 356
#     4  11  22  39  65  92 121 159 202 253 309 361
#     4  12  18  37  66  98 127 150 192 257 321 363
#     4  11  22  37  60  90 120 159 212 256 294 349
#     4  11  22  39  65  92 121 159 202 253 309 361
#     4  11  23  41  62  89 124 161 203 247 302 368
#
# _framework density 19.359718000000001
#
# number of rings (size 3 to 8) (size 9 to 14) (size 15 to 20)
#    0.000    0.857    7.143    3.429    0.000    5.714 
#    0.000    0.000    0.000    5.143    0.000    0.000 
#    0.000    0.000    0.000    0.000    0.000    0.000 
#
# Total GULP energy -347294.763030 kJ/mol
# GULP energy per Si atom -12403.384394 kJ/mol
# Density = 1.931565 g / cm^3
# Si number density = 19.359718 Si / 1000 Ang^3
#
#
#
# Elastic Constant Matrix: (Units=GPa)
#
#
# Indices 1 2 3 4 5 6 
#
# 1 104.0334 17.4921 13.9208 0.0000 0.0000 0.0000
# 2 17.4921 148.4122 30.5746 0.0000 0.0000 0.0000
# 3 13.9208 30.5746 72.3113 0.0000 0.0000 0.0000
# 4 0.0000 0.0000 0.0000 9.4329 0.0000 0.0000
# 5 0.0000 0.0000 0.0000 0.0000 3.2103 0.0000
# 6 0.0000 0.0000 0.0000 0.0000 0.0000 5.4565
#
#
#
# Elastic Compliance Matrix: (Units=1/GPa)
#
#
# Indices 1 2 3 4 5 6 
#
# 1 0.009964 -0.000854 -0.001557 0.000000 0.000000 0.000000
# 2 -0.000854 0.007454 -0.002987 0.000000 0.000000 0.000000
# 3 -0.001557 -0.002987 0.015392 0.000000 0.000000 0.000000
# 4 0.000000 0.000000 0.000000 0.106012 0.000000 0.000000
# 5 0.000000 0.000000 0.000000 0.000000 0.311497 0.000000
# 6 0.000000 0.000000 0.000000 0.000000 0.000000 0.183267
#
#
# Mechanical properties :
#
#
# Convention : Reuss Voigt Hill
#
# Bulk Modulus (GPa) = 45.42625 49.85910 47.64267
# Shear Modulus (GPa) = 7.67200 21.13789 14.40495
#
# Velocity S-wave (km/s) = 1.99285 3.30790 2.73072
# Velocity P-wave (km/s) = 5.36755 6.35606 5.88261
#
# Compressibility (1/GPa) = 0.02201370
#
# Stress axis : x y z
#
# Youngs Moduli (GPa) = 100.35921 134.15560 64.96867
#
# Poissons Ratio (x) = 0.11451 0.10118
# Poissons Ratio (y) = 0.08566 0.19409
# Poissons Ratio (z) = 0.15629 0.40077
#
# Static dielectric constant tensor:
#      x y z
#    x 3.801620 0.000000 0.000000 
#    y 0.000000 3.620950 0.000000 
#    z 0.000000 0.000000 3.388010 
# 
# 
# High freq. dielectric constant tensor:
#      x y z
#    x 1.765510 0.000000 0.000000 
#    y 0.000000 1.759000 0.000000 
#    z 0.000000 0.000000 1.734630 
# 
# From -- ./inp_files/9277.got.cif
#   From: 2010.03.12/outbox.cif.g09.slc.cpg/sg35_5_cif.got.tgz:9277.got - 2010.04.14 02:02:04.
