data_PCOD8174055
_publ_section_title
;
Structure prediction by ZEFSAII (Michael W. Deem and Ramdas Pophale) SiO2 
 PCOD8174055
Probable space group: C M M 2
;
_chemical_formula_sum "Si O2"
_cell_formula_units_Z 48
_cell_length_a 15.218282
_cell_length_b 9.581473
_cell_length_c 15.215024
_cell_angle_alpha 90.000000
_cell_angle_beta 90.000000
_cell_angle_gamma 90.000000
_cell_volume 2218.556786
_symmetry_space_group_name_H-M "C M M 2"
_symmetry_group_IT_number 35
_symmetry_cell_setting 'orthorhombic'
loop_
_space_group_symop_operation_xyz
x,y,z
-x,-y,z
-x,y,z
x,-y,z
1/2+x,1/2+y,z
1/2-x,1/2-y,z
1/2-x,1/2+y,z
1/2+x,1/2-y,z
loop_
_atom_site_type_symbol
_atom_site_label
_atom_site_fract_x
_atom_site_fract_y
_atom_site_fract_z
Si Si1 0.146846 0.271038 0.270700
Si Si2 0.099622 0.844842 0.925202
Si Si3 0.897362 0.339245 0.764719
Si Si4 0.598590 0.000000 0.407703
Si Si5 0.838684 0.662374 0.078695
Si Si6 0.404959 0.500000 0.352961
Si Si7 0.750000 0.750000 0.630721
Si Si8 0.230250 0.000000 0.511423
O O1 0.250000 0.250000 0.278655
O O2 0.112607 0.366017 0.348411
O O3 0.119475 0.333097 0.176002
O O4 0.099986 0.125351 0.284407
O O5 0.139580 0.760100 0.842784
O O6 0.000000 0.873086 0.902185
O O7 0.144705 0.000000 0.937292
O O8 0.101199 0.744840 0.010071
O O9 0.888611 0.500000 0.794619
O O10 0.832113 0.311559 0.684176
O O11 0.000000 0.307530 0.740330
O O12 0.666265 0.000000 0.488300
O O13 0.500000 0.000000 0.447111
O O14 0.825630 0.500000 0.051366
O O15 0.750000 0.750000 0.078271
O O16 0.500000 0.500000 0.401051
O O17 0.327304 0.500000 0.423394
O O18 0.793282 0.866233 0.568898
#
# Coordination Sequence:
#
# PCOD8174055 Si02
#       8
#     8   8   8   4   8   4   4   4
#     4  11  22  43  68  95 139 183 227 281 329 393
#     4  10  23  42  67 100 140 179 218 275 330 392
#     4  10  23  46  72 100 136 179 226 275 335 408
#     4  12  24  44  72  99 131 180 229 275 334 406
#     4  11  24  40  65  99 135 183 229 276 329 388
#     4  12  26  44  70  99 135 182 225 277 344 402
#     4  12  26  44  74 102 132 174 218 278 350 412
#     4  12  26  46  68 102 138 168 218 286 348 408
#
# _framework density 21.635686
#
# number of rings (size 3 to 8) (size 9 to 14) (size 15 to 20)
#    0.000    1.000    3.333    2.500    7.000    3.667 
#    0.000    0.000    0.000    0.000    0.000    0.000 
#    0.000    0.000    0.000    0.000    0.000    0.000 
#
# Total GULP energy -297515.422267 kJ/mol
# GULP energy per Si atom -12396.475928 kJ/mol
# Density = 2.158644 g / cm^3
# Si number density = 21.635686 Si / 1000 Ang^3
#
#
#
# Elastic Constant Matrix: (Units=GPa)
#
#
# Indices 1 2 3 4 5 6 
#
# 1 93.2995 22.4908 27.5275 0.0000 0.0000 0.0000
# 2 22.4908 184.3994 44.9638 0.0000 0.0000 0.0000
# 3 27.5275 44.9638 85.2505 0.0000 0.0000 0.0000
# 4 0.0000 0.0000 0.0000 49.9066 0.0000 0.0000
# 5 0.0000 0.0000 0.0000 0.0000 20.5815 0.0000
# 6 0.0000 0.0000 0.0000 0.0000 0.0000 32.1324
#
#
#
# Elastic Compliance Matrix: (Units=1/GPa)
#
#
# Indices 1 2 3 4 5 6 
#
# 1 0.011903 -0.000591 -0.003532 0.000000 0.000000 0.000000
# 2 -0.000591 0.006253 -0.003107 0.000000 0.000000 0.000000
# 3 -0.003532 -0.003107 0.014509 0.000000 0.000000 0.000000
# 4 0.000000 0.000000 0.000000 0.020037 0.000000 0.000000
# 5 0.000000 0.000000 0.000000 0.000000 0.048587 0.000000
# 6 0.000000 0.000000 0.000000 0.000000 0.000000 0.031121
#
#
# Mechanical properties :
#
#
# Convention : Reuss Voigt Hill
#
# Bulk Modulus (GPa) = 54.92851 61.43484 58.18167
# Shear Modulus (GPa) = 32.69291 38.38859 35.54075
#
# Velocity S-wave (km/s) = 3.89146 4.21684 4.05741
# Velocity P-wave (km/s) = 6.75532 7.22258 6.99285
#
# Compressibility (1/GPa) = 0.01820548
#
# Stress axis : x y z
#
# Youngs Moduli (GPa) = 84.01532 159.93116 68.92075
#
# Poissons Ratio (x) = 0.09444 0.24342
# Poissons Ratio (y) = 0.04961 0.21415
# Poissons Ratio (z) = 0.29673 0.49694
#
# Static dielectric constant tensor:
#      x y z
#    x 3.841540 0.000000 0.000000 
#    y 0.000000 4.226040 0.000000 
#    z 0.000000 0.000000 3.981120 
# 
# 
# High freq. dielectric constant tensor:
#      x y z
#    x 1.842100 0.000000 0.000000 
#    y 0.000000 1.873500 0.000000 
#    z 0.000000 0.000000 1.845270 
# 
# From -- ./inp_files/18812.got.cif
#   From: 2010.03.12/outbox.cif.g09.slc.cpg/sg35_10_cif.got.tgz:18812.got - 2010.04.14 02:02:04.
