data_PCOD8174015
_publ_section_title
;
Structure prediction by ZEFSAII (Michael W. Deem and Ramdas Pophale) SiO2 
 PCOD8174015
Probable space group: C M M 2
;
_chemical_formula_sum "Si O2"
_cell_formula_units_Z 64
_cell_length_a 24.352016
_cell_length_b 14.354551
_cell_length_c 8.700377
_cell_angle_alpha 90.000000
_cell_angle_beta 90.000000
_cell_angle_gamma 90.000000
_cell_volume 3041.323409
_symmetry_space_group_name_H-M "C M M 2"
_symmetry_group_IT_number 35
_symmetry_cell_setting 'orthorhombic'
loop_
_space_group_symop_operation_xyz
x,y,z
-x,-y,z
-x,y,z
x,-y,z
1/2+x,1/2+y,z
1/2-x,1/2-y,z
1/2-x,1/2+y,z
1/2+x,1/2-y,z
loop_
_atom_site_type_symbol
_atom_site_label
_atom_site_fract_x
_atom_site_fract_y
_atom_site_fract_z
Si Si1 0.749491 0.357734 0.446400
Si Si2 0.564669 0.222190 0.485984
Si Si3 0.759607 0.600663 0.103653
Si Si4 0.647562 0.893367 0.662860
Si Si5 0.133888 0.897953 0.582220
Si Si6 0.142077 0.696790 0.981912
Si Si7 0.437204 0.896398 0.191520
Si Si8 0.646240 0.602094 0.942158
O O1 0.750000 0.250000 0.416269
O O2 0.741946 0.405470 0.281211
O O3 0.804738 0.387496 0.535178
O O4 0.697529 0.385838 0.545851
O O5 0.500000 0.233546 0.520357
O O6 0.589914 0.146060 0.600424
O O7 0.594946 0.321419 0.503077
O O8 0.576128 0.182601 0.316393
O O9 0.786433 0.500000 0.063081
O O10 0.803789 0.682967 0.086294
O O11 0.710066 0.614554 0.983561
O O12 0.661303 0.828624 0.809324
O O13 0.639323 0.000000 0.712663
O O14 0.131886 0.893708 0.764484
O O15 0.113562 0.000000 0.525797
O O16 0.119083 0.802741 0.006950
O O17 0.094931 0.626902 0.035977
O O18 0.500000 0.894993 0.144512
O O19 0.420662 0.000000 0.252100
O O20 0.625705 0.500000 0.007347
#
# Coordination Sequence:
#
# PCOD8174015 Si02
#       8
#     8   8   8   8   8   8   8   8
#     4  12  22  39  62  95 133 170 212 261 317 379
#     4  11  24  44  66  92 123 165 215 269 324 380
#     4  11  23  36  57  93 131 169 207 250 307 380
#     4  12  24  39  63  96 131 166 207 264 321 385
#     4  11  23  43  66  93 128 170 213 265 321 376
#     4  12  22  40  61  92 127 167 211 251 310 382
#     4  10  23  43  66  91 124 164 207 261 323 383
#     4  10  22  40  60  87 126 168 208 253 309 367
#
# _framework density 21.043471
#
# number of rings (size 3 to 8) (size 9 to 14) (size 15 to 20)
#    0.000    0.875    2.500    5.250    1.750    2.500 
#    0.000    0.000    0.000    1.125    0.000    0.000 
#    0.000    0.000    0.000    0.000    0.000    0.000 
#
# Total GULP energy -396591.036448 kJ/mol
# GULP energy per Si atom -12393.469889 kJ/mol
# Density = 2.099557 g / cm^3
# Si number density = 21.043471 Si / 1000 Ang^3
#
#
#
# Elastic Constant Matrix: (Units=GPa)
#
#
# Indices 1 2 3 4 5 6 
#
# 1 89.8645 43.6086 28.6316 0.0000 0.0000 0.0000
# 2 43.6086 172.5150 21.3735 0.0000 0.0000 0.0000
# 3 28.6316 21.3735 53.6395 0.0000 0.0000 0.0000
# 4 0.0000 0.0000 0.0000 16.0381 0.0000 0.0000
# 5 0.0000 0.0000 0.0000 0.0000 31.0513 0.0000
# 6 0.0000 0.0000 0.0000 0.0000 0.0000 21.7735
#
#
#
# Elastic Compliance Matrix: (Units=1/GPa)
#
#
# Indices 1 2 3 4 5 6 
#
# 1 0.014650 -0.002876 -0.006674 0.000000 0.000000 0.000000
# 2 -0.002876 0.006662 -0.001119 0.000000 0.000000 0.000000
# 3 -0.006674 -0.001119 0.022651 0.000000 0.000000 0.000000
# 4 0.000000 0.000000 0.000000 0.062352 0.000000 0.000000
# 5 0.000000 0.000000 0.000000 0.000000 0.032205 0.000000
# 6 0.000000 0.000000 0.000000 0.000000 0.000000 0.045927
#
#
# Mechanical properties :
#
#
# Convention : Reuss Voigt Hill
#
# Bulk Modulus (GPa) = 44.19948 55.91627 50.05787
# Shear Modulus (GPa) = 23.43810 28.59961 26.01885
#
# Velocity S-wave (km/s) = 3.34098 3.69056 3.52011
# Velocity P-wave (km/s) = 5.99436 6.69252 6.35303
#
# Compressibility (1/GPa) = 0.02262470
#
# Stress axis : x y z
#
# Youngs Moduli (GPa) = 68.25935 150.09639 44.14766
#
# Poissons Ratio (x) = 0.43174 0.29463
# Poissons Ratio (y) = 0.19634 0.04942
# Poissons Ratio (z) = 0.45554 0.16801
#
# Static dielectric constant tensor:
#      x y z
#    x 3.495060 0.000000 0.000000 
#    y 0.000000 4.426830 0.000000 
#    z 0.000000 0.000000 3.756680 
# 
# 
# High freq. dielectric constant tensor:
#      x y z
#    x 1.795660 0.000000 0.000000 
#    y 0.000000 1.855890 0.000000 
#    z 0.000000 0.000000 1.822930 
# 
# From -- ./inp_files/9892.got.cif
#   From: 2010.03.12/outbox.cif.g09.slc.cpg/sg35_5_cif.got.tgz:9892.got - 2010.04.14 02:02:04.
