data_PCOD8174958
_publ_section_title
;
Structure prediction by ZEFSAII (Michael W. Deem and Ramdas Pophale) SiO2 
 PCOD8174958
Probable space group: C M C 21
;
_chemical_formula_sum "Si O2"
_cell_formula_units_Z 64
_cell_length_a 9.399368
_cell_length_b 30.239430
_cell_length_c 11.889415
_cell_angle_alpha 90.000000
_cell_angle_beta 90.000000
_cell_angle_gamma 90.000000
_cell_volume 3379.346624
_symmetry_space_group_name_H-M "C M C 21"
_symmetry_group_IT_number 36
_symmetry_cell_setting 'orthorhombic'
loop_
_space_group_symop_operation_xyz
x,y,z
-x,-y,1/2+z
x,-y,1/2+z
-x,y,z
1/2+x,1/2+y,z
1/2-x,1/2-y,1/2+z
1/2+x,1/2-y,1/2+z
1/2-x,1/2+y,z
loop_
_atom_site_type_symbol
_atom_site_label
_atom_site_fract_x
_atom_site_fract_y
_atom_site_fract_z
Si Si1 0.663549 0.044434 0.469640
Si Si2 0.667624 0.878125 0.799772
Si Si3 0.167616 0.305637 0.971859
Si Si4 0.166584 0.206735 0.916657
Si Si5 0.166812 0.959692 0.415112
Si Si6 0.166518 0.124494 0.067837
Si Si7 0.841070 0.572352 0.717597
Si Si8 0.162155 0.673090 0.715761
O O1 0.500000 0.029119 0.460157
O O2 0.702854 0.077237 0.368132
O O3 0.692275 0.069893 0.585742
O O4 0.764150 0.002069 0.472832
O O5 0.500000 0.873982 0.776633
O O6 0.727157 0.835948 0.870265
O O7 0.747477 0.880286 0.682189
O O8 0.211148 0.254668 0.961262
O O9 0.000000 0.312839 0.972004
O O10 0.228195 0.322071 0.091186
O O11 0.245043 0.202277 0.798739
O O12 0.000000 0.202615 0.892981
O O13 0.214654 0.169688 0.006313
O O14 0.204785 0.916727 0.488317
O O15 0.229682 0.955788 0.289577
O O16 0.000000 0.967056 0.404245
O O17 0.000000 0.125418 0.096412
O O18 0.828517 0.622818 0.755785
O O19 0.000000 0.554294 0.742465
O O20 0.000000 0.690531 0.718771
#
# Coordination Sequence:
#
# PCOD8174958 Si02
#       8
#     8   8   8   8   8   8   8   8
#     4  10  22  40  61  86 113 145 190 239 288 334
#     4  10  21  39  61  84 112 148 190 236 282 333
#     4   9  19  37  60  85 114 149 186 232 287 332
#     4  10  21  38  58  82 117 155 187 226 281 337
#     4  11  24  40  58  83 118 153 189 230 281 342
#     4  10  23  40  55  80 119 156 185 225 282 339
#     4  10  20  38  63  86 111 144 190 243 286 331
#     4  10  19  36  62  86 110 144 191 239 281 328
#
# _framework density 18.938573000000002
#
# number of rings (size 3 to 8) (size 9 to 14) (size 15 to 20)
#    0.000    2.000    2.500    0.375    3.500    2.500 
#    0.000    1.250    0.000    0.000    0.000    0.000 
#    0.000    0.000    0.000    0.000    0.000    0.000 
#
# Total GULP energy -396853.522218 kJ/mol
# GULP energy per Si atom -12401.672569 kJ/mol
# Density = 1.889547 g / cm^3
# Si number density = 18.938573 Si / 1000 Ang^3
#
#
#
# Elastic Constant Matrix: (Units=GPa)
#
#
# Indices 1 2 3 4 5 6 
#
# 1 63.0807 46.0313 52.1172 0.0000 0.0000 0.0000
# 2 46.0313 108.0537 37.6913 0.0000 0.0000 0.0000
# 3 52.1172 37.6913 119.1407 0.0000 0.0000 0.0000
# 4 0.0000 0.0000 0.0000 28.2912 0.0000 0.0000
# 5 0.0000 0.0000 0.0000 0.0000 31.0603 0.0000
# 6 0.0000 0.0000 0.0000 0.0000 0.0000 24.8197
#
#
#
# Elastic Compliance Matrix: (Units=1/GPa)
#
#
# Indices 1 2 3 4 5 6 
#
# 1 0.032048 -0.009849 -0.010903 0.000000 0.000000 0.000000
# 2 -0.009849 0.013430 0.000060 0.000000 0.000000 0.000000
# 3 -0.010903 0.000060 0.013144 0.000000 0.000000 0.000000
# 4 0.000000 0.000000 0.000000 0.035347 0.000000 0.000000
# 5 0.000000 0.000000 0.000000 0.000000 0.032195 0.000000
# 6 0.000000 0.000000 0.000000 0.000000 0.000000 0.040291
#
#
# Mechanical properties :
#
#
# Convention : Reuss Voigt Hill
#
# Bulk Modulus (GPa) = 58.01665 62.43941 60.22803
# Shear Modulus (GPa) = 23.40979 27.12995 25.26987
#
# Velocity S-wave (km/s) = 3.51962 3.78897 3.65678
# Velocity P-wave (km/s) = 6.87151 7.22377 7.04984
#
# Compressibility (1/GPa) = 0.01723643
#
# Stress axis : x y z
#
# Youngs Moduli (GPa) = 31.20280 74.46219 76.08001
#
# Poissons Ratio (x) = 0.73341 0.82953
# Poissons Ratio (y) = 0.30733 -0.00456
# Poissons Ratio (z) = 0.34022 -0.00447
#
# Static dielectric constant tensor:
#      x y z
#    x 3.276960 0.000000 0.000000 
#    y 0.000000 3.571900 0.000000 
#    z 0.000000 0.000000 3.457850 
# 
# 
# High freq. dielectric constant tensor:
#      x y z
#    x 1.714790 0.000000 0.000000 
#    y 0.000000 1.744290 0.000000 
#    z 0.000000 0.000000 1.745160 
# 
# From -- ./inp_files/7062.got.cif
#   From: 2010.03.12/outbox.cif.g09.slc.cpg/sg36_4_cif.got.tgz:7062.got - 2010.04.14 02:13:53.
