data_PCOD8174862
_publ_section_title
;
Structure prediction by ZEFSAII (Michael W. Deem and Ramdas Pophale) SiO2 
 PCOD8174862
Probable space group: C M C 21
;
_chemical_formula_sum "Si O2"
_cell_formula_units_Z 32
_cell_length_a 18.084563
_cell_length_b 13.171098
_cell_length_c 5.252579
_cell_angle_alpha 90.000000
_cell_angle_beta 90.000000
_cell_angle_gamma 90.000000
_cell_volume 1251.130447
_symmetry_space_group_name_H-M "C M C 21"
_symmetry_group_IT_number 36
_symmetry_cell_setting 'orthorhombic'
loop_
_space_group_symop_operation_xyz
x,y,z
-x,-y,1/2+z
x,-y,1/2+z
-x,y,z
1/2+x,1/2+y,z
1/2-x,1/2-y,1/2+z
1/2+x,1/2-y,1/2+z
1/2-x,1/2+y,z
loop_
_atom_site_type_symbol
_atom_site_label
_atom_site_fract_x
_atom_site_fract_y
_atom_site_fract_z
Si Si1 0.584609 0.934411 0.442590
Si Si2 0.277596 0.195975 0.994914
Si Si3 0.583904 0.619743 0.343082
Si Si4 0.856803 0.896919 0.347545
O O1 0.500000 0.894158 0.445297
O O2 0.636841 0.835005 0.454373
O O3 0.600822 0.004638 0.684987
O O4 0.243864 0.273093 0.782993
O O5 0.228162 0.093635 0.935607
O O6 0.500000 0.631133 0.430486
O O7 0.635730 0.663864 0.573252
O O8 0.604650 0.502656 0.277867
O O9 0.599690 0.669239 0.066551
#
# Coordination Sequence:
#
# PCOD8174862 Si02
#       4
#     8   8   8   8
#     4  10  23  45  75 101 128 177 238 293 333 391
#     4  12  26  43  63  99 137 170 213 276 347 406
#     4  10  19  35  57  90 121 153 208 251 294 374
#     4  10  20  33  57  82 122 162 199 252 306 365
#
# _framework density 25.576867
#
# number of rings (size 3 to 8) (size 9 to 14) (size 15 to 20)
#    0.000    1.500    0.000    6.750    7.000    0.000 
#    0.000   10.000    0.000    0.000    0.000    0.000 
#    0.000    0.000    0.000    0.000    0.000    0.000 
#
# Total GULP energy -198248.124343 kJ/mol
# GULP energy per Si atom -12390.507771 kJ/mol
# Density = 2.551865 g / cm^3
# Si number density = 25.576867 Si / 1000 Ang^3
#
#
#
# Elastic Constant Matrix: (Units=GPa)
#
#
# Indices 1 2 3 4 5 6 
#
# 1 144.0464 19.8495 35.3010 0.0000 0.0000 0.0000
# 2 19.8495 40.6090 15.9663 0.0000 0.0000 0.0000
# 3 35.3010 15.9663 220.8828 0.0000 0.0000 0.0000
# 4 0.0000 0.0000 0.0000 29.4895 0.0000 0.0000
# 5 0.0000 0.0000 0.0000 0.0000 40.1881 0.0000
# 6 0.0000 0.0000 0.0000 0.0000 0.0000 28.4282
#
#
#
# Elastic Compliance Matrix: (Units=1/GPa)
#
#
# Indices 1 2 3 4 5 6 
#
# 1 0.007644 -0.003351 -0.000979 0.000000 0.000000 0.000000
# 2 -0.003351 0.026815 -0.001403 0.000000 0.000000 0.000000
# 3 -0.000979 -0.001403 0.004785 0.000000 0.000000 0.000000
# 4 0.000000 0.000000 0.000000 0.033910 0.000000 0.000000
# 5 0.000000 0.000000 0.000000 0.000000 0.024883 0.000000
# 6 0.000000 0.000000 0.000000 0.000000 0.000000 0.035176
#
#
# Mechanical properties :
#
#
# Convention : Reuss Voigt Hill
#
# Bulk Modulus (GPa) = 36.00079 60.86355 48.43217
# Shear Modulus (GPa) = 32.48030 41.91591 37.19810
#
# Velocity S-wave (km/s) = 3.56744 4.05263 3.81775
# Velocity P-wave (km/s) = 5.57449 6.76361 6.19763
#
# Compressibility (1/GPa) = 0.02777717
#
# Stress axis : x y z
#
# Youngs Moduli (GPa) = 130.82099 37.29297 208.97742
#
# Poissons Ratio (x) = 0.12498 0.20467
# Poissons Ratio (y) = 0.43842 0.29313
# Poissons Ratio (z) = 0.12813 0.05231
#
# Static dielectric constant tensor:
#      x y z
#    x 4.872430 0.000000 0.000000 
#    y 0.000000 4.320640 0.000000 
#    z 0.000000 0.000000 5.511770 
# 
# 
# High freq. dielectric constant tensor:
#      x y z
#    x 2.031070 0.000000 0.000000 
#    y 0.000000 1.989140 0.000000 
#    z 0.000000 0.000000 2.068370 
# 
# From -- ./inp_files/635.got.cif
#   From: 2010.03.12/outbox.cif.g09.slc.cpg/sg36_1_cif.got.tgz:635.got - 2010.04.14 02:13:53.
