data_PCOD8174572
_publ_section_title
;
Structure prediction by ZEFSAII (Michael W. Deem and Ramdas Pophale) SiO2 
 PCOD8174572
Probable space group: C M C 21
;
_chemical_formula_sum "Si O2"
_cell_formula_units_Z 48
_cell_length_a 8.984558
_cell_length_b 18.395453
_cell_length_c 16.219473
_cell_angle_alpha 90.000000
_cell_angle_beta 90.000000
_cell_angle_gamma 90.000000
_cell_volume 2680.673634
_symmetry_space_group_name_H-M "C M C 21"
_symmetry_group_IT_number 36
_symmetry_cell_setting 'orthorhombic'
loop_
_space_group_symop_operation_xyz
x,y,z
-x,-y,1/2+z
x,-y,1/2+z
-x,y,z
1/2+x,1/2+y,z
1/2-x,1/2-y,1/2+z
1/2+x,1/2-y,1/2+z
1/2-x,1/2+y,z
loop_
_atom_site_type_symbol
_atom_site_label
_atom_site_fract_x
_atom_site_fract_y
_atom_site_fract_z
Si Si1 0.174819 0.919680 0.178240
Si Si2 0.335519 0.290232 0.283442
Si Si3 0.333927 0.205636 0.112892
Si Si4 0.326586 0.331345 0.866675
Si Si5 0.326528 0.414875 0.701433
Si Si6 0.176403 0.665784 0.533485
O O1 0.213148 0.872630 0.260595
O O2 0.266760 0.892095 0.100042
O O3 0.000000 0.912048 0.157520
O O4 0.222358 0.001586 0.197870
O O5 0.500000 0.288765 0.324435
O O6 0.339720 0.248468 0.197656
O O7 0.219430 0.251825 0.344685
O O8 0.500000 0.194066 0.077260
O O9 0.258687 0.127520 0.128618
O O10 0.238651 0.252904 0.048607
O O11 0.500000 0.332870 0.887848
O O12 0.284477 0.384298 0.791354
O O13 0.233971 0.360281 0.944413
O O14 0.500000 0.404248 0.684561
O O15 0.000000 0.667949 0.535880
#
# Coordination Sequence:
#
# PCOD8174572 Si02
#       6
#     8   8   8   8   8   8
#     4   9  18  34  54  76 104 136 168 204 250 303
#     4   8  15  29  49  71  95 126 163 201 241 291
#     4   9  17  31  51  73  98 128 163 204 247 293
#     4  10  19  32  51  74 100 131 168 212 258 301
#     4   9  18  33  54  78 103 134 169 203 247 306
#     4  11  21  33  51  74 100 133 173 214 255 298
#
# _framework density 17.905947000000001
#
# number of rings (size 3 to 8) (size 9 to 14) (size 15 to 20)
#    0.000    2.667    0.000    3.500    0.000    5.333 
#    0.000    1.667    0.000    8.000    0.000    0.000 
#    0.000    0.000    0.000    0.000    0.000    0.000 
#
# Total GULP energy -297553.099469 kJ/mol
# GULP energy per Si atom -12398.045811 kJ/mol
# Density = 1.786519 g / cm^3
# Si number density = 17.905947 Si / 1000 Ang^3
#
#
#
# Elastic Constant Matrix: (Units=GPa)
#
#
# Indices 1 2 3 4 5 6 
#
# 1 108.0548 51.1768 49.2834 0.0000 0.0000 0.0000
# 2 51.1768 135.0677 39.4380 0.0000 0.0000 0.0000
# 3 49.2834 39.4380 73.5515 0.0000 0.0000 0.0000
# 4 0.0000 0.0000 0.0000 17.2681 0.0000 0.0000
# 5 0.0000 0.0000 0.0000 0.0000 28.9492 0.0000
# 6 0.0000 0.0000 0.0000 0.0000 0.0000 26.9903
#
#
#
# Elastic Compliance Matrix: (Units=1/GPa)
#
#
# Indices 1 2 3 4 5 6 
#
# 1 0.014357 -0.003119 -0.007947 0.000000 0.000000 0.000000
# 2 -0.003119 0.009456 -0.002980 0.000000 0.000000 0.000000
# 3 -0.007947 -0.002980 0.020519 0.000000 0.000000 0.000000
# 4 0.000000 0.000000 0.000000 0.057910 0.000000 0.000000
# 5 0.000000 0.000000 0.000000 0.000000 0.034543 0.000000
# 6 0.000000 0.000000 0.000000 0.000000 0.000000 0.037050
#
#
# Mechanical properties :
#
#
# Convention : Reuss Voigt Hill
#
# Bulk Modulus (GPa) = 61.58306 66.27450 63.92878
# Shear Modulus (GPa) = 24.11493 26.42658 25.27076
#
# Velocity S-wave (km/s) = 3.67380 3.84585 3.76081
# Velocity P-wave (km/s) = 7.24313 7.53749 7.39177
#
# Compressibility (1/GPa) = 0.01623823
#
# Stress axis : x y z
#
# Youngs Moduli (GPa) = 69.65469 105.75645 48.73571
#
# Poissons Ratio (x) = 0.32987 0.38731
# Poissons Ratio (y) = 0.21727 0.14524
# Poissons Ratio (z) = 0.55356 0.31516
#
# Static dielectric constant tensor:
#      x y z
#    x 3.387710 0.000000 0.000000 
#    y 0.000000 3.477360 0.000000 
#    z 0.000000 0.000000 3.155160 
# 
# 
# High freq. dielectric constant tensor:
#      x y z
#    x 1.697200 0.000000 0.000000 
#    y 0.000000 1.683910 0.000000 
#    z 0.000000 0.000000 1.671840 
# 
# From -- ./inp_files/10394.got.cif
#   From: 2010.03.12/outbox.cif.g09.slc.cpg/sg36_6_cif.got.tgz:10394.got - 2010.04.14 02:13:53.
