data_PCOD8174687
_publ_section_title
;
Structure prediction by ZEFSAII (Michael W. Deem and Ramdas Pophale) SiO2 
 PCOD8174687
Probable space group: C M C 21
;
_chemical_formula_sum "Si O2"
_cell_formula_units_Z 64
_cell_length_a 8.767575
_cell_length_b 29.345172
_cell_length_c 12.359843
_cell_angle_alpha 90.000000
_cell_angle_beta 90.000000
_cell_angle_gamma 90.000000
_cell_volume 3180.014522
_symmetry_space_group_name_H-M "C M C 21"
_symmetry_group_IT_number 36
_symmetry_cell_setting 'orthorhombic'
loop_
_space_group_symop_operation_xyz
x,y,z
-x,-y,1/2+z
x,-y,1/2+z
-x,y,z
1/2+x,1/2+y,z
1/2-x,1/2-y,1/2+z
1/2+x,1/2-y,1/2+z
1/2-x,1/2+y,z
loop_
_atom_site_type_symbol
_atom_site_label
_atom_site_fract_x
_atom_site_fract_y
_atom_site_fract_z
Si Si1 0.818167 0.223586 0.212370
Si Si2 0.679727 0.024986 0.486910
Si Si3 0.170155 0.327424 0.895724
Si Si4 0.680049 0.566387 0.923928
Si Si5 0.679441 0.415733 0.179642
Si Si6 0.678618 0.586481 0.319088
Si Si7 0.179524 0.132992 0.103981
Si Si8 0.329564 0.820724 0.141584
O O1 0.744796 0.212872 0.327493
O O2 0.760512 0.184637 0.126039
O O3 0.757845 0.274136 0.187749
O O4 0.000000 0.223087 0.219286
O O5 0.500000 0.028168 0.493587
O O6 0.742970 0.053076 0.589041
O O7 0.735348 0.043423 0.370228
O O8 0.735254 0.973100 0.490564
O O9 0.281056 0.370918 0.895286
O O10 0.000000 0.339961 0.852861
O O11 0.159572 0.309704 0.016040
O O12 0.500000 0.558027 0.932457
O O13 0.733074 0.568614 0.799393
O O14 0.726412 0.613533 0.986247
O O15 0.500000 0.421238 0.166296
O O16 0.721691 0.362909 0.168316
O O17 0.500000 0.575900 0.323175
O O18 0.738227 0.598310 0.198239
O O19 0.000000 0.134387 0.116936
O O20 0.500000 0.830759 0.187056
#
# Coordination Sequence:
#
# PCOD8174687 Si02
#       8
#     8   8   8   8   8   8   8   8
#     4   9  19  36  58  85 118 163 206 248 306 367
#     4  12  25  40  60  88 122 158 199 250 309 367
#     4  10  19  33  54  84 116 153 198 252 304 353
#     4  10  23  42  63  89 120 160 207 253 305 366
#     4  11  24  41  64  91 122 160 208 254 302 371
#     4  10  19  35  61  87 112 150 198 249 299 358
#     4   8  17  36  61  86 116 153 200 251 298 353
#     4  10  21  37  59  86 122 161 200 253 315 363
#
# _framework density 20.125693999999999
#
# number of rings (size 3 to 8) (size 9 to 14) (size 15 to 20)
#    0.000    2.000    1.250    3.000    1.750    3.000 
#    0.000    5.000    0.000    1.500    0.000    0.000 
#    0.000    0.000    0.000    0.000    0.000    0.000 
#
# Total GULP energy -396645.132041 kJ/mol
# GULP energy per Si atom -12395.160376 kJ/mol
# Density = 2.007989 g / cm^3
# Si number density = 20.125694 Si / 1000 Ang^3
#
#
#
# Elastic Constant Matrix: (Units=GPa)
#
#
# Indices 1 2 3 4 5 6 
#
# 1 70.1369 36.2341 34.0317 0.0000 0.0000 0.0000
# 2 36.2341 122.6035 48.7534 0.0000 0.0000 0.0000
# 3 34.0317 48.7534 85.4114 0.0000 0.0000 0.0000
# 4 0.0000 0.0000 0.0000 30.6916 0.0000 0.0000
# 5 0.0000 0.0000 0.0000 0.0000 20.1608 0.0000
# 6 0.0000 0.0000 0.0000 0.0000 0.0000 28.8939
#
#
#
# Elastic Compliance Matrix: (Units=1/GPa)
#
#
# Indices 1 2 3 4 5 6 
#
# 1 0.018658 -0.003309 -0.005545 0.000000 0.000000 0.000000
# 2 -0.003309 0.011138 -0.005039 0.000000 0.000000 0.000000
# 3 -0.005545 -0.005039 0.016794 0.000000 0.000000 0.000000
# 4 0.000000 0.000000 0.000000 0.032582 0.000000 0.000000
# 5 0.000000 0.000000 0.000000 0.000000 0.049601 0.000000
# 6 0.000000 0.000000 0.000000 0.000000 0.000000 0.034609
#
#
# Mechanical properties :
#
#
# Convention : Reuss Voigt Hill
#
# Bulk Modulus (GPa) = 53.18341 57.35449 55.26895
# Shear Modulus (GPa) = 25.32440 26.55811 25.94125
#
# Velocity S-wave (km/s) = 3.55112 3.63659 3.59411
# Velocity P-wave (km/s) = 6.58004 6.79655 6.68917
#
# Compressibility (1/GPa) = 0.01880285
#
# Stress axis : x y z
#
# Youngs Moduli (GPa) = 53.59609 89.78105 59.54501
#
# Poissons Ratio (x) = 0.29709 0.33020
# Poissons Ratio (y) = 0.17735 0.30006
# Poissons Ratio (z) = 0.29721 0.45243
#
# Static dielectric constant tensor:
#      x y z
#    x 3.566100 0.000000 0.000000 
#    y 0.000000 3.740510 0.000000 
#    z 0.000000 0.000000 3.777710 
# 
# 
# High freq. dielectric constant tensor:
#      x y z
#    x 1.771430 0.000000 0.000000 
#    y 0.000000 1.787490 0.000000 
#    z 0.000000 0.000000 1.784890 
# 
# From -- ./inp_files/7152.got.cif
#   From: 2010.03.12/outbox.cif.g09.slc.cpg/sg36_4_cif.got.tgz:7152.got - 2010.04.14 02:13:53.
