data_PCOD8174522
_publ_section_title
;
Structure prediction by ZEFSAII (Michael W. Deem and Ramdas Pophale) SiO2 
 PCOD8174522
Probable space group: C M C 21
;
_chemical_formula_sum "Si O2"
_cell_formula_units_Z 64
_cell_length_a 9.174242
_cell_length_b 18.496479
_cell_length_c 20.638458
_cell_angle_alpha 90.000000
_cell_angle_beta 90.000000
_cell_angle_gamma 90.000000
_cell_volume 3502.164178
_symmetry_space_group_name_H-M "C M C 21"
_symmetry_group_IT_number 36
_symmetry_cell_setting 'orthorhombic'
loop_
_space_group_symop_operation_xyz
x,y,z
-x,-y,1/2+z
x,-y,1/2+z
-x,y,z
1/2+x,1/2+y,z
1/2-x,1/2-y,1/2+z
1/2+x,1/2-y,1/2+z
1/2-x,1/2+y,z
loop_
_atom_site_type_symbol
_atom_site_label
_atom_site_fract_x
_atom_site_fract_y
_atom_site_fract_z
Si Si1 0.163759 0.836985 0.680560
Si Si2 0.830793 0.320785 0.806239
Si Si3 0.161209 0.334584 0.170641
Si Si4 0.327225 0.171206 0.812973
Si Si5 0.668761 0.328935 0.046852
Si Si6 0.330093 0.839960 0.554916
Si Si7 0.672842 0.073735 0.930130
Si Si8 0.668367 0.089098 0.434230
O O1 0.255362 0.858128 0.744147
O O2 0.160039 0.751320 0.674939
O O3 0.242481 0.869182 0.617137
O O4 0.000000 0.868499 0.685541
O O5 0.755709 0.245831 0.825810
O O6 0.809667 0.376469 0.864245
O O7 0.000000 0.306399 0.790477
O O8 0.210159 0.362191 0.241934
O O9 0.270099 0.361008 0.114629
O O10 0.000000 0.363691 0.153358
O O11 0.500000 0.187030 0.818297
O O12 0.270004 0.114146 0.865850
O O13 0.500000 0.347203 0.044737
O O14 0.700780 0.244022 0.041459
O O15 0.743933 0.366224 0.986666
O O16 0.500000 0.853824 0.567764
O O17 0.270653 0.884232 0.493456
O O18 0.500000 0.074163 0.928380
O O19 0.731944 0.992112 0.931374
O O20 0.500000 0.089405 0.455168
#
# Coordination Sequence:
#
# PCOD8174522 Si02
#       8
#     8   8   8   8   8   8   8   8
#     4   9  17  30  50  75 102 129 159 200 246 293
#     4  10  19  31  50  76 103 129 161 202 246 293
#     4   8  15  28  48  74 100 125 156 197 242 289
#     4   9  17  32  55  78  98 125 164 206 247 291
#     4  10  19  31  51  76 100 127 160 202 248 291
#     4   9  17  31  53  77  99 126 162 205 247 287
#     4   9  18  34  53  72  97 131 170 206 241 288
#     4  10  21  35  50  70  99 134 168 202 241 290
#
# _framework density 18.274412999999999
#
# number of rings (size 3 to 8) (size 9 to 14) (size 15 to 20)
#    0.000    2.750    0.000    2.625    0.000    5.500 
#    0.000    3.125    0.000    4.500    0.000    0.000 
#    0.000    0.000    0.000    0.000    0.000    0.000 
#
# Total GULP energy -396759.546642 kJ/mol
# GULP energy per Si atom -12398.735833 kJ/mol
# Density = 1.823282 g / cm^3
# Si number density = 18.274413 Si / 1000 Ang^3
#
#
#
# Elastic Constant Matrix: (Units=GPa)
#
#
# Indices 1 2 3 4 5 6 
#
# 1 92.7459 43.7638 73.4674 0.0000 0.0000 0.0000
# 2 43.7638 62.7618 50.0217 0.0000 0.0000 0.0000
# 3 73.4674 50.0217 152.5969 0.0000 0.0000 0.0000
# 4 0.0000 0.0000 0.0000 1.4885 0.0000 0.0000
# 5 0.0000 0.0000 0.0000 0.0000 31.5624 0.0000
# 6 0.0000 0.0000 0.0000 0.0000 0.0000 15.6977
#
#
#
# Elastic Compliance Matrix: (Units=1/GPa)
#
#
# Indices 1 2 3 4 5 6 
#
# 1 0.020399 -0.008659 -0.006983 0.000000 0.000000 0.000000
# 2 -0.008659 0.025244 -0.004106 0.000000 0.000000 0.000000
# 3 -0.006983 -0.004106 0.011261 0.000000 0.000000 0.000000
# 4 0.000000 0.000000 0.000000 0.671821 0.000000 0.000000
# 5 0.000000 0.000000 0.000000 0.000000 0.031683 0.000000
# 6 0.000000 0.000000 0.000000 0.000000 0.000000 0.063704
#
#
# Mechanical properties :
#
#
# Convention : Reuss Voigt Hill
#
# Bulk Modulus (GPa) = 57.44386 71.40118 64.42252
# Shear Modulus (GPa) = 5.75102 19.13982 12.44542
#
# Velocity S-wave (km/s) = 1.77591 3.23980 2.61249
# Velocity P-wave (km/s) = 5.97557 7.29051 6.66555
#
# Compressibility (1/GPa) = 0.01740830
#
# Stress axis : x y z
#
# Youngs Moduli (GPa) = 49.02093 39.61351 88.80185
#
# Poissons Ratio (x) = 0.34302 0.62008
# Poissons Ratio (y) = 0.42448 0.36463
# Poissons Ratio (z) = 0.34230 0.16266
#
# Static dielectric constant tensor:
#      x y z
#    x 3.367440 0.000000 0.000000 
#    y 0.000000 3.126110 0.000000 
#    z 0.000000 0.000000 3.737420 
# 
# 
# High freq. dielectric constant tensor:
#      x y z
#    x 1.698380 0.000000 0.000000 
#    y 0.000000 1.671180 0.000000 
#    z 0.000000 0.000000 1.728140 
# 
# From -- ./inp_files/15736.got.cif
#   From: 2010.03.12/outbox.cif.g09.slc.cpg/sg36_8_cif.got.tgz:15736.got - 2010.04.14 02:13:53.
