data_PCOD8174330
_publ_section_title
;
Structure prediction by ZEFSAII (Michael W. Deem and Ramdas Pophale) SiO2 
 PCOD8174330
Probable space group: C M C 21
;
_chemical_formula_sum "Si O2"
_cell_formula_units_Z 40
_cell_length_a 22.175860
_cell_length_b 13.954498
_cell_length_c 5.294826
_cell_angle_alpha 90.000000
_cell_angle_beta 90.000000
_cell_angle_gamma 90.000000
_cell_volume 1638.499759
_symmetry_space_group_name_H-M "C M C 21"
_symmetry_group_IT_number 36
_symmetry_cell_setting 'orthorhombic'
loop_
_space_group_symop_operation_xyz
x,y,z
-x,-y,1/2+z
x,-y,1/2+z
-x,y,z
1/2+x,1/2+y,z
1/2-x,1/2-y,1/2+z
1/2+x,1/2-y,1/2+z
1/2-x,1/2+y,z
loop_
_atom_site_type_symbol
_atom_site_label
_atom_site_fract_x
_atom_site_fract_y
_atom_site_fract_z
Si Si1 0.432195 0.562582 0.220260
Si Si2 0.931458 0.386317 0.714292
Si Si3 0.689544 0.661709 0.209448
Si Si4 0.243591 0.373038 0.209380
Si Si5 0.117019 0.594150 0.714271
O O1 0.422538 0.504230 0.477643
O O2 0.500000 0.606915 0.215007
O O3 0.382500 0.647216 0.211723
O O4 0.897840 0.344080 0.466429
O O5 0.926283 0.501707 0.716102
O O6 0.000000 0.352442 0.712024
O O7 0.898557 0.343784 0.963400
O O8 0.717251 0.611009 0.458473
O O9 0.706795 0.772513 0.210369
O O10 0.716139 0.611642 0.957520
O O11 0.186258 0.444678 0.212103
#
# Coordination Sequence:
#
# PCOD8174330 Si02
#       5
#     8   8   8   8   8
#     4  10  21  40  62  87 117 149 194 249 294 345
#     4  10  19  33  50  71 111 149 176 222 267 302
#     4  10  21  40  58  83 112 151 182 227 298 342
#     4  10  21  37  59  80 119 149 181 232 282 345
#     4  10  18  32  49  75 101 146 183 220 259 320
#
# _framework density 24.412576000000001
#
# number of rings (size 3 to 8) (size 9 to 14) (size 15 to 20)
#    0.000    2.000    0.000    5.400    0.000    0.000 
#   21.600    3.000    0.000    2.400    0.000    0.000 
#    0.000    0.000    0.000    0.000    0.000    0.000 
#
# Total GULP energy -247873.156030 kJ/mol
# GULP energy per Si atom -12393.657802 kJ/mol
# Density = 2.435701 g / cm^3
# Si number density = 24.412576 Si / 1000 Ang^3
#
#
#
# Elastic Constant Matrix: (Units=GPa)
#
#
# Indices 1 2 3 4 5 6 
#
# 1 198.1996 13.7204 62.8601 0.0000 0.0000 0.0000
# 2 13.7204 18.3756 -3.3324 0.0000 0.0000 0.0000
# 3 62.8601 -3.3324 244.0433 0.0000 0.0000 0.0000
# 4 0.0000 0.0000 0.0000 3.6040 0.0000 0.0000
# 5 0.0000 0.0000 0.0000 0.0000 58.3620 0.0000
# 6 0.0000 0.0000 0.0000 0.0000 0.0000 25.5726
#
#
#
# Elastic Compliance Matrix: (Units=1/GPa)
#
#
# Indices 1 2 3 4 5 6 
#
# 1 0.005868 -0.004667 -0.001575 0.000000 0.000000 0.000000
# 2 -0.004667 0.058267 0.001998 0.000000 0.000000 0.000000
# 3 -0.001575 0.001998 0.004531 0.000000 0.000000 0.000000
# 4 0.000000 0.000000 0.000000 0.277473 0.000000 0.000000
# 5 0.000000 0.000000 0.000000 0.000000 0.017134 0.000000
# 6 0.000000 0.000000 0.000000 0.000000 0.000000 0.039104
#
#
# Mechanical properties :
#
#
# Convention : Reuss Voigt Hill
#
# Bulk Modulus (GPa) = 16.61777 67.45718 42.03747
# Shear Modulus (GPa) = 11.60293 43.33241 27.46767
#
# Velocity S-wave (km/s) = 2.18247 4.21765 3.35796
# Velocity P-wave (km/s) = 3.62942 7.17009 5.68256
#
# Compressibility (1/GPa) = 0.06017656
#
# Stress axis : x y z
#
# Youngs Moduli (GPa) = 170.41324 17.16238 220.71869
#
# Poissons Ratio (x) = 0.08010 0.34768
# Poissons Ratio (y) = 0.79534 -0.44095
# Poissons Ratio (z) = 0.26844 -0.03429
#
# Static dielectric constant tensor:
#      x y z
#    x 4.553770 0.000000 0.000000 
#    y 0.000000 3.588370 0.000000 
#    z 0.000000 0.000000 7.746680 
# 
# 
# High freq. dielectric constant tensor:
#      x y z
#    x 1.985210 0.000000 0.000000 
#    y 0.000000 1.904400 0.000000 
#    z 0.000000 0.000000 2.007790 
# 
# From -- ./inp_files/1036.got.cif
#   From: 2010.03.12/outbox.cif.g09.slc.cpg/sg36_1_cif.got.tgz:1036.got - 2010.04.14 02:13:53.
