data_PCOD8174312
_publ_section_title
;
Structure prediction by ZEFSAII (Michael W. Deem and Ramdas Pophale) SiO2 
 PCOD8174312
Probable space group: C M C 21
;
_chemical_formula_sum "Si O2"
_cell_formula_units_Z 56
_cell_length_a 13.415668
_cell_length_b 21.011346
_cell_length_c 9.619188
_cell_angle_alpha 90.000000
_cell_angle_beta 90.000000
_cell_angle_gamma 90.000000
_cell_volume 2711.468662
_symmetry_space_group_name_H-M "C M C 21"
_symmetry_group_IT_number 36
_symmetry_cell_setting 'orthorhombic'
loop_
_space_group_symop_operation_xyz
x,y,z
-x,-y,1/2+z
x,-y,1/2+z
-x,y,z
1/2+x,1/2+y,z
1/2-x,1/2-y,1/2+z
1/2+x,1/2-y,1/2+z
1/2-x,1/2+y,z
loop_
_atom_site_type_symbol
_atom_site_label
_atom_site_fract_x
_atom_site_fract_y
_atom_site_fract_z
Si Si1 0.119105 0.471060 0.565660
Si Si2 0.616776 0.639317 0.753008
Si Si3 0.382241 0.242540 0.440444
Si Si4 0.805949 0.429419 0.274795
Si Si5 0.112014 0.228646 0.513708
Si Si6 0.118997 0.287652 0.242368
Si Si7 0.612349 0.847109 0.710097
O O1 0.157750 0.535357 0.636094
O O2 0.160558 0.468955 0.409207
O O3 0.164041 0.411731 0.655003
O O4 0.000000 0.470165 0.557896
O O5 0.500000 0.620731 0.749191
O O6 0.640932 0.688297 0.877748
O O7 0.684853 0.576980 0.774607
O O8 0.656715 0.673038 0.610820
O O9 0.500000 0.233280 0.444234
O O10 0.335678 0.237102 0.595225
O O11 0.337419 0.184694 0.346813
O O12 0.853740 0.359801 0.274407
O O13 0.164955 0.241134 0.363587
O O14 0.113513 0.296274 0.587755
O O15 0.000000 0.206640 0.485688
O O16 0.000000 0.282124 0.242703
O O17 0.500000 0.866118 0.748380
#
# Coordination Sequence:
#
# PCOD8174312 Si02
#       7
#     8   8   8   8   8   8   8
#     4  11  23  40  58  85 121 155 194 248 300 360
#     4   9  20  41  61  82 116 155 201 249 293 347
#     4   8  16  31  56  86 118 154 187 233 297 352
#     4  12  25  38  59  85 116 161 206 239 301 356
#     4   8  14  30  57  84 115 153 185 231 296 351
#     4  10  18  31  53  89 125 151 187 234 294 365
#     4   8  14  29  53  77 111 157 187 218 284 351
#
# _framework density 20.653013999999999
#
# number of rings (size 3 to 8) (size 9 to 14) (size 15 to 20)
#    0.000    2.571    1.429    3.000    2.000    1.143 
#    0.000    2.143    0.000    0.000    0.000    0.000 
#    0.000    0.000    0.000    0.000    0.000    0.000 
#
# Total GULP energy -346949.470264 kJ/mol
# GULP energy per Si atom -12391.052509 kJ/mol
# Density = 2.060601 g / cm^3
# Si number density = 20.653014 Si / 1000 Ang^3
#
#
#
# Elastic Constant Matrix: (Units=GPa)
#
#
# Indices 1 2 3 4 5 6 
#
# 1 77.4555 36.2655 28.7926 0.0000 0.0000 0.0000
# 2 36.2655 61.5228 43.5730 0.0000 0.0000 0.0000
# 3 28.7926 43.5730 172.8078 0.0000 0.0000 0.0000
# 4 0.0000 0.0000 0.0000 17.2458 0.0000 0.0000
# 5 0.0000 0.0000 0.0000 0.0000 7.8817 0.0000
# 6 0.0000 0.0000 0.0000 0.0000 0.0000 31.8536
#
#
#
# Elastic Compliance Matrix: (Units=1/GPa)
#
#
# Indices 1 2 3 4 5 6 
#
# 1 0.017854 -0.010247 -0.000391 0.000000 0.000000 0.000000
# 2 -0.010247 0.025669 -0.004765 0.000000 0.000000 0.000000
# 3 -0.000391 -0.004765 0.007053 0.000000 0.000000 0.000000
# 4 0.000000 0.000000 0.000000 0.057985 0.000000 0.000000
# 5 0.000000 0.000000 0.000000 0.000000 0.126876 0.000000
# 6 0.000000 0.000000 0.000000 0.000000 0.000000 0.031394
#
#
# Mechanical properties :
#
#
# Convention : Reuss Voigt Hill
#
# Bulk Modulus (GPa) = 50.58169 58.78312 54.68241
# Shear Modulus (GPa) = 16.43505 24.93989 20.68747
#
# Velocity S-wave (km/s) = 2.82400 3.47878 3.16835
# Velocity P-wave (km/s) = 5.93108 6.68280 6.31813
#
# Compressibility (1/GPa) = 0.01977000
#
# Stress axis : x y z
#
# Youngs Moduli (GPa) = 56.01027 38.95682 141.77537
#
# Poissons Ratio (x) = 0.39920 0.05542
# Poissons Ratio (y) = 0.57396 0.67557
# Poissons Ratio (z) = 0.02189 0.18563
#
# Static dielectric constant tensor:
#      x y z
#    x 3.674740 0.000000 0.000000 
#    y 0.000000 3.452390 0.000000 
#    z 0.000000 0.000000 4.341570 
# 
# 
# High freq. dielectric constant tensor:
#      x y z
#    x 1.801200 0.000000 0.000000 
#    y 0.000000 1.770380 0.000000 
#    z 0.000000 0.000000 1.822620 
# 
# From -- ./inp_files/4218.got.cif
#   From: 2010.03.12/outbox.cif.g09.slc.cpg/sg36_3_cif.got.tgz:4218.got - 2010.04.14 02:13:53.
