data_PCOD8174062
_publ_section_title
;
Structure prediction by ZEFSAII (Michael W. Deem and Ramdas Pophale) SiO2 
 PCOD8174062
Probable space group: C M M 2
;
_chemical_formula_sum "Si O2"
_cell_formula_units_Z 32
_cell_length_a 11.080106
_cell_length_b 24.954911
_cell_length_c 4.908329
_cell_angle_alpha 90.000000
_cell_angle_beta 90.000000
_cell_angle_gamma 90.000000
_cell_volume 1357.167984
_symmetry_space_group_name_H-M "C M M 2"
_symmetry_group_IT_number 35
_symmetry_cell_setting 'orthorhombic'
loop_
_space_group_symop_operation_xyz
x,y,z
-x,-y,z
-x,y,z
x,-y,z
1/2+x,1/2+y,z
1/2-x,1/2-y,z
1/2-x,1/2+y,z
1/2+x,1/2-y,z
loop_
_atom_site_type_symbol
_atom_site_label
_atom_site_fract_x
_atom_site_fract_y
_atom_site_fract_z
Si Si1 0.000000 0.375687 0.862620
Si Si2 0.000000 0.302076 0.361775
Si Si3 0.236071 0.438383 0.710541
Si Si4 0.863097 0.894065 0.196741
Si Si5 0.632160 0.726232 0.022299
O O1 0.000000 0.322635 0.671476
O O2 0.885745 0.412915 0.820143
O O3 0.000000 0.355010 0.171252
O O4 0.883285 0.264509 0.291055
O O5 0.216206 0.500000 0.632422
O O6 0.275569 0.406074 0.445553
O O7 0.336630 0.433528 0.945322
O O8 0.837571 0.833827 0.104168
O O9 0.000000 0.902758 0.292952
O O10 0.500000 0.727663 0.861767
O O11 0.750000 0.750000 0.860620
#
# Coordination Sequence:
#
# PCOD8174062 Si02
#       5
#     4   4   8   8   8
#     4  12  23  44  64 102 136 170 223 274 330 404
#     4  10  24  38  69  94 135 178 214 268 340 402
#     4  12  26  43  69  96 132 179 224 279 332 385
#     4  11  25  45  68  95 135 171 225 278 327 394
#     4   9  19  38  62  94 129 170 214 264 325 396
#
# _framework density 23.578510000000001
#
# number of rings (size 3 to 8) (size 9 to 14) (size 15 to 20)
#    0.750    0.500    0.000    6.375    0.000    5.000 
#    0.000    8.750    0.000    0.000    0.000    0.000 
#    0.000    0.000    0.000    0.000    0.000    0.000 
#
# Total GULP energy -198308.686517 kJ/mol
# GULP energy per Si atom -12394.292907 kJ/mol
# Density = 2.352484 g / cm^3
# Si number density = 23.578510 Si / 1000 Ang^3
#
#
#
# Elastic Constant Matrix: (Units=GPa)
#
#
# Indices 1 2 3 4 5 6 
#
# 1 90.6553 60.2857 14.5614 0.0000 0.0000 0.0000
# 2 60.2857 107.9720 5.1643 0.0000 0.0000 0.0000
# 3 14.5614 5.1643 67.1427 0.0000 0.0000 0.0000
# 4 0.0000 0.0000 0.0000 12.6406 0.0000 0.0000
# 5 0.0000 0.0000 0.0000 0.0000 24.8482 0.0000
# 6 0.0000 0.0000 0.0000 0.0000 0.0000 41.7720
#
#
#
# Elastic Compliance Matrix: (Units=1/GPa)
#
#
# Indices 1 2 3 4 5 6 
#
# 1 0.018196 -0.010008 -0.003176 0.000000 0.000000 0.000000
# 2 -0.010008 0.014800 0.001032 0.000000 0.000000 0.000000
# 3 -0.003176 0.001032 0.015503 0.000000 0.000000 0.000000
# 4 0.000000 0.000000 0.000000 0.079110 0.000000 0.000000
# 5 0.000000 0.000000 0.000000 0.000000 0.040244 0.000000
# 6 0.000000 0.000000 0.000000 0.000000 0.000000 0.023939
#
#
# Mechanical properties :
#
#
# Convention : Reuss Voigt Hill
#
# Bulk Modulus (GPa) = 41.33095 47.31033 44.32064
# Shear Modulus (GPa) = 22.30520 28.23606 25.27063
#
# Velocity S-wave (km/s) = 3.07904 3.46429 3.27733
# Velocity P-wave (km/s) = 5.49616 6.00919 5.75839
#
# Compressibility (1/GPa) = 0.02419495
#
# Stress axis : x y z
#
# Youngs Moduli (GPa) = 54.95650 67.56700 64.50301
#
# Poissons Ratio (x) = 0.67620 0.20489
# Poissons Ratio (y) = 0.55000 -0.06657
# Poissons Ratio (z) = 0.17457 -0.06973
#
# Static dielectric constant tensor:
#      x y z
#    x 4.498530 0.000000 0.000000 
#    y 0.000000 4.235300 0.000000 
#    z 0.000000 0.000000 3.898090 
# 
# 
# High freq. dielectric constant tensor:
#      x y z
#    x 1.950620 0.000000 0.000000 
#    y 0.000000 1.947010 0.000000 
#    z 0.000000 0.000000 1.903910 
# 
# From -- ./inp_files/1126.got.cif
#   From: 2010.03.12/outbox.cif.g09.slc.cpg/sg35_1_cif.got.tgz:1126.got - 2010.04.14 02:02:04.
