data_PCOD8174756
_publ_section_title
;
Structure prediction by ZEFSAII (Michael W. Deem and Ramdas Pophale) SiO2 
 PCOD8174756
Probable space group: C M C 21
;
_chemical_formula_sum "Si O2"
_cell_formula_units_Z 64
_cell_length_a 9.163378
_cell_length_b 28.868264
_cell_length_c 14.018625
_cell_angle_alpha 90.000000
_cell_angle_beta 90.000000
_cell_angle_gamma 90.000000
_cell_volume 3708.358300
_symmetry_space_group_name_H-M "C M C 21"
_symmetry_group_IT_number 36
_symmetry_cell_setting 'orthorhombic'
loop_
_space_group_symop_operation_xyz
x,y,z
-x,-y,1/2+z
x,-y,1/2+z
-x,y,z
1/2+x,1/2+y,z
1/2-x,1/2-y,1/2+z
1/2+x,1/2-y,1/2+z
1/2-x,1/2+y,z
loop_
_atom_site_type_symbol
_atom_site_label
_atom_site_fract_x
_atom_site_fract_y
_atom_site_fract_z
Si Si1 0.670830 0.179790 0.101530
Si Si2 0.669993 0.758772 0.776857
Si Si3 0.671118 0.816414 0.165024
Si Si4 0.164228 0.590639 0.753587
Si Si5 0.335688 0.990114 0.762584
Si Si6 0.672938 0.543758 0.907380
Si Si7 0.327357 0.926462 0.592898
Si Si8 0.171205 0.256708 0.991247
O O1 0.500000 0.184260 0.082615
O O2 0.712963 0.199200 0.206402
O O3 0.722178 0.126804 0.096424
O O4 0.751318 0.208764 0.019484
O O5 0.500000 0.747516 0.769511
O O6 0.754320 0.712361 0.749050
O O7 0.714970 0.772121 0.884622
O O8 0.500000 0.809259 0.174971
O O9 0.716799 0.870250 0.178689
O O10 0.723715 0.798131 0.061528
O O11 0.166393 0.539554 0.704651
O O12 0.269254 0.588510 0.846989
O O13 0.000000 0.602585 0.789275
O O14 0.500000 0.979326 0.798409
O O15 0.280841 0.949500 0.693481
O O16 0.231167 0.996460 0.855424
O O17 0.500000 0.543405 0.912297
O O18 0.739206 0.546302 0.012426
O O19 0.500000 0.932089 0.575323
O O20 0.000000 0.247858 0.000297
#
# Coordination Sequence:
#
# PCOD8174756 Si02
#       8
#     8   8   8   8   8   8   8   8
#     4   9  19  33  50  74 100 131 168 208 248 294
#     4   9  18  32  47  69 102 130 161 205 252 297
#     4   9  17  30  49  70  94 127 164 202 244 294
#     4   8  16  32  50  70  95 123 161 204 244 291
#     4   8  17  34  52  72  99 129 165 209 250 295
#     4  10  20  32  50  76 103 130 162 203 253 301
#     4  10  19  34  55  76 101 134 171 210 250 300
#     4   9  18  31  47  69  98 130 164 205 251 300
#
# _framework density 17.258310999999999
#
# number of rings (size 3 to 8) (size 9 to 14) (size 15 to 20)
#    0.750    2.250    0.000    0.750    1.750    2.000 
#    0.000    1.250    0.000    6.000    0.000    0.000 
#    0.000    0.000    0.000    0.000    0.000    0.000 
#
# Total GULP energy -396516.829823 kJ/mol
# GULP energy per Si atom -12391.150932 kJ/mol
# Density = 1.721903 g / cm^3
# Si number density = 17.258311 Si / 1000 Ang^3
#
#
#
# Elastic Constant Matrix: (Units=GPa)
#
#
# Indices 1 2 3 4 5 6 
#
# 1 50.8758 19.5909 32.3433 0.0000 0.0000 0.0000
# 2 19.5909 51.3960 21.8185 0.0000 0.0000 0.0000
# 3 32.3433 21.8185 90.7589 0.0000 0.0000 0.0000
# 4 0.0000 0.0000 0.0000 20.9183 0.0000 0.0000
# 5 0.0000 0.0000 0.0000 0.0000 21.4552 0.0000
# 6 0.0000 0.0000 0.0000 0.0000 0.0000 18.6223
#
#
#
# Elastic Compliance Matrix: (Units=1/GPa)
#
#
# Indices 1 2 3 4 5 6 
#
# 1 0.027529 -0.007048 -0.008116 0.000000 0.000000 0.000000
# 2 -0.007048 0.023473 -0.003131 0.000000 0.000000 0.000000
# 3 -0.008116 -0.003131 0.014663 0.000000 0.000000 0.000000
# 4 0.000000 0.000000 0.000000 0.047805 0.000000 0.000000
# 5 0.000000 0.000000 0.000000 0.000000 0.046609 0.000000
# 6 0.000000 0.000000 0.000000 0.000000 0.000000 0.053699
#
#
# Mechanical properties :
#
#
# Convention : Reuss Voigt Hill
#
# Bulk Modulus (GPa) = 34.39442 37.83733 36.11588
# Shear Modulus (GPa) = 19.22630 20.15102 19.68866
#
# Velocity S-wave (km/s) = 3.34133 3.42074 3.38127
# Velocity P-wave (km/s) = 5.90410 6.12974 6.01798
#
# Compressibility (1/GPa) = 0.02907449
#
# Stress axis : x y z
#
# Youngs Moduli (GPa) = 36.32474 42.60297 68.19774
#
# Poissons Ratio (x) = 0.30027 0.55351
# Poissons Ratio (y) = 0.25602 0.21353
# Poissons Ratio (z) = 0.29482 0.13339
#
# Static dielectric constant tensor:
#      x y z
#    x 3.087410 0.000000 0.000000 
#    y 0.000000 3.216940 0.000000 
#    z 0.000000 0.000000 3.208600 
# 
# 
# High freq. dielectric constant tensor:
#      x y z
#    x 1.656500 0.000000 0.000000 
#    y 0.000000 1.651870 0.000000 
#    z 0.000000 0.000000 1.655580 
# 
# From -- ./inp_files/11178.got.cif
#   From: 2010.03.12/outbox.cif.g09.slc.cpg/sg36_6_cif.got.tgz:11178.got - 2010.04.14 02:13:53.
