data_PCOD8174053
_publ_section_title
;
Structure prediction by ZEFSAII (Michael W. Deem and Ramdas Pophale) SiO2 
 PCOD8174053
Probable space group: C M M 2
;
_chemical_formula_sum "Si O2"
_cell_formula_units_Z 48
_cell_length_a 29.077111
_cell_length_b 7.560266
_cell_length_c 10.360347
_cell_angle_alpha 90.000000
_cell_angle_beta 90.000000
_cell_angle_gamma 90.000000
_cell_volume 2277.522268
_symmetry_space_group_name_H-M "C M M 2"
_symmetry_group_IT_number 35
_symmetry_cell_setting 'orthorhombic'
loop_
_space_group_symop_operation_xyz
x,y,z
-x,-y,z
-x,y,z
x,-y,z
1/2+x,1/2+y,z
1/2-x,1/2-y,z
1/2-x,1/2+y,z
1/2+x,1/2-y,z
loop_
_atom_site_type_symbol
_atom_site_label
_atom_site_fract_x
_atom_site_fract_y
_atom_site_fract_z
Si Si1 0.055159 0.500000 0.978840
Si Si2 0.698510 0.706864 0.847904
Si Si3 0.801156 0.792448 0.561131
Si Si4 0.945697 0.500000 0.687696
Si Si5 0.876166 0.787933 0.054525
Si Si6 0.052043 0.799917 0.501111
Si Si7 0.864016 0.797488 0.338822
O O1 0.072425 0.500000 0.831628
O O2 0.076207 0.319286 0.037564
O O3 0.000000 0.500000 0.997291
O O4 0.692213 0.500000 0.840043
O O5 0.750000 0.750000 0.896640
O O6 0.690092 0.790416 0.704599
O O7 0.661098 0.779128 0.949675
O O8 0.750000 0.750000 0.515668
O O9 0.833723 0.703693 0.451354
O O10 0.810329 0.000000 0.570522
O O11 0.928471 0.323618 0.614931
O O12 0.000000 0.500000 0.689916
O O13 0.886014 0.000000 0.049121
O O14 0.855972 0.727433 0.194140
O O15 0.082173 0.771523 0.372971
O O16 0.000000 0.751382 0.462221
O O17 0.056252 0.000000 0.553422
O O18 0.849186 0.000000 0.340084
#
# Coordination Sequence:
#
# PCOD8174053 Si02
#       7
#     4   8   8   4   8   8   8
#     4  11  26  43  61  91 127 163 215 269 308 372
#     4   9  19  35  59  88 120 162 206 252 310 372
#     4   9  18  35  55  84 119 151 198 248 298 362
#     4   9  20  37  55  85 117 147 195 247 299 354
#     4  10  23  42  62  89 124 167 211 252 313 375
#     4   9  18  34  57  84 114 149 190 240 300 358
#     4   9  19  36  58  84 117 154 197 246 297 360
#
# _framework density 21.075536
#
# number of rings (size 3 to 8) (size 9 to 14) (size 15 to 20)
#    0.000    2.667    0.000    0.000    3.500    3.000 
#    3.000    4.167    0.000    0.000    0.000    0.000 
#    0.000    0.000    0.000    0.000    0.000    0.000 
#
# Total GULP energy -297405.604399 kJ/mol
# GULP energy per Si atom -12391.900183 kJ/mol
# Density = 2.102757 g / cm^3
# Si number density = 21.075536 Si / 1000 Ang^3
#
#
#
# Elastic Constant Matrix: (Units=GPa)
#
#
# Indices 1 2 3 4 5 6 
#
# 1 130.4767 25.3770 82.5926 0.0000 0.0000 0.0000
# 2 25.3770 64.0935 32.3095 0.0000 0.0000 0.0000
# 3 82.5926 32.3095 169.1910 0.0000 0.0000 0.0000
# 4 0.0000 0.0000 0.0000 14.5097 0.0000 0.0000
# 5 0.0000 0.0000 0.0000 0.0000 38.4068 0.0000
# 6 0.0000 0.0000 0.0000 0.0000 0.0000 26.1258
#
#
#
# Elastic Compliance Matrix: (Units=1/GPa)
#
#
# Indices 1 2 3 4 5 6 
#
# 1 0.011291 -0.001872 -0.005154 0.000000 0.000000 0.000000
# 2 -0.001872 0.017575 -0.002442 0.000000 0.000000 0.000000
# 3 -0.005154 -0.002442 0.008893 0.000000 0.000000 0.000000
# 4 0.000000 0.000000 0.000000 0.068920 0.000000 0.000000
# 5 0.000000 0.000000 0.000000 0.000000 0.026037 0.000000
# 6 0.000000 0.000000 0.000000 0.000000 0.000000 0.038276
#
#
# Mechanical properties :
#
#
# Convention : Reuss Voigt Hill
#
# Bulk Modulus (GPa) = 53.13170 71.59105 62.36138
# Shear Modulus (GPa) = 25.48383 30.70728 28.09556
#
# Velocity S-wave (km/s) = 3.48108 3.82122 3.65511
# Velocity P-wave (km/s) = 6.43600 7.31516 6.88962
#
# Compressibility (1/GPa) = 0.01882116
#
# Stress axis : x y z
#
# Youngs Moduli (GPa) = 88.56558 56.90031 112.44805
#
# Poissons Ratio (x) = 0.10653 0.57959
# Poissons Ratio (y) = 0.16582 0.27462
# Poissons Ratio (z) = 0.45650 0.13896
#
# Static dielectric constant tensor:
#      x y z
#    x 3.748920 0.000000 0.000000 
#    y 0.000000 3.765740 0.000000 
#    z 0.000000 0.000000 4.280040 
# 
# 
# High freq. dielectric constant tensor:
#      x y z
#    x 1.819510 0.000000 0.000000 
#    y 0.000000 1.814130 0.000000 
#    z 0.000000 0.000000 1.826530 
# 
# From -- ./inp_files/10503.got.cif
#   From: 2010.03.12/outbox.cif.g09.slc.cpg/sg35_6_cif.got.tgz:10503.got - 2010.04.14 02:02:04.
