data_PCOD8174833
_publ_section_title
;
Structure prediction by ZEFSAII (Michael W. Deem and Ramdas Pophale) SiO2 
 PCOD8174833
Probable space group: C M C 21
;
_chemical_formula_sum "Si O2"
_cell_formula_units_Z 64
_cell_length_a 8.684165
_cell_length_b 29.103214
_cell_length_c 12.550707
_cell_angle_alpha 90.000000
_cell_angle_beta 90.000000
_cell_angle_gamma 90.000000
_cell_volume 3172.029446
_symmetry_space_group_name_H-M "C M C 21"
_symmetry_group_IT_number 36
_symmetry_cell_setting 'orthorhombic'
loop_
_space_group_symop_operation_xyz
x,y,z
-x,-y,1/2+z
x,-y,1/2+z
-x,y,z
1/2+x,1/2+y,z
1/2-x,1/2-y,1/2+z
1/2+x,1/2-y,1/2+z
1/2-x,1/2+y,z
loop_
_atom_site_type_symbol
_atom_site_label
_atom_site_fract_x
_atom_site_fract_y
_atom_site_fract_z
Si Si1 0.817894 0.567117 0.881620
Si Si2 0.316983 0.723682 0.152651
Si Si3 0.182922 0.182004 0.588992
Si Si4 0.184260 0.025043 0.446958
Si Si5 0.316030 0.630840 0.047871
Si Si6 0.317356 0.582520 0.654699
Si Si7 0.830550 0.083442 0.257692
Si Si8 0.330130 0.320638 0.860177
O O1 0.752226 0.525959 0.954616
O O2 0.757929 0.562262 0.761225
O O3 0.000000 0.566610 0.881803
O O4 0.757921 0.614100 0.937285
O O5 0.500000 0.729513 0.153522
O O6 0.236298 0.772442 0.146710
O O7 0.271763 0.684813 0.064739
O O8 0.247319 0.705615 0.264236
O O9 0.240693 0.135338 0.645143
O O10 0.259056 0.185207 0.471335
O O11 0.000000 0.179351 0.581837
O O12 0.238434 0.053450 0.551463
O O13 0.251744 0.045789 0.334267
O O14 0.000000 0.024219 0.442900
O O15 0.500000 0.626346 0.045301
O O16 0.249697 0.599380 0.146855
O O17 0.500000 0.579313 0.666597
O O18 0.845923 0.125991 0.336689
O O19 0.000000 0.064790 0.227012
O O20 0.500000 0.299042 0.872043
#
# Coordination Sequence:
#
# PCOD8174833 Si02
#       8
#     8   8   8   8   8   8   8   8
#     4  12  27  41  56  84 127 165 194 240 308 367
#     4   9  19  34  56  85 118 154 194 240 294 352
#     4  10  19  34  59  87 115 148 193 244 290 345
#     4  10  20  38  65  90 110 144 201 252 294 351
#     4   9  19  38  61  85 115 154 204 247 285 348
#     4  10  22  41  64  89 117 154 204 250 289 353
#     4   8  14  30  60  87 103 132 187 247 290 332
#     4   8  14  30  53  79 107 139 183 236 288 334
#
# _framework density 20.176355999999998
#
# number of rings (size 3 to 8) (size 9 to 14) (size 15 to 20)
#    0.000    2.500    1.250    2.625    1.750    2.500 
#    0.000    3.125    0.000    1.500    0.000    0.000 
#    0.000    0.000    0.000    0.000    0.000    0.000 
#
# Total GULP energy -396431.981290 kJ/mol
# GULP energy per Si atom -12388.499415 kJ/mol
# Density = 2.013043 g / cm^3
# Si number density = 20.176356 Si / 1000 Ang^3
#
#
#
# Elastic Constant Matrix: (Units=GPa)
#
#
# Indices 1 2 3 4 5 6 
#
# 1 35.6078 26.4368 25.7733 0.0000 0.0000 0.0000
# 2 26.4368 120.6138 42.6266 0.0000 0.0000 0.0000
# 3 25.7733 42.6266 93.2925 0.0000 0.0000 0.0000
# 4 0.0000 0.0000 0.0000 29.5048 0.0000 0.0000
# 5 0.0000 0.0000 0.0000 0.0000 13.2773 0.0000
# 6 0.0000 0.0000 0.0000 0.0000 0.0000 24.9522
#
#
#
# Elastic Compliance Matrix: (Units=1/GPa)
#
#
# Indices 1 2 3 4 5 6 
#
# 1 0.037933 -0.005499 -0.007967 0.000000 0.000000 0.000000
# 2 -0.005499 0.010685 -0.003363 0.000000 0.000000 0.000000
# 3 -0.007967 -0.003363 0.014457 0.000000 0.000000 0.000000
# 4 0.000000 0.000000 0.000000 0.033893 0.000000 0.000000
# 5 0.000000 0.000000 0.000000 0.000000 0.075316 0.000000
# 6 0.000000 0.000000 0.000000 0.000000 0.000000 0.040077
#
#
# Mechanical properties :
#
#
# Convention : Reuss Voigt Hill
#
# Bulk Modulus (GPa) = 33.99412 48.79862 41.39637
# Shear Modulus (GPa) = 19.54479 23.85868 21.70174
#
# Velocity S-wave (km/s) = 3.11577 3.44249 3.28320
# Velocity P-wave (km/s) = 5.46160 6.32768 5.91053
#
# Compressibility (1/GPa) = 0.02941685
#
# Stress axis : x y z
#
# Youngs Moduli (GPa) = 26.36237 93.59219 69.17300
#
# Poissons Ratio (x) = 0.51463 0.55110
# Poissons Ratio (y) = 0.14496 0.23262
# Poissons Ratio (z) = 0.21003 0.31474
#
# Static dielectric constant tensor:
#      x y z
#    x 3.118970 0.000000 0.000000 
#    y 0.000000 3.758640 0.000000 
#    z 0.000000 0.000000 3.919990 
# 
# 
# High freq. dielectric constant tensor:
#      x y z
#    x 1.732440 0.000000 0.000000 
#    y 0.000000 1.792000 0.000000 
#    z 0.000000 0.000000 1.798000 
# 
# From -- ./inp_files/7140.got.cif
#   From: 2010.03.12/outbox.cif.g09.slc.cpg/sg36_4_cif.got.tgz:7140.got - 2010.04.14 02:13:53.
