data_PCOD8174325
_publ_section_title
;
Structure prediction by ZEFSAII (Michael W. Deem and Ramdas Pophale) SiO2 
 PCOD8174325
Probable space group: C M C 21
;
_chemical_formula_sum "Si O2"
_cell_formula_units_Z 56
_cell_length_a 29.841874
_cell_length_b 16.701401
_cell_length_c 5.152310
_cell_angle_alpha 90.000000
_cell_angle_beta 90.000000
_cell_angle_gamma 90.000000
_cell_volume 2567.916994
_symmetry_space_group_name_H-M "C M C 21"
_symmetry_group_IT_number 36
_symmetry_cell_setting 'orthorhombic'
loop_
_space_group_symop_operation_xyz
x,y,z
-x,-y,1/2+z
x,-y,1/2+z
-x,y,z
1/2+x,1/2+y,z
1/2-x,1/2-y,1/2+z
1/2+x,1/2-y,1/2+z
1/2-x,1/2+y,z
loop_
_atom_site_type_symbol
_atom_site_label
_atom_site_fract_x
_atom_site_fract_y
_atom_site_fract_z
Si Si1 0.000000 0.924809 0.086421
Si Si2 0.406099 0.719731 0.232773
Si Si3 0.235423 0.029906 0.716462
Si Si4 0.165961 0.540512 0.203409
Si Si5 0.595729 0.539678 0.429587
Si Si6 0.638877 0.222851 0.217869
Si Si7 0.731062 0.288455 0.146431
Si Si8 0.500000 0.680427 0.100652
O O1 0.000000 0.886912 0.375944
O O2 0.043188 0.978093 0.005813
O O3 0.000000 0.850705 0.893410
O O4 0.397233 0.628127 0.318431
O O5 0.400020 0.771594 0.497539
O O6 0.454568 0.733004 0.096117
O O7 0.372684 0.747527 0.006568
O O8 0.245589 0.123348 0.736195
O O9 0.207456 0.005509 0.459408
O O10 0.280980 0.977328 0.687509
O O11 0.143250 0.492682 0.441353
O O12 0.157303 0.633672 0.238028
O O13 0.616687 0.522290 0.715847
O O14 0.677808 0.281461 0.112381
O O15 0.746524 0.227834 0.369875
#
# Coordination Sequence:
#
# PCOD8174325 Si02
#       8
#     4   8   8   8   8   8   8   4
#     4  10  18  31  56  90 112 151 211 260 305 365
#     4  11  24  41  60  93 127 169 220 267 326 385
#     4  10  20  36  57  85 116 156 202 242 295 370
#     4  10  19  36  60  89 119 150 198 258 308 369
#     4  11  20  34  55  81 119 163 207 261 311 367
#     4  12  24  40  64  95 128 163 212 270 318 385
#     4  12  23  40  64  92 126 165 202 257 325 387
#     4  10  20  39  62  84 126 169 209 266 325 385
#
# _framework density 21.807558
#
# number of rings (size 3 to 8) (size 9 to 14) (size 15 to 20)
#    0.000    1.143    0.000   10.714    0.000    0.000 
#    0.000    4.286    0.000    0.000    0.000   10.000 
#    0.000    0.000    0.000    0.000    0.000    0.000 
#
# Total GULP energy -346924.885940 kJ/mol
# GULP energy per Si atom -12390.174498 kJ/mol
# Density = 2.175792 g / cm^3
# Si number density = 21.807558 Si / 1000 Ang^3
#
#
#
# Elastic Constant Matrix: (Units=GPa)
#
#
# Indices 1 2 3 4 5 6 
#
# 1 38.9123 25.3040 19.4349 0.0000 0.0000 0.0000
# 2 25.3040 109.2522 39.3514 0.0000 0.0000 0.0000
# 3 19.4349 39.3514 165.7663 0.0000 0.0000 0.0000
# 4 0.0000 0.0000 0.0000 44.4225 0.0000 0.0000
# 5 0.0000 0.0000 0.0000 0.0000 27.7845 0.0000
# 6 0.0000 0.0000 0.0000 0.0000 0.0000 28.4488
#
#
#
# Elastic Compliance Matrix: (Units=1/GPa)
#
#
# Indices 1 2 3 4 5 6 
#
# 1 0.030913 -0.006402 -0.002105 0.000000 0.000000 0.000000
# 2 -0.006402 0.011335 -0.001940 0.000000 0.000000 0.000000
# 3 -0.002105 -0.001940 0.006740 0.000000 0.000000 0.000000
# 4 0.000000 0.000000 0.000000 0.022511 0.000000 0.000000
# 5 0.000000 0.000000 0.000000 0.000000 0.035991 0.000000
# 6 0.000000 0.000000 0.000000 0.000000 0.000000 0.035151
#
#
# Mechanical properties :
#
#
# Convention : Reuss Voigt Hill
#
# Bulk Modulus (GPa) = 35.59420 53.56792 44.58106
# Shear Modulus (GPa) = 28.91869 35.45386 32.18628
#
# Velocity S-wave (km/s) = 3.64550 4.03645 3.84594
# Velocity P-wave (km/s) = 5.83754 6.80743 6.34106
#
# Compressibility (1/GPa) = 0.02809447
#
# Stress axis : x y z
#
# Youngs Moduli (GPa) = 32.34901 88.22494 148.36962
#
# Poissons Ratio (x) = 0.56479 0.31226
# Poissons Ratio (y) = 0.20709 0.28787
# Poissons Ratio (z) = 0.06808 0.17117
#
# Static dielectric constant tensor:
#      x y z
#    x 4.152740 0.000000 0.000000 
#    y 0.000000 3.622940 0.000000 
#    z 0.000000 0.000000 6.360150 
# 
# 
# High freq. dielectric constant tensor:
#      x y z
#    x 1.822560 0.000000 0.000000 
#    y 0.000000 1.835730 0.000000 
#    z 0.000000 0.000000 1.902330 
# 
# From -- ./inp_files/1877.got.cif
#   From: 2010.03.12/outbox.cif.g09.slc.cpg/sg36_1_cif.got.tgz:1877.got - 2010.04.14 02:13:53.
