data_PCOD8174932
_publ_section_title
;
Structure prediction by ZEFSAII (Michael W. Deem and Ramdas Pophale) SiO2 
 PCOD8174932
Probable space group: C M C 21
;
_chemical_formula_sum "Si O2"
_cell_formula_units_Z 48
_cell_length_a 8.562784
_cell_length_b 27.080226
_cell_length_c 10.073911
_cell_angle_alpha 90.000000
_cell_angle_beta 90.000000
_cell_angle_gamma 90.000000
_cell_volume 2335.959899
_symmetry_space_group_name_H-M "C M C 21"
_symmetry_group_IT_number 36
_symmetry_cell_setting 'orthorhombic'
loop_
_space_group_symop_operation_xyz
x,y,z
-x,-y,1/2+z
x,-y,1/2+z
-x,y,z
1/2+x,1/2+y,z
1/2-x,1/2-y,1/2+z
1/2+x,1/2-y,1/2+z
1/2-x,1/2+y,z
loop_
_atom_site_type_symbol
_atom_site_label
_atom_site_fract_x
_atom_site_fract_y
_atom_site_fract_z
Si Si1 0.686029 0.361550 0.549280
Si Si2 0.316335 0.532105 0.956500
Si Si3 0.183892 0.179163 0.324304
Si Si4 0.681465 0.037257 0.675304
Si Si5 0.318782 0.361550 0.100277
Si Si6 0.320104 0.286180 0.327743
O O1 0.500000 0.362201 0.550420
O O2 0.748611 0.415539 0.509934
O O3 0.754898 0.346810 0.693305
O O4 0.746392 0.321722 0.442889
O O5 0.500000 0.534509 0.928282
O O6 0.230906 0.517861 0.820007
O O7 0.281013 0.490502 0.064001
O O8 0.247186 0.150589 0.453789
O O9 0.223087 0.236466 0.328303
O O10 0.000000 0.174200 0.322681
O O11 0.500000 0.026734 0.652651
O O12 0.717324 0.095240 0.664620
O O13 0.500000 0.377852 0.099640
O O14 0.296835 0.312330 0.186531
O O15 0.500000 0.273237 0.354211
#
# Coordination Sequence:
#
# PCOD8174932 Si02
#       6
#     8   8   8   8   8   8
#     4   9  19  37  60  86 117 154 204 253 291 355
#     4  11  23  44  70  92 120 169 216 251 308 386
#     4  10  21  35  57  90 120 155 205 254 302 364
#     4  12  26  43  64  97 131 158 201 268 326 366
#     4  10  21  39  61  86 121 165 210 249 299 381
#     4  10  19  36  58  83 119 161 206 253 302 362
#
# _framework density 20.548297999999999
#
# number of rings (size 3 to 8) (size 9 to 14) (size 15 to 20)
#    0.000    1.667    1.667    3.000    2.333    1.333 
#    0.000    1.667    0.000    0.000    0.000    0.000 
#    0.000    0.000    0.000    0.000    0.000    0.000 
#
# Total GULP energy -297704.312089 kJ/mol
# GULP energy per Si atom -12404.346337 kJ/mol
# Density = 2.050153 g / cm^3
# Si number density = 20.548298 Si / 1000 Ang^3
#
#
#
# Elastic Constant Matrix: (Units=GPa)
#
#
# Indices 1 2 3 4 5 6 
#
# 1 32.2195 10.0908 17.0358 0.0000 0.0000 0.0000
# 2 10.0908 72.1467 27.0367 0.0000 0.0000 0.0000
# 3 17.0358 27.0367 151.3729 0.0000 0.0000 0.0000
# 4 0.0000 0.0000 0.0000 38.7457 0.0000 0.0000
# 5 0.0000 0.0000 0.0000 0.0000 21.5823 0.0000
# 6 0.0000 0.0000 0.0000 0.0000 0.0000 31.9869
#
#
#
# Elastic Compliance Matrix: (Units=1/GPa)
#
#
# Indices 1 2 3 4 5 6 
#
# 1 0.033825 -0.003541 -0.003174 0.000000 0.000000 0.000000
# 2 -0.003541 0.015226 -0.002321 0.000000 0.000000 0.000000
# 3 -0.003174 -0.002321 0.007378 0.000000 0.000000 0.000000
# 4 0.000000 0.000000 0.000000 0.025809 0.000000 0.000000
# 5 0.000000 0.000000 0.000000 0.000000 0.046334 0.000000
# 6 0.000000 0.000000 0.000000 0.000000 0.000000 0.031263
#
#
# Mechanical properties :
#
#
# Convention : Reuss Voigt Hill
#
# Bulk Modulus (GPa) = 26.07196 40.45173 33.26184
# Shear Modulus (GPa) = 26.22023 31.90138 29.06081
#
# Velocity S-wave (km/s) = 3.57603 3.94446 3.76476
# Velocity P-wave (km/s) = 5.45585 6.36191 5.92622
#
# Compressibility (1/GPa) = 0.03835538
#
# Stress axis : x y z
#
# Youngs Moduli (GPa) = 29.56433 65.67841 135.53876
#
# Poissons Ratio (x) = 0.23259 0.43022
# Poissons Ratio (y) = 0.10470 0.31457
# Poissons Ratio (z) = 0.09384 0.15243
#
# Static dielectric constant tensor:
#      x y z
#    x 3.394520 0.000000 0.000000 
#    y 0.000000 3.651060 0.000000 
#    z 0.000000 0.000000 4.158020 
# 
# 
# High freq. dielectric constant tensor:
#      x y z
#    x 1.773140 0.000000 0.000000 
#    y 0.000000 1.807260 0.000000 
#    z 0.000000 0.000000 1.824880 
# 
# From -- ./inp_files/2704.got.cif
#   From: 2010.03.12/outbox.cif.g09.slc.cpg/sg36_2_cif.got.tgz:2704.got - 2010.04.14 02:13:53.
