data_PCOD8174470
_publ_section_title
;
Structure prediction by ZEFSAII (Michael W. Deem and Ramdas Pophale) SiO2 
 PCOD8174470
Probable space group: C M C 21
;
_chemical_formula_sum "Si O2"
_cell_formula_units_Z 64
_cell_length_a 9.168538
_cell_length_b 19.985354
_cell_length_c 20.060063
_cell_angle_alpha 90.000000
_cell_angle_beta 90.000000
_cell_angle_gamma 90.000000
_cell_volume 3675.735284
_symmetry_space_group_name_H-M "C M C 21"
_symmetry_group_IT_number 36
_symmetry_cell_setting 'orthorhombic'
loop_
_space_group_symop_operation_xyz
x,y,z
-x,-y,1/2+z
x,-y,1/2+z
-x,y,z
1/2+x,1/2+y,z
1/2-x,1/2-y,1/2+z
1/2+x,1/2-y,1/2+z
1/2-x,1/2+y,z
loop_
_atom_site_type_symbol
_atom_site_label
_atom_site_fract_x
_atom_site_fract_y
_atom_site_fract_z
Si Si1 0.673532 0.669425 0.100630
Si Si2 0.326695 0.225531 0.857583
Si Si3 0.331321 0.771523 0.990251
Si Si4 0.830693 0.947177 0.840604
Si Si5 0.334120 0.406602 0.366438
Si Si6 0.668324 0.546389 0.015878
Si Si7 0.667899 0.922335 0.974620
Si Si8 0.328463 0.670433 0.248346
O O1 0.500000 0.668810 0.103298
O O2 0.727425 0.598570 0.070698
O O3 0.741125 0.678223 0.174675
O O4 0.726748 0.730408 0.054130
O O5 0.500000 0.227170 0.862950
O O6 0.261722 0.251014 0.926615
O O7 0.273831 0.150705 0.840821
O O8 0.267649 0.273091 0.798304
O O9 0.500000 0.753890 0.974859
O O10 0.311936 0.849584 0.007744
O O11 0.738204 0.919876 0.901898
O O12 0.789833 0.903540 0.775957
O O13 0.000000 0.938230 0.860734
O O14 0.798045 0.025248 0.825856
O O15 0.500000 0.383599 0.353904
O O16 0.307226 0.419783 0.444284
O O17 0.500000 0.528555 0.027161
O O18 0.757240 0.477392 0.022056
O O19 0.500000 0.941756 0.966519
O O20 0.500000 0.679572 0.242653
#
# Coordination Sequence:
#
# PCOD8174470 Si02
#       8
#     8   8   8   8   8   8   8   8
#     4   9  17  33  54  73  97 134 178 210 245 305
#     4  11  20  30  50  78 104 129 164 216 258 290
#     4  10  19  33  52  74 100 135 172 204 249 306
#     4   9  17  32  51  72  98 129 167 207 248 295
#     4   9  17  30  49  72  99 129 163 202 249 302
#     4   9  17  31  52  73  96 130 168 208 247 293
#     4  10  19  29  48  76 103 128 160 207 255 296
#     4   9  18  32  52  76  99 130 174 216 251 295
#
# _framework density 17.411483
#
# number of rings (size 3 to 8) (size 9 to 14) (size 15 to 20)
#    0.000    2.500    2.500    1.500    0.000    2.500 
#    0.000    1.250    0.000    4.500    0.000    0.000 
#    0.000    0.000    0.000    0.000    0.000    0.000 
#
# Total GULP energy -396732.596767 kJ/mol
# GULP energy per Si atom -12397.893649 kJ/mol
# Density = 1.737185 g / cm^3
# Si number density = 17.411483 Si / 1000 Ang^3
#
#
#
# Elastic Constant Matrix: (Units=GPa)
#
#
# Indices 1 2 3 4 5 6 
#
# 1 56.3571 48.2658 32.9091 0.0000 0.0000 0.0000
# 2 48.2658 148.8073 77.7958 0.0000 0.0000 0.0000
# 3 32.9091 77.7958 123.1828 0.0000 0.0000 0.0000
# 4 0.0000 0.0000 0.0000 27.1946 0.0000 0.0000
# 5 0.0000 0.0000 0.0000 0.0000 14.4713 0.0000
# 6 0.0000 0.0000 0.0000 0.0000 0.0000 28.5971
#
#
#
# Elastic Compliance Matrix: (Units=1/GPa)
#
#
# Indices 1 2 3 4 5 6 
#
# 1 0.025008 -0.006895 -0.002326 0.000000 0.000000 0.000000
# 2 -0.006895 0.011934 -0.005695 0.000000 0.000000 0.000000
# 3 -0.002326 -0.005695 0.012336 0.000000 0.000000 0.000000
# 4 0.000000 0.000000 0.000000 0.036772 0.000000 0.000000
# 5 0.000000 0.000000 0.000000 0.000000 0.069103 0.000000
# 6 0.000000 0.000000 0.000000 0.000000 0.000000 0.034969
#
#
# Mechanical properties :
#
#
# Convention : Reuss Voigt Hill
#
# Bulk Modulus (GPa) = 51.42684 71.80982 61.61833
# Shear Modulus (GPa) = 22.08149 25.34435 23.71292
#
# Velocity S-wave (km/s) = 3.56506 3.81939 3.69441
# Velocity P-wave (km/s) = 6.82250 7.79632 7.32561
#
# Compressibility (1/GPa) = 0.01944510
#
# Stress axis : x y z
#
# Youngs Moduli (GPa) = 39.98794 83.79694 81.06389
#
# Poissons Ratio (x) = 0.57778 0.18859
# Poissons Ratio (y) = 0.27572 0.46163
# Poissons Ratio (z) = 0.09303 0.47719
#
# Static dielectric constant tensor:
#      x y z
#    x 3.034390 0.000000 0.000000 
#    y 0.000000 3.540620 0.000000 
#    z 0.000000 0.000000 3.253050 
# 
# 
# High freq. dielectric constant tensor:
#      x y z
#    x 1.647840 0.000000 0.000000 
#    y 0.000000 1.689640 0.000000 
#    z 0.000000 0.000000 1.645450 
# 
# From -- ./inp_files/13981.got.cif
#   From: 2010.03.12/outbox.cif.g09.slc.cpg/sg36_7_cif.got.tgz:13981.got - 2010.04.14 02:13:53.
