data_PCOD8174020
_publ_section_title
;
Structure prediction by ZEFSAII (Michael W. Deem and Ramdas Pophale) SiO2 
 PCOD8174020
Probable space group: C M M 2
;
_chemical_formula_sum "Si O2"
_cell_formula_units_Z 64
_cell_length_a 29.010233
_cell_length_b 8.883014
_cell_length_c 12.338786
_cell_angle_alpha 90.000000
_cell_angle_beta 90.000000
_cell_angle_gamma 90.000000
_cell_volume 3179.684249
_symmetry_space_group_name_H-M "C M M 2"
_symmetry_group_IT_number 35
_symmetry_cell_setting 'orthorhombic'
loop_
_space_group_symop_operation_xyz
x,y,z
-x,-y,z
-x,y,z
x,-y,z
1/2+x,1/2+y,z
1/2-x,1/2-y,z
1/2-x,1/2+y,z
1/2+x,1/2-y,z
loop_
_atom_site_type_symbol
_atom_site_label
_atom_site_fract_x
_atom_site_fract_y
_atom_site_fract_z
Si Si1 0.203070 0.675878 0.801790
Si Si2 0.103329 0.321348 0.278646
Si Si3 0.112136 0.823954 0.867717
Si Si4 0.917602 0.176705 0.496353
Si Si5 0.826623 0.671141 0.562498
Si Si6 0.449336 0.828654 0.695070
Si Si7 0.795006 0.330213 0.329040
Si Si8 0.946114 0.824291 0.078479
O O1 0.205370 0.500000 0.823537
O O2 0.250000 0.750000 0.844604
O O3 0.161277 0.741593 0.873408
O O4 0.198505 0.714097 0.674010
O O5 0.101730 0.500000 0.295255
O O6 0.075949 0.242548 0.376225
O O7 0.156767 0.264358 0.281532
O O8 0.078045 0.275305 0.169458
O O9 0.086421 0.772105 0.759989
O O10 0.121255 0.000000 0.861375
O O11 0.079935 0.780229 0.968450
O O12 0.867324 0.210910 0.544712
O O13 0.953649 0.261021 0.574286
O O14 0.927384 0.000000 0.494160
O O15 0.846279 0.500000 0.568319
O O16 0.792729 0.684549 0.459779
O O17 0.500000 0.820828 0.748361
O O18 0.431164 0.000000 0.692805
O O19 0.791002 0.500000 0.290053
O O20 0.750000 0.250000 0.279415
O O21 0.000000 0.781715 0.067783
O O22 0.940135 0.000000 0.105843
#
# Coordination Sequence:
#
# PCOD8174020 Si02
#       8
#     8   8   8   8   8   8   8   8
#     4  11  22  36  58  87 124 165 207 252 299 357
#     4  10  22  40  61  87 121 157 199 249 302 359
#     4  11  23  41  64  90 122 157 198 251 310 367
#     4  11  21  34  57  86 120 161 200 244 300 360
#     4   9  18  33  52  79 120 162 200 246 294 347
#     4  11  23  38  58  86 121 160 200 245 302 367
#     4   9  18  32  52  82 118 157 197 239 287 343
#     4  10  23  44  68  92 117 149 196 254 309 365
#
# _framework density 20.127784999999999
#
# number of rings (size 3 to 8) (size 9 to 14) (size 15 to 20)
#    0.000    1.750    1.250    4.125    0.000    6.250 
#    0.000    0.625    0.000    1.500    0.000    0.000 
#    0.000    0.000    0.000    0.000    0.000    0.000 
#
# Total GULP energy -396781.572183 kJ/mol
# GULP energy per Si atom -12399.424131 kJ/mol
# Density = 2.008197 g / cm^3
# Si number density = 20.127785 Si / 1000 Ang^3
#
#
#
# Elastic Constant Matrix: (Units=GPa)
#
#
# Indices 1 2 3 4 5 6 
#
# 1 129.8126 41.1423 44.4847 0.0000 0.0000 0.0000
# 2 41.1423 88.0721 39.3552 0.0000 0.0000 0.0000
# 3 44.4847 39.3552 85.4613 0.0000 0.0000 0.0000
# 4 0.0000 0.0000 0.0000 29.0685 0.0000 0.0000
# 5 0.0000 0.0000 0.0000 0.0000 24.3351 0.0000
# 6 0.0000 0.0000 0.0000 0.0000 0.0000 33.4574
#
#
#
# Elastic Compliance Matrix: (Units=1/GPa)
#
#
# Indices 1 2 3 4 5 6 
#
# 1 0.009945 -0.002937 -0.003824 0.000000 0.000000 0.000000
# 2 -0.002937 0.015163 -0.005454 0.000000 0.000000 0.000000
# 3 -0.003824 -0.005454 0.016203 0.000000 0.000000 0.000000
# 4 0.000000 0.000000 0.000000 0.034401 0.000000 0.000000
# 5 0.000000 0.000000 0.000000 0.000000 0.041093 0.000000
# 6 0.000000 0.000000 0.000000 0.000000 0.000000 0.029889
#
#
# Mechanical properties :
#
#
# Convention : Reuss Voigt Hill
#
# Bulk Modulus (GPa) = 59.23643 61.47894 60.35768
# Shear Modulus (GPa) = 28.28830 29.26314 28.77572
#
# Velocity S-wave (km/s) = 3.75298 3.81710 3.78518
# Velocity P-wave (km/s) = 6.94794 7.07373 7.01112
#
# Compressibility (1/GPa) = 0.01688150
#
# Stress axis : x y z
#
# Youngs Moduli (GPa) = 100.55694 65.94823 61.71572
#
# Poissons Ratio (x) = 0.19368 0.23600
# Poissons Ratio (y) = 0.29531 0.33660
# Poissons Ratio (z) = 0.38453 0.35969
#
# Static dielectric constant tensor:
#      x y z
#    x 3.698180 0.000000 0.000000 
#    y 0.000000 3.575880 0.000000 
#    z 0.000000 0.000000 3.548020 
# 
# 
# High freq. dielectric constant tensor:
#      x y z
#    x 1.790610 0.000000 0.000000 
#    y 0.000000 1.787550 0.000000 
#    z 0.000000 0.000000 1.766510 
# 
# From -- ./inp_files/14527.got.cif
#   From: 2010.03.12/outbox.cif.g09.slc.cpg/sg35_8_cif.got.tgz:14527.got - 2010.04.14 02:02:04.
