data_PCOD8174432
_publ_section_title
;
Structure prediction by ZEFSAII (Michael W. Deem and Ramdas Pophale) SiO2 
 PCOD8174432
Probable space group: C M C 21
;
_chemical_formula_sum "Si O2"
_cell_formula_units_Z 64
_cell_length_a 8.888491
_cell_length_b 19.685321
_cell_length_c 18.684810
_cell_angle_alpha 90.000000
_cell_angle_beta 90.000000
_cell_angle_gamma 90.000000
_cell_volume 3269.333496
_symmetry_space_group_name_H-M "C M C 21"
_symmetry_group_IT_number 36
_symmetry_cell_setting 'orthorhombic'
loop_
_space_group_symop_operation_xyz
x,y,z
-x,-y,1/2+z
x,-y,1/2+z
-x,y,z
1/2+x,1/2+y,z
1/2-x,1/2-y,1/2+z
1/2+x,1/2-y,1/2+z
1/2-x,1/2+y,z
loop_
_atom_site_type_symbol
_atom_site_label
_atom_site_fract_x
_atom_site_fract_y
_atom_site_fract_z
Si Si1 0.823113 0.274545 0.329220
Si Si2 0.175283 0.079959 0.462567
Si Si3 0.677556 0.622984 0.308121
Si Si4 0.325945 0.300778 0.476432
Si Si5 0.179636 0.020590 0.189146
Si Si6 0.321989 0.631870 0.716215
Si Si7 0.174624 0.941685 0.534015
Si Si8 0.827448 0.324152 0.075591
O O1 0.779057 0.201542 0.294810
O O2 0.772734 0.273149 0.411346
O O3 0.739859 0.335106 0.288630
O O4 0.000000 0.286711 0.324723
O O5 0.241081 0.097830 0.384601
O O6 0.266916 0.119758 0.521809
O O7 0.000000 0.099624 0.470273
O O8 0.201338 0.000245 0.475741
O O9 0.500000 0.613496 0.310074
O O10 0.744788 0.575969 0.245154
O O11 0.500000 0.306673 0.452035
O O12 0.256532 0.372646 0.501951
O O13 0.308108 0.250321 0.542875
O O14 0.236109 0.945746 0.211594
O O15 0.000000 0.021291 0.187767
O O16 0.246426 0.038504 0.110823
O O17 0.500000 0.634788 0.717738
O O18 0.264070 0.674882 0.649064
O O19 0.000000 0.928335 0.547777
O O20 0.000000 0.340484 0.092689
#
# Coordination Sequence:
#
# PCOD8174432 Si02
#       8
#     8   8   8   8   8   8   8   8
#     4  11  23  39  59  85 120 154 187 236 293 350
#     4  10  18  35  60  85 109 146 194 240 284 334
#     4   9  19  33  56  84 113 148 192 239 286 337
#     4  10  22  38  60  87 115 151 195 242 283 338
#     4   9  18  34  58  85 108 143 196 247 281 325
#     4  11  23  39  62  86 114 151 195 240 284 343
#     4   9  18  33  58  86 111 142 196 248 279 324
#     4  11  22  37  59  86 118 151 187 234 290 347
#
# _framework density 19.575855000000001
#
# number of rings (size 3 to 8) (size 9 to 14) (size 15 to 20)
#    0.000    2.000    2.500    1.125    3.500    0.500 
#    0.000    0.625    0.000    3.000    0.000    0.000 
#    0.000    0.000    0.000    0.000    0.000    0.000 
#
# Total GULP energy -396852.945403 kJ/mol
# GULP energy per Si atom -12401.654544 kJ/mol
# Density = 1.953130 g / cm^3
# Si number density = 19.575855 Si / 1000 Ang^3
#
#
#
# Elastic Constant Matrix: (Units=GPa)
#
#
# Indices 1 2 3 4 5 6 
#
# 1 49.7761 36.4139 22.7394 0.0000 0.0000 0.0000
# 2 36.4139 121.8469 31.2181 0.0000 0.0000 0.0000
# 3 22.7394 31.2181 83.4611 0.0000 0.0000 0.0000
# 4 0.0000 0.0000 0.0000 40.9243 0.0000 0.0000
# 5 0.0000 0.0000 0.0000 0.0000 26.8042 0.0000
# 6 0.0000 0.0000 0.0000 0.0000 0.0000 17.1500
#
#
#
# Elastic Compliance Matrix: (Units=1/GPa)
#
#
# Indices 1 2 3 4 5 6 
#
# 1 0.027389 -0.006938 -0.004867 0.000000 0.000000 0.000000
# 2 -0.006938 0.010834 -0.002162 0.000000 0.000000 0.000000
# 3 -0.004867 -0.002162 0.014116 0.000000 0.000000 0.000000
# 4 0.000000 0.000000 0.000000 0.024435 0.000000 0.000000
# 5 0.000000 0.000000 0.000000 0.000000 0.037308 0.000000
# 6 0.000000 0.000000 0.000000 0.000000 0.000000 0.058309
#
#
# Mechanical properties :
#
#
# Convention : Reuss Voigt Hill
#
# Bulk Modulus (GPa) = 40.97529 48.42520 44.70025
# Shear Modulus (GPa) = 23.98517 27.95655 25.97086
#
# Velocity S-wave (km/s) = 3.50414 3.78314 3.64631
# Velocity P-wave (km/s) = 6.11138 6.62373 6.37271
#
# Compressibility (1/GPa) = 0.02440495
#
# Stress axis : x y z
#
# Youngs Moduli (GPa) = 36.51091 92.29785 70.83929
#
# Poissons Ratio (x) = 0.64038 0.34478
# Poissons Ratio (y) = 0.25332 0.15317
# Poissons Ratio (z) = 0.17770 0.19957
#
# Static dielectric constant tensor:
#      x y z
#    x 3.234890 0.000000 0.000000 
#    y 0.000000 3.774570 0.000000 
#    z 0.000000 0.000000 3.758660 
# 
# 
# High freq. dielectric constant tensor:
#      x y z
#    x 1.720980 0.000000 0.000000 
#    y 0.000000 1.777220 0.000000 
#    z 0.000000 0.000000 1.770860 
# 
# From -- ./inp_files/13946.got.cif
#   From: 2010.03.12/outbox.cif.g09.slc.cpg/sg36_7_cif.got.tgz:13946.got - 2010.04.14 02:13:53.
