data_PCOD8174554
_publ_section_title
;
Structure prediction by ZEFSAII (Michael W. Deem and Ramdas Pophale) SiO2 
 PCOD8174554
Probable space group: C M C 21
;
_chemical_formula_sum "Si O2"
_cell_formula_units_Z 64
_cell_length_a 9.793556
_cell_length_b 27.221568
_cell_length_c 13.051426
_cell_angle_alpha 90.000000
_cell_angle_beta 90.000000
_cell_angle_gamma 90.000000
_cell_volume 3479.457321
_symmetry_space_group_name_H-M "C M C 21"
_symmetry_group_IT_number 36
_symmetry_cell_setting 'orthorhombic'
loop_
_space_group_symop_operation_xyz
x,y,z
-x,-y,1/2+z
x,-y,1/2+z
-x,y,z
1/2+x,1/2+y,z
1/2-x,1/2-y,1/2+z
1/2+x,1/2-y,1/2+z
1/2-x,1/2+y,z
loop_
_atom_site_type_symbol
_atom_site_label
_atom_site_fract_x
_atom_site_fract_y
_atom_site_fract_z
Si Si1 0.836675 0.555120 0.080660
Si Si2 0.849369 0.777779 0.176064
Si Si3 0.157723 0.700563 0.346975
Si Si4 0.152364 0.737497 0.964025
Si Si5 0.838806 0.408632 0.799272
Si Si6 0.839858 0.369101 0.412776
Si Si7 0.837594 0.551396 0.515187
Si Si8 0.839736 0.630540 0.681562
O O1 0.779566 0.567665 0.194538
O O2 0.000000 0.555971 0.080633
O O3 0.777541 0.593551 0.996722
O O4 0.781206 0.501753 0.047866
O O5 0.809039 0.745110 0.272005
O O6 0.738040 0.819374 0.158297
O O7 0.000000 0.801891 0.190056
O O8 0.855025 0.737663 0.086150
O O9 0.254756 0.714664 0.441041
O O10 0.202473 0.648537 0.300305
O O11 0.000000 0.698347 0.381946
O O12 0.220047 0.685866 0.927997
O O13 0.000000 0.743709 0.916193
O O14 0.779971 0.434735 0.902091
O O15 0.000000 0.415144 0.798570
O O16 0.807824 0.387909 0.297567
O O17 0.000000 0.365741 0.433202
O O18 0.787353 0.590132 0.600698
O O19 0.000000 0.551304 0.512521
O O20 0.000000 0.640987 0.668066
#
# Coordination Sequence:
#
# PCOD8174554 Si02
#       8
#     8   8   8   8   8   8   8   8
#     4   9  17  28  45  68  98 132 162 199 249 300
#     4  10  20  32  49  72 100 134 172 203 238 295
#     4  10  19  32  49  71 100 133 165 200 247 294
#     4  10  19  32  49  72 100 134 170 202 240 294
#     4   9  17  29  43  64  97 131 162 199 244 297
#     4   9  17  29  46  68  97 131 162 198 246 295
#     4   9  18  28  44  70  98 128 161 201 252 300
#     4  10  19  32  50  75 104 129 162 208 254 295
#
# _framework density 18.393671999999999
#
# number of rings (size 3 to 8) (size 9 to 14) (size 15 to 20)
#    0.000    2.500    1.250    1.500    1.750    4.500 
#    0.000    0.000    0.000    0.000    0.000    2.625 
#    0.000    0.000    0.000    0.000    0.000    0.000 
#
# Total GULP energy -396612.324015 kJ/mol
# GULP energy per Si atom -12394.135125 kJ/mol
# Density = 1.835181 g / cm^3
# Si number density = 18.393672 Si / 1000 Ang^3
#
#
#
# Elastic Constant Matrix: (Units=GPa)
#
#
# Indices 1 2 3 4 5 6 
#
# 1 25.8463 30.8987 17.9338 0.0000 0.0000 0.0000
# 2 30.8987 132.7748 66.0609 0.0000 0.0000 0.0000
# 3 17.9338 66.0609 135.4908 0.0000 0.0000 0.0000
# 4 0.0000 0.0000 0.0000 32.9998 0.0000 0.0000
# 5 0.0000 0.0000 0.0000 0.0000 12.9318 0.0000
# 6 0.0000 0.0000 0.0000 0.0000 0.0000 17.7117
#
#
#
# Elastic Compliance Matrix: (Units=1/GPa)
#
#
# Indices 1 2 3 4 5 6 
#
# 1 0.053787 -0.011849 -0.001342 0.000000 0.000000 0.000000
# 2 -0.011849 0.012554 -0.004553 0.000000 0.000000 0.000000
# 3 -0.001342 -0.004553 0.009778 0.000000 0.000000 0.000000
# 4 0.000000 0.000000 0.000000 0.030303 0.000000 0.000000
# 5 0.000000 0.000000 0.000000 0.000000 0.077329 0.000000
# 6 0.000000 0.000000 0.000000 0.000000 0.000000 0.056460
#
#
# Mechanical properties :
#
#
# Convention : Reuss Voigt Hill
#
# Bulk Modulus (GPa) = 24.61163 58.21097 41.41130
# Shear Modulus (GPa) = 17.28652 24.67655 20.98153
#
# Velocity S-wave (km/s) = 3.06895 3.66673 3.38108
# Velocity P-wave (km/s) = 5.09583 7.04575 6.14858
#
# Compressibility (1/GPa) = 0.04063120
#
# Stress axis : x y z
#
# Youngs Moduli (GPa) = 18.59184 79.65476 102.27140
#
# Poissons Ratio (x) = 0.94386 0.13725
# Poissons Ratio (y) = 0.22030 0.46560
# Poissons Ratio (z) = 0.02495 0.36264
#
# Static dielectric constant tensor:
#      x y z
#    x 2.842540 0.000000 0.000000 
#    y 0.000000 3.439950 0.000000 
#    z 0.000000 0.000000 3.641580 
# 
# 
# High freq. dielectric constant tensor:
#      x y z
#    x 1.643400 0.000000 0.000000 
#    y 0.000000 1.715720 0.000000 
#    z 0.000000 0.000000 1.732830 
# 
# From -- ./inp_files/7183.got.cif
#   From: 2010.03.12/outbox.cif.g09.slc.cpg/sg36_4_cif.got.tgz:7183.got - 2010.04.14 02:13:53.
