data_PCOD8174465
_publ_section_title
;
Structure prediction by ZEFSAII (Michael W. Deem and Ramdas Pophale) SiO2 
 PCOD8174465
Probable space group: C M C 21
;
_chemical_formula_sum "Si O2"
_cell_formula_units_Z 48
_cell_length_a 9.440559
_cell_length_b 18.347958
_cell_length_c 16.277219
_cell_angle_alpha 90.000000
_cell_angle_beta 90.000000
_cell_angle_gamma 90.000000
_cell_volume 2819.458164
_symmetry_space_group_name_H-M "C M C 21"
_symmetry_group_IT_number 36
_symmetry_cell_setting 'orthorhombic'
loop_
_space_group_symop_operation_xyz
x,y,z
-x,-y,1/2+z
x,-y,1/2+z
-x,y,z
1/2+x,1/2+y,z
1/2-x,1/2-y,1/2+z
1/2+x,1/2-y,1/2+z
1/2-x,1/2+y,z
loop_
_atom_site_type_symbol
_atom_site_label
_atom_site_fract_x
_atom_site_fract_y
_atom_site_fract_z
Si Si1 0.331671 0.825713 0.909870
Si Si2 0.834263 0.074925 0.091654
Si Si3 0.344484 0.950951 0.345703
Si Si4 0.164439 0.162849 0.927248
Si Si5 0.832836 0.590260 0.249967
Si Si6 0.658046 0.957621 0.011091
O O1 0.500000 0.828030 0.910406
O O2 0.272750 0.744610 0.925204
O O3 0.279414 0.855378 0.821664
O O4 0.281391 0.877961 0.985088
O O5 0.757334 0.110649 0.169753
O O6 0.000000 0.064494 0.108719
O O7 0.765856 0.995575 0.074217
O O8 0.805490 0.129539 0.016494
O O9 0.500000 0.919007 0.325712
O O10 0.237061 0.883816 0.354860
O O11 0.296902 0.006507 0.274154
O O12 0.352060 0.995994 0.428923
O O13 0.000000 0.163022 0.905956
O O14 0.000000 0.599814 0.232796
O O15 0.500000 0.952711 0.050822
#
# Coordination Sequence:
#
# PCOD8174465 Si02
#       6
#     8   8   8   8   8   8
#     4   8  15  30  51  70  88 118 158 190 221 268
#     4  10  19  29  44  69  97 120 146 186 235 277
#     4   8  15  28  46  67  86 110 150 189 218 257
#     4   9  17  30  48  69  94 122 148 181 230 279
#     4   9  17  31  50  67  86 118 158 193 223 263
#     4   8  14  28  49  66  83 114 154 187 213 256
#
# _framework density 17.024546999999998
#
# number of rings (size 3 to 8) (size 9 to 14) (size 15 to 20)
#    0.000    3.333    0.000    2.500    0.000    1.333 
#    0.000    5.833    0.000    6.000    0.000    0.000 
#    0.000    0.000    0.000    0.000    0.000    0.000 
#
# Total GULP energy -297452.233547 kJ/mol
# GULP energy per Si atom -12393.843064 kJ/mol
# Density = 1.698580 g / cm^3
# Si number density = 17.024547 Si / 1000 Ang^3
#
#
#
# Elastic Constant Matrix: (Units=GPa)
#
#
# Indices 1 2 3 4 5 6 
#
# 1 67.3986 44.7172 38.0663 0.0000 0.0000 0.0000
# 2 44.7172 125.2466 33.0732 0.0000 0.0000 0.0000
# 3 38.0663 33.0732 64.7713 0.0000 0.0000 0.0000
# 4 0.0000 0.0000 0.0000 16.5185 0.0000 0.0000
# 5 0.0000 0.0000 0.0000 0.0000 25.2534 0.0000
# 6 0.0000 0.0000 0.0000 0.0000 0.0000 20.4928
#
#
#
# Elastic Compliance Matrix: (Units=1/GPa)
#
#
# Indices 1 2 3 4 5 6 
#
# 1 0.025556 -0.005962 -0.011975 0.000000 0.000000 0.000000
# 2 -0.005962 0.010620 -0.001918 0.000000 0.000000 0.000000
# 3 -0.011975 -0.001918 0.023456 0.000000 0.000000 0.000000
# 4 0.000000 0.000000 0.000000 0.060538 0.000000 0.000000
# 5 0.000000 0.000000 0.000000 0.000000 0.039599 0.000000
# 6 0.000000 0.000000 0.000000 0.000000 0.000000 0.048798
#
#
# Mechanical properties :
#
#
# Convention : Reuss Voigt Hill
#
# Bulk Modulus (GPa) = 50.19937 54.34775 52.27356
# Shear Modulus (GPa) = 19.61409 21.89026 20.75218
#
# Velocity S-wave (km/s) = 3.39795 3.58970 3.49514
# Velocity P-wave (km/s) = 6.70412 7.01240 6.85999
#
# Compressibility (1/GPa) = 0.01992057
#
# Stress axis : x y z
#
# Youngs Moduli (GPa) = 39.12919 94.16571 42.63232
#
# Poissons Ratio (x) = 0.56144 0.51053
# Poissons Ratio (y) = 0.23330 0.08179
# Poissons Ratio (z) = 0.46858 0.18066
#
# Static dielectric constant tensor:
#      x y z
#    x 3.101350 0.000000 0.000000 
#    y 0.000000 3.481720 0.000000 
#    z 0.000000 0.000000 3.045740 
# 
# 
# High freq. dielectric constant tensor:
#      x y z
#    x 1.638490 0.000000 0.000000 
#    y 0.000000 1.647930 0.000000 
#    z 0.000000 0.000000 1.639080 
# 
# From -- ./inp_files/10392.got.cif
#   From: 2010.03.12/outbox.cif.g09.slc.cpg/sg36_6_cif.got.tgz:10392.got - 2010.04.14 02:13:53.
