data_PCOD8174178
_publ_section_title
;
Structure prediction by ZEFSAII (Michael W. Deem and Ramdas Pophale) SiO2 
 PCOD8174178
Probable space group: C M C 21
;
_chemical_formula_sum "Si O2"
_cell_formula_units_Z 36
_cell_length_a 11.813004
_cell_length_b 37.268134
_cell_length_c 5.257779
_cell_angle_alpha 90.000000
_cell_angle_beta 90.000000
_cell_angle_gamma 90.000000
_cell_volume 2314.729928
_symmetry_space_group_name_H-M "C M C 21"
_symmetry_group_IT_number 36
_symmetry_cell_setting 'orthorhombic'
loop_
_space_group_symop_operation_xyz
x,y,z
-x,-y,1/2+z
x,-y,1/2+z
-x,y,z
1/2+x,1/2+y,z
1/2-x,1/2-y,1/2+z
1/2+x,1/2-y,1/2+z
1/2-x,1/2+y,z
loop_
_atom_site_type_symbol
_atom_site_label
_atom_site_fract_x
_atom_site_fract_y
_atom_site_fract_z
Si Si1 0.633677 0.373450 0.041310
Si Si2 0.874410 0.907380 0.541317
Si Si3 0.500000 0.476188 0.541439
Si Si4 0.867793 0.279178 0.532090
Si Si5 0.261301 0.703011 0.532022
O O1 0.500000 0.380325 0.041280
O O2 0.688731 0.392970 0.288424
O O3 0.688748 0.392970 0.794206
O O4 0.659776 0.331567 0.042324
O O5 0.887495 0.950860 0.541315
O O6 0.000000 0.889590 0.541360
O O7 0.500000 0.500033 0.291603
O O8 0.811547 0.297945 0.775234
O O9 0.845224 0.236750 0.536102
O O10 0.000000 0.286501 0.544001
O O11 0.820569 0.296665 0.274886
#
# Coordination Sequence:
#
# PCOD8174178 Si02
#       5
#     8   8   4   8   8
#     4  10  16  29  42  61  87 108 148 190 215 243
#     4   8  17  25  38  59  82 113 144 186 197 244
#     4  10  16  26  40  58  86 122 158 176 202 250
#     4  10  20  34  44  64  87 106 148 190 226 276
#     4  10  20  30  49  64  79 117 146 179 240 269
#
# _framework density 15.552571
#
# number of rings (size 3 to 8) (size 9 to 14) (size 15 to 20)
#    0.667    1.778    0.000    4.000    0.000    0.000 
#    0.000    6.667    0.000    0.000    0.000    0.000 
#    0.000    0.000    0.000    0.000    0.000  280.000 
#
# Total GULP energy -223076.233927 kJ/mol
# GULP energy per Si atom -12393.124107 kJ/mol
# Density = 1.551717 g / cm^3
# Si number density = 15.552571 Si / 1000 Ang^3
#
#
#
# Elastic Constant Matrix: (Units=GPa)
#
#
# Indices 1 2 3 4 5 6 
#
# 1 21.4839 -0.2167 5.8451 0.0000 0.0000 0.0000
# 2 -0.2167 91.5917 52.1646 0.0000 0.0000 0.0000
# 3 5.8451 52.1646 142.1038 0.0000 0.0000 0.0000
# 4 0.0000 0.0000 0.0000 4.8177 0.0000 0.0000
# 5 0.0000 0.0000 0.0000 0.0000 10.4539 0.0000
# 6 0.0000 0.0000 0.0000 0.0000 0.0000 16.2209
#
#
#
# Elastic Compliance Matrix: (Units=1/GPa)
#
#
# Indices 1 2 3 4 5 6 
#
# 1 0.047245 0.001541 -0.002509 0.000000 0.000000 0.000000
# 2 0.001541 0.013854 -0.005149 0.000000 0.000000 0.000000
# 3 -0.002509 -0.005149 0.009030 0.000000 0.000000 0.000000
# 4 0.000000 0.000000 0.000000 0.207569 0.000000 0.000000
# 5 0.000000 0.000000 0.000000 0.000000 0.095658 0.000000
# 6 0.000000 0.000000 0.000000 0.000000 0.000000 0.061649
#
#
# Mechanical properties :
#
#
# Convention : Reuss Voigt Hill
#
# Bulk Modulus (GPa) = 17.27276 41.19618 29.23447
# Shear Modulus (GPa) = 10.71725 19.45760 15.08743
#
# Velocity S-wave (km/s) = 2.62792 3.54091 3.11801
# Velocity P-wave (km/s) = 4.50978 6.57748 5.63921
#
# Compressibility (1/GPa) = 0.05789464
#
# Stress axis : x y z
#
# Youngs Moduli (GPa) = 21.16647 72.18002 110.73612
#
# Poissons Ratio (x) = -0.11120 0.27782
# Poissons Ratio (y) = -0.03261 0.57019
# Poissons Ratio (z) = 0.05310 0.37166
#
# Static dielectric constant tensor:
#      x y z
#    x 2.432090 0.000000 0.000000 
#    y 0.000000 2.836680 0.000000 
#    z 0.000000 0.000000 3.531960 
# 
# 
# High freq. dielectric constant tensor:
#      x y z
#    x 1.530060 0.000000 0.000000 
#    y 0.000000 1.587320 0.000000 
#    z 0.000000 0.000000 1.631630 
# 
# From -- ./inp_files/562.got.cif
#   From: 2010.03.12/outbox.cif.g09.slc.cpg/sg36_1_cif.got.tgz:562.got - 2010.04.14 02:13:53.
