data_PCOD8174508
_publ_section_title
;
Structure prediction by ZEFSAII (Michael W. Deem and Ramdas Pophale) SiO2 
 PCOD8174508
Probable space group: C M C 21
;
_chemical_formula_sum "Si O2"
_cell_formula_units_Z 64
_cell_length_a 8.936266
_cell_length_b 20.905653
_cell_length_c 18.824802
_cell_angle_alpha 90.000000
_cell_angle_beta 90.000000
_cell_angle_gamma 90.000000
_cell_volume 3516.820823
_symmetry_space_group_name_H-M "C M C 21"
_symmetry_group_IT_number 36
_symmetry_cell_setting 'orthorhombic'
loop_
_space_group_symop_operation_xyz
x,y,z
-x,-y,1/2+z
x,-y,1/2+z
-x,y,z
1/2+x,1/2+y,z
1/2-x,1/2-y,1/2+z
1/2+x,1/2-y,1/2+z
1/2-x,1/2+y,z
loop_
_atom_site_type_symbol
_atom_site_label
_atom_site_fract_x
_atom_site_fract_y
_atom_site_fract_z
Si Si1 0.830323 0.751463 0.076150
Si Si2 0.827402 0.386593 0.586382
Si Si3 0.171033 0.247727 0.932168
Si Si4 0.324337 0.111642 0.440671
Si Si5 0.177008 0.622452 0.925642
Si Si6 0.172089 0.891079 0.092615
Si Si7 0.678338 0.999266 0.180294
Si Si8 0.322173 0.998459 0.339912
O O1 0.805219 0.685109 0.120046
O O2 0.811768 0.817147 0.120463
O O3 0.000000 0.749133 0.043569
O O4 0.707236 0.751874 0.015236
O O5 0.761837 0.388492 0.506103
O O6 0.752828 0.440311 0.636603
O O7 0.000000 0.405094 0.581571
O O8 0.205351 0.319284 0.903073
O O9 0.266904 0.191185 0.895630
O O10 0.000000 0.229079 0.920807
O O11 0.500000 0.103544 0.459066
O O12 0.231409 0.102493 0.512576
O O13 0.266620 0.059112 0.385025
O O14 0.240766 0.566180 0.876058
O O15 0.000000 0.623213 0.924672
O O16 0.267793 0.933600 0.145683
O O17 0.000000 0.913048 0.094087
O O18 0.500000 0.999707 0.180975
O O19 0.741741 0.003562 0.260252
O O20 0.500000 0.996966 0.338806
#
# Coordination Sequence:
#
# PCOD8174508 Si02
#       8
#     8   8   8   8   8   8   8   8
#     4   8  15  29  47  67  92 122 155 189 229 280
#     4   8  14  27  49  70  86 114 157 197 229 267
#     4   9  16  26  45  73  97 116 146 195 244 275
#     4   9  17  32  52  72  94 121 159 202 236 273
#     4   9  16  29  48  67  91 123 156 189 229 283
#     4  10  19  31  49  73  98 124 155 192 239 292
#     4  10  19  32  50  70  94 125 162 201 235 271
#     4   9  18  32  50  70  92 125 166 199 229 273
#
# _framework density 18.198255
#
# number of rings (size 3 to 8) (size 9 to 14) (size 15 to 20)
#    0.000    3.000    0.000    2.250    0.000    3.000 
#    0.000    8.125    0.000    3.000    0.000    0.000 
#    0.000    0.000    0.000    0.000    0.000    0.000 
#
# Total GULP energy -396476.043027 kJ/mol
# GULP energy per Si atom -12389.876345 kJ/mol
# Density = 1.815683 g / cm^3
# Si number density = 18.198255 Si / 1000 Ang^3
#
#
#
# Elastic Constant Matrix: (Units=GPa)
#
#
# Indices 1 2 3 4 5 6 
#
# 1 22.7065 26.2128 16.7467 0.0000 0.0000 0.0000
# 2 26.2128 168.2030 64.8276 0.0000 0.0000 0.0000
# 3 16.7467 64.8276 85.9140 0.0000 0.0000 0.0000
# 4 0.0000 0.0000 0.0000 7.6825 0.0000 0.0000
# 5 0.0000 0.0000 0.0000 0.0000 11.4984 0.0000
# 6 0.0000 0.0000 0.0000 0.0000 0.0000 26.4393
#
#
#
# Elastic Compliance Matrix: (Units=1/GPa)
#
#
# Indices 1 2 3 4 5 6 
#
# 1 0.055875 -0.006359 -0.006093 0.000000 0.000000 0.000000
# 2 -0.006359 0.009107 -0.005632 0.000000 0.000000 0.000000
# 3 -0.006093 -0.005632 0.017077 0.000000 0.000000 0.000000
# 4 0.000000 0.000000 0.000000 0.130165 0.000000 0.000000
# 5 0.000000 0.000000 0.000000 0.000000 0.086969 0.000000
# 6 0.000000 0.000000 0.000000 0.000000 0.000000 0.037822
#
#
# Mechanical properties :
#
#
# Convention : Reuss Voigt Hill
#
# Bulk Modulus (GPa) = 21.79105 54.71086 38.25095
# Shear Modulus (GPa) = 12.87062 20.39314 16.63188
#
# Velocity S-wave (km/s) = 2.66229 3.35118 3.02640
# Velocity P-wave (km/s) = 4.63148 6.71587 5.76861
#
# Compressibility (1/GPa) = 0.04589041
#
# Stress axis : x y z
#
# Youngs Moduli (GPa) = 17.89701 109.80617 58.55820
#
# Poissons Ratio (x) = 0.69830 0.35679
# Poissons Ratio (y) = 0.11381 0.32981
# Poissons Ratio (z) = 0.10904 0.61845
#
# Static dielectric constant tensor:
#      x y z
#    x 3.069990 0.000000 0.000000 
#    y 0.000000 3.896790 0.000000 
#    z 0.000000 0.000000 3.168100 
# 
# 
# High freq. dielectric constant tensor:
#      x y z
#    x 1.674800 0.000000 0.000000 
#    y 0.000000 1.733420 0.000000 
#    z 0.000000 0.000000 1.658740 
# 
# From -- ./inp_files/15797.got.cif
#   From: 2010.03.12/outbox.cif.g09.slc.cpg/sg36_8_cif.got.tgz:15797.got - 2010.04.14 02:13:53.
