data_PCOD8174776
_publ_section_title
;
Structure prediction by ZEFSAII (Michael W. Deem and Ramdas Pophale) SiO2 
 PCOD8174776
Probable space group: C M C 21
;
_chemical_formula_sum "Si O2"
_cell_formula_units_Z 64
_cell_length_a 8.991535
_cell_length_b 20.179676
_cell_length_c 19.138077
_cell_angle_alpha 90.000000
_cell_angle_beta 90.000000
_cell_angle_gamma 90.000000
_cell_volume 3472.532553
_symmetry_space_group_name_H-M "C M C 21"
_symmetry_group_IT_number 36
_symmetry_cell_setting 'orthorhombic'
loop_
_space_group_symop_operation_xyz
x,y,z
-x,-y,1/2+z
x,-y,1/2+z
-x,y,z
1/2+x,1/2+y,z
1/2-x,1/2-y,1/2+z
1/2+x,1/2-y,1/2+z
1/2-x,1/2+y,z
loop_
_atom_site_type_symbol
_atom_site_label
_atom_site_fract_x
_atom_site_fract_y
_atom_site_fract_z
Si Si1 0.827084 0.141966 0.816070
Si Si2 0.825203 0.426135 0.535984
Si Si3 0.826122 0.508863 0.177977
Si Si4 0.175690 0.803615 0.465408
Si Si5 0.674614 0.682435 0.538231
Si Si6 0.170651 0.955024 0.964815
Si Si7 0.331423 0.490010 0.813807
Si Si8 0.176499 0.641612 0.675003
O O1 0.782041 0.183265 0.884704
O O2 0.787415 0.065588 0.832201
O O3 0.731387 0.168245 0.750353
O O4 0.000000 0.151049 0.798095
O O5 0.778668 0.443003 0.615415
O O6 0.733948 0.362022 0.514597
O O7 0.783071 0.488636 0.489003
O O8 0.000000 0.412359 0.528351
O O9 0.764338 0.538827 0.250049
O O10 0.765795 0.434130 0.165443
O O11 0.000000 0.504154 0.185113
O O12 0.253818 0.736245 0.487659
O O13 0.000000 0.798140 0.475378
O O14 0.500000 0.695678 0.545333
O O15 0.711070 0.612160 0.503649
O O16 0.748723 0.685798 0.614658
O O17 0.000000 0.977106 0.979183
O O18 0.195525 0.944924 0.881915
O O19 0.500000 0.486833 0.788304
O O20 0.000000 0.648461 0.669570
#
# Coordination Sequence:
#
# PCOD8174776 Si02
#       8
#     8   8   8   8   8   8   8   8
#     4   9  18  34  56  81 109 145 189 234 281 338
#     4  11  21  35  57  84 114 145 186 234 281 334
#     4   9  19  33  51  82 116 145 183 231 280 333
#     4  11  23  40  59  82 116 153 193 236 286 341
#     4  11  23  38  58  84 116 153 194 237 285 339
#     4  10  20  36  57  83 113 145 185 231 280 335
#     4   9  17  32  54  81 110 143 186 232 280 333
#     4  10  19  34  56  83 114 147 188 233 281 339
#
# _framework density 18.430353
#
# number of rings (size 3 to 8) (size 9 to 14) (size 15 to 20)
#    0.000    2.000    2.500    1.500    0.000    3.500 
#    0.000    1.250    0.000    6.000    0.000    0.000 
#    0.000    0.000    0.000    0.000    0.000    0.000 
#
# Total GULP energy -396863.127872 kJ/mol
# GULP energy per Si atom -12401.972746 kJ/mol
# Density = 1.838840 g / cm^3
# Si number density = 18.430353 Si / 1000 Ang^3
#
#
#
# Elastic Constant Matrix: (Units=GPa)
#
#
# Indices 1 2 3 4 5 6 
#
# 1 42.8477 7.2552 33.7661 0.0000 0.0000 0.0000
# 2 7.2552 30.0654 18.3422 0.0000 0.0000 0.0000
# 3 33.7661 18.3422 120.5026 0.0000 0.0000 0.0000
# 4 0.0000 0.0000 0.0000 25.6234 0.0000 0.0000
# 5 0.0000 0.0000 0.0000 0.0000 35.7137 0.0000
# 6 0.0000 0.0000 0.0000 0.0000 0.0000 27.5442
#
#
#
# Elastic Compliance Matrix: (Units=1/GPa)
#
#
# Indices 1 2 3 4 5 6 
#
# 1 0.030101 -0.002335 -0.008079 0.000000 0.000000 0.000000
# 2 -0.002335 0.036847 -0.004954 0.000000 0.000000 0.000000
# 3 -0.008079 -0.004954 0.011317 0.000000 0.000000 0.000000
# 4 0.000000 0.000000 0.000000 0.039027 0.000000 0.000000
# 5 0.000000 0.000000 0.000000 0.000000 0.028000 0.000000
# 6 0.000000 0.000000 0.000000 0.000000 0.000000 0.036305
#
#
# Mechanical properties :
#
#
# Convention : Reuss Voigt Hill
#
# Bulk Modulus (GPa) = 21.04056 34.68253 27.86154
# Shear Modulus (GPa) = 21.91297 26.71307 24.31302
#
# Velocity S-wave (km/s) = 3.45187 3.81124 3.63600
# Velocity P-wave (km/s) = 5.22764 6.18275 5.72515
#
# Compressibility (1/GPa) = 0.04752725
#
# Stress axis : x y z
#
# Youngs Moduli (GPa) = 33.22198 27.13945 88.36617
#
# Poissons Ratio (x) = 0.06337 0.71392
# Poissons Ratio (y) = 0.07757 0.43780
# Poissons Ratio (z) = 0.26840 0.13446
#
# Static dielectric constant tensor:
#      x y z
#    x 3.395550 0.000000 0.000000 
#    y 0.000000 3.260690 0.000000 
#    z 0.000000 0.000000 3.594950 
# 
# 
# High freq. dielectric constant tensor:
#      x y z
#    x 1.719440 0.000000 0.000000 
#    y 0.000000 1.681890 0.000000 
#    z 0.000000 0.000000 1.729700 
# 
# From -- ./inp_files/13885.got.cif
#   From: 2010.03.12/outbox.cif.g09.slc.cpg/sg36_7_cif.got.tgz:13885.got - 2010.04.14 02:13:53.
