data_PCOD8174186
_publ_section_title
;
Structure prediction by ZEFSAII (Michael W. Deem and Ramdas Pophale) SiO2 
 PCOD8174186
Probable space group: C M C 21
;
_chemical_formula_sum "Si O2"
_cell_formula_units_Z 64
_cell_length_a 9.162396
_cell_length_b 18.831162
_cell_length_c 20.613094
_cell_angle_alpha 90.000000
_cell_angle_beta 90.000000
_cell_angle_gamma 90.000000
_cell_volume 3556.553626
_symmetry_space_group_name_H-M "C M C 21"
_symmetry_group_IT_number 36
_symmetry_cell_setting 'orthorhombic'
loop_
_space_group_symop_operation_xyz
x,y,z
-x,-y,1/2+z
x,-y,1/2+z
-x,y,z
1/2+x,1/2+y,z
1/2-x,1/2-y,1/2+z
1/2+x,1/2-y,1/2+z
1/2-x,1/2+y,z
loop_
_atom_site_type_symbol
_atom_site_label
_atom_site_fract_x
_atom_site_fract_y
_atom_site_fract_z
Si Si1 0.170567 0.737026 0.549460
Si Si2 0.170222 0.172813 0.926195
Si Si3 0.330328 0.076791 0.519717
Si Si4 0.335074 0.508016 0.915740
Si Si5 0.826845 0.310864 0.299176
Si Si6 0.167563 0.046159 0.778467
Si Si7 0.161049 0.947293 0.140601
Si Si8 0.834202 0.782110 0.175085
O O1 0.215559 0.792951 0.494485
O O2 0.214737 0.658939 0.524030
O O3 0.258219 0.757506 0.614453
O O4 0.000000 0.739865 0.566111
O O5 0.207704 0.089535 0.929985
O O6 0.262032 0.211650 0.869278
O O7 0.000000 0.185318 0.911274
O O8 0.500000 0.064878 0.518364
O O9 0.271181 0.034207 0.582801
O O10 0.267854 0.045357 0.453708
O O11 0.500000 0.493479 0.938191
O O12 0.315547 0.491644 0.838534
O O13 0.786058 0.392710 0.288494
O O14 0.753791 0.264515 0.241323
O O15 0.000000 0.299973 0.297953
O O16 0.194872 0.009331 0.707789
O O17 0.000000 0.077478 0.780042
O O18 0.172506 0.865748 0.162000
O O19 0.000000 0.965768 0.114464
O O20 0.000000 0.754902 0.181726
#
# Coordination Sequence:
#
# PCOD8174186 Si02
#       8
#     8   8   8   8   8   8   8   8
#     4   9  18  32  49  69  93 121 154 192 231 270
#     4   9  18  33  50  67  91 123 157 191 228 271
#     4  10  19  29  44  69  97 121 147 184 229 272
#     4   9  17  30  48  68  91 121 153 185 224 272
#     4  10  17  25  42  68  94 118 150 191 230 269
#     4   8  15  28  45  65  88 116 152 191 230 268
#     4   8  14  26  44  64  86 114 150 188 223 264
#     4   9  16  27  44  66  92 120 151 188 229 272
#
# _framework density 17.994948000000001
#
# number of rings (size 3 to 8) (size 9 to 14) (size 15 to 20)
#    0.000    3.000    0.000    3.375    0.000    6.000 
#    0.000    0.000    0.000    1.500    0.000    5.250 
#    0.000    0.000    0.000    0.000    0.000    0.000 
#
# Total GULP energy -396571.000989 kJ/mol
# GULP energy per Si atom -12392.843781 kJ/mol
# Density = 1.795399 g / cm^3
# Si number density = 17.994948 Si / 1000 Ang^3
#
#
#
# Elastic Constant Matrix: (Units=GPa)
#
#
# Indices 1 2 3 4 5 6 
#
# 1 71.5693 5.7902 9.4232 0.0000 0.0000 0.0000
# 2 5.7902 13.0378 -5.5586 0.0000 0.0000 0.0000
# 3 9.4232 -5.5586 25.8751 0.0000 0.0000 0.0000
# 4 0.0000 0.0000 0.0000 23.8945 0.0000 0.0000
# 5 0.0000 0.0000 0.0000 0.0000 36.1262 0.0000
# 6 0.0000 0.0000 0.0000 0.0000 0.0000 14.3494
#
#
#
# Elastic Compliance Matrix: (Units=1/GPa)
#
#
# Indices 1 2 3 4 5 6 
#
# 1 0.015878 -0.010476 -0.008033 0.000000 0.000000 0.000000
# 2 -0.010476 0.091345 0.023438 0.000000 0.000000 0.000000
# 3 -0.008033 0.023438 0.046608 0.000000 0.000000 0.000000
# 4 0.000000 0.000000 0.000000 0.041851 0.000000 0.000000
# 5 0.000000 0.000000 0.000000 0.000000 0.027681 0.000000
# 6 0.000000 0.000000 0.000000 0.000000 0.000000 0.069689
#
#
# Mechanical properties :
#
#
# Convention : Reuss Voigt Hill
#
# Bulk Modulus (GPa) = 6.10913 14.42132 10.26522
# Shear Modulus (GPa) = 14.80360 21.59586 18.19973
#
# Velocity S-wave (km/s) = 2.87130 3.46801 3.18367
# Velocity P-wave (km/s) = 3.79405 4.90588 4.38534
#
# Compressibility (1/GPa) = 0.16368943
#
# Stress axis : x y z
#
# Youngs Moduli (GPa) = 62.98157 10.94745 21.45570
#
# Poissons Ratio (x) = 0.11469 0.17235
# Poissons Ratio (y) = 0.65980 -0.50288
# Poissons Ratio (z) = 0.50592 -0.25659
#
# Static dielectric constant tensor:
#      x y z
#    x 3.292030 0.000000 0.000000 
#    y 0.000000 2.741450 0.000000 
#    z 0.000000 0.000000 3.824890 
# 
# 
# High freq. dielectric constant tensor:
#      x y z
#    x 1.696140 0.000000 0.000000 
#    y 0.000000 1.621840 0.000000 
#    z 0.000000 0.000000 1.721830 
# 
# From -- ./inp_files/14051.got.cif
#   From: 2010.03.12/outbox.cif.g09.slc.cpg/sg36_8_cif.got.tgz:14051.got - 2010.04.14 02:13:53.
