data_PCOD8174533
_publ_section_title
;
Structure prediction by ZEFSAII (Michael W. Deem and Ramdas Pophale) SiO2 
 PCOD8174533
Probable space group: C M C 21
;
_chemical_formula_sum "Si O2"
_cell_formula_units_Z 40
_cell_length_a 9.724106
_cell_length_b 25.180384
_cell_length_c 8.848564
_cell_angle_alpha 90.000000
_cell_angle_beta 90.000000
_cell_angle_gamma 90.000000
_cell_volume 2166.630386
_symmetry_space_group_name_H-M "C M C 21"
_symmetry_group_IT_number 36
_symmetry_cell_setting 'orthorhombic'
loop_
_space_group_symop_operation_xyz
x,y,z
-x,-y,1/2+z
x,-y,1/2+z
-x,y,z
1/2+x,1/2+y,z
1/2-x,1/2-y,1/2+z
1/2+x,1/2-y,1/2+z
1/2-x,1/2+y,z
loop_
_atom_site_type_symbol
_atom_site_label
_atom_site_fract_x
_atom_site_fract_y
_atom_site_fract_z
Si Si1 0.000000 0.432990 0.506450
Si Si2 0.500000 0.678502 0.831801
Si Si3 0.000000 0.288383 0.974338
Si Si4 0.000000 0.545119 0.359768
Si Si5 0.000000 0.731061 0.815381
Si Si6 0.792501 0.621799 0.505215
Si Si7 0.292510 0.141310 0.854380
Si Si8 0.000000 0.158397 0.481665
O O1 0.000000 0.483538 0.398154
O O2 0.137056 0.399076 0.471007
O O3 0.000000 0.448861 0.680278
O O4 0.633592 0.649288 0.900887
O O5 0.500000 0.675845 0.653384
O O6 0.500000 0.741399 0.855047
O O7 0.000000 0.260982 0.136750
O O8 0.865407 0.324394 0.948412
O O9 0.136863 0.570916 0.430430
O O10 0.135131 0.698684 0.866124
O O11 0.000000 0.789236 0.882253
O O12 0.808314 0.617486 0.686077
O O13 0.634807 0.622997 0.449556
#
# Coordination Sequence:
#
# PCOD8174533 Si02
#       8
#     4   4   4   4   4   8   8   4
#     4  11  22  38  60  79  96 127 168 213 261 312
#     4  10  19  31  51  77 109 143 172 208 254 298
#     4   9  17  29  47  72 109 148 178 209 244 290
#     4  11  22  38  60  79  96 127 168 213 261 312
#     4   9  17  29  47  72 109 148 178 209 244 290
#     4   9  19  35  52  76 107 138 173 213 253 298
#     4   9  19  35  52  76 107 138 173 213 253 298
#     4  10  19  31  51  77 109 143 172 208 254 298
#
# _framework density 18.461846000000001
#
# number of rings (size 3 to 8) (size 9 to 14) (size 15 to 20)
#    0.000    2.400    0.000    4.200    0.000    4.800 
#    0.000    1.000    0.000    0.000    0.000    0.000 
#    0.000    0.000    0.000    0.000    0.000    0.000 
#
# Total GULP energy -248015.323273 kJ/mol
# GULP energy per Si atom -12400.766164 kJ/mol
# Density = 1.841983 g / cm^3
# Si number density = 18.461846 Si / 1000 Ang^3
#
#
#
# Elastic Constant Matrix: (Units=GPa)
#
#
# Indices 1 2 3 4 5 6 
#
# 1 148.5203 20.1588 13.9548 0.0000 0.0000 0.0000
# 2 20.1588 48.8605 -0.4110 0.0000 0.0000 0.0000
# 3 13.9548 -0.4110 28.9661 0.0000 0.0000 0.0000
# 4 0.0000 0.0000 0.0000 33.9850 0.0000 0.0000
# 5 0.0000 0.0000 0.0000 0.0000 18.2279 0.0000
# 6 0.0000 0.0000 0.0000 0.0000 0.0000 9.6200
#
#
#
# Elastic Compliance Matrix: (Units=1/GPa)
#
#
# Indices 1 2 3 4 5 6 
#
# 1 0.007501 -0.003126 -0.003658 0.000000 0.000000 0.000000
# 2 -0.003126 0.021771 0.001815 0.000000 0.000000 0.000000
# 3 -0.003658 0.001815 0.036311 0.000000 0.000000 0.000000
# 4 0.000000 0.000000 0.000000 0.029425 0.000000 0.000000
# 5 0.000000 0.000000 0.000000 0.000000 0.054861 0.000000
# 6 0.000000 0.000000 0.000000 0.000000 0.000000 0.103950
#
#
# Mechanical properties :
#
#
# Convention : Reuss Voigt Hill
#
# Bulk Modulus (GPa) = 17.97085 32.63912 25.30499
# Shear Modulus (GPa) = 17.71130 25.20955 21.46042
#
# Velocity S-wave (km/s) = 3.10069 3.69927 3.41313
# Velocity P-wave (km/s) = 4.75123 5.99698 5.41008
#
# Compressibility (1/GPa) = 0.05564566
#
# Stress axis : x y z
#
# Youngs Moduli (GPa) = 133.31507 45.93213 27.53973
#
# Poissons Ratio (x) = 0.14356 0.10074
# Poissons Ratio (y) = 0.41668 -0.04998
# Poissons Ratio (z) = 0.48768 -0.08335
#
# Static dielectric constant tensor:
#      x y z
#    x 3.886620 0.000000 0.000000 
#    y 0.000000 3.128390 0.000000 
#    z 0.000000 0.000000 3.255900 
# 
# 
# High freq. dielectric constant tensor:
#      x y z
#    x 1.725580 0.000000 0.000000 
#    y 0.000000 1.697180 0.000000 
#    z 0.000000 0.000000 1.707790 
# 
# From -- ./inp_files/2478.got.cif
#   From: 2010.03.12/outbox.cif.g09.slc.cpg/sg36_2_cif.got.tgz:2478.got - 2010.04.14 02:13:53.
