data_PCOD8174889
_publ_section_title
;
Structure prediction by ZEFSAII (Michael W. Deem and Ramdas Pophale) SiO2 
 PCOD8174889
Probable space group: C M C 21
;
_chemical_formula_sum "Si O2"
_cell_formula_units_Z 56
_cell_length_a 28.912542
_cell_length_b 16.351366
_cell_length_c 5.076641
_cell_angle_alpha 90.000000
_cell_angle_beta 90.000000
_cell_angle_gamma 90.000000
_cell_volume 2400.030546
_symmetry_space_group_name_H-M "C M C 21"
_symmetry_group_IT_number 36
_symmetry_cell_setting 'orthorhombic'
loop_
_space_group_symop_operation_xyz
x,y,z
-x,-y,1/2+z
x,-y,1/2+z
-x,y,z
1/2+x,1/2+y,z
1/2-x,1/2-y,1/2+z
1/2+x,1/2-y,1/2+z
1/2-x,1/2+y,z
loop_
_atom_site_type_symbol
_atom_site_label
_atom_site_fract_x
_atom_site_fract_y
_atom_site_fract_z
Si Si1 0.000000 0.048791 0.971251
Si Si2 0.158054 0.452833 0.405417
Si Si3 0.500000 0.059701 0.015767
Si Si4 0.619173 0.733565 0.003489
Si Si5 0.087571 0.319563 0.499396
Si Si6 0.721698 0.270673 0.475016
Si Si7 0.232692 0.048897 0.905631
Si Si8 0.900654 0.944539 0.573650
O O1 0.000000 0.032892 0.657440
O O2 0.952713 0.093732 0.051168
O O3 0.141632 0.522053 0.613765
O O4 0.135302 0.368861 0.491482
O O5 0.212510 0.441949 0.414728
O O6 0.455422 0.118513 0.018667
O O7 0.500000 0.000701 0.764068
O O8 0.590809 0.757067 0.742137
O O9 0.671305 0.772691 0.006489
O O10 0.586188 0.765778 0.236070
O O11 0.629619 0.636441 0.033269
O O12 0.747957 0.276270 0.755630
O O13 0.712295 0.361541 0.368537
O O14 0.213907 0.993190 0.669219
O O15 0.891084 0.013423 0.353696
#
# Coordination Sequence:
#
# PCOD8174889 Si02
#       8
#     4   8   4   8   8   8   8   8
#     4   8  16  32  56  82 110 144 186 234 286 350
#     4  10  19  35  59  86 119 162 207 259 319 390
#     4  12  26  48  76 108 142 184 224 274 346 406
#     4  12  26  42  66  96 131 177 220 277 344 390
#     4  12  25  43  65  99 136 171 220 274 331 413
#     4  12  25  43  65  91 130 176 221 274 338 409
#     4  10  21  36  59  89 120 160 213 267 321 379
#     4  10  21  39  62  90 124 167 216 264 317 385
#
# _framework density 23.333037999999998
#
# number of rings (size 3 to 8) (size 9 to 14) (size 15 to 20)
#    0.000    1.143    0.000    6.857    0.000    4.571 
#    0.000    1.429    0.000    0.000    0.000    0.000 
#    0.000    0.000    0.000    0.000    0.000    0.000 
#
# Total GULP energy -347141.887743 kJ/mol
# GULP energy per Si atom -12397.924562 kJ/mol
# Density = 2.327993 g / cm^3
# Si number density = 23.333038 Si / 1000 Ang^3
#
#
#
# Elastic Constant Matrix: (Units=GPa)
#
#
# Indices 1 2 3 4 5 6 
#
# 1 60.0229 4.5798 26.9355 0.0000 0.0000 0.0000
# 2 4.5798 89.2534 23.4171 0.0000 0.0000 0.0000
# 3 26.9355 23.4171 146.2134 0.0000 0.0000 0.0000
# 4 0.0000 0.0000 0.0000 45.2908 0.0000 0.0000
# 5 0.0000 0.0000 0.0000 0.0000 12.7315 0.0000
# 6 0.0000 0.0000 0.0000 0.0000 0.0000 35.0437
#
#
#
# Elastic Compliance Matrix: (Units=1/GPa)
#
#
# Indices 1 2 3 4 5 6 
#
# 1 0.018162 -0.000056 -0.003337 0.000000 0.000000 0.000000
# 2 -0.000056 0.011696 -0.001863 0.000000 0.000000 0.000000
# 3 -0.003337 -0.001863 0.007752 0.000000 0.000000 0.000000
# 4 0.000000 0.000000 0.000000 0.022080 0.000000 0.000000
# 5 0.000000 0.000000 0.000000 0.000000 0.078545 0.000000
# 6 0.000000 0.000000 0.000000 0.000000 0.000000 0.028536
#
#
# Mechanical properties :
#
#
# Convention : Reuss Voigt Hill
#
# Bulk Modulus (GPa) = 36.90305 45.03941 40.97123
# Shear Modulus (GPa) = 26.83620 34.65035 30.74327
#
# Velocity S-wave (km/s) = 3.39505 3.85779 3.63379
# Velocity P-wave (km/s) = 5.58736 6.26005 5.93324
#
# Compressibility (1/GPa) = 0.02709803
#
# Stress axis : x y z
#
# Youngs Moduli (GPa) = 55.06002 85.50172 128.99316
#
# Poissons Ratio (x) = 0.00483 0.43042
# Poissons Ratio (y) = 0.00311 0.24028
# Poissons Ratio (z) = 0.18372 0.15927
#
# Static dielectric constant tensor:
#      x y z
#    x 4.327240 0.000000 0.000000 
#    y 0.000000 3.989410 0.000000 
#    z 0.000000 0.000000 4.456450 
# 
# 
# High freq. dielectric constant tensor:
#      x y z
#    x 1.927530 0.000000 0.000000 
#    y 0.000000 1.912950 0.000000 
#    z 0.000000 0.000000 1.937560 
# 
# From -- ./inp_files/1878.got.cif
#   From: 2010.03.12/outbox.cif.g09.slc.cpg/sg36_1_cif.got.tgz:1878.got - 2010.04.14 02:13:53.
