data_PCOD8174710
_publ_section_title
;
Structure prediction by ZEFSAII (Michael W. Deem and Ramdas Pophale) SiO2 
 PCOD8174710
Probable space group: C M C 21
;
_chemical_formula_sum "Si O2"
_cell_formula_units_Z 64
_cell_length_a 9.311161
_cell_length_b 25.165442
_cell_length_c 14.265273
_cell_angle_alpha 90.000000
_cell_angle_beta 90.000000
_cell_angle_gamma 90.000000
_cell_volume 3342.631381
_symmetry_space_group_name_H-M "C M C 21"
_symmetry_group_IT_number 36
_symmetry_cell_setting 'orthorhombic'
loop_
_space_group_symop_operation_xyz
x,y,z
-x,-y,1/2+z
x,-y,1/2+z
-x,y,z
1/2+x,1/2+y,z
1/2-x,1/2-y,1/2+z
1/2+x,1/2-y,1/2+z
1/2-x,1/2+y,z
loop_
_atom_site_type_symbol
_atom_site_label
_atom_site_fract_x
_atom_site_fract_y
_atom_site_fract_z
Si Si1 0.843103 0.839305 0.248770
Si Si2 0.837732 0.570650 0.813909
Si Si3 0.333516 0.777867 0.738864
Si Si4 0.170186 0.813382 0.563515
Si Si5 0.168726 0.519149 0.624652
Si Si6 0.159119 0.111854 0.547919
Si Si7 0.665384 0.794397 0.955714
Si Si8 0.835603 0.582891 0.018622
O O1 0.744455 0.873376 0.316572
O O2 0.774294 0.782059 0.230650
O O3 0.859742 0.870073 0.153231
O O4 0.000000 0.831592 0.297123
O O5 0.783175 0.529623 0.733413
O O6 0.000000 0.584770 0.788189
O O7 0.821743 0.549634 0.920241
O O8 0.500000 0.782098 0.708309
O O9 0.237830 0.811715 0.667540
O O10 0.311219 0.796293 0.844759
O O11 0.214506 0.762025 0.500733
O O12 0.232006 0.866470 0.516305
O O13 0.000000 0.818344 0.571792
O O14 0.250246 0.557445 0.551093
O O15 0.209061 0.458267 0.600565
O O16 0.000000 0.528637 0.609573
O O17 0.239678 0.157394 0.491561
O O18 0.000000 0.101981 0.504295
O O19 0.500000 0.804718 0.982548
O O20 0.000000 0.602237 0.032290
#
# Coordination Sequence:
#
# PCOD8174710 Si02
#       8
#     8   8   8   8   8   8   8   8
#     4   9  17  31  53  79 109 143 179 226 278 328
#     4   9  18  33  56  83 106 140 191 236 275 326
#     4  10  20  36  55  79 113 153 190 224 276 343
#     4  11  23  38  58  85 118 151 187 235 285 336
#     4   9  19  37  58  80 110 145 188 237 280 332
#     4  10  19  33  56  81 108 140 181 234 284 329
#     4  10  21  36  56  82 114 153 190 226 279 342
#     4  10  21  38  58  81 112 151 192 232 281 338
#
# _framework density 19.146591999999998
#
# number of rings (size 3 to 8) (size 9 to 14) (size 15 to 20)
#    0.000    2.250    1.250    1.500    0.000    4.000 
#    2.250    0.000    0.000    0.000    0.000    0.000 
#    0.000    0.000    0.000    0.000    0.000    0.000 
#
# Total GULP energy -396628.925020 kJ/mol
# GULP energy per Si atom -12394.653907 kJ/mol
# Density = 1.910301 g / cm^3
# Si number density = 19.146592 Si / 1000 Ang^3
#
#
#
# Elastic Constant Matrix: (Units=GPa)
#
#
# Indices 1 2 3 4 5 6 
#
# 1 65.8072 25.0050 38.6635 0.0000 0.0000 0.0000
# 2 25.0050 60.7677 38.4766 0.0000 0.0000 0.0000
# 3 38.6635 38.4766 90.5531 0.0000 0.0000 0.0000
# 4 0.0000 0.0000 0.0000 23.7104 0.0000 0.0000
# 5 0.0000 0.0000 0.0000 0.0000 49.3589 0.0000
# 6 0.0000 0.0000 0.0000 0.0000 0.0000 31.0825
#
#
#
# Elastic Compliance Matrix: (Units=1/GPa)
#
#
# Indices 1 2 3 4 5 6 
#
# 1 0.020989 -0.004053 -0.007240 0.000000 0.000000 0.000000
# 2 -0.004053 0.023296 -0.008168 0.000000 0.000000 0.000000
# 3 -0.007240 -0.008168 0.017605 0.000000 0.000000 0.000000
# 4 0.000000 0.000000 0.000000 0.042176 0.000000 0.000000
# 5 0.000000 0.000000 0.000000 0.000000 0.020260 0.000000
# 6 0.000000 0.000000 0.000000 0.000000 0.000000 0.032172
#
#
# Mechanical properties :
#
#
# Convention : Reuss Voigt Hill
#
# Bulk Modulus (GPa) = 43.53721 46.82425 45.18073
# Shear Modulus (GPa) = 24.62140 28.49590 26.55865
#
# Velocity S-wave (km/s) = 3.58989 3.86204 3.72845
# Velocity P-wave (km/s) = 6.32229 6.66302 6.49489
#
# Compressibility (1/GPa) = 0.02296886
#
# Stress axis : x y z
#
# Youngs Moduli (GPa) = 47.64302 42.92667 56.80167
#
# Poissons Ratio (x) = 0.17397 0.41124
# Poissons Ratio (y) = 0.19308 0.46396
# Poissons Ratio (z) = 0.34493 0.35063
#
# Static dielectric constant tensor:
#      x y z
#    x 3.538720 0.000000 0.000000 
#    y 0.000000 3.399920 0.000000 
#    z 0.000000 0.000000 3.533020 
# 
# 
# High freq. dielectric constant tensor:
#      x y z
#    x 1.741200 0.000000 0.000000 
#    y 0.000000 1.731070 0.000000 
#    z 0.000000 0.000000 1.743630 
# 
# From -- ./inp_files/10960.got.cif
#   From: 2010.03.12/outbox.cif.g09.slc.cpg/sg36_6_cif.got.tgz:10960.got - 2010.04.14 02:13:53.
