data_PCOD8174912
_publ_section_title
;
Structure prediction by ZEFSAII (Michael W. Deem and Ramdas Pophale) SiO2 
 PCOD8174912
Probable space group: C M C 21
;
_chemical_formula_sum "Si O2"
_cell_formula_units_Z 64
_cell_length_a 8.743638
_cell_length_b 30.568999
_cell_length_c 12.097090
_cell_angle_alpha 90.000000
_cell_angle_beta 90.000000
_cell_angle_gamma 90.000000
_cell_volume 3233.361764
_symmetry_space_group_name_H-M "C M C 21"
_symmetry_group_IT_number 36
_symmetry_cell_setting 'orthorhombic'
loop_
_space_group_symop_operation_xyz
x,y,z
-x,-y,1/2+z
x,-y,1/2+z
-x,y,z
1/2+x,1/2+y,z
1/2-x,1/2-y,1/2+z
1/2+x,1/2-y,1/2+z
1/2-x,1/2+y,z
loop_
_atom_site_type_symbol
_atom_site_label
_atom_site_fract_x
_atom_site_fract_y
_atom_site_fract_z
Si Si1 0.171312 0.668266 0.167140
Si Si2 0.672968 0.206405 0.936037
Si Si3 0.182254 0.044090 0.932809
Si Si4 0.317950 0.445982 0.893829
Si Si5 0.822620 0.919175 0.658888
Si Si6 0.318937 0.630669 0.555120
Si Si7 0.177057 0.703289 0.405028
Si Si8 0.819313 0.621833 0.796429
O O1 0.294455 0.631604 0.139230
O O2 0.219606 0.690293 0.280931
O O3 0.000000 0.648220 0.174675
O O4 0.179241 0.702770 0.068355
O O5 0.500000 0.217093 0.897233
O O6 0.785268 0.245674 0.908186
O O7 0.730417 0.162170 0.875276
O O8 0.249367 0.076593 0.841135
O O9 0.000000 0.047673 0.925612
O O10 0.240574 0.994819 0.915503
O O11 0.247257 0.055475 0.054271
O O12 0.500000 0.443711 0.891501
O O13 0.246449 0.433289 0.774794
O O14 0.259186 0.411571 0.985888
O O15 0.000000 0.929742 0.664546
O O16 0.500000 0.629213 0.571589
O O17 0.276141 0.675047 0.490738
O O18 0.239761 0.630698 0.673620
O O19 0.000000 0.695888 0.433121
O O20 0.000000 0.616690 0.795102
#
# Coordination Sequence:
#
# PCOD8174912 Si02
#       8
#     8   8   8   8   8   8   8   8
#     4  10  21  40  62  85 118 155 192 244 300 355
#     4  10  23  42  62  85 118 160 199 241 299 359
#     4  10  21  37  62  91 119 156 202 249 297 352
#     4   9  20  37  60  90 120 155 200 247 294 350
#     4  10  19  35  61  89 116 151 200 250 291 348
#     4  11  23  41  64  87 121 164 203 246 300 359
#     4  11  24  40  62  92 122 153 198 250 300 355
#     4  11  24  42  61  87 124 160 200 251 303 358
#
# _framework density 19.793641000000001
#
# number of rings (size 3 to 8) (size 9 to 14) (size 15 to 20)
#    0.000    1.750    2.500    1.125    3.500    2.000 
#    0.000    1.875    0.000    0.000    0.000    0.000 
#    0.000    0.000    0.000    0.000    0.000    0.000 
#
# Total GULP energy -396798.540468 kJ/mol
# GULP energy per Si atom -12399.954390 kJ/mol
# Density = 1.974859 g / cm^3
# Si number density = 19.793641 Si / 1000 Ang^3
#
#
#
# Elastic Constant Matrix: (Units=GPa)
#
#
# Indices 1 2 3 4 5 6 
#
# 1 32.9165 25.4973 24.6180 0.0000 0.0000 0.0000
# 2 25.4973 120.6688 37.8281 0.0000 0.0000 0.0000
# 3 24.6180 37.8281 131.6058 0.0000 0.0000 0.0000
# 4 0.0000 0.0000 0.0000 31.8038 0.0000 0.0000
# 5 0.0000 0.0000 0.0000 0.0000 27.2200 0.0000
# 6 0.0000 0.0000 0.0000 0.0000 0.0000 24.7386
#
#
#
# Elastic Compliance Matrix: (Units=1/GPa)
#
#
# Indices 1 2 3 4 5 6 
#
# 1 0.039650 -0.006652 -0.005505 0.000000 0.000000 0.000000
# 2 -0.006652 0.010224 -0.001694 0.000000 0.000000 0.000000
# 3 -0.005505 -0.001694 0.009115 0.000000 0.000000 0.000000
# 4 0.000000 0.000000 0.000000 0.031443 0.000000 0.000000
# 5 0.000000 0.000000 0.000000 0.000000 0.036738 0.000000
# 6 0.000000 0.000000 0.000000 0.000000 0.000000 0.040423
#
#
# Mechanical properties :
#
#
# Convention : Reuss Voigt Hill
#
# Bulk Modulus (GPa) = 31.96308 51.23087 41.59697
# Shear Modulus (GPa) = 24.30446 29.90233 27.10340
#
# Velocity S-wave (km/s) = 3.50793 3.89099 3.70442
# Velocity P-wave (km/s) = 5.70882 6.79155 6.27359
#
# Compressibility (1/GPa) = 0.03128610
#
# Stress axis : x y z
#
# Youngs Moduli (GPa) = 25.22080 97.80959 109.70733
#
# Poissons Ratio (x) = 0.65066 0.60391
# Poissons Ratio (y) = 0.16778 0.18588
# Poissons Ratio (z) = 0.13883 0.16572
#
# Static dielectric constant tensor:
#      x y z
#    x 3.416540 0.000000 0.000000 
#    y 0.000000 3.643670 0.000000 
#    z 0.000000 0.000000 3.900930 
# 
# 
# High freq. dielectric constant tensor:
#      x y z
#    x 1.752470 0.000000 0.000000 
#    y 0.000000 1.774370 0.000000 
#    z 0.000000 0.000000 1.790570 
# 
# From -- ./inp_files/7082.got.cif
#   From: 2010.03.12/outbox.cif.g09.slc.cpg/sg36_4_cif.got.tgz:7082.got - 2010.04.14 02:13:53.
