data_PCOD8174868
_publ_section_title
;
Structure prediction by ZEFSAII (Michael W. Deem and Ramdas Pophale) SiO2 
 PCOD8174868
Probable space group: C M C 21
;
_chemical_formula_sum "Si O2"
_cell_formula_units_Z 64
_cell_length_a 14.269225
_cell_length_b 13.794703
_cell_length_c 18.028448
_cell_angle_alpha 90.000000
_cell_angle_beta 90.000000
_cell_angle_gamma 90.000000
_cell_volume 3548.714673
_symmetry_space_group_name_H-M "C M C 21"
_symmetry_group_IT_number 36
_symmetry_cell_setting 'orthorhombic'
loop_
_space_group_symop_operation_xyz
x,y,z
-x,-y,1/2+z
x,-y,1/2+z
-x,y,z
1/2+x,1/2+y,z
1/2-x,1/2-y,1/2+z
1/2+x,1/2-y,1/2+z
1/2-x,1/2+y,z
loop_
_atom_site_type_symbol
_atom_site_label
_atom_site_fract_x
_atom_site_fract_y
_atom_site_fract_z
Si Si1 0.211087 0.154333 0.325130
Si Si2 0.106662 0.654153 0.848945
Si Si3 0.239698 0.286467 0.667059
Si Si4 0.228458 0.504977 0.924632
Si Si5 0.607796 0.386251 0.170695
Si Si6 0.392330 0.131478 0.677770
Si Si7 0.740218 0.988896 0.597387
Si Si8 0.894926 0.029799 0.828827
O O1 0.169124 0.250653 0.361833
O O2 0.269718 0.175545 0.251073
O O3 0.278865 0.100718 0.384737
O O4 0.125526 0.081395 0.303736
O O5 0.138846 0.569847 0.904656
O O6 0.117571 0.614633 0.765536
O O7 0.000000 0.680390 0.867674
O O8 0.152110 0.216937 0.649345
O O9 0.337319 0.229120 0.655276
O O10 0.235467 0.373943 0.609120
O O11 0.322146 0.560080 0.893743
O O12 0.233947 0.487221 0.011238
O O13 0.500000 0.388809 0.145759
O O14 0.661257 0.471752 0.127930
O O15 0.619741 0.400145 0.258776
O O16 0.500000 0.142801 0.653037
O O17 0.347427 0.038422 0.638509
O O18 0.000000 0.038328 0.859975
#
# Coordination Sequence:
#
# PCOD8174868 Si02
#       8
#     8   8   8   8   8   8   8   8
#     4   9  18  34  58  80 106 135 184 228 275 311
#     4  10  19  35  58  83 103 138 189 234 270 321
#     4  10  19  35  59  80 107 139 186 232 274 324
#     4  10  22  34  53  82 116 147 177 223 274 330
#     4  10  21  37  57  84 111 142 185 236 276 319
#     4   9  20  36  57  79 105 138 186 234 273 320
#     4  11  21  37  54  79 115 152 178 217 275 334
#     4   9  17  34  57  79 105 139 182 228 272 313
#
# _framework density 18.034699
#
# number of rings (size 3 to 8) (size 9 to 14) (size 15 to 20)
#    0.750    1.500    1.250    3.375    0.000    4.500 
#    0.000    1.875    0.000    2.250    0.000    0.000 
#    0.000    0.000    0.000    0.000    0.000    0.000 
#
# Total GULP energy -396746.366316 kJ/mol
# GULP energy per Si atom -12398.323947 kJ/mol
# Density = 1.799365 g / cm^3
# Si number density = 18.034699 Si / 1000 Ang^3
#
#
#
# Elastic Constant Matrix: (Units=GPa)
#
#
# Indices 1 2 3 4 5 6 
#
# 1 89.2042 41.2916 22.9900 0.0000 0.0000 0.0000
# 2 41.2916 94.1336 23.3029 0.0000 0.0000 0.0000
# 3 22.9900 23.3029 55.9386 0.0000 0.0000 0.0000
# 4 0.0000 0.0000 0.0000 12.9236 0.0000 0.0000
# 5 0.0000 0.0000 0.0000 0.0000 14.0317 0.0000
# 6 0.0000 0.0000 0.0000 0.0000 0.0000 17.5292
#
#
#
# Elastic Compliance Matrix: (Units=1/GPa)
#
#
# Indices 1 2 3 4 5 6 
#
# 1 0.014740 -0.005537 -0.003751 0.000000 0.000000 0.000000
# 2 -0.005537 0.013925 -0.003525 0.000000 0.000000 0.000000
# 3 -0.003751 -0.003525 0.020887 0.000000 0.000000 0.000000
# 4 0.000000 0.000000 0.000000 0.077378 0.000000 0.000000
# 5 0.000000 0.000000 0.000000 0.000000 0.071267 0.000000
# 6 0.000000 0.000000 0.000000 0.000000 0.000000 0.057048
#
#
# Mechanical properties :
#
#
# Convention : Reuss Voigt Hill
#
# Bulk Modulus (GPa) = 41.79774 46.04950 43.92362
# Shear Modulus (GPa) = 17.31028 19.00972 18.16000
#
# Velocity S-wave (km/s) = 3.10148 3.25016 3.17669
# Velocity P-wave (km/s) = 6.00434 6.29873 6.15330
#
# Compressibility (1/GPa) = 0.02392474
#
# Stress axis : x y z
#
# Youngs Moduli (GPa) = 67.84219 71.81505 47.87676
#
# Poissons Ratio (x) = 0.39765 0.17960
# Poissons Ratio (y) = 0.37565 0.16877
# Poissons Ratio (z) = 0.25450 0.25315
#
# Static dielectric constant tensor:
#      x y z
#    x 3.280460 0.000000 0.000000 
#    y 0.000000 3.299140 0.000000 
#    z 0.000000 0.000000 3.053810 
# 
# 
# High freq. dielectric constant tensor:
#      x y z
#    x 1.691790 0.000000 0.000000 
#    y 0.000000 1.699030 0.000000 
#    z 0.000000 0.000000 1.676940 
# 
# From -- ./inp_files/14768.got.cif
#   From: 2010.03.12/outbox.cif.g09.slc.cpg/sg36_8_cif.got.tgz:14768.got - 2010.04.14 02:13:53.
