data_PCOD8174553
_publ_section_title
;
Structure prediction by ZEFSAII (Michael W. Deem and Ramdas Pophale) SiO2 
 PCOD8174553
Probable space group: C M C 21
;
_chemical_formula_sum "Si O2"
_cell_formula_units_Z 56
_cell_length_a 18.577432
_cell_length_b 8.603024
_cell_length_c 19.564511
_cell_angle_alpha 90.000000
_cell_angle_beta 90.000000
_cell_angle_gamma 90.000000
_cell_volume 3126.841103
_symmetry_space_group_name_H-M "C M C 21"
_symmetry_group_IT_number 36
_symmetry_cell_setting 'orthorhombic'
loop_
_space_group_symop_operation_xyz
x,y,z
-x,-y,1/2+z
x,-y,1/2+z
-x,y,z
1/2+x,1/2+y,z
1/2-x,1/2-y,1/2+z
1/2+x,1/2-y,1/2+z
1/2-x,1/2+y,z
loop_
_atom_site_type_symbol
_atom_site_label
_atom_site_fract_x
_atom_site_fract_y
_atom_site_fract_z
Si Si1 0.196831 0.149679 0.055470
Si Si2 0.810582 0.311535 0.736014
Si Si3 0.806995 0.245457 0.448559
Si Si4 0.917038 0.003677 0.959807
Si Si5 0.698731 0.047550 0.373776
Si Si6 0.224957 0.578498 0.646713
Si Si7 0.581823 0.266830 0.342236
O O1 0.179394 0.306357 0.098299
O O2 0.209994 0.002329 0.104781
O O3 0.271972 0.171976 0.014190
O O4 0.127272 0.117926 0.009425
O O5 0.772629 0.408605 0.798011
O O6 0.826294 0.441953 0.677541
O O7 0.758890 0.178498 0.708105
O O8 0.882542 0.228040 0.766162
O O9 0.756975 0.099998 0.429337
O O10 0.812339 0.363973 0.384700
O O11 0.885331 0.171472 0.463614
O O12 0.910730 0.069321 0.882094
O O13 0.000000 0.999605 0.983585
O O14 0.622815 0.135336 0.387122
O O15 0.500000 0.215278 0.333853
#
# Coordination Sequence:
#
# PCOD8174553 Si02
#       7
#     8   8   8   8   8   8   8
#     4  11  19  36  57  84 110 148 192 238 272 340
#     4   9  20  35  51  85 108 141 185 240 272 335
#     4  12  19  34  59  87 109 147 190 240 289 337
#     4  11  23  38  57  87 120 148 184 243 305 345
#     4  10  19  31  60  83 108 142 190 236 285 335
#     4  10  20  33  59  80 109 145 201 232 271 327
#     4   9  20  37  56  80 117 151 182 239 300 343
#
# _framework density 17.909448000000001
#
# number of rings (size 3 to 8) (size 9 to 14) (size 15 to 20)
#    0.857    0.857    4.286    0.857    2.000    0.571 
#    0.000    1.429    0.000    0.000    0.000    0.000 
#    0.000    0.000    0.000    0.000    0.000    0.000 
#
# Total GULP energy -346939.025033 kJ/mol
# GULP energy per Si atom -12390.679465 kJ/mol
# Density = 1.786869 g / cm^3
# Si number density = 17.909448 Si / 1000 Ang^3
#
#
#
# Elastic Constant Matrix: (Units=GPa)
#
#
# Indices 1 2 3 4 5 6 
#
# 1 104.1506 37.2389 38.1316 0.0000 0.0000 0.0000
# 2 37.2389 93.4745 35.9401 0.0000 0.0000 0.0000
# 3 38.1316 35.9401 82.8327 0.0000 0.0000 0.0000
# 4 0.0000 0.0000 0.0000 39.5177 0.0000 0.0000
# 5 0.0000 0.0000 0.0000 0.0000 20.0410 0.0000
# 6 0.0000 0.0000 0.0000 0.0000 0.0000 25.3901
#
#
#
# Elastic Compliance Matrix: (Units=1/GPa)
#
#
# Indices 1 2 3 4 5 6 
#
# 1 0.012331 -0.003276 -0.004255 0.000000 0.000000 0.000000
# 2 -0.003276 0.013711 -0.004441 0.000000 0.000000 0.000000
# 3 -0.004255 -0.004441 0.015958 0.000000 0.000000 0.000000
# 4 0.000000 0.000000 0.000000 0.025305 0.000000 0.000000
# 5 0.000000 0.000000 0.000000 0.000000 0.049898 0.000000
# 6 0.000000 0.000000 0.000000 0.000000 0.000000 0.039385
#
#
# Mechanical properties :
#
#
# Convention : Reuss Voigt Hill
#
# Bulk Modulus (GPa) = 55.38420 55.89768 55.64094
# Shear Modulus (GPa) = 26.80245 28.26623 27.53434
#
# Velocity S-wave (km/s) = 3.87273 3.97707 3.92525
# Velocity P-wave (km/s) = 7.14066 7.23661 7.18880
#
# Compressibility (1/GPa) = 0.01805569
#
# Stress axis : x y z
#
# Youngs Moduli (GPa) = 81.09823 72.93528 62.66474
#
# Poissons Ratio (x) = 0.23897 0.26662
# Poissons Ratio (y) = 0.26572 0.27827
# Poissons Ratio (z) = 0.34505 0.32388
#
# Static dielectric constant tensor:
#      x y z
#    x 2.991500 0.000000 0.000000 
#    y 0.000000 3.375010 0.000000 
#    z 0.000000 0.000000 3.363380 
# 
# 
# High freq. dielectric constant tensor:
#      x y z
#    x 1.649790 0.000000 0.000000 
#    y 0.000000 1.704760 0.000000 
#    z 0.000000 0.000000 1.695010 
# 
# From -- ./inp_files/16208.got.cif
#   From: 2010.03.12/outbox.cif.g09.slc.cpg/sg36_9_cif.got.tgz:16208.got - 2010.04.14 02:13:53.
