data_PCOD8174989
_publ_section_title
;
Structure prediction by ZEFSAII (Michael W. Deem and Ramdas Pophale) SiO2 
 PCOD8174989
Probable space group: C M C 21
;
_chemical_formula_sum "Si O2"
_cell_formula_units_Z 48
_cell_length_a 8.880860
_cell_length_b 20.062831
_cell_length_c 13.941836
_cell_angle_alpha 90.000000
_cell_angle_beta 90.000000
_cell_angle_gamma 90.000000
_cell_volume 2484.089324
_symmetry_space_group_name_H-M "C M C 21"
_symmetry_group_IT_number 36
_symmetry_cell_setting 'orthorhombic'
loop_
_space_group_symop_operation_xyz
x,y,z
-x,-y,1/2+z
x,-y,1/2+z
-x,y,z
1/2+x,1/2+y,z
1/2-x,1/2-y,1/2+z
1/2+x,1/2-y,1/2+z
1/2-x,1/2+y,z
loop_
_atom_site_type_symbol
_atom_site_label
_atom_site_fract_x
_atom_site_fract_y
_atom_site_fract_z
Si Si1 0.823775 0.318740 0.111280
Si Si2 0.821952 0.360316 0.318554
Si Si3 0.176190 0.927581 0.623641
Si Si4 0.172555 0.488969 0.802580
Si Si5 0.670675 0.957597 0.015264
Si Si6 0.678412 0.807381 0.520917
O O1 0.773828 0.319534 0.223262
O O2 0.000000 0.302822 0.100596
O O3 0.782261 0.389975 0.066967
O O4 0.729549 0.265681 0.051667
O O5 0.761707 0.436172 0.313566
O O6 0.758730 0.323784 0.413761
O O7 0.000000 0.364292 0.325554
O O8 0.225902 0.948481 0.729305
O O9 0.257008 0.858982 0.597446
O O10 0.000000 0.914876 0.621753
O O11 0.218753 0.984252 0.547843
O O12 0.185059 0.448906 0.901654
O O13 0.000000 0.491575 0.765804
O O14 0.500000 0.977779 0.043448
O O15 0.500000 0.811520 0.522605
#
# Coordination Sequence:
#
# PCOD8174989 Si02
#       6
#     8   8   8   8   8   8
#     4  10  21  39  61  90 122 155 193 249 310 359
#     4   9  18  36  64  87 114 156 202 246 300 359
#     4  12  24  37  58  91 125 156 197 251 301 354
#     4  10  19  37  64  91 118 158 204 247 298 362
#     4  10  20  38  65  90 118 156 201 246 299 363
#     4  11  23  41  62  87 119 163 207 247 298 365
#
# _framework density 19.322977000000002
#
# number of rings (size 3 to 8) (size 9 to 14) (size 15 to 20)
#    0.000    1.667    3.333    2.000    0.000    2.667 
#    0.000    5.000    0.000    0.000    0.000    0.000 
#    0.000    0.000    0.000    0.000    0.000    0.000 
#
# Total GULP energy -297660.425997 kJ/mol
# GULP energy per Si atom -12402.517750 kJ/mol
# Density = 1.927900 g / cm^3
# Si number density = 19.322977 Si / 1000 Ang^3
#
#
#
# Elastic Constant Matrix: (Units=GPa)
#
#
# Indices 1 2 3 4 5 6 
#
# 1 65.4727 26.5940 18.8686 0.0000 0.0000 0.0000
# 2 26.5940 59.7318 22.4749 0.0000 0.0000 0.0000
# 3 18.8686 22.4749 102.0345 0.0000 0.0000 0.0000
# 4 0.0000 0.0000 0.0000 34.4663 0.0000 0.0000
# 5 0.0000 0.0000 0.0000 0.0000 24.6635 0.0000
# 6 0.0000 0.0000 0.0000 0.0000 0.0000 33.1530
#
#
#
# Elastic Compliance Matrix: (Units=1/GPa)
#
#
# Indices 1 2 3 4 5 6 
#
# 1 0.018942 -0.007758 -0.001794 0.000000 0.000000 0.000000
# 2 -0.007758 0.021432 -0.003286 0.000000 0.000000 0.000000
# 3 -0.001794 -0.003286 0.010856 0.000000 0.000000 0.000000
# 4 0.000000 0.000000 0.000000 0.029014 0.000000 0.000000
# 5 0.000000 0.000000 0.000000 0.000000 0.040546 0.000000
# 6 0.000000 0.000000 0.000000 0.000000 0.000000 0.030163
#
#
# Mechanical properties :
#
#
# Convention : Reuss Voigt Hill
#
# Bulk Modulus (GPa) = 39.13365 40.34598 39.73982
# Shear Modulus (GPa) = 27.00551 29.07667 28.04109
#
# Velocity S-wave (km/s) = 3.74248 3.88335 3.81357
# Velocity P-wave (km/s) = 6.24270 6.40565 6.32470
#
# Compressibility (1/GPa) = 0.02555345
#
# Stress axis : x y z
#
# Youngs Moduli (GPa) = 52.79311 46.65890 92.11367
#
# Poissons Ratio (x) = 0.36200 0.16524
# Poissons Ratio (y) = 0.40959 0.30269
# Poissons Ratio (z) = 0.09470 0.15333
#
# Static dielectric constant tensor:
#      x y z
#    x 3.270590 0.000000 0.000000 
#    y 0.000000 3.496590 0.000000 
#    z 0.000000 0.000000 3.793450 
# 
# 
# High freq. dielectric constant tensor:
#      x y z
#    x 1.726380 0.000000 0.000000 
#    y 0.000000 1.747880 0.000000 
#    z 0.000000 0.000000 1.770310 
# 
# From -- ./inp_files/10347.got.cif
#   From: 2010.03.12/outbox.cif.g09.slc.cpg/sg36_6_cif.got.tgz:10347.got - 2010.04.14 02:13:53.
