data_PCOD8174147
_publ_section_title
;
Structure prediction by ZEFSAII (Michael W. Deem and Ramdas Pophale) SiO2 
 PCOD8174147
Probable space group: C M M 2
;
_chemical_formula_sum "Si O2"
_cell_formula_units_Z 48
_cell_length_a 9.978533
_cell_length_b 17.947847
_cell_length_c 13.720358
_cell_angle_alpha 90.000000
_cell_angle_beta 90.000000
_cell_angle_gamma 90.000000
_cell_volume 2457.222594
_symmetry_space_group_name_H-M "C M M 2"
_symmetry_group_IT_number 35
_symmetry_cell_setting 'orthorhombic'
loop_
_space_group_symop_operation_xyz
x,y,z
-x,-y,z
-x,y,z
x,-y,z
1/2+x,1/2+y,z
1/2-x,1/2-y,z
1/2-x,1/2+y,z
1/2+x,1/2-y,z
loop_
_atom_site_type_symbol
_atom_site_label
_atom_site_fract_x
_atom_site_fract_y
_atom_site_fract_z
Si Si1 0.234740 0.333143 0.644080
Si Si2 0.154361 0.411511 0.044740
Si Si3 0.000000 0.587472 0.314034
Si Si4 0.000000 0.832395 0.368900
Si Si5 0.655392 0.919650 0.833131
Si Si6 0.255918 0.663693 0.224309
Si Si7 0.000000 0.088424 0.565240
Si Si8 0.500000 0.823537 0.490927
O O1 0.250000 0.250000 0.680857
O O2 0.177676 0.371199 0.739000
O O3 0.370779 0.373095 0.612499
O O4 0.133114 0.329045 0.554292
O O5 0.162412 0.500000 0.050501
O O6 0.263392 0.377332 0.119721
O O7 0.000000 0.386183 0.069412
O O8 0.202499 0.384328 0.936702
O O9 0.127050 0.630122 0.274604
O O10 0.000000 0.500000 0.287149
O O11 0.000000 0.600184 0.429673
O O12 0.124705 0.848404 0.299548
O O13 0.000000 0.896451 0.450239
O O14 0.000000 0.750966 0.422222
O O15 0.500000 0.933270 0.847767
O O16 0.725982 0.000000 0.816538
O O17 0.250000 0.750000 0.200251
O O18 0.000000 0.000000 0.584859
#
# Coordination Sequence:
#
# PCOD8174147 Si02
#       8
#     8   8   4   4   8   8   4   4
#     4  12  23  41  69  94 131 178 223 273 333 410
#     4   9  19  39  66  96 131 169 219 282 336 389
#     4  12  26  42  67  97 125 171 232 276 318 396
#     4  12  26  44  61  95 138 177 214 279 351 384
#     4   9  19  38  65  97 130 167 220 281 332 388
#     4  12  23  40  67  94 131 174 216 272 335 403
#     4  12  28  44  63  97 139 177 216 282 352 394
#     4  12  24  44  65  95 128 175 232 275 331 386
#
# _framework density 19.534248999999999
#
# number of rings (size 3 to 8) (size 9 to 14) (size 15 to 20)
#    0.000    1.000    5.000    3.000    0.000    4.667 
#    0.000    0.833    0.000    2.000    0.000    0.000 
#    0.000    0.000    0.000    0.000    0.000    0.000 
#
# Total GULP energy -297364.995807 kJ/mol
# GULP energy per Si atom -12390.208159 kJ/mol
# Density = 1.948979 g / cm^3
# Si number density = 19.534249 Si / 1000 Ang^3
#
#
#
# Elastic Constant Matrix: (Units=GPa)
#
#
# Indices 1 2 3 4 5 6 
#
# 1 90.5054 41.7820 38.5711 0.0000 0.0000 0.0000
# 2 41.7820 113.2491 55.7742 0.0000 0.0000 0.0000
# 3 38.5711 55.7742 149.7378 0.0000 0.0000 0.0000
# 4 0.0000 0.0000 0.0000 25.1054 0.0000 0.0000
# 5 0.0000 0.0000 0.0000 0.0000 27.1265 0.0000
# 6 0.0000 0.0000 0.0000 0.0000 0.0000 30.5551
#
#
#
# Elastic Compliance Matrix: (Units=1/GPa)
#
#
# Indices 1 2 3 4 5 6 
#
# 1 0.013804 -0.004092 -0.002031 0.000000 0.000000 0.000000
# 2 -0.004092 0.012027 -0.003426 0.000000 0.000000 0.000000
# 3 -0.002031 -0.003426 0.008478 0.000000 0.000000 0.000000
# 4 0.000000 0.000000 0.000000 0.039832 0.000000 0.000000
# 5 0.000000 0.000000 0.000000 0.000000 0.036864 0.000000
# 6 0.000000 0.000000 0.000000 0.000000 0.000000 0.032728
#
#
# Mechanical properties :
#
#
# Convention : Reuss Voigt Hill
#
# Bulk Modulus (GPa) = 65.74749 69.52741 67.63745
# Shear Modulus (GPa) = 29.77929 31.04839 30.41384
#
# Velocity S-wave (km/s) = 3.90868 3.99109 3.95010
# Velocity P-wave (km/s) = 7.35533 7.54376 7.45014
#
# Compressibility (1/GPa) = 0.01520971
#
# Stress axis : x y z
#
# Youngs Moduli (GPa) = 72.44233 83.14599 117.95765
#
# Poissons Ratio (x) = 0.34026 0.23963
# Poissons Ratio (y) = 0.29646 0.40408
# Poissons Ratio (z) = 0.14717 0.28483
#
# Static dielectric constant tensor:
#      x y z
#    x 3.457530 0.000000 0.000000 
#    y 0.000000 3.724580 0.000000 
#    z 0.000000 0.000000 4.009890 
# 
# 
# High freq. dielectric constant tensor:
#      x y z
#    x 1.746910 0.000000 0.000000 
#    y 0.000000 1.760560 0.000000 
#    z 0.000000 0.000000 1.786340 
# 
# From -- ./inp_files/15324.got.cif
#   From: 2010.03.12/outbox.cif.g09.slc.cpg/sg35_8_cif.got.tgz:15324.got - 2010.04.14 02:02:04.
