data_PCOD8174532
_publ_section_title
;
Structure prediction by ZEFSAII (Michael W. Deem and Ramdas Pophale) SiO2 
 PCOD8174532
Probable space group: C M C 21
;
_chemical_formula_sum "Si O2"
_cell_formula_units_Z 64
_cell_length_a 8.904363
_cell_length_b 20.058053
_cell_length_c 20.093468
_cell_angle_alpha 90.000000
_cell_angle_beta 90.000000
_cell_angle_gamma 90.000000
_cell_volume 3588.777476
_symmetry_space_group_name_H-M "C M C 21"
_symmetry_group_IT_number 36
_symmetry_cell_setting 'orthorhombic'
loop_
_space_group_symop_operation_xyz
x,y,z
-x,-y,1/2+z
x,-y,1/2+z
-x,y,z
1/2+x,1/2+y,z
1/2-x,1/2-y,1/2+z
1/2+x,1/2-y,1/2+z
1/2-x,1/2+y,z
loop_
_atom_site_type_symbol
_atom_site_label
_atom_site_fract_x
_atom_site_fract_y
_atom_site_fract_z
Si Si1 0.178164 0.167140 0.918340
Si Si2 0.821657 0.091522 0.543881
Si Si3 0.673531 0.232723 0.160098
Si Si4 0.177544 0.161233 0.769320
Si Si5 0.671278 0.085711 0.141021
Si Si6 0.176906 0.051909 0.008268
Si Si7 0.821849 0.725359 0.523821
Si Si8 0.823847 0.557803 0.681432
O O1 0.237024 0.177664 0.843467
O O2 0.000000 0.169597 0.919510
O O3 0.234915 0.094896 0.945387
O O4 0.239639 0.224752 0.967035
O O5 0.749497 0.153861 0.505965
O O6 0.761157 0.090139 0.618996
O O7 0.000000 0.098638 0.546250
O O8 0.767768 0.024773 0.504902
O O9 0.500000 0.246993 0.142577
O O10 0.725258 0.276985 0.222681
O O11 0.698449 0.155011 0.180351
O O12 0.771312 0.250400 0.096210
O O13 0.258969 0.093302 0.746771
O O14 0.000000 0.148988 0.768570
O O15 0.500000 0.079533 0.117221
O O16 0.770248 0.087667 0.075203
O O17 0.711452 0.021550 0.186711
O O18 0.000000 0.053077 0.011310
O O19 0.000000 0.719778 0.523045
O O20 0.000000 0.572066 0.674252
#
# Coordination Sequence:
#
# PCOD8174532 Si02
#       8
#     8   8   8   8   8   8   8   8
#     4   9  19  35  53  75 102 139 179 216 259 310
#     4  10  19  31  51  77 103 131 168 214 264 312
#     4  10  19  32  52  77 103 136 176 215 258 311
#     4  10  20  35  54  74 103 141 180 213 257 320
#     4   9  18  31  49  75 104 129 163 214 263 302
#     4   9  17  32  52  73  98 131 172 212 251 303
#     4  11  20  32  53  78 106 136 172 221 263 305
#     4  10  19  32  50  75 105 133 168 215 261 305
#
# _framework density 17.833372000000001
#
# number of rings (size 3 to 8) (size 9 to 14) (size 15 to 20)
#    0.000    2.250    2.500    1.125    0.000    1.000 
#    0.000    3.125    0.000    1.500    0.000    0.000 
#    0.000    0.000    0.000    0.000    0.000    0.000 
#
# Total GULP energy -396706.416628 kJ/mol
# GULP energy per Si atom -12397.075520 kJ/mol
# Density = 1.779278 g / cm^3
# Si number density = 17.833372 Si / 1000 Ang^3
#
#
#
# Elastic Constant Matrix: (Units=GPa)
#
#
# Indices 1 2 3 4 5 6 
#
# 1 37.8777 31.8655 25.4497 0.0000 0.0000 0.0000
# 2 31.8655 152.0072 78.2376 0.0000 0.0000 0.0000
# 3 25.4497 78.2376 125.5648 0.0000 0.0000 0.0000
# 4 0.0000 0.0000 0.0000 27.1470 0.0000 0.0000
# 5 0.0000 0.0000 0.0000 0.0000 17.9520 0.0000
# 6 0.0000 0.0000 0.0000 0.0000 0.0000 24.0536
#
#
#
# Elastic Compliance Matrix: (Units=1/GPa)
#
#
# Indices 1 2 3 4 5 6 
#
# 1 0.033071 -0.005127 -0.003508 0.000000 0.000000 0.000000
# 2 -0.005127 0.010479 -0.005490 0.000000 0.000000 0.000000
# 3 -0.003508 -0.005490 0.012096 0.000000 0.000000 0.000000
# 4 0.000000 0.000000 0.000000 0.036836 0.000000 0.000000
# 5 0.000000 0.000000 0.000000 0.000000 0.055704 0.000000
# 6 0.000000 0.000000 0.000000 0.000000 0.000000 0.041574
#
#
# Mechanical properties :
#
#
# Convention : Reuss Voigt Hill
#
# Bulk Modulus (GPa) = 36.50288 65.17281 50.83785
# Shear Modulus (GPa) = 22.01247 25.82366 23.91806
#
# Velocity S-wave (km/s) = 3.51713 3.80946 3.66621
# Velocity P-wave (km/s) = 6.08333 7.48158 6.81839
#
# Compressibility (1/GPa) = 0.02739510
#
# Stress axis : x y z
#
# Youngs Moduli (GPa) = 30.23779 95.42648 82.67173
#
# Poissons Ratio (x) = 0.48925 0.29004
# Poissons Ratio (y) = 0.15503 0.45389
# Poissons Ratio (z) = 0.10608 0.52392
#
# Static dielectric constant tensor:
#      x y z
#    x 3.191350 0.000000 0.000000 
#    y 0.000000 3.786120 0.000000 
#    z 0.000000 0.000000 3.231560 
# 
# 
# High freq. dielectric constant tensor:
#      x y z
#    x 1.680410 0.000000 0.000000 
#    y 0.000000 1.710550 0.000000 
#    z 0.000000 0.000000 1.656310 
# 
# From -- ./inp_files/13823.got.cif
#   From: 2010.03.12/outbox.cif.g09.slc.cpg/sg36_7_cif.got.tgz:13823.got - 2010.04.14 02:13:53.
