data_PCOD8174527
_publ_section_title
;
Structure prediction by ZEFSAII (Michael W. Deem and Ramdas Pophale) SiO2 
 PCOD8174527
Probable space group: C M C 21
;
_chemical_formula_sum "Si O2"
_cell_formula_units_Z 64
_cell_length_a 9.394951
_cell_length_b 23.502686
_cell_length_c 14.566821
_cell_angle_alpha 90.000000
_cell_angle_beta 90.000000
_cell_angle_gamma 90.000000
_cell_volume 3216.449975
_symmetry_space_group_name_H-M "C M C 21"
_symmetry_group_IT_number 36
_symmetry_cell_setting 'orthorhombic'
loop_
_space_group_symop_operation_xyz
x,y,z
-x,-y,1/2+z
x,-y,1/2+z
-x,y,z
1/2+x,1/2+y,z
1/2-x,1/2-y,1/2+z
1/2+x,1/2-y,1/2+z
1/2-x,1/2+y,z
loop_
_atom_site_type_symbol
_atom_site_label
_atom_site_fract_x
_atom_site_fract_y
_atom_site_fract_z
Si Si1 0.667308 0.309965 0.395220
Si Si2 0.835337 0.107843 0.744777
Si Si3 0.834567 0.542549 0.491820
Si Si4 0.164201 0.578352 0.293797
Si Si5 0.669620 0.491811 0.655062
Si Si6 0.657297 0.154576 0.594358
Si Si7 0.335186 0.792793 0.771790
Si Si8 0.661352 0.717977 0.087947
O O1 0.500000 0.298871 0.402334
O O2 0.701726 0.370998 0.347615
O O3 0.730960 0.256182 0.337897
O O4 0.725475 0.315285 0.499283
O O5 0.783831 0.044380 0.721102
O O6 0.763393 0.153948 0.679480
O O7 0.000000 0.112457 0.723956
O O8 0.794188 0.540651 0.383756
O O9 0.736956 0.500287 0.553335
O O10 0.801042 0.607528 0.519586
O O11 0.000000 0.526615 0.507032
O O12 0.263167 0.562305 0.206677
O O13 0.186374 0.644997 0.316826
O O14 0.000000 0.566655 0.267539
O O15 0.500000 0.484465 0.645117
O O16 0.500000 0.141131 0.632710
O O17 0.664132 0.217001 0.551620
O O18 0.500000 0.779959 0.752556
O O19 0.257955 0.793288 0.674452
O O20 0.500000 0.699171 0.112279
#
# Coordination Sequence:
#
# PCOD8174527 Si02
#       8
#     8   8   8   8   8   8   8   8
#     4   9  17  32  54  77 106 143 177 211 262 326
#     4   9  17  32  53  74  99 135 176 213 260 319
#     4   9  18  35  59  83 106 141 189 233 273 319
#     4  10  21  38  59  81 109 146 187 228 273 328
#     4  10  21  36  56  82 111 142 181 230 278 327
#     4   9  16  28  50  78 106 134 173 224 265 307
#     4  10  20  36  57  80 109 145 182 222 269 324
#     4  10  19  31  50  79 112 144 177 213 266 328
#
# _framework density 19.897713
#
# number of rings (size 3 to 8) (size 9 to 14) (size 15 to 20)
#    0.000    2.500    1.250    1.125    0.000    4.500 
#    2.250    1.250    0.000    3.000    0.000    0.000 
#    0.000    0.000    0.000    0.000    0.000    0.000 
#
# Total GULP energy -396577.034564 kJ/mol
# GULP energy per Si atom -12393.032330 kJ/mol
# Density = 1.985243 g / cm^3
# Si number density = 19.897713 Si / 1000 Ang^3
#
#
#
# Elastic Constant Matrix: (Units=GPa)
#
#
# Indices 1 2 3 4 5 6 
#
# 1 47.6878 10.1554 27.7804 0.0000 0.0000 0.0000
# 2 10.1554 30.7211 1.5934 0.0000 0.0000 0.0000
# 3 27.7804 1.5934 96.4309 0.0000 0.0000 0.0000
# 4 0.0000 0.0000 0.0000 26.8130 0.0000 0.0000
# 5 0.0000 0.0000 0.0000 0.0000 29.3929 0.0000
# 6 0.0000 0.0000 0.0000 0.0000 0.0000 20.3347
#
#
#
# Elastic Compliance Matrix: (Units=1/GPa)
#
#
# Indices 1 2 3 4 5 6 
#
# 1 0.027306 -0.008626 -0.007724 0.000000 0.000000 0.000000
# 2 -0.008626 0.035304 0.001902 0.000000 0.000000 0.000000
# 3 -0.007724 0.001902 0.012564 0.000000 0.000000 0.000000
# 4 0.000000 0.000000 0.000000 0.037295 0.000000 0.000000
# 5 0.000000 0.000000 0.000000 0.000000 0.034022 0.000000
# 6 0.000000 0.000000 0.000000 0.000000 0.000000 0.049177
#
#
# Mechanical properties :
#
#
# Convention : Reuss Voigt Hill
#
# Bulk Modulus (GPa) = 21.60887 28.21092 24.90989
# Shear Modulus (GPa) = 20.83413 24.32882 22.58147
#
# Velocity S-wave (km/s) = 3.23934 3.50050 3.37245
# Velocity P-wave (km/s) = 4.98745 5.52691 5.26410
#
# Compressibility (1/GPa) = 0.04627729
#
# Stress axis : x y z
#
# Youngs Moduli (GPa) = 36.62157 28.32554 79.59314
#
# Poissons Ratio (x) = 0.24434 0.61478
# Poissons Ratio (y) = 0.31590 -0.15136
# Poissons Ratio (z) = 0.28287 -0.05387
#
# Static dielectric constant tensor:
#      x y z
#    x 3.415540 0.000000 0.000000 
#    y 0.000000 3.579200 0.000000 
#    z 0.000000 0.000000 3.719980 
# 
# 
# High freq. dielectric constant tensor:
#      x y z
#    x 1.752290 0.000000 0.000000 
#    y 0.000000 1.767440 0.000000 
#    z 0.000000 0.000000 1.775330 
# 
# From -- ./inp_files/11020.got.cif
#   From: 2010.03.12/outbox.cif.g09.slc.cpg/sg36_6_cif.got.tgz:11020.got - 2010.04.14 02:13:53.
