data_PCOD8174402
_publ_section_title
;
Structure prediction by ZEFSAII (Michael W. Deem and Ramdas Pophale) SiO2 
 PCOD8174402
Probable space group: C M C 21
;
_chemical_formula_sum "Si O2"
_cell_formula_units_Z 64
_cell_length_a 8.895030
_cell_length_b 23.381534
_cell_length_c 14.450679
_cell_angle_alpha 90.000000
_cell_angle_beta 90.000000
_cell_angle_gamma 90.000000
_cell_volume 3005.444218
_symmetry_space_group_name_H-M "C M C 21"
_symmetry_group_IT_number 36
_symmetry_cell_setting 'orthorhombic'
loop_
_space_group_symop_operation_xyz
x,y,z
-x,-y,1/2+z
x,-y,1/2+z
-x,y,z
1/2+x,1/2+y,z
1/2-x,1/2-y,1/2+z
1/2+x,1/2-y,1/2+z
1/2-x,1/2+y,z
loop_
_atom_site_type_symbol
_atom_site_label
_atom_site_fract_x
_atom_site_fract_y
_atom_site_fract_z
Si Si1 0.823739 0.316452 0.426480
Si Si2 0.174560 0.113588 0.781577
Si Si3 0.676062 0.551860 0.510534
Si Si4 0.176829 0.584521 0.333879
Si Si5 0.673098 0.492321 0.695457
Si Si6 0.669830 0.151928 0.607471
Si Si7 0.177324 0.796454 0.814162
Si Si8 0.669921 0.718194 0.103480
O O1 0.733279 0.370197 0.383422
O O2 0.773045 0.258166 0.374655
O O3 0.778856 0.315762 0.534344
O O4 0.000000 0.327133 0.416579
O O5 0.275570 0.151860 0.713338
O O6 0.000000 0.129275 0.769390
O O7 0.201486 0.047030 0.760581
O O8 0.500000 0.548693 0.490672
O O9 0.763399 0.541637 0.414488
O O10 0.722701 0.506002 0.589680
O O11 0.716140 0.614950 0.546782
O O12 0.229864 0.560291 0.234472
O O13 0.240526 0.647542 0.353287
O O14 0.000000 0.587003 0.337376
O O15 0.500000 0.473767 0.697900
O O16 0.500000 0.127221 0.600885
O O17 0.674625 0.216183 0.571456
O O18 0.228803 0.788203 0.708018
O O19 0.000000 0.805879 0.821624
O O20 0.500000 0.694476 0.095017
#
# Coordination Sequence:
#
# PCOD8174402 Si02
#       8
#     8   8   8   8   8   8   8   8
#     4  11  22  37  59  89 121 158 200 247 300 355
#     4  10  20  36  60  86 114 152 196 240 296 359
#     4  10  21  39  64  92 119 159 207 246 299 367
#     4  12  25  40  62  93 124 158 201 256 311 355
#     4   9  21  42  65  88 115 156 203 246 296 362
#     4  10  18  33  58  88 120 151 195 251 297 342
#     4  10  22  42  62  84 123 169 204 241 299 367
#     4  10  21  37  56  84 120 161 200 239 296 363
#
# _framework density 21.294689999999999
#
# number of rings (size 3 to 8) (size 9 to 14) (size 15 to 20)
#    0.000    1.750    1.250    4.125    0.000    7.500 
#    2.250    0.000    0.000    0.000    0.000    0.000 
#    0.000    0.000    0.000    0.000    0.000    0.000 
#
# Total GULP energy -396853.240350 kJ/mol
# GULP energy per Si atom -12401.663761 kJ/mol
# Density = 2.124622 g / cm^3
# Si number density = 21.294690 Si / 1000 Ang^3
#
#
#
# Elastic Constant Matrix: (Units=GPa)
#
#
# Indices 1 2 3 4 5 6 
#
# 1 68.7241 14.6299 15.7333 0.0000 0.0000 0.0000
# 2 14.6299 32.1828 0.1685 0.0000 0.0000 0.0000
# 3 15.7333 0.1685 87.6562 0.0000 0.0000 0.0000
# 4 0.0000 0.0000 0.0000 26.4155 0.0000 0.0000
# 5 0.0000 0.0000 0.0000 0.0000 36.0198 0.0000
# 6 0.0000 0.0000 0.0000 0.0000 0.0000 29.7267
#
#
#
# Elastic Compliance Matrix: (Units=1/GPa)
#
#
# Indices 1 2 3 4 5 6 
#
# 1 0.016870 -0.007653 -0.003013 0.000000 0.000000 0.000000
# 2 -0.007653 0.034545 0.001307 0.000000 0.000000 0.000000
# 3 -0.003013 0.001307 0.011947 0.000000 0.000000 0.000000
# 4 0.000000 0.000000 0.000000 0.037857 0.000000 0.000000
# 5 0.000000 0.000000 0.000000 0.000000 0.027763 0.000000
# 6 0.000000 0.000000 0.000000 0.000000 0.000000 0.033640
#
#
# Mechanical properties :
#
#
# Convention : Reuss Voigt Hill
#
# Bulk Modulus (GPa) = 22.39997 27.73628 25.06812
# Shear Modulus (GPa) = 25.48171 28.96782 27.22476
#
# Velocity S-wave (km/s) = 3.46298 3.69227 3.57946
# Velocity P-wave (km/s) = 5.15087 5.58841 5.37410
#
# Compressibility (1/GPa) = 0.04464293
#
# Stress axis : x y z
#
# Youngs Moduli (GPa) = 59.27697 28.94804 83.70624
#
# Poissons Ratio (x) = 0.22154 0.25223
# Poissons Ratio (y) = 0.45365 -0.10942
# Poissons Ratio (z) = 0.17862 -0.03784
#
# Static dielectric constant tensor:
#      x y z
#    x 3.703460 0.000000 0.000000 
#    y 0.000000 3.586670 0.000000 
#    z 0.000000 0.000000 3.982740 
# 
# 
# High freq. dielectric constant tensor:
#      x y z
#    x 1.830230 0.000000 0.000000 
#    y 0.000000 1.814790 0.000000 
#    z 0.000000 0.000000 1.843050 
# 
# From -- ./inp_files/11021.got.cif
#   From: 2010.03.12/outbox.cif.g09.slc.cpg/sg36_6_cif.got.tgz:11021.got - 2010.04.14 02:13:53.
