data_PCOD8174707
_publ_section_title
;
Structure prediction by ZEFSAII (Michael W. Deem and Ramdas Pophale) SiO2 
 PCOD8174707
Probable space group: C M C 21
;
_chemical_formula_sum "Si O2"
_cell_formula_units_Z 64
_cell_length_a 9.291770
_cell_length_b 24.459731
_cell_length_c 14.285614
_cell_angle_alpha 90.000000
_cell_angle_beta 90.000000
_cell_angle_gamma 90.000000
_cell_volume 3246.751418
_symmetry_space_group_name_H-M "C M C 21"
_symmetry_group_IT_number 36
_symmetry_cell_setting 'orthorhombic'
loop_
_space_group_symop_operation_xyz
x,y,z
-x,-y,1/2+z
x,-y,1/2+z
-x,y,z
1/2+x,1/2+y,z
1/2-x,1/2-y,1/2+z
1/2+x,1/2-y,1/2+z
1/2-x,1/2+y,z
loop_
_atom_site_type_symbol
_atom_site_label
_atom_site_fract_x
_atom_site_fract_y
_atom_site_fract_z
Si Si1 0.658263 0.760789 0.755490
Si Si2 0.341546 0.129204 0.155652
Si Si3 0.668041 0.160406 0.770417
Si Si4 0.667123 0.813002 0.480058
Si Si5 0.330586 0.448840 0.783484
Si Si6 0.332999 0.559557 0.686782
Si Si7 0.330721 0.793814 0.962085
Si Si8 0.167361 0.095145 0.483107
O O1 0.500000 0.733643 0.766932
O O2 0.654831 0.806683 0.677695
O O3 0.770697 0.714982 0.721425
O O4 0.703049 0.790308 0.851893
O O5 0.500000 0.102832 0.172571
O O6 0.224471 0.098628 0.216001
O O7 0.302045 0.133738 0.045748
O O8 0.500000 0.156785 0.751441
O O9 0.711287 0.164892 0.878661
O O10 0.741097 0.108226 0.727040
O O11 0.500000 0.795569 0.482763
O O12 0.761363 0.760030 0.509365
O O13 0.500000 0.447187 0.777953
O O14 0.274067 0.505622 0.739755
O O15 0.278950 0.438357 0.890656
O O16 0.500000 0.569168 0.710050
O O17 0.309676 0.556321 0.574062
O O18 0.500000 0.796592 0.985212
O O19 0.257346 0.849464 0.998810
O O20 0.000000 0.111152 0.471711
#
# Coordination Sequence:
#
# PCOD8174707 Si02
#       8
#     8   8   8   8   8   8   8   8
#     4   9  18  33  54  81 115 152 185 226 283 342
#     4  10  20  36  58  84 116 154 190 229 285 345
#     4  10  21  37  56  83 117 150 191 240 283 332
#     4   9  20  36  55  83 120 159 191 227 286 347
#     4  10  22  40  61  85 113 149 196 243 284 335
#     4  10  23  41  60  83 113 153 194 234 291 350
#     4  10  19  33  55  85 116 148 192 237 279 332
#     4  10  21  38  59  82 112 149 187 234 289 343
#
# _framework density 19.712011
#
# number of rings (size 3 to 8) (size 9 to 14) (size 15 to 20)
#    0.000    2.250    1.250    0.750    1.750    4.000 
#    0.000    1.250    0.000    0.000    0.000    0.000 
#    0.000    0.000    0.000    0.000    0.000    0.000 
#
# Total GULP energy -396707.774956 kJ/mol
# GULP energy per Si atom -12397.117967 kJ/mol
# Density = 1.966715 g / cm^3
# Si number density = 19.712011 Si / 1000 Ang^3
#
#
#
# Elastic Constant Matrix: (Units=GPa)
#
#
# Indices 1 2 3 4 5 6 
#
# 1 57.3036 41.0546 29.9195 0.0000 0.0000 0.0000
# 2 41.0546 97.0425 48.7179 0.0000 0.0000 0.0000
# 3 29.9195 48.7179 80.6315 0.0000 0.0000 0.0000
# 4 0.0000 0.0000 0.0000 26.6409 0.0000 0.0000
# 5 0.0000 0.0000 0.0000 0.0000 25.7155 0.0000
# 6 0.0000 0.0000 0.0000 0.0000 0.0000 27.5552
#
#
#
# Elastic Compliance Matrix: (Units=1/GPa)
#
#
# Indices 1 2 3 4 5 6 
#
# 1 0.026047 -0.008852 -0.004316 0.000000 0.000000 0.000000
# 2 -0.008852 0.017800 -0.007470 0.000000 0.000000 0.000000
# 3 -0.004316 -0.007470 0.018517 0.000000 0.000000 0.000000
# 4 0.000000 0.000000 0.000000 0.037536 0.000000 0.000000
# 5 0.000000 0.000000 0.000000 0.000000 0.038887 0.000000
# 6 0.000000 0.000000 0.000000 0.000000 0.000000 0.036291
#
#
# Mechanical properties :
#
#
# Convention : Reuss Voigt Hill
#
# Bulk Modulus (GPa) = 47.42399 52.70685 50.06542
# Shear Modulus (GPa) = 22.38294 23.66802 23.02548
#
# Velocity S-wave (km/s) = 3.37337 3.46886 3.42145
# Velocity P-wave (km/s) = 6.26765 6.54526 6.40796
#
# Compressibility (1/GPa) = 0.02108637
#
# Stress axis : x y z
#
# Youngs Moduli (GPa) = 38.39244 56.17993 54.00384
#
# Poissons Ratio (x) = 0.49732 0.23310
# Poissons Ratio (y) = 0.33986 0.40341
# Poissons Ratio (z) = 0.16572 0.41967
#
# Static dielectric constant tensor:
#      x y z
#    x 3.590760 0.000000 0.000000 
#    y 0.000000 3.472680 0.000000 
#    z 0.000000 0.000000 3.858540 
# 
# 
# High freq. dielectric constant tensor:
#      x y z
#    x 1.763590 0.000000 0.000000 
#    y 0.000000 1.749660 0.000000 
#    z 0.000000 0.000000 1.782130 
# 
# From -- ./inp_files/10890.got.cif
#   From: 2010.03.12/outbox.cif.g09.slc.cpg/sg36_6_cif.got.tgz:10890.got - 2010.04.14 02:13:53.
