data_PCOD8174443
_publ_section_title
;
Structure prediction by ZEFSAII (Michael W. Deem and Ramdas Pophale) SiO2 
 PCOD8174443
Probable space group: C M C 21
;
_chemical_formula_sum "Si O2"
_cell_formula_units_Z 64
_cell_length_a 17.679441
_cell_length_b 12.127890
_cell_length_c 14.091150
_cell_angle_alpha 90.000000
_cell_angle_beta 90.000000
_cell_angle_gamma 90.000000
_cell_volume 3021.344285
_symmetry_space_group_name_H-M "C M C 21"
_symmetry_group_IT_number 36
_symmetry_cell_setting 'orthorhombic'
loop_
_space_group_symop_operation_xyz
x,y,z
-x,-y,1/2+z
x,-y,1/2+z
-x,y,z
1/2+x,1/2+y,z
1/2-x,1/2-y,1/2+z
1/2+x,1/2-y,1/2+z
1/2-x,1/2+y,z
loop_
_atom_site_type_symbol
_atom_site_label
_atom_site_fract_x
_atom_site_fract_y
_atom_site_fract_z
Si Si1 0.910512 0.561660 0.457850
Si Si2 0.589511 0.598119 0.523670
Si Si3 0.330921 0.902270 0.772667
Si Si4 0.330698 0.524267 0.346126
Si Si5 0.082607 0.215731 0.253456
Si Si6 0.170084 0.386738 0.143470
Si Si7 0.167749 0.843492 0.200595
Si Si8 0.082650 0.322201 0.448773
O O1 0.894209 0.610686 0.354020
O O2 0.865160 0.622337 0.539524
O O3 0.875482 0.437678 0.463192
O O4 0.000000 0.567602 0.476225
O O5 0.500000 0.581710 0.499914
O O6 0.641014 0.517325 0.456885
O O7 0.601995 0.597087 0.637239
O O8 0.623577 0.718863 0.496769
O O9 0.251712 0.921861 0.828136
O O10 0.334815 0.788499 0.712930
O O11 0.353111 0.002575 0.701744
O O12 0.391049 0.596675 0.288640
O O13 0.332027 0.399989 0.304603
O O14 0.142746 0.270399 0.184859
O O15 0.075160 0.302731 0.337665
O O16 0.000000 0.201389 0.204748
O O17 0.259712 0.379758 0.139775
O O18 0.000000 0.331918 0.496086
#
# Coordination Sequence:
#
# PCOD8174443 Si02
#       8
#     8   8   8   8   8   8   8   8
#     4  11  22  36  59  95 128 161 204 258 319 371
#     4  10  21  39  64  90 120 170 220 254 300 372
#     4  11  23  41  64  91 131 166 202 261 323 376
#     4  10  22  41  63  91 121 165 214 257 310 372
#     4  10  18  36  63  86 117 161 209 254 298 362
#     4  11  22  39  62  93 125 163 207 255 316 380
#     4  11  24  42  62  91 129 166 211 258 319 378
#     4   8  16  32  57  87 116 152 199 247 300 363
#
# _framework density 21.182624000000001
#
# number of rings (size 3 to 8) (size 9 to 14) (size 15 to 20)
#    0.000    1.750    2.500    3.000    0.000    2.000 
#    2.250    2.500    0.000    0.000    0.000    0.000 
#    0.000    0.000    0.000    0.000    0.000    0.000 
#
# Total GULP energy -396455.723939 kJ/mol
# GULP energy per Si atom -12389.241373 kJ/mol
# Density = 2.113441 g / cm^3
# Si number density = 21.182624 Si / 1000 Ang^3
#
#
#
# Elastic Constant Matrix: (Units=GPa)
#
#
# Indices 1 2 3 4 5 6 
#
# 1 68.1133 0.7641 15.6128 0.0000 0.0000 0.0000
# 2 0.7641 56.6359 9.6078 0.0000 0.0000 0.0000
# 3 15.6128 9.6078 88.2451 0.0000 0.0000 0.0000
# 4 0.0000 0.0000 0.0000 22.7983 0.0000 0.0000
# 5 0.0000 0.0000 0.0000 0.0000 35.2951 0.0000
# 6 0.0000 0.0000 0.0000 0.0000 0.0000 22.0274
#
#
#
# Elastic Compliance Matrix: (Units=1/GPa)
#
#
# Indices 1 2 3 4 5 6 
#
# 1 0.015306 0.000258 -0.002736 0.000000 0.000000 0.000000
# 2 0.000258 0.017993 -0.002005 0.000000 0.000000 0.000000
# 3 -0.002736 -0.002005 0.012034 0.000000 0.000000 0.000000
# 4 0.000000 0.000000 0.000000 0.043863 0.000000 0.000000
# 5 0.000000 0.000000 0.000000 0.000000 0.028333 0.000000
# 6 0.000000 0.000000 0.000000 0.000000 0.000000 0.045398
#
#
# Mechanical properties :
#
#
# Convention : Reuss Voigt Hill
#
# Bulk Modulus (GPa) = 27.49721 29.44041 28.46881
# Shear Modulus (GPa) = 27.17166 28.49147 27.83156
#
# Velocity S-wave (km/s) = 3.58541 3.67146 3.62869
# Velocity P-wave (km/s) = 5.49085 5.64813 5.57004
#
# Compressibility (1/GPa) = 0.03636733
#
# Stress axis : x y z
#
# Youngs Moduli (GPa) = 65.33529 55.57649 83.09517
#
# Poissons Ratio (x) = -0.01432 0.22735
# Poissons Ratio (y) = -0.01683 0.16657
# Poissons Ratio (z) = 0.17876 0.11141
#
# Static dielectric constant tensor:
#      x y z
#    x 3.801970 0.000000 0.000000 
#    y 0.000000 3.795350 0.000000 
#    z 0.000000 0.000000 3.790780 
# 
# 
# High freq. dielectric constant tensor:
#      x y z
#    x 1.825520 0.000000 0.000000 
#    y 0.000000 1.819770 0.000000 
#    z 0.000000 0.000000 1.821660 
# 
# From -- ./inp_files/12628.got.cif
#   From: 2010.03.12/outbox.cif.g09.slc.cpg/sg36_7_cif.got.tgz:12628.got - 2010.04.14 02:13:53.
