data_PCOD8174190
_publ_section_title
;
Structure prediction by ZEFSAII (Michael W. Deem and Ramdas Pophale) SiO2 
 PCOD8174190
Probable space group: C M C 21
;
_chemical_formula_sum "Si O2"
_cell_formula_units_Z 64
_cell_length_a 25.819690
_cell_length_b 25.117849
_cell_length_c 5.251533
_cell_angle_alpha 90.000000
_cell_angle_beta 90.000000
_cell_angle_gamma 90.000000
_cell_volume 3405.803346
_symmetry_space_group_name_H-M "C M C 21"
_symmetry_group_IT_number 36
_symmetry_cell_setting 'orthorhombic'
loop_
_space_group_symop_operation_xyz
x,y,z
-x,-y,1/2+z
x,-y,1/2+z
-x,y,z
1/2+x,1/2+y,z
1/2-x,1/2-y,1/2+z
1/2+x,1/2-y,1/2+z
1/2-x,1/2+y,z
loop_
_atom_site_type_symbol
_atom_site_label
_atom_site_fract_x
_atom_site_fract_y
_atom_site_fract_z
Si Si1 0.880477 0.929642 0.274090
Si Si2 0.727634 0.116674 0.270758
Si Si3 0.734542 0.566497 0.771045
Si Si4 0.941782 0.930167 0.775779
Si Si5 0.169068 0.483869 0.770263
Si Si6 0.942278 0.196054 0.275146
Si Si7 0.719988 0.238012 0.241100
Si Si8 0.382519 0.696918 0.773922
O O1 0.823629 0.956954 0.269141
O O2 0.911169 0.949163 0.524323
O O3 0.873341 0.866098 0.272082
O O4 0.912334 0.950253 0.029010
O O5 0.760023 0.105063 0.526466
O O6 0.677382 0.078855 0.271006
O O7 0.706031 0.175970 0.264247
O O8 0.761174 0.103513 0.020914
O O9 0.775937 0.517704 0.769337
O O10 0.944842 0.867073 0.782747
O O11 0.000000 0.953819 0.770852
O O12 0.136734 0.499843 0.520024
O O13 0.909251 0.217032 0.514361
O O14 0.000000 0.220011 0.293884
O O15 0.917484 0.215171 0.011118
O O16 0.763420 0.250405 0.451692
O O17 0.671508 0.273949 0.309126
#
# Coordination Sequence:
#
# PCOD8174190 Si02
#       8
#     8   8   8   8   8   8   8   8
#     4  10  17  26  41  59  83 109 139 187 223 256
#     4  10  19  32  46  62  90 118 147 184 218 257
#     4  10  18  30  47  67  86 111 149 190 230 261
#     4   9  17  27  39  57  82 110 137 172 228 282
#     4   8  16  29  46  64  83 105 141 186 224 258
#     4   9  17  30  46  61  81 113 155 202 240 268
#     4  12  23  33  45  65  97 137 165 184 221 274
#     4  10  19  29  42  63  88 119 160 191 224 278
#
# _framework density 18.791454999999999
#
# number of rings (size 3 to 8) (size 9 to 14) (size 15 to 20)
#    0.000    2.250    0.000    4.500    0.000    5.000 
#    0.000    0.000    0.000    0.000    0.000    0.000 
#    0.000   90.000    0.000    5.000    0.000  112.500 
#
# Total GULP energy -396660.820437 kJ/mol
# GULP energy per Si atom -12395.650639 kJ/mol
# Density = 1.874868 g / cm^3
# Si number density = 18.791455 Si / 1000 Ang^3
#
#
#
# Elastic Constant Matrix: (Units=GPa)
#
#
# Indices 1 2 3 4 5 6 
#
# 1 42.6909 7.3674 2.4094 0.0000 0.0000 0.0000
# 2 7.3674 79.1318 10.0531 0.0000 0.0000 0.0000
# 3 2.4094 10.0531 152.2100 0.0000 0.0000 0.0000
# 4 0.0000 0.0000 0.0000 32.0531 0.0000 0.0000
# 5 0.0000 0.0000 0.0000 0.0000 23.1276 0.0000
# 6 0.0000 0.0000 0.0000 0.0000 0.0000 15.4091
#
#
#
# Elastic Compliance Matrix: (Units=1/GPa)
#
#
# Indices 1 2 3 4 5 6 
#
# 1 0.023815 -0.002188 -0.000232 0.000000 0.000000 0.000000
# 2 -0.002188 0.012945 -0.000820 0.000000 0.000000 0.000000
# 3 -0.000232 -0.000820 0.006628 0.000000 0.000000 0.000000
# 4 0.000000 0.000000 0.000000 0.031198 0.000000 0.000000
# 5 0.000000 0.000000 0.000000 0.000000 0.043238 0.000000
# 6 0.000000 0.000000 0.000000 0.000000 0.000000 0.064897
#
#
# Mechanical properties :
#
#
# Convention : Reuss Voigt Hill
#
# Bulk Modulus (GPa) = 27.09545 34.85473 30.97509
# Shear Modulus (GPa) = 24.81336 31.06481 27.93908
#
# Velocity S-wave (km/s) = 3.63775 4.07029 3.86008
# Velocity P-wave (km/s) = 5.66522 6.37794 6.03211
#
# Compressibility (1/GPa) = 0.03690656
#
# Stress axis : x y z
#
# Youngs Moduli (GPa) = 41.99055 77.24962 150.88118
#
# Poissons Ratio (x) = 0.16900 0.03508
# Poissons Ratio (y) = 0.09186 0.12378
# Poissons Ratio (z) = 0.00976 0.06337
#
# Static dielectric constant tensor:
#      x y z
#    x 3.058050 0.000000 0.000000 
#    y 0.000000 3.188750 0.000000 
#    z 0.000000 0.000000 4.248900 
# 
# 
# High freq. dielectric constant tensor:
#      x y z
#    x 1.675620 0.000000 0.000000 
#    y 0.000000 1.707220 0.000000 
#    z 0.000000 0.000000 1.766660 
# 
# From -- ./inp_files/1683.got.cif
#   From: 2010.03.12/outbox.cif.g09.slc.cpg/sg36_1_cif.got.tgz:1683.got - 2010.04.14 02:13:53.
