data_PCOD8174840
_publ_section_title
;
Structure prediction by ZEFSAII (Michael W. Deem and Ramdas Pophale) SiO2 
 PCOD8174840
Probable space group: C M C 21
;
_chemical_formula_sum "Si O2"
_cell_formula_units_Z 64
_cell_length_a 8.404985
_cell_length_b 29.198039
_cell_length_c 12.528728
_cell_angle_alpha 90.000000
_cell_angle_beta 90.000000
_cell_angle_gamma 90.000000
_cell_volume 3074.663610
_symmetry_space_group_name_H-M "C M C 21"
_symmetry_group_IT_number 36
_symmetry_cell_setting 'orthorhombic'
loop_
_space_group_symop_operation_xyz
x,y,z
-x,-y,1/2+z
x,-y,1/2+z
-x,y,z
1/2+x,1/2+y,z
1/2-x,1/2-y,1/2+z
1/2+x,1/2-y,1/2+z
1/2-x,1/2+y,z
loop_
_atom_site_type_symbol
_atom_site_label
_atom_site_fract_x
_atom_site_fract_y
_atom_site_fract_z
Si Si1 0.186328 0.188069 0.941740
Si Si2 0.317479 0.425464 0.952331
Si Si3 0.813716 0.334502 0.669862
Si Si4 0.689493 0.529998 0.658889
Si Si5 0.185714 0.876020 0.256203
Si Si6 0.183768 0.339130 0.049680
Si Si7 0.312992 0.720369 0.375404
Si Si8 0.190444 0.931074 0.720271
O O1 0.218729 0.140351 0.877503
O O2 0.261159 0.226829 0.864277
O O3 0.000000 0.196327 0.957271
O O4 0.267074 0.188578 0.057841
O O5 0.500000 0.438568 0.938162
O O6 0.235505 0.430686 0.838689
O O7 0.241992 0.458409 0.041641
O O8 0.299744 0.373817 0.989266
O O9 0.734512 0.309001 0.770849
O O10 0.760296 0.387461 0.658836
O O11 0.000000 0.330966 0.687122
O O12 0.500000 0.528280 0.661664
O O13 0.744656 0.570964 0.739967
O O14 0.757903 0.479618 0.679530
O O15 0.274404 0.840831 0.175225
O O16 0.000000 0.872946 0.228322
O O17 0.000000 0.351767 0.033958
O O18 0.224195 0.292594 0.987034
O O19 0.500000 0.715503 0.389696
O O20 0.000000 0.927808 0.714245
#
# Coordination Sequence:
#
# PCOD8174840 Si02
#       8
#     8   8   8   8   8   8   8   8
#     4  11  25  44  67  95 128 166 210 258 321 384
#     4   9  17  32  54  82 118 159 208 260 311 367
#     4  12  26  44  64  92 130 167 212 261 319 379
#     4   8  16  32  57  90 121 160 214 263 309 371
#     4   9  20  40  64  90 125 164 209 259 311 373
#     4  11  21  35  60  89 120 156 202 257 313 371
#     4  12  25  43  66  91 123 162 210 261 316 374
#     4  10  19  34  60  89 121 164 213 263 316 369
#
# _framework density 20.815284999999999
#
# number of rings (size 3 to 8) (size 9 to 14) (size 15 to 20)
#    0.000    1.750    1.250    4.500    1.750    2.000 
#    0.000    6.250    0.000    1.500    0.000    0.000 
#    0.000    0.000    0.000    0.000    0.000    0.000 
#
# Total GULP energy -396532.644087 kJ/mol
# GULP energy per Si atom -12391.645128 kJ/mol
# Density = 2.076791 g / cm^3
# Si number density = 20.815285 Si / 1000 Ang^3
#
#
#
# Elastic Constant Matrix: (Units=GPa)
#
#
# Indices 1 2 3 4 5 6 
#
# 1 58.5560 16.4283 26.2386 0.0000 0.0000 0.0000
# 2 16.4283 113.5563 38.8057 0.0000 0.0000 0.0000
# 3 26.2386 38.8057 88.9870 0.0000 0.0000 0.0000
# 4 0.0000 0.0000 0.0000 23.7365 0.0000 0.0000
# 5 0.0000 0.0000 0.0000 0.0000 23.5501 0.0000
# 6 0.0000 0.0000 0.0000 0.0000 0.0000 16.2730
#
#
#
# Elastic Compliance Matrix: (Units=1/GPa)
#
#
# Indices 1 2 3 4 5 6 
#
# 1 0.019778 -0.001020 -0.005387 0.000000 0.000000 0.000000
# 2 -0.001020 0.010401 -0.004235 0.000000 0.000000 0.000000
# 3 -0.005387 -0.004235 0.014673 0.000000 0.000000 0.000000
# 4 0.000000 0.000000 0.000000 0.042129 0.000000 0.000000
# 5 0.000000 0.000000 0.000000 0.000000 0.042463 0.000000
# 6 0.000000 0.000000 0.000000 0.000000 0.000000 0.061452
#
#
# Mechanical properties :
#
#
# Convention : Reuss Voigt Hill
#
# Bulk Modulus (GPa) = 42.43127 47.11603 44.77365
# Shear Modulus (GPa) = 22.72372 24.68702 23.70537
#
# Velocity S-wave (km/s) = 3.30765 3.44758 3.37834
# Velocity P-wave (km/s) = 5.91746 6.20743 6.06418
#
# Compressibility (1/GPa) = 0.02356752
#
# Stress axis : x y z
#
# Youngs Moduli (GPa) = 50.56203 96.14454 68.15419
#
# Poissons Ratio (x) = 0.09811 0.36712
# Poissons Ratio (y) = 0.05160 0.28862
# Poissons Ratio (z) = 0.27236 0.40715
#
# Static dielectric constant tensor:
#      x y z
#    x 3.515250 0.000000 0.000000 
#    y 0.000000 3.978610 0.000000 
#    z 0.000000 0.000000 4.032110 
# 
# 
# High freq. dielectric constant tensor:
#      x y z
#    x 1.793740 0.000000 0.000000 
#    y 0.000000 1.816250 0.000000 
#    z 0.000000 0.000000 1.818280 
# 
# From -- ./inp_files/7087.got.cif
#   From: 2010.03.12/outbox.cif.g09.slc.cpg/sg36_4_cif.got.tgz:7087.got - 2010.04.14 02:13:53.
