data_PCOD8174811
_publ_section_title
;
Structure prediction by ZEFSAII (Michael W. Deem and Ramdas Pophale) SiO2 
 PCOD8174811
Probable space group: C M C 21
;
_chemical_formula_sum "Si O2"
_cell_formula_units_Z 48
_cell_length_a 8.668248
_cell_length_b 27.422539
_cell_length_c 10.086363
_cell_angle_alpha 90.000000
_cell_angle_beta 90.000000
_cell_angle_gamma 90.000000
_cell_volume 2397.582637
_symmetry_space_group_name_H-M "C M C 21"
_symmetry_group_IT_number 36
_symmetry_cell_setting 'orthorhombic'
loop_
_space_group_symop_operation_xyz
x,y,z
-x,-y,1/2+z
x,-y,1/2+z
-x,y,z
1/2+x,1/2+y,z
1/2-x,1/2-y,1/2+z
1/2+x,1/2-y,1/2+z
1/2-x,1/2+y,z
loop_
_atom_site_type_symbol
_atom_site_label
_atom_site_fract_x
_atom_site_fract_y
_atom_site_fract_z
Si Si1 0.820296 0.040473 0.042290
Si Si2 0.179006 0.288303 0.386110
Si Si3 0.317068 0.611682 0.265278
Si Si4 0.320688 0.387984 0.311703
Si Si5 0.320714 0.213383 0.187840
Si Si6 0.183455 0.931999 0.037247
O O1 0.746170 0.075133 0.155125
O O2 0.000000 0.035483 0.073517
O O3 0.745373 0.986588 0.044782
O O4 0.791949 0.063809 0.898578
O O5 0.216267 0.345084 0.368855
O O6 0.280161 0.258433 0.281837
O O7 0.222320 0.272826 0.536303
O O8 0.000000 0.278550 0.357012
O O9 0.500000 0.609085 0.263165
O O10 0.271909 0.666683 0.235827
O O11 0.251370 0.595433 0.407969
O O12 0.500000 0.372227 0.316933
O O13 0.265389 0.400526 0.163742
O O14 0.500000 0.201248 0.198532
O O15 0.000000 0.935861 0.030500
#
# Coordination Sequence:
#
# PCOD8174811 Si02
#       6
#     8   8   8   8   8   8
#     4   9  16  30  54  83 116 155 194 235 282 329
#     4  11  25  43  63  86 115 150 192 241 293 350
#     4  10  19  34  57  85 118 152 191 239 286 335
#     4  10  19  34  57  85 118 152 191 239 286 335
#     4  11  25  43  63  86 115 150 192 241 293 350
#     4   9  18  30  52  87 120 151 192 237 278 329
#
# _framework density 20.020163
#
# number of rings (size 3 to 8) (size 9 to 14) (size 15 to 20)
#    0.000    2.000    1.667    2.000    2.333    6.000 
#    0.000    0.000    0.000    6.000    0.000    0.000 
#    0.000    0.000    0.000    0.000    0.000    0.000 
#
# Total GULP energy -297637.994970 kJ/mol
# GULP energy per Si atom -12401.583124 kJ/mol
# Density = 1.997460 g / cm^3
# Si number density = 20.020163 Si / 1000 Ang^3
#
#
#
# Elastic Constant Matrix: (Units=GPa)
#
#
# Indices 1 2 3 4 5 6 
#
# 1 17.0911 12.1321 27.6605 0.0000 0.0000 0.0000
# 2 12.1321 80.7858 36.3542 0.0000 0.0000 0.0000
# 3 27.6605 36.3542 153.8208 0.0000 0.0000 0.0000
# 4 0.0000 0.0000 0.0000 37.4611 0.0000 0.0000
# 5 0.0000 0.0000 0.0000 0.0000 17.8012 0.0000
# 6 0.0000 0.0000 0.0000 0.0000 0.0000 14.7433
#
#
#
# Elastic Compliance Matrix: (Units=1/GPa)
#
#
# Indices 1 2 3 4 5 6 
#
# 1 0.085591 -0.006633 -0.013824 0.000000 0.000000 0.000000
# 2 -0.006633 0.014366 -0.002202 0.000000 0.000000 0.000000
# 3 -0.013824 -0.002202 0.009507 0.000000 0.000000 0.000000
# 4 0.000000 0.000000 0.000000 0.026694 0.000000 0.000000
# 5 0.000000 0.000000 0.000000 0.000000 0.056176 0.000000
# 6 0.000000 0.000000 0.000000 0.000000 0.000000 0.067827
#
#
# Mechanical properties :
#
#
# Convention : Reuss Voigt Hill
#
# Bulk Modulus (GPa) = 15.58946 44.88791 30.23868
# Shear Modulus (GPa) = 15.29701 25.70452 20.50077
#
# Velocity S-wave (km/s) = 2.76720 3.58709 3.20348
# Velocity P-wave (km/s) = 4.24425 6.29494 5.36842
#
# Compressibility (1/GPa) = 0.06414592
#
# Stress axis : x y z
#
# Youngs Moduli (GPa) = 11.68350 69.61052 105.18156
#
# Poissons Ratio (x) = 0.46173 1.45398
# Poissons Ratio (y) = 0.07750 0.23165
# Poissons Ratio (z) = 0.16151 0.15331
#
# Static dielectric constant tensor:
#      x y z
#    x 3.173150 0.000000 0.000000 
#    y 0.000000 3.624720 0.000000 
#    z 0.000000 0.000000 3.979500 
# 
# 
# High freq. dielectric constant tensor:
#      x y z
#    x 1.733300 0.000000 0.000000 
#    y 0.000000 1.789710 0.000000 
#    z 0.000000 0.000000 1.801330 
# 
# From -- ./inp_files/2712.got.cif
#   From: 2010.03.12/outbox.cif.g09.slc.cpg/sg36_2_cif.got.tgz:2712.got - 2010.04.14 02:13:53.
