data_PCOD8174262
_publ_section_title
;
Structure prediction by ZEFSAII (Michael W. Deem and Ramdas Pophale) SiO2 
 PCOD8174262
Probable space group: C M C 21
;
_chemical_formula_sum "Si O2"
_cell_formula_units_Z 64
_cell_length_a 13.469407
_cell_length_b 30.998665
_cell_length_c 8.061776
_cell_angle_alpha 90.000000
_cell_angle_beta 90.000000
_cell_angle_gamma 90.000000
_cell_volume 3366.062641
_symmetry_space_group_name_H-M "C M C 21"
_symmetry_group_IT_number 36
_symmetry_cell_setting 'orthorhombic'
loop_
_space_group_symop_operation_xyz
x,y,z
-x,-y,1/2+z
x,-y,1/2+z
-x,y,z
1/2+x,1/2+y,z
1/2-x,1/2-y,1/2+z
1/2+x,1/2-y,1/2+z
1/2-x,1/2+y,z
loop_
_atom_site_type_symbol
_atom_site_label
_atom_site_fract_x
_atom_site_fract_y
_atom_site_fract_z
Si Si1 0.114492 0.262122 0.056870
Si Si2 0.388083 0.142304 0.687430
Si Si3 0.110688 0.640712 0.064987
Si Si4 0.303035 0.937771 0.708912
Si Si5 0.285689 0.622358 0.455537
Si Si6 0.888335 0.051289 0.616118
Si Si7 0.753486 0.296381 0.777297
Si Si8 0.228138 0.010110 0.903078
O O1 0.115913 0.307072 0.151922
O O2 0.169932 0.228411 0.175556
O O3 0.000000 0.247485 0.024600
O O4 0.173733 0.264862 0.881741
O O5 0.500000 0.124623 0.660965
O O6 0.317284 0.117310 0.559306
O O7 0.352424 0.134304 0.876143
O O8 0.106531 0.594180 0.160860
O O9 0.179984 0.675138 0.154843
O O10 0.000000 0.659907 0.066309
O O11 0.221141 0.905895 0.788021
O O12 0.265019 0.957422 0.539261
O O13 0.317883 0.978213 0.836412
O O14 0.374071 0.601680 0.564487
O O15 0.304744 0.672151 0.407134
O O16 0.810720 0.040493 0.758525
O O17 0.000000 0.044315 0.675935
O O18 0.863201 0.019652 0.463177
#
# Coordination Sequence:
#
# PCOD8174262 Si02
#       8
#     8   8   8   8   8   8   8   8
#     4  10  20  35  56  81 110 145 182 221 269 321
#     4   9  18  33  55  79 101 130 170 213 258 311
#     4  10  19  33  55  80 104 135 174 214 262 317
#     4   9  18  32  51  72  99 134 168 211 257 305
#     4   9  19  32  50  75 103 134 168 211 256 305
#     4  10  18  30  49  72  99 133 172 212 257 310
#     4  10  20  35  55  79 110 142 176 220 264 312
#     4   9  18  32  49  70  98 133 172 214 261 307
#
# _framework density 19.013313
#
# number of rings (size 3 to 8) (size 9 to 14) (size 15 to 20)
#    0.000    2.500    0.000    2.250    0.000    3.500 
#    0.000    1.875    0.000   20.250    0.000    0.000 
#    0.000    0.000    0.000    0.000    0.000    0.000 
#
# Total GULP energy -396427.811012 kJ/mol
# GULP energy per Si atom -12388.369094 kJ/mol
# Density = 1.897004 g / cm^3
# Si number density = 19.013313 Si / 1000 Ang^3
#
#
#
# Elastic Constant Matrix: (Units=GPa)
#
#
# Indices 1 2 3 4 5 6 
#
# 1 64.6810 37.5823 28.4840 0.0000 0.0000 0.0000
# 2 37.5823 70.2134 39.2227 0.0000 0.0000 0.0000
# 3 28.4840 39.2227 97.8695 0.0000 0.0000 0.0000
# 4 0.0000 0.0000 0.0000 36.3771 0.0000 0.0000
# 5 0.0000 0.0000 0.0000 0.0000 22.3565 0.0000
# 6 0.0000 0.0000 0.0000 0.0000 0.0000 22.6435
#
#
#
# Elastic Compliance Matrix: (Units=1/GPa)
#
#
# Indices 1 2 3 4 5 6 
#
# 1 0.022817 -0.010956 -0.002250 0.000000 0.000000 0.000000
# 2 -0.010956 0.023612 -0.006274 0.000000 0.000000 0.000000
# 3 -0.002250 -0.006274 0.013387 0.000000 0.000000 0.000000
# 4 0.000000 0.000000 0.000000 0.027490 0.000000 0.000000
# 5 0.000000 0.000000 0.000000 0.000000 0.044730 0.000000
# 6 0.000000 0.000000 0.000000 0.000000 0.000000 0.044163
#
#
# Mechanical properties :
#
#
# Convention : Reuss Voigt Hill
#
# Bulk Modulus (GPa) = 47.94907 49.26019 48.60463
# Shear Modulus (GPa) = 22.51136 24.77376 23.64256
#
# Velocity S-wave (km/s) = 3.44463 3.61358 3.53012
# Velocity P-wave (km/s) = 6.41047 6.58598 6.49882
#
# Compressibility (1/GPa) = 0.02085546
#
# Stress axis : x y z
#
# Youngs Moduli (GPa) = 43.82625 42.35218 74.70015
#
# Poissons Ratio (x) = 0.46403 0.16806
# Poissons Ratio (y) = 0.48018 0.46866
# Poissons Ratio (z) = 0.09860 0.26571
#
# Static dielectric constant tensor:
#      x y z
#    x 3.227960 0.000000 0.000000 
#    y 0.000000 3.596310 0.000000 
#    z 0.000000 0.000000 3.710470 
# 
# 
# High freq. dielectric constant tensor:
#      x y z
#    x 1.703900 0.000000 0.000000 
#    y 0.000000 1.738140 0.000000 
#    z 0.000000 0.000000 1.755580 
# 
# From -- ./inp_files/3583.got.cif
#   From: 2010.03.12/outbox.cif.g09.slc.cpg/sg36_2_cif.got.tgz:3583.got - 2010.04.14 02:13:53.
