data_PCOD8174326
_publ_section_title
;
Structure prediction by ZEFSAII (Michael W. Deem and Ramdas Pophale) SiO2 
 PCOD8174326
Probable space group: C M C 21
;
_chemical_formula_sum "Si O2"
_cell_formula_units_Z 52
_cell_length_a 7.707616
_cell_length_b 22.266949
_cell_length_c 14.501155
_cell_angle_alpha 90.000000
_cell_angle_beta 90.000000
_cell_angle_gamma 90.000000
_cell_volume 2488.762067
_symmetry_space_group_name_H-M "C M C 21"
_symmetry_group_IT_number 36
_symmetry_cell_setting 'orthorhombic'
loop_
_space_group_symop_operation_xyz
x,y,z
-x,-y,1/2+z
x,-y,1/2+z
-x,y,z
1/2+x,1/2+y,z
1/2-x,1/2-y,1/2+z
1/2+x,1/2-y,1/2+z
1/2-x,1/2+y,z
loop_
_atom_site_type_symbol
_atom_site_label
_atom_site_fract_x
_atom_site_fract_y
_atom_site_fract_z
Si Si1 0.500000 0.998330 0.478310
Si Si2 0.799579 0.188139 0.169994
Si Si3 0.687203 0.359854 0.355819
Si Si4 0.801962 0.805481 0.066471
Si Si5 0.199897 0.230509 0.364971
Si Si6 0.500000 0.064790 0.790711
Si Si7 0.303213 0.583057 0.046115
Si Si8 0.000000 0.395051 0.099546
O O1 0.500000 0.989553 0.365895
O O2 0.327397 0.970925 0.524624
O O3 0.500000 0.069004 0.502285
O O4 0.768238 0.185025 0.280132
O O5 0.000000 0.198688 0.145513
O O6 0.698473 0.242566 0.121244
O O7 0.741457 0.122207 0.134191
O O8 0.500000 0.383350 0.320895
O O9 0.695022 0.289437 0.337215
O O10 0.830883 0.395489 0.301894
O O11 0.706986 0.368752 0.464589
O O12 0.736471 0.797707 0.960917
O O13 0.000000 0.830142 0.069353
O O14 0.671385 0.853837 0.110886
O O15 0.000000 0.249240 0.375277
O O16 0.500000 0.052594 0.680338
O O17 0.500000 0.557432 0.058116
#
# Coordination Sequence:
#
# PCOD8174326 Si02
#       8
#     4   8   8   8   8   4   8   4
#     4  10  24  44  66  86 114 162 211 260 303 348
#     4  10  19  35  58  90 127 156 196 246 307 366
#     4  10  18  31  57  89 122 156 198 244 296 361
#     4  11  24  39  59  90 130 167 196 245 311 369
#     4  10  20  33  53  86 128 165 186 237 308 369
#     4  10  22  42  64  86 118 162 209 262 299 346
#     4   9  19  36  61  87 114 149 200 258 300 350
#     4  12  26  46  62  88 126 166 208 254 306 370
#
# _framework density 20.893922
#
# number of rings (size 3 to 8) (size 9 to 14) (size 15 to 20)
#    0.000    1.846    3.077    0.923    2.154    3.077 
#    2.769    0.000    0.000    0.000    0.000    0.000 
#    0.000    0.000    0.000    0.000    0.000    0.000 
#
# Total GULP energy -322258.536548 kJ/mol
# GULP energy per Si atom -12394.559098 kJ/mol
# Density = 2.084637 g / cm^3
# Si number density = 20.893922 Si / 1000 Ang^3
#
#
#
# Elastic Constant Matrix: (Units=GPa)
#
#
# Indices 1 2 3 4 5 6 
#
# 1 99.7623 16.5507 11.7658 0.0000 0.0000 0.0000
# 2 16.5507 36.5743 0.5261 0.0000 0.0000 0.0000
# 3 11.7658 0.5261 100.4304 0.0000 0.0000 0.0000
# 4 0.0000 0.0000 0.0000 23.1096 0.0000 0.0000
# 5 0.0000 0.0000 0.0000 0.0000 22.7074 0.0000
# 6 0.0000 0.0000 0.0000 0.0000 0.0000 11.2128
#
#
#
# Elastic Compliance Matrix: (Units=1/GPa)
#
#
# Indices 1 2 3 4 5 6 
#
# 1 0.010995 -0.004957 -0.001262 0.000000 0.000000 0.000000
# 2 -0.004957 0.029579 0.000426 0.000000 0.000000 0.000000
# 3 -0.001262 0.000426 0.010103 0.000000 0.000000 0.000000
# 4 0.000000 0.000000 0.000000 0.043272 0.000000 0.000000
# 5 0.000000 0.000000 0.000000 0.000000 0.044038 0.000000
# 6 0.000000 0.000000 0.000000 0.000000 0.000000 0.089184
#
#
# Mechanical properties :
#
#
# Convention : Reuss Voigt Hill
#
# Bulk Modulus (GPa) = 25.58247 32.71694 29.14970
# Shear Modulus (GPa) = 19.85794 25.26758 22.56276
#
# Velocity S-wave (km/s) = 3.08623 3.48131 3.28971
# Velocity P-wave (km/s) = 4.99703 5.64375 5.33021
#
# Compressibility (1/GPa) = 0.03908927
#
# Stress axis : x y z
#
# Youngs Moduli (GPa) = 90.94943 33.80797 98.98267
#
# Poissons Ratio (x) = 0.16760 0.12493
# Poissons Ratio (y) = 0.45087 -0.04215
# Poissons Ratio (z) = 0.11479 -0.01440
#
# Static dielectric constant tensor:
#      x y z
#    x 3.940190 0.000000 0.000000 
#    y 0.000000 3.223380 0.000000 
#    z 0.000000 0.000000 3.965690 
# 
# 
# High freq. dielectric constant tensor:
#      x y z
#    x 1.828830 0.000000 0.000000 
#    y 0.000000 1.767290 0.000000 
#    z 0.000000 0.000000 1.826680 
# 
# From -- ./inp_files/10610.got.cif
#   From: 2010.03.12/outbox.cif.g09.slc.cpg/sg36_6_cif.got.tgz:10610.got - 2010.04.14 02:13:53.
