data_PCOD8174302
_publ_section_title
;
Structure prediction by ZEFSAII (Michael W. Deem and Ramdas Pophale) SiO2 
 PCOD8174302
Probable space group: C M C 21
;
_chemical_formula_sum "Si O2"
_cell_formula_units_Z 64
_cell_length_a 9.293228
_cell_length_b 20.016174
_cell_length_c 19.985970
_cell_angle_alpha 90.000000
_cell_angle_beta 90.000000
_cell_angle_gamma 90.000000
_cell_volume 3717.687585
_symmetry_space_group_name_H-M "C M C 21"
_symmetry_group_IT_number 36
_symmetry_cell_setting 'orthorhombic'
loop_
_space_group_symop_operation_xyz
x,y,z
-x,-y,1/2+z
x,-y,1/2+z
-x,y,z
1/2+x,1/2+y,z
1/2-x,1/2-y,1/2+z
1/2+x,1/2-y,1/2+z
1/2-x,1/2+y,z
loop_
_atom_site_type_symbol
_atom_site_label
_atom_site_fract_x
_atom_site_fract_y
_atom_site_fract_z
Si Si1 0.167735 0.174303 0.910720
Si Si2 0.834816 0.085150 0.542735
Si Si3 0.668504 0.232732 0.155523
Si Si4 0.170968 0.158487 0.759185
Si Si5 0.666369 0.087569 0.136131
Si Si6 0.165135 0.058842 0.005851
Si Si7 0.666926 0.730824 0.508750
Si Si8 0.830253 0.556682 0.675576
O O1 0.218511 0.176062 0.834182
O O2 0.204303 0.100270 0.939235
O O3 0.000000 0.190249 0.916902
O O4 0.249241 0.231942 0.950431
O O5 0.808445 0.151301 0.498790
O O6 0.731790 0.086667 0.606904
O O7 0.000000 0.083846 0.568813
O O8 0.800485 0.020184 0.496783
O O9 0.500000 0.246022 0.153352
O O10 0.731592 0.282078 0.211793
O O11 0.704915 0.155936 0.175702
O O12 0.729851 0.248900 0.081661
O O13 0.250624 0.090396 0.738080
O O14 0.000000 0.147852 0.754036
O O15 0.500000 0.086143 0.116766
O O16 0.706106 0.022594 0.179925
O O17 0.746803 0.089957 0.066164
O O18 0.000000 0.069030 0.024976
O O19 0.500000 0.750414 0.502932
O O20 0.000000 0.570513 0.678514
#
# Coordination Sequence:
#
# PCOD8174302 Si02
#       8
#     8   8   8   8   8   8   8   8
#     4  10  21  34  50  74 103 135 167 208 255 298
#     4   9  17  31  51  73  98 129 165 200 245 302
#     4   9  16  30  52  73  93 128 172 204 239 298
#     4  10  20  36  53  69  99 140 175 200 244 312
#     4   9  17  30  49  73  97 121 158 205 250 288
#     4   9  17  30  48  72  99 126 160 201 245 292
#     4  10  18  31  53  75  96 130 170 206 245 298
#     4  10  19  30  48  75 101 123 157 210 255 288
#
# _framework density 17.215002999999999
#
# number of rings (size 3 to 8) (size 9 to 14) (size 15 to 20)
#    0.000    2.500    2.500    0.375    0.000    1.500 
#    0.000    1.875    0.000    0.000    0.000    0.000 
#    0.000    0.000    0.000    0.000    0.000    0.000 
#
# Total GULP energy -396678.081019 kJ/mol
# GULP energy per Si atom -12396.190032 kJ/mol
# Density = 1.717582 g / cm^3
# Si number density = 17.215003 Si / 1000 Ang^3
#
#
#
# Elastic Constant Matrix: (Units=GPa)
#
#
# Indices 1 2 3 4 5 6 
#
# 1 42.0394 36.6408 37.1136 0.0000 0.0000 0.0000
# 2 36.6408 131.7447 69.7480 0.0000 0.0000 0.0000
# 3 37.1136 69.7480 116.7485 0.0000 0.0000 0.0000
# 4 0.0000 0.0000 0.0000 26.2270 0.0000 0.0000
# 5 0.0000 0.0000 0.0000 0.0000 22.1206 0.0000
# 6 0.0000 0.0000 0.0000 0.0000 0.0000 22.6900
#
#
#
# Elastic Compliance Matrix: (Units=1/GPa)
#
#
# Indices 1 2 3 4 5 6 
#
# 1 0.035820 -0.005754 -0.007950 0.000000 0.000000 0.000000
# 2 -0.005754 0.012026 -0.005356 0.000000 0.000000 0.000000
# 3 -0.007950 -0.005356 0.014292 0.000000 0.000000 0.000000
# 4 0.000000 0.000000 0.000000 0.038129 0.000000 0.000000
# 5 0.000000 0.000000 0.000000 0.000000 0.045207 0.000000
# 6 0.000000 0.000000 0.000000 0.000000 0.000000 0.044072
#
#
# Mechanical properties :
#
#
# Convention : Reuss Voigt Hill
#
# Bulk Modulus (GPa) = 41.63099 64.17084 52.90092
# Shear Modulus (GPa) = 21.21610 24.00955 22.61282
#
# Velocity S-wave (km/s) = 3.51439 3.73860 3.62823
# Velocity P-wave (km/s) = 6.37992 7.48286 6.95330
#
# Compressibility (1/GPa) = 0.02402056
#
# Stress axis : x y z
#
# Youngs Moduli (GPa) = 27.91727 83.15366 69.96878
#
# Poissons Ratio (x) = 0.47843 0.55623
# Poissons Ratio (y) = 0.16062 0.37472
# Poissons Ratio (z) = 0.22193 0.44533
#
# Static dielectric constant tensor:
#      x y z
#    x 3.101200 0.000000 0.000000 
#    y 0.000000 3.580150 0.000000 
#    z 0.000000 0.000000 3.028890 
# 
# 
# High freq. dielectric constant tensor:
#      x y z
#    x 1.650760 0.000000 0.000000 
#    y 0.000000 1.683240 0.000000 
#    z 0.000000 0.000000 1.631370 
# 
# From -- ./inp_files/13799.got.cif
#   From: 2010.03.12/outbox.cif.g09.slc.cpg/sg36_7_cif.got.tgz:13799.got - 2010.04.14 02:13:53.
