data_PCOD8174977
_publ_section_title
;
Structure prediction by ZEFSAII (Michael W. Deem and Ramdas Pophale) SiO2 
 PCOD8174977
Probable space group: C M C 21
;
_chemical_formula_sum "Si O2"
_cell_formula_units_Z 64
_cell_length_a 8.717551
_cell_length_b 24.030067
_cell_length_c 14.524058
_cell_angle_alpha 90.000000
_cell_angle_beta 90.000000
_cell_angle_gamma 90.000000
_cell_volume 3042.548102
_symmetry_space_group_name_H-M "C M C 21"
_symmetry_group_IT_number 36
_symmetry_cell_setting 'orthorhombic'
loop_
_space_group_symop_operation_xyz
x,y,z
-x,-y,1/2+z
x,-y,1/2+z
-x,y,z
1/2+x,1/2+y,z
1/2-x,1/2-y,1/2+z
1/2+x,1/2-y,1/2+z
1/2-x,1/2+y,z
loop_
_atom_site_type_symbol
_atom_site_label
_atom_site_fract_x
_atom_site_fract_y
_atom_site_fract_z
Si Si1 0.182272 0.456271 0.391910
Si Si2 0.669643 0.098893 0.597008
Si Si3 0.820285 0.940736 0.781402
Si Si4 0.676704 0.301086 0.178840
Si Si5 0.323512 0.028111 0.100305
Si Si6 0.817203 0.747684 0.997501
Si Si7 0.817358 0.162063 0.870288
Si Si8 0.325114 0.852877 0.903919
O O1 0.240075 0.507594 0.331629
O O2 0.238189 0.461465 0.497508
O O3 0.249506 0.398929 0.352594
O O4 0.000000 0.455605 0.385269
O O5 0.500000 0.119511 0.628189
O O6 0.798596 0.135939 0.644553
O O7 0.681406 0.102833 0.486804
O O8 0.695938 0.036155 0.627028
O O9 0.779253 0.938600 0.673159
O O10 0.761167 0.881724 0.819428
O O11 0.000000 0.945942 0.796452
O O12 0.500000 0.287670 0.180513
O O13 0.737323 0.298377 0.284044
O O14 0.748063 0.259008 0.102010
O O15 0.500000 0.047068 0.108934
O O16 0.750459 0.688807 0.963434
O O17 0.758790 0.795854 0.929933
O O18 0.000000 0.746097 0.995702
O O19 0.000000 0.158085 0.876208
O O20 0.500000 0.838870 0.876052
#
# Coordination Sequence:
#
# PCOD8174977 Si02
#       8
#     8   8   8   8   8   8   8   8
#     4  11  23  42  64  89 123 165 206 252 306 363
#     4   9  17  32  57  85 112 147 195 243 288 342
#     4  12  24  37  58  91 126 161 200 248 305 367
#     4   9  20  37  59  87 118 153 198 244 299 358
#     4  10  21  38  58  84 119 162 205 244 297 365
#     4  10  21  40  63  89 117 155 202 254 304 357
#     4  11  23  41  62  90 123 161 202 252 310 366
#     4  10  19  37  61  85 114 152 196 247 299 352
#
# _framework density 21.034998999999999
#
# number of rings (size 3 to 8) (size 9 to 14) (size 15 to 20)
#    0.000    1.750    1.250    3.375    0.000    5.500 
#    2.250    0.000    0.000    0.000    0.000    0.000 
#    0.000    0.000    0.000    0.000    0.000    0.000 
#
# Total GULP energy -396725.768052 kJ/mol
# GULP energy per Si atom -12397.680252 kJ/mol
# Density = 2.098712 g / cm^3
# Si number density = 21.034999 Si / 1000 Ang^3
#
#
#
# Elastic Constant Matrix: (Units=GPa)
#
#
# Indices 1 2 3 4 5 6 
#
# 1 77.1852 14.0981 26.8223 0.0000 0.0000 0.0000
# 2 14.0981 39.3207 2.4287 0.0000 0.0000 0.0000
# 3 26.8223 2.4287 92.4385 0.0000 0.0000 0.0000
# 4 0.0000 0.0000 0.0000 27.0982 0.0000 0.0000
# 5 0.0000 0.0000 0.0000 0.0000 27.1958 0.0000
# 6 0.0000 0.0000 0.0000 0.0000 0.0000 30.7297
#
#
#
# Elastic Compliance Matrix: (Units=1/GPa)
#
#
# Indices 1 2 3 4 5 6 
#
# 1 0.015424 -0.005262 -0.004337 0.000000 0.000000 0.000000
# 2 -0.005262 0.027269 0.000810 0.000000 0.000000 0.000000
# 3 -0.004337 0.000810 0.012055 0.000000 0.000000 0.000000
# 4 0.000000 0.000000 0.000000 0.036903 0.000000 0.000000
# 5 0.000000 0.000000 0.000000 0.000000 0.036770 0.000000
# 6 0.000000 0.000000 0.000000 0.000000 0.000000 0.032542
#
#
# Mechanical properties :
#
#
# Convention : Reuss Voigt Hill
#
# Bulk Modulus (GPa) = 26.90356 32.84919 29.87638
# Shear Modulus (GPa) = 26.18740 28.04440 27.11590
#
# Velocity S-wave (km/s) = 3.53220 3.65530 3.59428
# Velocity P-wave (km/s) = 5.42706 5.78492 5.60884
#
# Compressibility (1/GPa) = 0.03716980
#
# Stress axis : x y z
#
# Youngs Moduli (GPa) = 64.83282 36.67218 82.95144
#
# Poissons Ratio (x) = 0.19298 0.35979
# Poissons Ratio (y) = 0.34117 -0.06723
# Poissons Ratio (z) = 0.28120 -0.02972
#
# Static dielectric constant tensor:
#      x y z
#    x 3.702800 0.000000 0.000000 
#    y 0.000000 3.596050 0.000000 
#    z 0.000000 0.000000 4.158520 
# 
# 
# High freq. dielectric constant tensor:
#      x y z
#    x 1.817120 0.000000 0.000000 
#    y 0.000000 1.809070 0.000000 
#    z 0.000000 0.000000 1.833960 
# 
# From -- ./inp_files/10925.got.cif
#   From: 2010.03.12/outbox.cif.g09.slc.cpg/sg36_6_cif.got.tgz:10925.got - 2010.04.14 02:13:53.
