data_PCOD8174643
_publ_section_title
;
Structure prediction by ZEFSAII (Michael W. Deem and Ramdas Pophale) SiO2 
 PCOD8174643
Probable space group: C M C 21
;
_chemical_formula_sum "Si O2"
_cell_formula_units_Z 64
_cell_length_a 8.693385
_cell_length_b 20.026720
_cell_length_c 19.618306
_cell_angle_alpha 90.000000
_cell_angle_beta 90.000000
_cell_angle_gamma 90.000000
_cell_volume 3415.546824
_symmetry_space_group_name_H-M "C M C 21"
_symmetry_group_IT_number 36
_symmetry_cell_setting 'orthorhombic'
loop_
_space_group_symop_operation_xyz
x,y,z
-x,-y,1/2+z
x,-y,1/2+z
-x,y,z
1/2+x,1/2+y,z
1/2-x,1/2-y,1/2+z
1/2+x,1/2-y,1/2+z
1/2-x,1/2+y,z
loop_
_atom_site_type_symbol
_atom_site_label
_atom_site_fract_x
_atom_site_fract_y
_atom_site_fract_z
Si Si1 0.176148 0.674003 0.442280
Si Si2 0.322977 0.227149 0.680922
Si Si3 0.179232 0.277083 0.542904
Si Si4 0.820021 0.090660 0.668940
Si Si5 0.819382 0.946090 0.701546
Si Si6 0.181872 0.915507 0.551023
Si Si7 0.678780 0.667345 0.297972
Si Si8 0.677436 0.950952 0.029030
O O1 0.281398 0.720844 0.488315
O O2 0.222227 0.681869 0.364181
O O3 0.199842 0.597075 0.464180
O O4 0.000000 0.696120 0.451959
O O5 0.500000 0.229211 0.657916
O O6 0.223750 0.253388 0.618175
O O7 0.274479 0.151949 0.700448
O O8 0.294123 0.271532 0.746968
O O9 0.267405 0.344540 0.521196
O O10 0.000000 0.291984 0.540987
O O11 0.776589 0.079388 0.590520
O O12 0.000000 0.106736 0.672825
O O13 0.778478 0.024095 0.712598
O O14 0.755503 0.920992 0.628738
O O15 0.755010 0.900387 0.762683
O O16 0.000000 0.934338 0.698550
O O17 0.000000 0.923703 0.545800
O O18 0.259993 0.975794 0.508491
O O19 0.500000 0.660090 0.317813
O O20 0.500000 0.954711 0.051661
#
# Coordination Sequence:
#
# PCOD8174643 Si02
#       8
#     8   8   8   8   8   8   8   8
#     4  11  24  40  58  83 119 157 196 244 295 349
#     4  11  21  36  58  85 118 154 192 245 298 345
#     4  12  23  36  59  88 117 153 198 244 293 355
#     4  10  19  32  56  86 114 147 191 241 287 343
#     4   8  16  33  55  81 111 145 184 229 282 339
#     4  10  19  35  59  86 117 147 186 240 293 345
#     4  10  21  39  60  81 112 156 199 238 291 355
#     4  10  20  35  55  82 116 151 190 241 291 343
#
# _framework density 18.737848
#
# number of rings (size 3 to 8) (size 9 to 14) (size 15 to 20)
#    0.000    1.750    2.500    3.750    0.000    2.500 
#    0.000    2.500    0.000    6.000    0.000    0.000 
#    0.000    0.000    0.000    0.000    0.000    0.000 
#
# Total GULP energy -396845.152772 kJ/mol
# GULP energy per Si atom -12401.411024 kJ/mol
# Density = 1.869520 g / cm^3
# Si number density = 18.737848 Si / 1000 Ang^3
#
#
#
# Elastic Constant Matrix: (Units=GPa)
#
#
# Indices 1 2 3 4 5 6 
#
# 1 55.2227 35.4112 29.6249 0.0000 0.0000 0.0000
# 2 35.4112 129.7798 32.2845 0.0000 0.0000 0.0000
# 3 29.6249 32.2845 69.2876 0.0000 0.0000 0.0000
# 4 0.0000 0.0000 0.0000 23.3543 0.0000 0.0000
# 5 0.0000 0.0000 0.0000 0.0000 26.3467 0.0000
# 6 0.0000 0.0000 0.0000 0.0000 0.0000 34.3703
#
#
#
# Elastic Compliance Matrix: (Units=1/GPa)
#
#
# Indices 1 2 3 4 5 6 
#
# 1 0.025983 -0.004893 -0.008829 0.000000 0.000000 0.000000
# 2 -0.004893 0.009637 -0.002398 0.000000 0.000000 0.000000
# 3 -0.008829 -0.002398 0.019325 0.000000 0.000000 0.000000
# 4 0.000000 0.000000 0.000000 0.042819 0.000000 0.000000
# 5 0.000000 0.000000 0.000000 0.000000 0.037955 0.000000
# 6 0.000000 0.000000 0.000000 0.000000 0.000000 0.029095
#
#
# Mechanical properties :
#
#
# Convention : Reuss Voigt Hill
#
# Bulk Modulus (GPa) = 44.04596 49.88124 46.96360
# Shear Modulus (GPa) = 24.43514 27.27891 25.85702
#
# Velocity S-wave (km/s) = 3.61508 3.81966 3.71878
# Velocity P-wave (km/s) = 6.40176 6.79201 6.59977
#
# Compressibility (1/GPa) = 0.02270356
#
# Stress axis : x y z
#
# Youngs Moduli (GPa) = 38.48697 103.76591 51.74601
#
# Poissons Ratio (x) = 0.50774 0.45688
# Poissons Ratio (y) = 0.18832 0.12410
# Poissons Ratio (z) = 0.33982 0.24886
#
# Static dielectric constant tensor:
#      x y z
#    x 3.413290 0.000000 0.000000 
#    y 0.000000 3.848910 0.000000 
#    z 0.000000 0.000000 3.194750 
# 
# 
# High freq. dielectric constant tensor:
#      x y z
#    x 1.728700 0.000000 0.000000 
#    y 0.000000 1.746600 0.000000 
#    z 0.000000 0.000000 1.691180 
# 
# From -- ./inp_files/13901.got.cif
#   From: 2010.03.12/outbox.cif.g09.slc.cpg/sg36_7_cif.got.tgz:13901.got - 2010.04.14 02:13:53.
