data_PCOD8174345
_publ_section_title
;
Structure prediction by ZEFSAII (Michael W. Deem and Ramdas Pophale) SiO2 
 PCOD8174345
Probable space group: C M C 21
;
_chemical_formula_sum "Si O2"
_cell_formula_units_Z 64
_cell_length_a 9.300162
_cell_length_b 24.396077
_cell_length_c 15.267983
_cell_angle_alpha 90.000000
_cell_angle_beta 90.000000
_cell_angle_gamma 90.000000
_cell_volume 3464.114008
_symmetry_space_group_name_H-M "C M C 21"
_symmetry_group_IT_number 36
_symmetry_cell_setting 'orthorhombic'
loop_
_space_group_symop_operation_xyz
x,y,z
-x,-y,1/2+z
x,-y,1/2+z
-x,y,z
1/2+x,1/2+y,z
1/2-x,1/2-y,1/2+z
1/2+x,1/2-y,1/2+z
1/2-x,1/2+y,z
loop_
_atom_site_type_symbol
_atom_site_label
_atom_site_fract_x
_atom_site_fract_y
_atom_site_fract_z
Si Si1 0.670920 0.428449 0.368700
Si Si2 0.671847 0.490782 0.018190
Si Si3 0.834647 0.728414 0.224571
Si Si4 0.671295 0.505727 0.214865
Si Si5 0.838845 0.124832 0.260620
Si Si6 0.838888 0.124852 0.463643
Si Si7 0.831794 0.237224 0.529949
Si Si8 0.328779 0.696517 0.886297
O O1 0.500000 0.430066 0.367364
O O2 0.728699 0.460510 0.455140
O O3 0.730233 0.458994 0.281143
O O4 0.724820 0.365797 0.370081
O O5 0.500000 0.490567 0.013721
O O6 0.729293 0.497211 0.116766
O O7 0.737656 0.432891 0.984644
O O8 0.754237 0.671007 0.214384
O O9 0.808869 0.758295 0.133148
O O10 0.777333 0.766939 0.303409
O O11 0.000000 0.714963 0.241682
O O12 0.500000 0.505038 0.218048
O O13 0.728954 0.565021 0.244809
O O14 0.839198 0.137477 0.362140
O O15 0.000000 0.127479 0.221516
O O16 0.764776 0.177359 0.508412
O O17 0.000000 0.120508 0.501403
O O18 0.745182 0.282710 0.475326
O O19 0.000000 0.241673 0.503886
O O20 0.500000 0.698663 0.898062
#
# Coordination Sequence:
#
# PCOD8174345 Si02
#       8
#     8   8   8   8   8   8   8   8
#     4   9  17  29  43  68 104 130 154 199 255 302
#     4   9  16  26  43  70 101 128 156 200 255 299
#     4  10  22  36  50  74 106 139 172 208 255 305
#     4   9  17  27  45  74 102 127 160 207 257 300
#     4  10  18  32  54  77  99 129 172 214 250 296
#     4   9  16  29  49  71  97 130 169 208 244 294
#     4  10  21  36  53  74 102 140 178 208 249 307
#     4  10  21  35  52  76 107 137 169 212 259 303
#
# _framework density 18.475142999999999
#
# number of rings (size 3 to 8) (size 9 to 14) (size 15 to 20)
#    0.000    2.500    2.500    0.000    3.500    0.500 
#    0.000    0.000    0.000    0.750    0.000    1.750 
#    0.000    0.000    0.000    0.000    0.000    0.000 
#
# Total GULP energy -396651.748757 kJ/mol
# GULP energy per Si atom -12395.367149 kJ/mol
# Density = 1.843309 g / cm^3
# Si number density = 18.475143 Si / 1000 Ang^3
#
#
#
# Elastic Constant Matrix: (Units=GPa)
#
#
# Indices 1 2 3 4 5 6 
#
# 1 19.0396 21.7252 14.8290 0.0000 0.0000 0.0000
# 2 21.7252 137.9595 34.9752 0.0000 0.0000 0.0000
# 3 14.8290 34.9752 96.4550 0.0000 0.0000 0.0000
# 4 0.0000 0.0000 0.0000 34.1847 0.0000 0.0000
# 5 0.0000 0.0000 0.0000 0.0000 17.1006 0.0000
# 6 0.0000 0.0000 0.0000 0.0000 0.0000 20.1347
#
#
#
# Elastic Compliance Matrix: (Units=1/GPa)
#
#
# Indices 1 2 3 4 5 6 
#
# 1 0.068369 -0.008922 -0.007276 0.000000 0.000000 0.000000
# 2 -0.008922 0.009147 -0.001945 0.000000 0.000000 0.000000
# 3 -0.007276 -0.001945 0.012191 0.000000 0.000000 0.000000
# 4 0.000000 0.000000 0.000000 0.029253 0.000000 0.000000
# 5 0.000000 0.000000 0.000000 0.000000 0.058477 0.000000
# 6 0.000000 0.000000 0.000000 0.000000 0.000000 0.049665
#
#
# Mechanical properties :
#
#
# Convention : Reuss Voigt Hill
#
# Bulk Modulus (GPa) = 18.71902 44.05700 31.38801
# Shear Modulus (GPa) = 17.78120 26.41232 22.09676
#
# Velocity S-wave (km/s) = 3.10569 3.78513 3.46211
# Velocity P-wave (km/s) = 4.79733 6.55754 5.74525
#
# Compressibility (1/GPa) = 0.05342160
#
# Stress axis : x y z
#
# Youngs Moduli (GPa) = 14.62645 109.33075 82.02505
#
# Poissons Ratio (x) = 0.97544 0.59681
# Poissons Ratio (y) = 0.13050 0.15953
# Poissons Ratio (z) = 0.10642 0.21264
#
# Static dielectric constant tensor:
#      x y z
#    x 2.842470 0.000000 0.000000 
#    y 0.000000 3.688170 0.000000 
#    z 0.000000 0.000000 3.479000 
# 
# 
# High freq. dielectric constant tensor:
#      x y z
#    x 1.643840 0.000000 0.000000 
#    y 0.000000 1.735750 0.000000 
#    z 0.000000 0.000000 1.726380 
# 
# From -- ./inp_files/10879.got.cif
#   From: 2010.03.12/outbox.cif.g09.slc.cpg/sg36_6_cif.got.tgz:10879.got - 2010.04.14 02:13:53.
