data_PCOD8174356
_publ_section_title
;
Structure prediction by ZEFSAII (Michael W. Deem and Ramdas Pophale) SiO2 
 PCOD8174356
Probable space group: C M C 21
;
_chemical_formula_sum "Si O2"
_cell_formula_units_Z 64
_cell_length_a 8.912103
_cell_length_b 20.061526
_cell_length_c 19.933277
_cell_angle_alpha 90.000000
_cell_angle_beta 90.000000
_cell_angle_gamma 90.000000
_cell_volume 3563.878290
_symmetry_space_group_name_H-M "C M C 21"
_symmetry_group_IT_number 36
_symmetry_cell_setting 'orthorhombic'
loop_
_space_group_symop_operation_xyz
x,y,z
-x,-y,1/2+z
x,-y,1/2+z
-x,y,z
1/2+x,1/2+y,z
1/2-x,1/2-y,1/2+z
1/2+x,1/2-y,1/2+z
1/2-x,1/2+y,z
loop_
_atom_site_type_symbol
_atom_site_label
_atom_site_fract_x
_atom_site_fract_y
_atom_site_fract_z
Si Si1 0.823231 0.661566 0.122800
Si Si2 0.177457 0.703780 0.651592
Si Si3 0.327593 0.191173 0.970900
Si Si4 0.176778 0.091993 0.733913
Si Si5 0.177020 0.084780 0.885660
Si Si6 0.676750 0.478667 0.989339
Si Si7 0.677118 0.525448 0.133981
Si Si8 0.174416 0.833336 0.015223
O O1 0.747751 0.723109 0.161450
O O2 0.759254 0.593726 0.154033
O O3 0.000000 0.666041 0.133480
O O4 0.779830 0.665080 0.044256
O O5 0.234884 0.657735 0.711863
O O6 0.227521 0.670978 0.581853
O O7 0.000000 0.709641 0.653990
O O8 0.500000 0.174851 0.956698
O O9 0.230312 0.155718 0.914167
O O10 0.295943 0.270615 0.966548
O O11 0.229286 0.075418 0.809394
O O12 0.000000 0.106246 0.728823
O O13 0.223294 0.029411 0.688475
O O14 0.000000 0.083456 0.890148
O O15 0.246949 0.024569 0.930555
O O16 0.500000 0.487783 0.989422
O O17 0.738402 0.501360 0.061731
O O18 0.718762 0.401185 0.976382
O O19 0.500000 0.537877 0.133342
O O20 0.000000 0.834442 0.038263
#
# Coordination Sequence:
#
# PCOD8174356 Si02
#       8
#     8   8   8   8   8   8   8   8
#     4  10  20  34  54  80 110 139 173 220 275 322
#     4  11  21  33  53  80 106 136 181 228 267 316
#     4   9  18  31  50  76 106 138 172 216 267 315
#     4  10  21  37  54  75 109 149 180 217 273 329
#     4  10  20  34  54  77 104 142 182 216 262 325
#     4   9  16  30  54  79 103 136 177 219 259 311
#     4  10  18  32  55  80 107 139 180 224 265 316
#     4   9  17  33  54  77 107 141 175 218 272 316
#
# _framework density 17.957965999999999
#
# number of rings (size 3 to 8) (size 9 to 14) (size 15 to 20)
#    0.000    2.250    2.500    2.250    0.000    3.000 
#    0.000    1.875    0.000    3.000    0.000    0.000 
#    0.000    0.000    0.000    0.000    0.000    0.000 
#
# Total GULP energy -396807.983956 kJ/mol
# GULP energy per Si atom -12400.249499 kJ/mol
# Density = 1.791709 g / cm^3
# Si number density = 17.957966 Si / 1000 Ang^3
#
#
#
# Elastic Constant Matrix: (Units=GPa)
#
#
# Indices 1 2 3 4 5 6 
#
# 1 53.7491 43.2883 35.5368 0.0000 0.0000 0.0000
# 2 43.2883 162.5618 73.5490 0.0000 0.0000 0.0000
# 3 35.5368 73.5490 117.1169 0.0000 0.0000 0.0000
# 4 0.0000 0.0000 0.0000 25.8578 0.0000 0.0000
# 5 0.0000 0.0000 0.0000 0.0000 18.4987 0.0000
# 6 0.0000 0.0000 0.0000 0.0000 0.0000 30.8665
#
#
#
# Elastic Compliance Matrix: (Units=1/GPa)
#
#
# Indices 1 2 3 4 5 6 
#
# 1 0.025519 -0.004599 -0.004855 0.000000 0.000000 0.000000
# 2 -0.004599 0.009422 -0.004521 0.000000 0.000000 0.000000
# 3 -0.004855 -0.004521 0.012851 0.000000 0.000000 0.000000
# 4 0.000000 0.000000 0.000000 0.038673 0.000000 0.000000
# 5 0.000000 0.000000 0.000000 0.000000 0.054058 0.000000
# 6 0.000000 0.000000 0.000000 0.000000 0.000000 0.032398
#
#
# Mechanical properties :
#
#
# Convention : Reuss Voigt Hill
#
# Bulk Modulus (GPa) = 50.40079 70.90843 60.65461
# Shear Modulus (GPa) = 24.09822 27.11485 25.60653
#
# Velocity S-wave (km/s) = 3.66720 3.88997 3.78023
# Velocity P-wave (km/s) = 6.78661 7.72964 7.27342
#
# Compressibility (1/GPa) = 0.01984096
#
# Stress axis : x y z
#
# Youngs Moduli (GPa) = 39.18705 106.13742 77.81410
#
# Poissons Ratio (x) = 0.48809 0.37780
# Poissons Ratio (y) = 0.18021 0.35183
# Poissons Ratio (z) = 0.19026 0.47990
#
# Static dielectric constant tensor:
#      x y z
#    x 3.088590 0.000000 0.000000 
#    y 0.000000 3.555360 0.000000 
#    z 0.000000 0.000000 3.226760 
# 
# 
# High freq. dielectric constant tensor:
#      x y z
#    x 1.677330 0.000000 0.000000 
#    y 0.000000 1.711530 0.000000 
#    z 0.000000 0.000000 1.666230 
# 
# From -- ./inp_files/13857.got.cif
#   From: 2010.03.12/outbox.cif.g09.slc.cpg/sg36_7_cif.got.tgz:13857.got - 2010.04.14 02:13:53.
