data_PCOD8174000
_publ_section_title
;
Structure prediction by ZEFSAII (Michael W. Deem and Ramdas Pophale) SiO2 
 PCOD8174000
Probable space group: C M M 2
;
_chemical_formula_sum "Si O2"
_cell_formula_units_Z 36
_cell_length_a 14.286004
_cell_length_b 17.278171
_cell_length_c 7.477743
_cell_angle_alpha 90.000000
_cell_angle_beta 90.000000
_cell_angle_gamma 90.000000
_cell_volume 1845.776321
_symmetry_space_group_name_H-M "C M M 2"
_symmetry_group_IT_number 35
_symmetry_cell_setting 'orthorhombic'
loop_
_space_group_symop_operation_xyz
x,y,z
-x,-y,z
-x,y,z
x,-y,z
1/2+x,1/2+y,z
1/2-x,1/2-y,z
1/2-x,1/2+y,z
1/2+x,1/2-y,z
loop_
_atom_site_type_symbol
_atom_site_label
_atom_site_fract_x
_atom_site_fract_y
_atom_site_fract_z
Si Si1 0.201642 0.829804 0.284110
Si Si2 0.500000 0.728664 0.275670
Si Si3 0.172635 0.912032 0.929089
Si Si4 0.000000 0.801895 0.877505
Si Si5 0.305501 0.911972 0.602448
Si Si6 0.500000 0.166808 0.592849
O O1 0.250000 0.750000 0.223495
O O2 0.252832 0.859620 0.459455
O O3 0.091775 0.820311 0.329192
O O4 0.212855 0.890290 0.123259
O O5 0.500000 0.809012 0.383805
O O6 0.500000 0.746311 0.063340
O O7 0.090359 0.855880 0.866620
O O8 0.257449 0.902456 0.793174
O O9 0.135043 0.000000 0.933513
O O10 0.000000 0.743812 0.712517
O O11 0.410775 0.884980 0.632882
O O12 0.303712 0.000000 0.534652
#
# Coordination Sequence:
#
# PCOD8174000 Si02
#       6
#     8   4   8   4   8   4
#     4  11  22  39  66  90 124 158 207 253 308 371
#     4  10  22  38  58 100 114 152 200 256 304 352
#     4  10  23  41  62  92 125 159 200 252 316 371
#     4  10  23  37  65  91 122 158 200 253 308 363
#     4  11  25  41  61  89 125 166 204 254 311 365
#     4  12  23  39  61  89 124 160 212 253 294 361
#
# _framework density 19.503990000000002
#
# number of rings (size 3 to 8) (size 9 to 14) (size 15 to 20)
#    0.000    1.333    2.222    2.667    6.222    0.000 
#    0.000    2.778    0.000    5.333    0.000    0.000 
#    0.000    0.000    0.000    0.000    0.000    0.000 
#
# Total GULP energy -223285.911381 kJ/mol
# GULP energy per Si atom -12404.772854 kJ/mol
# Density = 1.945960 g / cm^3
# Si number density = 19.503990 Si / 1000 Ang^3
#
#
#
# Elastic Constant Matrix: (Units=GPa)
#
#
# Indices 1 2 3 4 5 6 
#
# 1 141.4153 39.4689 37.1814 0.0000 0.0000 0.0000
# 2 39.4689 73.1354 28.5161 0.0000 0.0000 0.0000
# 3 37.1814 28.5161 73.2635 0.0000 0.0000 0.0000
# 4 0.0000 0.0000 0.0000 38.3678 0.0000 0.0000
# 5 0.0000 0.0000 0.0000 0.0000 21.7910 0.0000
# 6 0.0000 0.0000 0.0000 0.0000 0.0000 21.3655
#
#
#
# Elastic Compliance Matrix: (Units=1/GPa)
#
#
# Indices 1 2 3 4 5 6 
#
# 1 0.008891 -0.003583 -0.003118 0.000000 0.000000 0.000000
# 2 -0.003583 0.017563 -0.005018 0.000000 0.000000 0.000000
# 3 -0.003118 -0.005018 0.017185 0.000000 0.000000 0.000000
# 4 0.000000 0.000000 0.000000 0.026064 0.000000 0.000000
# 5 0.000000 0.000000 0.000000 0.000000 0.045890 0.000000
# 6 0.000000 0.000000 0.000000 0.000000 0.000000 0.046804
#
#
# Mechanical properties :
#
#
# Convention : Reuss Voigt Hill
#
# Bulk Modulus (GPa) = 49.49892 55.34964 52.42428
# Shear Modulus (GPa) = 25.96488 28.48140 27.22314
#
# Velocity S-wave (km/s) = 3.65260 3.82551 3.74006
# Velocity P-wave (km/s) = 6.57439 6.92481 6.75187
#
# Compressibility (1/GPa) = 0.02020246
#
# Stress axis : x y z
#
# Youngs Moduli (GPa) = 112.47342 56.93731 58.19121
#
# Poissons Ratio (x) = 0.20398 0.18143
# Poissons Ratio (y) = 0.40294 0.29200
# Poissons Ratio (z) = 0.35067 0.28571
#
# Static dielectric constant tensor:
#      x y z
#    x 3.690140 0.000000 0.000000 
#    y 0.000000 3.630730 0.000000 
#    z 0.000000 0.000000 3.589390 
# 
# 
# High freq. dielectric constant tensor:
#      x y z
#    x 1.774170 0.000000 0.000000 
#    y 0.000000 1.758210 0.000000 
#    z 0.000000 0.000000 1.768090 
# 
# From -- ./inp_files/6946.got.cif
#   From: 2010.03.12/outbox.cif.g09.slc.cpg/sg35_4_cif.got.tgz:6946.got - 2010.04.14 02:02:04.
