data_PCOD8174285
_publ_section_title
;
Structure prediction by ZEFSAII (Michael W. Deem and Ramdas Pophale) SiO2 
 PCOD8174285
Probable space group: C M C 21
;
_chemical_formula_sum "Si O2"
_cell_formula_units_Z 64
_cell_length_a 8.507102
_cell_length_b 14.748579
_cell_length_c 24.546191
_cell_angle_alpha 90.000000
_cell_angle_beta 90.000000
_cell_angle_gamma 90.000000
_cell_volume 3079.753292
_symmetry_space_group_name_H-M "C M C 21"
_symmetry_group_IT_number 36
_symmetry_cell_setting 'orthorhombic'
loop_
_space_group_symop_operation_xyz
x,y,z
-x,-y,1/2+z
x,-y,1/2+z
-x,y,z
1/2+x,1/2+y,z
1/2-x,1/2-y,1/2+z
1/2+x,1/2-y,1/2+z
1/2-x,1/2+y,z
loop_
_atom_site_type_symbol
_atom_site_label
_atom_site_fract_x
_atom_site_fract_y
_atom_site_fract_z
Si Si1 0.315418 0.381023 0.716370
Si Si2 0.686313 0.174416 0.695071
Si Si3 0.812753 0.369888 0.427351
Si Si4 0.181900 0.649635 0.811442
Si Si5 0.817268 0.657428 0.324830
Si Si6 0.683635 0.523592 0.626026
Si Si7 0.815192 0.520675 0.509095
Si Si8 0.315437 0.664433 0.434974
O O1 0.500000 0.388955 0.726758
O O2 0.268426 0.280501 0.695404
O O3 0.225938 0.406412 0.773122
O O4 0.258135 0.451693 0.670924
O O5 0.500000 0.162535 0.688613
O O6 0.751276 0.126621 0.751526
O O7 0.773613 0.125200 0.645448
O O8 0.748187 0.397889 0.366155
O O9 0.745949 0.438764 0.472131
O O10 0.756531 0.268160 0.441699
O O11 0.000000 0.372321 0.426734
O O12 0.203248 0.756733 0.819548
O O13 0.000000 0.626760 0.808704
O O14 0.773812 0.615122 0.383891
O O15 0.000000 0.683359 0.322737
O O16 0.500000 0.515983 0.614544
O O17 0.775123 0.499933 0.571199
O O18 0.732305 0.613211 0.490192
O O19 0.000000 0.530420 0.501670
O O20 0.500000 0.658683 0.425404
#
# Coordination Sequence:
#
# PCOD8174285 Si02
#       8
#     8   8   8   8   8   8   8   8
#     4   9  20  39  59  80 111 149 184 224 279 334
#     4   9  18  35  59  84 111 145 181 223 276 330
#     4   8  17  35  59  83 110 144 178 218 271 330
#     4   8  15  32  56  81 112 146 177 216 275 336
#     4  10  18  30  54  88 117 142 179 224 271 327
#     4  11  24  40  56  78 109 146 190 234 277 328
#     4  11  23  39  57  81 110 143 190 237 275 323
#     4  10  20  38  60  83 114 149 181 220 276 332
#
# _framework density 20.780885999999999
#
# number of rings (size 3 to 8) (size 9 to 14) (size 15 to 20)
#    0.000    2.500    0.000    3.750    0.000    5.000 
#    0.000   10.000    0.000    0.000    0.000    0.000 
#    0.000    0.000    0.000    0.000    0.000    0.000 
#
# Total GULP energy -396579.380525 kJ/mol
# GULP energy per Si atom -12393.105641 kJ/mol
# Density = 2.073359 g / cm^3
# Si number density = 20.780886 Si / 1000 Ang^3
#
#
#
# Elastic Constant Matrix: (Units=GPa)
#
#
# Indices 1 2 3 4 5 6 
#
# 1 39.5665 18.1629 21.3198 0.0000 0.0000 0.0000
# 2 18.1629 50.5303 24.9999 0.0000 0.0000 0.0000
# 3 21.3198 24.9999 116.5224 0.0000 0.0000 0.0000
# 4 0.0000 0.0000 0.0000 35.1901 0.0000 0.0000
# 5 0.0000 0.0000 0.0000 0.0000 28.0845 0.0000
# 6 0.0000 0.0000 0.0000 0.0000 0.0000 19.4309
#
#
#
# Elastic Compliance Matrix: (Units=1/GPa)
#
#
# Indices 1 2 3 4 5 6 
#
# 1 0.031668 -0.009528 -0.003750 0.000000 0.000000 0.000000
# 2 -0.009528 0.025007 -0.003622 0.000000 0.000000 0.000000
# 3 -0.003750 -0.003622 0.010045 0.000000 0.000000 0.000000
# 4 0.000000 0.000000 0.000000 0.028417 0.000000 0.000000
# 5 0.000000 0.000000 0.000000 0.000000 0.035607 0.000000
# 6 0.000000 0.000000 0.000000 0.000000 0.000000 0.051465
#
#
# Mechanical properties :
#
#
# Convention : Reuss Voigt Hill
#
# Bulk Modulus (GPa) = 30.37588 37.28715 33.83152
# Shear Modulus (GPa) = 22.02820 26.01686 24.02253
#
# Velocity S-wave (km/s) = 3.25933 3.54214 3.40368
# Velocity P-wave (km/s) = 5.36780 5.89161 5.63579
#
# Compressibility (1/GPa) = 0.03292085
#
# Stress axis : x y z
#
# Youngs Moduli (GPa) = 31.57737 39.98922 99.54935
#
# Poissons Ratio (x) = 0.38100 0.37332
# Poissons Ratio (y) = 0.30086 0.36056
# Poissons Ratio (z) = 0.11842 0.14484
#
# Static dielectric constant tensor:
#      x y z
#    x 3.395640 0.000000 0.000000 
#    y 0.000000 3.667360 0.000000 
#    z 0.000000 0.000000 4.116080 
# 
# 
# High freq. dielectric constant tensor:
#      x y z
#    x 1.791400 0.000000 0.000000 
#    y 0.000000 1.797410 0.000000 
#    z 0.000000 0.000000 1.823970 
# 
# From -- ./inp_files/16657.got.cif
#   From: 2010.03.12/outbox.cif.g09.slc.cpg/sg36_9_cif.got.tgz:16657.got - 2010.04.14 02:13:53.
