data_PCOD8174885
_publ_section_title
;
Structure prediction by ZEFSAII (Michael W. Deem and Ramdas Pophale) SiO2 
 PCOD8174885
Probable space group: C M C 21
;
_chemical_formula_sum "Si O2"
_cell_formula_units_Z 64
_cell_length_a 8.805996
_cell_length_b 20.026872
_cell_length_c 19.781734
_cell_angle_alpha 90.000000
_cell_angle_beta 90.000000
_cell_angle_gamma 90.000000
_cell_volume 3488.638455
_symmetry_space_group_name_H-M "C M C 21"
_symmetry_group_IT_number 36
_symmetry_cell_setting 'orthorhombic'
loop_
_space_group_symop_operation_xyz
x,y,z
-x,-y,1/2+z
x,-y,1/2+z
-x,y,z
1/2+x,1/2+y,z
1/2-x,1/2-y,1/2+z
1/2+x,1/2-y,1/2+z
1/2-x,1/2+y,z
loop_
_atom_site_type_symbol
_atom_site_label
_atom_site_fract_x
_atom_site_fract_y
_atom_site_fract_z
Si Si1 0.320850 0.168079 0.920920
Si Si2 0.823626 0.080687 0.555158
Si Si3 0.679549 0.228270 0.173972
Si Si4 0.178902 0.156932 0.777431
Si Si5 0.822385 0.091183 0.163915
Si Si6 0.174823 0.061895 0.009957
Si Si7 0.678336 0.726512 0.528682
Si Si8 0.821033 0.544528 0.693842
O O1 0.500000 0.172595 0.908397
O O2 0.232809 0.176663 0.851556
O O3 0.282304 0.097325 0.955675
O O4 0.256574 0.227633 0.968707
O O5 0.780657 0.148666 0.515549
O O6 0.727236 0.077531 0.623247
O O7 0.000000 0.080934 0.577938
O O8 0.791383 0.017631 0.506654
O O9 0.500000 0.218113 0.172651
O O10 0.728863 0.283585 0.227887
O O11 0.757392 0.159048 0.195316
O O12 0.744592 0.250726 0.101002
O O13 0.259133 0.088589 0.755472
O O14 0.000000 0.145608 0.776089
O O15 0.783509 0.088315 0.084384
O O16 0.000000 0.086378 0.177029
O O17 0.744882 0.029642 0.202253
O O18 0.000000 0.077014 0.992200
O O19 0.500000 0.737223 0.530975
O O20 0.000000 0.540954 0.698148
#
# Coordination Sequence:
#
# PCOD8174885 Si02
#       8
#     8   8   8   8   8   8   8   8
#     4  11  22  36  56  81 113 149 189 236 287 342
#     4   9  17  34  57  82 111 146 188 231 282 334
#     4  10  19  35  59  84 112 149 189 236 286 335
#     4  11  23  40  59  79 113 155 193 232 287 349
#     4  10  20  34  56  85 116 146 184 234 282 335
#     4   9  18  32  53  80 110 145 185 227 276 337
#     4   9  17  33  57  83 111 146 186 230 283 334
#     4  11  21  34  55  84 114 144 186 236 285 336
#
# _framework density 18.345265999999999
#
# number of rings (size 3 to 8) (size 9 to 14) (size 15 to 20)
#    0.000    2.000    2.500    3.000    0.000    3.000 
#    0.000    2.500    0.000    4.500    0.000    0.000 
#    0.000    0.000    0.000    0.000    0.000    0.000 
#
# Total GULP energy -396860.804557 kJ/mol
# GULP energy per Si atom -12401.900142 kJ/mol
# Density = 1.830351 g / cm^3
# Si number density = 18.345266 Si / 1000 Ang^3
#
#
#
# Elastic Constant Matrix: (Units=GPa)
#
#
# Indices 1 2 3 4 5 6 
#
# 1 71.2574 47.6090 34.5855 0.0000 0.0000 0.0000
# 2 47.6090 152.9076 59.7651 0.0000 0.0000 0.0000
# 3 34.5855 59.7651 94.5516 0.0000 0.0000 0.0000
# 4 0.0000 0.0000 0.0000 26.7999 0.0000 0.0000
# 5 0.0000 0.0000 0.0000 0.0000 27.7887 0.0000
# 6 0.0000 0.0000 0.0000 0.0000 0.0000 29.1013
#
#
#
# Elastic Compliance Matrix: (Units=1/GPa)
#
#
# Indices 1 2 3 4 5 6 
#
# 1 0.018922 -0.004232 -0.004247 0.000000 0.000000 0.000000
# 2 -0.004232 0.009632 -0.004540 0.000000 0.000000 0.000000
# 3 -0.004247 -0.004540 0.015000 0.000000 0.000000 0.000000
# 4 0.000000 0.000000 0.000000 0.037314 0.000000 0.000000
# 5 0.000000 0.000000 0.000000 0.000000 0.035986 0.000000
# 6 0.000000 0.000000 0.000000 0.000000 0.000000 0.034363
#
#
# Mechanical properties :
#
#
# Convention : Reuss Voigt Hill
#
# Bulk Modulus (GPa) = 57.08993 66.95953 62.02473
# Shear Modulus (GPa) = 27.30865 28.52179 27.91522
#
# Velocity S-wave (km/s) = 3.86242 3.94727 3.90508
# Velocity P-wave (km/s) = 7.14691 7.57321 7.36314
#
# Compressibility (1/GPa) = 0.01751622
#
# Stress axis : x y z
#
# Youngs Moduli (GPa) = 52.84832 103.81878 66.66864
#
# Poissons Ratio (x) = 0.43933 0.28311
# Poissons Ratio (y) = 0.22364 0.30271
# Poissons Ratio (z) = 0.22442 0.47139
#
# Static dielectric constant tensor:
#      x y z
#    x 3.224570 0.000000 0.000000 
#    y 0.000000 3.630060 0.000000 
#    z 0.000000 0.000000 3.184830 
# 
# 
# High freq. dielectric constant tensor:
#      x y z
#    x 1.703390 0.000000 0.000000 
#    y 0.000000 1.727630 0.000000 
#    z 0.000000 0.000000 1.682220 
# 
# From -- ./inp_files/13910.got.cif
#   From: 2010.03.12/outbox.cif.g09.slc.cpg/sg36_7_cif.got.tgz:13910.got - 2010.04.14 02:13:53.
