data_PCOD8174297
_publ_section_title
;
Structure prediction by ZEFSAII (Michael W. Deem and Ramdas Pophale) SiO2 
 PCOD8174297
Probable space group: C M C 21
;
_chemical_formula_sum "Si O2"
_cell_formula_units_Z 64
_cell_length_a 9.195964
_cell_length_b 24.735397
_cell_length_c 14.613831
_cell_angle_alpha 90.000000
_cell_angle_beta 90.000000
_cell_angle_gamma 90.000000
_cell_volume 3324.147057
_symmetry_space_group_name_H-M "C M C 21"
_symmetry_group_IT_number 36
_symmetry_cell_setting 'orthorhombic'
loop_
_space_group_symop_operation_xyz
x,y,z
-x,-y,1/2+z
x,-y,1/2+z
-x,y,z
1/2+x,1/2+y,z
1/2-x,1/2-y,1/2+z
1/2+x,1/2-y,1/2+z
1/2-x,1/2+y,z
loop_
_atom_site_type_symbol
_atom_site_label
_atom_site_fract_x
_atom_site_fract_y
_atom_site_fract_z
Si Si1 0.331422 0.259628 0.146690
Si Si2 0.164580 0.910435 0.056988
Si Si3 0.331780 0.014123 0.043089
Si Si4 0.668619 0.168905 0.283670
Si Si5 0.337011 0.698373 0.455135
Si Si6 0.172580 0.449803 0.742542
Si Si7 0.332262 0.947404 0.351101
Si Si8 0.828142 0.641791 0.718886
O O1 0.500000 0.277409 0.146774
O O2 0.308049 0.199544 0.186225
O O3 0.248345 0.300226 0.214745
O O4 0.275673 0.265897 0.041240
O O5 0.275629 0.895982 0.136996
O O6 0.000000 0.919064 0.093432
O O7 0.228981 0.964697 0.014037
O O8 0.166549 0.864656 0.980268
O O9 0.500000 0.995336 0.048328
O O10 0.279851 0.040914 0.137401
O O11 0.308638 0.056188 0.959929
O O12 0.500000 0.166257 0.308610
O O13 0.741763 0.204421 0.363993
O O14 0.735811 0.108569 0.274363
O O15 0.500000 0.717746 0.431596
O O16 0.238232 0.498503 0.804638
O O17 0.000000 0.446145 0.749495
O O18 0.500000 0.952142 0.323923
O O19 0.276200 0.890577 0.309844
O O20 0.000000 0.650692 0.713555
#
# Coordination Sequence:
#
# PCOD8174297 Si02
#       8
#     8   8   8   8   8   8   8   8
#     4   9  20  38  55  78 111 142 176 225 279 327
#     4  10  19  32  51  77 109 142 176 217 266 318
#     4  10  18  31  52  76 107 140 173 218 266 320
#     4  10  20  36  58  80 106 144 184 222 272 327
#     4   9  19  35  54  78 108 140 179 227 269 314
#     4   9  17  31  51  78 108 136 171 218 265 312
#     4   9  17  29  49  81 107 128 172 223 262 309
#     4  10  18  32  54  78 102 134 179 226 265 309
#
# _framework density 19.253059
#
# number of rings (size 3 to 8) (size 9 to 14) (size 15 to 20)
#    0.000    2.500    1.250    2.250    0.000    4.000 
#    2.250    1.875    0.000    0.000    0.000    0.000 
#    0.000    0.000    0.000    0.000    0.000    0.000 
#
# Total GULP energy -396593.731797 kJ/mol
# GULP energy per Si atom -12393.554119 kJ/mol
# Density = 1.920924 g / cm^3
# Si number density = 19.253059 Si / 1000 Ang^3
#
#
#
# Elastic Constant Matrix: (Units=GPa)
#
#
# Indices 1 2 3 4 5 6 
#
# 1 41.4583 15.0586 16.7275 0.0000 0.0000 0.0000
# 2 15.0586 49.7894 19.2321 0.0000 0.0000 0.0000
# 3 16.7275 19.2321 103.4310 0.0000 0.0000 0.0000
# 4 0.0000 0.0000 0.0000 24.0882 0.0000 0.0000
# 5 0.0000 0.0000 0.0000 0.0000 20.2292 0.0000
# 6 0.0000 0.0000 0.0000 0.0000 0.0000 20.9932
#
#
#
# Elastic Compliance Matrix: (Units=1/GPa)
#
#
# Indices 1 2 3 4 5 6 
#
# 1 0.028040 -0.007250 -0.003187 0.000000 0.000000 0.000000
# 2 -0.007250 0.023513 -0.003200 0.000000 0.000000 0.000000
# 3 -0.003187 -0.003200 0.010779 0.000000 0.000000 0.000000
# 4 0.000000 0.000000 0.000000 0.041514 0.000000 0.000000
# 5 0.000000 0.000000 0.000000 0.000000 0.049433 0.000000
# 6 0.000000 0.000000 0.000000 0.000000 0.000000 0.047635
#
#
# Mechanical properties :
#
#
# Convention : Reuss Voigt Hill
#
# Bulk Modulus (GPa) = 28.52292 32.96834 30.74563
# Shear Modulus (GPa) = 20.84448 22.63949 21.74198
#
# Velocity S-wave (km/s) = 3.29395 3.43285 3.36411
# Velocity P-wave (km/s) = 5.41421 5.73354 5.57616
#
# Compressibility (1/GPa) = 0.03505952
#
# Stress axis : x y z
#
# Youngs Moduli (GPa) = 35.66382 42.52952 92.77647
#
# Poissons Ratio (x) = 0.30832 0.29565
# Poissons Ratio (y) = 0.25855 0.29685
# Poissons Ratio (z) = 0.11365 0.13608
#
# Static dielectric constant tensor:
#      x y z
#    x 3.266270 0.000000 0.000000 
#    y 0.000000 3.542560 0.000000 
#    z 0.000000 0.000000 3.480600 
# 
# 
# High freq. dielectric constant tensor:
#      x y z
#    x 1.715380 0.000000 0.000000 
#    y 0.000000 1.738730 0.000000 
#    z 0.000000 0.000000 1.749410 
# 
# From -- ./inp_files/11102.got.cif
#   From: 2010.03.12/outbox.cif.g09.slc.cpg/sg36_6_cif.got.tgz:11102.got - 2010.04.14 02:13:53.
