data_PCOD8174412
_publ_section_title
;
Structure prediction by ZEFSAII (Michael W. Deem and Ramdas Pophale) SiO2 
 PCOD8174412
Probable space group: C M C 21
;
_chemical_formula_sum "Si O2"
_cell_formula_units_Z 64
_cell_length_a 9.102168
_cell_length_b 20.625810
_cell_length_c 19.078536
_cell_angle_alpha 90.000000
_cell_angle_beta 90.000000
_cell_angle_gamma 90.000000
_cell_volume 3581.796484
_symmetry_space_group_name_H-M "C M C 21"
_symmetry_group_IT_number 36
_symmetry_cell_setting 'orthorhombic'
loop_
_space_group_symop_operation_xyz
x,y,z
-x,-y,1/2+z
x,-y,1/2+z
-x,y,z
1/2+x,1/2+y,z
1/2-x,1/2-y,1/2+z
1/2+x,1/2-y,1/2+z
1/2-x,1/2+y,z
loop_
_atom_site_type_symbol
_atom_site_label
_atom_site_fract_x
_atom_site_fract_y
_atom_site_fract_z
Si Si1 0.833386 0.241588 0.000000
Si Si2 0.826137 0.931587 0.146296
Si Si3 0.830359 0.189999 0.148893
Si Si4 0.328186 0.890134 0.010109
Si Si5 0.826864 0.196716 0.728943
Si Si6 0.328957 0.610760 0.368318
Si Si7 0.169821 0.261851 0.362698
Si Si8 0.173872 0.060199 0.221193
O O1 0.812377 0.193688 0.065283
O O2 0.792601 0.314537 0.023377
O O3 0.000000 0.240231 0.971704
O O4 0.726660 0.217002 0.939058
O O5 0.749742 0.931205 0.070685
O O6 0.779570 0.869098 0.190679
O O7 0.000000 0.935011 0.134429
O O8 0.764814 0.993698 0.188811
O O9 0.730568 0.243536 0.184328
O O10 0.772809 0.119922 0.173120
O O11 0.000000 0.201900 0.171420
O O12 0.500000 0.905112 0.011484
O O13 0.264120 0.912143 0.935137
O O14 0.755881 0.196208 0.805636
O O15 0.000000 0.202380 0.736980
O O16 0.500000 0.599212 0.384895
O O17 0.300019 0.685894 0.349943
O O18 0.272996 0.569403 0.301491
O O19 0.000000 0.279288 0.357289
O O20 0.000000 0.058542 0.221358
#
# Coordination Sequence:
#
# PCOD8174412 Si02
#       8
#     8   8   8   8   8   8   8   8
#     4   9  18  31  51  79 108 135 170 219 269 314
#     4  10  21  36  54  78 107 141 179 217 259 311
#     4  10  18  34  57  79 103 135 175 218 264 310
#     4  10  19  32  52  78 108 138 172 216 264 317
#     4  11  21  32  51  79 109 136 170 216 264 314
#     4   9  17  32  55  78 101 133 177 222 260 308
#     4  10  19  32  53  78 105 138 177 220 264 311
#     4   9  18  35  57  79 103 136 180 222 256 303
#
# _framework density 17.868127999999999
#
# number of rings (size 3 to 8) (size 9 to 14) (size 15 to 20)
#    0.000    2.250    2.500    1.125    0.000    2.000 
#    0.000    2.500    0.000    7.500    0.000    0.000 
#    0.000    0.000    0.000    0.000    0.000    0.000 
#
# Total GULP energy -396864.785201 kJ/mol
# GULP energy per Si atom -12402.024538 kJ/mol
# Density = 1.782746 g / cm^3
# Si number density = 17.868128 Si / 1000 Ang^3
#
#
#
# Elastic Constant Matrix: (Units=GPa)
#
#
# Indices 1 2 3 4 5 6 
#
# 1 57.2775 34.4686 52.2089 0.0000 0.0000 0.0000
# 2 34.4686 98.1453 69.2198 0.0000 0.0000 0.0000
# 3 52.2089 69.2198 147.8148 0.0000 0.0000 0.0000
# 4 0.0000 0.0000 0.0000 28.5691 0.0000 0.0000
# 5 0.0000 0.0000 0.0000 0.0000 34.1136 0.0000
# 6 0.0000 0.0000 0.0000 0.0000 0.0000 18.3137
#
#
#
# Elastic Compliance Matrix: (Units=1/GPa)
#
#
# Indices 1 2 3 4 5 6 
#
# 1 0.026803 -0.004086 -0.007554 0.000000 0.000000 0.000000
# 2 -0.004086 0.015836 -0.005973 0.000000 0.000000 0.000000
# 3 -0.007554 -0.005973 0.012230 0.000000 0.000000 0.000000
# 4 0.000000 0.000000 0.000000 0.035003 0.000000 0.000000
# 5 0.000000 0.000000 0.000000 0.000000 0.029314 0.000000
# 6 0.000000 0.000000 0.000000 0.000000 0.000000 0.054604
#
#
# Mechanical properties :
#
#
# Convention : Reuss Voigt Hill
#
# Bulk Modulus (GPa) = 50.90359 68.33691 59.62025
# Shear Modulus (GPa) = 23.19512 26.02198 24.60855
#
# Velocity S-wave (km/s) = 3.60686 3.82034 3.71513
# Velocity P-wave (km/s) = 6.77468 7.60185 7.20015
#
# Compressibility (1/GPa) = 0.01964498
#
# Stress axis : x y z
#
# Youngs Moduli (GPa) = 37.30966 63.14546 81.76475
#
# Poissons Ratio (x) = 0.25800 0.61761
# Poissons Ratio (y) = 0.15244 0.48837
# Poissons Ratio (z) = 0.28182 0.37716
#
# Static dielectric constant tensor:
#      x y z
#    x 3.196350 0.000000 0.000000 
#    y 0.000000 3.239660 0.000000 
#    z 0.000000 0.000000 3.457160 
# 
# 
# High freq. dielectric constant tensor:
#      x y z
#    x 1.681410 0.000000 0.000000 
#    y 0.000000 1.662760 0.000000 
#    z 0.000000 0.000000 1.706400 
# 
# From -- ./inp_files/13804.got.cif
#   From: 2010.03.12/outbox.cif.g09.slc.cpg/sg36_7_cif.got.tgz:13804.got - 2010.04.14 02:13:53.
