data_PCOD8174606
_publ_section_title
;
Structure prediction by ZEFSAII (Michael W. Deem and Ramdas Pophale) SiO2 
 PCOD8174606
Probable space group: C M C 21
;
_chemical_formula_sum "Si O2"
_cell_formula_units_Z 64
_cell_length_a 9.055141
_cell_length_b 20.086273
_cell_length_c 19.609051
_cell_angle_alpha 90.000000
_cell_angle_beta 90.000000
_cell_angle_gamma 90.000000
_cell_volume 3566.573302
_symmetry_space_group_name_H-M "C M C 21"
_symmetry_group_IT_number 36
_symmetry_cell_setting 'orthorhombic'
loop_
_space_group_symop_operation_xyz
x,y,z
-x,-y,1/2+z
x,-y,1/2+z
-x,y,z
1/2+x,1/2+y,z
1/2-x,1/2-y,1/2+z
1/2+x,1/2-y,1/2+z
1/2-x,1/2+y,z
loop_
_atom_site_type_symbol
_atom_site_label
_atom_site_fract_x
_atom_site_fract_y
_atom_site_fract_z
Si Si1 0.829314 0.085615 0.579460
Si Si2 0.828113 0.918100 0.689244
Si Si3 0.829686 0.458265 0.553618
Si Si4 0.326873 0.270506 0.719561
Si Si5 0.671442 0.734170 0.580998
Si Si6 0.826954 0.057743 0.731041
Si Si7 0.675587 0.325393 0.322517
Si Si8 0.669841 0.835567 0.463514
O O1 0.801251 0.159803 0.551345
O O2 0.771823 0.083036 0.657411
O O3 0.000000 0.065560 0.575230
O O4 0.740900 0.030230 0.536267
O O5 0.741987 0.922178 0.618414
O O6 0.792952 0.849226 0.726871
O O7 0.000000 0.924181 0.670343
O O8 0.781934 0.979801 0.739097
O O9 0.806647 0.411213 0.488202
O O10 0.000000 0.468306 0.570653
O O11 0.500000 0.255264 0.725131
O O12 0.270302 0.244427 0.647241
O O13 0.241700 0.236477 0.781424
O O14 0.500000 0.743494 0.601796
O O15 0.719864 0.785588 0.523174
O O16 0.760622 0.105598 0.789625
O O17 0.000000 0.067099 0.735585
O O18 0.500000 0.320664 0.319566
O O19 0.726584 0.321400 0.399931
O O20 0.500000 0.822301 0.443494
#
# Coordination Sequence:
#
# PCOD8174606 Si02
#       8
#     8   8   8   8   8   8   8   8
#     4   9  17  32  55  79 106 137 177 223 266 322
#     4   9  18  33  54  79 107 138 178 224 270 324
#     4  10  19  32  53  80 110 140 173 225 279 322
#     4  11  21  33  55  85 114 141 179 236 283 324
#     4  10  19  36  58  79 109 149 187 225 273 332
#     4   8  15  31  53  76 101 134 177 221 260 315
#     4  11  22  37  57  78 108 149 190 228 276 340
#     4  10  22  38  55  78 111 148 185 228 279 331
#
# _framework density 17.944393999999999
#
# number of rings (size 3 to 8) (size 9 to 14) (size 15 to 20)
#    0.000    2.250    2.500    1.875    0.000    2.500 
#    0.000    1.875    0.000    6.000    0.000    0.000 
#    0.000    0.000    0.000    0.000    0.000    0.000 
#
# Total GULP energy -396722.400505 kJ/mol
# GULP energy per Si atom -12397.575016 kJ/mol
# Density = 1.790355 g / cm^3
# Si number density = 17.944394 Si / 1000 Ang^3
#
#
#
# Elastic Constant Matrix: (Units=GPa)
#
#
# Indices 1 2 3 4 5 6 
#
# 1 67.2422 39.9774 28.9579 0.0000 0.0000 0.0000
# 2 39.9774 126.1350 35.3497 0.0000 0.0000 0.0000
# 3 28.9579 35.3497 62.4677 0.0000 0.0000 0.0000
# 4 0.0000 0.0000 0.0000 22.9748 0.0000 0.0000
# 5 0.0000 0.0000 0.0000 0.0000 28.5927 0.0000
# 6 0.0000 0.0000 0.0000 0.0000 0.0000 29.1446
#
#
#
# Elastic Compliance Matrix: (Units=1/GPa)
#
#
# Indices 1 2 3 4 5 6 
#
# 1 0.020587 -0.004576 -0.006954 0.000000 0.000000 0.000000
# 2 -0.004576 0.010439 -0.003786 0.000000 0.000000 0.000000
# 3 -0.006954 -0.003786 0.021374 0.000000 0.000000 0.000000
# 4 0.000000 0.000000 0.000000 0.043526 0.000000 0.000000
# 5 0.000000 0.000000 0.000000 0.000000 0.034974 0.000000
# 6 0.000000 0.000000 0.000000 0.000000 0.000000 0.034312
#
#
# Mechanical properties :
#
#
# Convention : Reuss Voigt Hill
#
# Bulk Modulus (GPa) = 45.93797 51.60167 48.76982
# Shear Modulus (GPa) = 24.61832 26.24641 25.43236
#
# Velocity S-wave (km/s) = 3.70797 3.82861 3.76877
# Velocity P-wave (km/s) = 6.63233 6.95437 6.79526
#
# Compressibility (1/GPa) = 0.02176848
#
# Stress axis : x y z
#
# Youngs Moduli (GPa) = 48.57473 95.79049 46.78480
#
# Poissons Ratio (x) = 0.43834 0.32533
# Poissons Ratio (y) = 0.22228 0.17714
# Poissons Ratio (z) = 0.33778 0.36269
#
# Static dielectric constant tensor:
#      x y z
#    x 3.238020 0.000000 0.000000 
#    y 0.000000 3.833600 0.000000 
#    z 0.000000 0.000000 3.043620 
# 
# 
# High freq. dielectric constant tensor:
#      x y z
#    x 1.686730 0.000000 0.000000 
#    y 0.000000 1.715170 0.000000 
#    z 0.000000 0.000000 1.659710 
# 
# From -- ./inp_files/13821.got.cif
#   From: 2010.03.12/outbox.cif.g09.slc.cpg/sg36_7_cif.got.tgz:13821.got - 2010.04.14 02:13:53.
