data_PCOD8174823
_publ_section_title
;
Structure prediction by ZEFSAII (Michael W. Deem and Ramdas Pophale) SiO2 
 PCOD8174823
Probable space group: C M C 21
;
_chemical_formula_sum "Si O2"
_cell_formula_units_Z 64
_cell_length_a 9.071609
_cell_length_b 15.431072
_cell_length_c 23.663673
_cell_angle_alpha 90.000000
_cell_angle_beta 90.000000
_cell_angle_gamma 90.000000
_cell_volume 3312.551021
_symmetry_space_group_name_H-M "C M C 21"
_symmetry_group_IT_number 36
_symmetry_cell_setting 'orthorhombic'
loop_
_space_group_symop_operation_xyz
x,y,z
-x,-y,1/2+z
x,-y,1/2+z
-x,y,z
1/2+x,1/2+y,z
1/2-x,1/2-y,1/2+z
1/2+x,1/2-y,1/2+z
1/2-x,1/2+y,z
loop_
_atom_site_type_symbol
_atom_site_label
_atom_site_fract_x
_atom_site_fract_y
_atom_site_fract_z
Si Si1 0.824839 0.877817 0.720810
Si Si2 0.325433 0.461675 0.295188
Si Si3 0.825819 0.892818 0.593894
Si Si4 0.326683 0.762762 0.013637
Si Si5 0.668652 0.714359 0.401880
Si Si6 0.330679 0.960219 0.026360
Si Si7 0.672071 0.963160 0.896993
Si Si8 0.831721 0.292951 0.282824
O O1 0.762974 0.883948 0.657217
O O2 0.767084 0.789853 0.749624
O O3 0.000000 0.877750 0.721401
O O4 0.767673 0.959444 0.756646
O O5 0.500000 0.460856 0.301593
O O6 0.252457 0.467568 0.357162
O O7 0.269835 0.373828 0.265641
O O8 0.776242 0.807030 0.560031
O O9 0.000000 0.900588 0.594346
O O10 0.765812 0.980816 0.567040
O O11 0.500000 0.757940 0.000064
O O12 0.285399 0.859473 0.034787
O O13 0.238854 0.739926 0.956595
O O14 0.500000 0.687802 0.414515
O O15 0.759348 0.630078 0.384366
O O16 0.677251 0.780429 0.350122
O O17 0.500000 0.973776 0.042844
O O18 0.301165 0.989338 0.961967
O O19 0.500000 0.960163 0.882559
O O20 0.000000 0.311248 0.264385
#
# Coordination Sequence:
#
# PCOD8174823 Si02
#       8
#     8   8   8   8   8   8   8   8
#     4   9  20  41  60  79 115 153 189 238 288 338
#     4  11  22  37  58  86 116 151 193 240 289 340
#     4  10  21  38  62  84 108 151 199 234 277 340
#     4   9  20  37  55  82 115 151 188 229 282 341
#     4  10  19  34  58  85 116 152 187 232 289 341
#     4   9  20  37  55  81 117 148 181 233 287 334
#     4  10  20  36  58  84 119 155 188 233 290 346
#     4  10  21  38  58  83 114 153 191 231 290 346
#
# _framework density 19.320457999999999
#
# number of rings (size 3 to 8) (size 9 to 14) (size 15 to 20)
#    0.000    2.250    1.250    1.875    1.750    5.000 
#    0.000    3.125    0.000    0.000    0.000    0.000 
#    0.000    0.000    0.000    0.000    0.000    0.000 
#
# Total GULP energy -396855.239443 kJ/mol
# GULP energy per Si atom -12401.726233 kJ/mol
# Density = 1.927648 g / cm^3
# Si number density = 19.320458 Si / 1000 Ang^3
#
#
#
# Elastic Constant Matrix: (Units=GPa)
#
#
# Indices 1 2 3 4 5 6 
#
# 1 64.3357 36.1027 34.6165 0.0000 0.0000 0.0000
# 2 36.1027 117.5298 53.2640 0.0000 0.0000 0.0000
# 3 34.6165 53.2640 105.8647 0.0000 0.0000 0.0000
# 4 0.0000 0.0000 0.0000 23.8671 0.0000 0.0000
# 5 0.0000 0.0000 0.0000 0.0000 21.3080 0.0000
# 6 0.0000 0.0000 0.0000 0.0000 0.0000 31.9455
#
#
#
# Elastic Compliance Matrix: (Units=1/GPa)
#
#
# Indices 1 2 3 4 5 6 
#
# 1 0.020338 -0.004189 -0.004543 0.000000 0.000000 0.000000
# 2 -0.004189 0.011884 -0.004610 0.000000 0.000000 0.000000
# 3 -0.004543 -0.004610 0.013251 0.000000 0.000000 0.000000
# 4 0.000000 0.000000 0.000000 0.041899 0.000000 0.000000
# 5 0.000000 0.000000 0.000000 0.000000 0.046931 0.000000
# 6 0.000000 0.000000 0.000000 0.000000 0.000000 0.031303
#
#
# Mechanical properties :
#
#
# Convention : Reuss Voigt Hill
#
# Bulk Modulus (GPa) = 53.21761 59.52184 56.36973
# Shear Modulus (GPa) = 25.18226 26.34059 25.76143
#
# Velocity S-wave (km/s) = 3.61418 3.69637 3.65550
# Velocity P-wave (km/s) = 6.70976 7.00657 6.85977
#
# Compressibility (1/GPa) = 0.01879077
#
# Stress axis : x y z
#
# Youngs Moduli (GPa) = 49.16815 84.14494 75.46713
#
# Poissons Ratio (x) = 0.35246 0.34284
# Poissons Ratio (y) = 0.20595 0.34788
# Poissons Ratio (z) = 0.22337 0.38788
#
# Static dielectric constant tensor:
#      x y z
#    x 3.383960 0.000000 0.000000 
#    y 0.000000 3.518580 0.000000 
#    z 0.000000 0.000000 3.643340 
# 
# 
# High freq. dielectric constant tensor:
#      x y z
#    x 1.738020 0.000000 0.000000 
#    y 0.000000 1.757000 0.000000 
#    z 0.000000 0.000000 1.747280 
# 
# From -- ./inp_files/16553.got.cif
#   From: 2010.03.12/outbox.cif.g09.slc.cpg/sg36_9_cif.got.tgz:16553.got - 2010.04.14 02:13:53.
