data_PCOD8174472
_publ_section_title
;
Structure prediction by ZEFSAII (Michael W. Deem and Ramdas Pophale) SiO2 
 PCOD8174472
Probable space group: C M C 21
;
_chemical_formula_sum "Si O2"
_cell_formula_units_Z 64
_cell_length_a 9.066150
_cell_length_b 20.720417
_cell_length_c 19.024355
_cell_angle_alpha 90.000000
_cell_angle_beta 90.000000
_cell_angle_gamma 90.000000
_cell_volume 3573.808957
_symmetry_space_group_name_H-M "C M C 21"
_symmetry_group_IT_number 36
_symmetry_cell_setting 'orthorhombic'
loop_
_space_group_symop_operation_xyz
x,y,z
-x,-y,1/2+z
x,-y,1/2+z
-x,y,z
1/2+x,1/2+y,z
1/2-x,1/2-y,1/2+z
1/2+x,1/2-y,1/2+z
1/2-x,1/2+y,z
loop_
_atom_site_type_symbol
_atom_site_label
_atom_site_fract_x
_atom_site_fract_y
_atom_site_fract_z
Si Si1 0.169258 0.620347 0.859950
Si Si2 0.674281 0.691954 0.488353
Si Si3 0.171818 0.445400 0.501924
Si Si4 0.325640 0.435255 0.071025
Si Si5 0.828035 0.684170 0.070922
Si Si6 0.672541 0.886286 0.201837
Si Si7 0.170413 0.747150 0.365266
Si Si8 0.330576 0.746539 0.706675
O O1 0.195555 0.565137 0.918240
O O2 0.209195 0.593027 0.782441
O O3 0.266919 0.681763 0.879898
O O4 0.000000 0.644036 0.861297
O O5 0.500000 0.692611 0.479693
O O6 0.725228 0.629086 0.530596
O O7 0.736865 0.754738 0.528854
O O8 0.747796 0.692909 0.411381
O O9 0.267262 0.505630 0.525525
O O10 0.237286 0.383513 0.544141
O O11 0.000000 0.457630 0.519279
O O12 0.500000 0.440295 0.078777
O O13 0.255192 0.435032 0.149058
O O14 0.794412 0.694764 0.153574
O O15 0.000000 0.681768 0.054405
O O16 0.500000 0.889889 0.186047
O O17 0.727357 0.813660 0.188865
O O18 0.197100 0.726923 0.284547
O O19 0.000000 0.747860 0.385201
O O20 0.500000 0.723195 0.696307
#
# Coordination Sequence:
#
# PCOD8174472 Si02
#       8
#     8   8   8   8   8   8   8   8
#     4   9  18  34  55  79 108 143 179 215 266 328
#     4  10  19  35  56  74 101 142 180 212 261 324
#     4  10  20  36  57  79 105 139 180 224 264 317
#     4  11  23  38  55  77 109 147 181 221 272 322
#     4   9  16  32  57  77  99 137 178 213 259 320
#     4  10  19  32  54  82 108 138 180 224 264 316
#     4  10  19  29  50  83 113 136 171 227 270 307
#     4   9  17  32  52  79 111 142 175 214 270 324
#
# _framework density 17.908065000000001
#
# number of rings (size 3 to 8) (size 9 to 14) (size 15 to 20)
#    0.000    2.250    2.500    1.125    0.000    2.500 
#    0.000    1.875    0.000    6.000    0.000    0.000 
#    0.000    0.000    0.000    0.000    0.000    0.000 
#
# Total GULP energy -396769.176678 kJ/mol
# GULP energy per Si atom -12399.036771 kJ/mol
# Density = 1.786731 g / cm^3
# Si number density = 17.908065 Si / 1000 Ang^3
#
#
#
# Elastic Constant Matrix: (Units=GPa)
#
#
# Indices 1 2 3 4 5 6 
#
# 1 57.5092 41.0112 47.7008 0.0000 0.0000 0.0000
# 2 41.0112 97.1159 60.8427 0.0000 0.0000 0.0000
# 3 47.7008 60.8427 135.0229 0.0000 0.0000 0.0000
# 4 0.0000 0.0000 0.0000 28.5463 0.0000 0.0000
# 5 0.0000 0.0000 0.0000 0.0000 28.4722 0.0000
# 6 0.0000 0.0000 0.0000 0.0000 0.0000 26.0388
#
#
#
# Elastic Compliance Matrix: (Units=1/GPa)
#
#
# Indices 1 2 3 4 5 6 
#
# 1 0.028415 -0.007957 -0.006453 0.000000 0.000000 0.000000
# 2 -0.007957 0.016575 -0.004658 0.000000 0.000000 0.000000
# 3 -0.006453 -0.004658 0.011785 0.000000 0.000000 0.000000
# 4 0.000000 0.000000 0.000000 0.035031 0.000000 0.000000
# 5 0.000000 0.000000 0.000000 0.000000 0.035122 0.000000
# 6 0.000000 0.000000 0.000000 0.000000 0.000000 0.038404
#
#
# Mechanical properties :
#
#
# Convention : Reuss Voigt Hill
#
# Bulk Modulus (GPa) = 53.64917 65.41749 59.53333
# Shear Modulus (GPa) = 23.84574 25.95101 24.89838
#
# Velocity S-wave (km/s) = 3.65302 3.81087 3.73278
# Velocity P-wave (km/s) = 6.91490 7.48148 7.20376
#
# Compressibility (1/GPa) = 0.01863962
#
# Stress axis : x y z
#
# Youngs Moduli (GPa) = 35.19256 60.33100 84.85448
#
# Poissons Ratio (x) = 0.48003 0.54758
# Poissons Ratio (y) = 0.28001 0.39526
# Poissons Ratio (z) = 0.22710 0.28103
#
# Static dielectric constant tensor:
#      x y z
#    x 3.211020 0.000000 0.000000 
#    y 0.000000 3.082990 0.000000 
#    z 0.000000 0.000000 3.613920 
# 
# 
# High freq. dielectric constant tensor:
#      x y z
#    x 1.683200 0.000000 0.000000 
#    y 0.000000 1.659830 0.000000 
#    z 0.000000 0.000000 1.711440 
# 
# From -- ./inp_files/14093.got.cif
#   From: 2010.03.12/outbox.cif.g09.slc.cpg/sg36_8_cif.got.tgz:14093.got - 2010.04.14 02:13:53.
