data_PCOD8174090
_publ_section_title
;
Structure prediction by ZEFSAII (Michael W. Deem and Ramdas Pophale) SiO2 
 PCOD8174090
Probable space group: C M M 2
;
_chemical_formula_sum "Si O2"
_cell_formula_units_Z 48
_cell_length_a 18.659395
_cell_length_b 7.770472
_cell_length_c 17.225728
_cell_angle_alpha 90.000000
_cell_angle_beta 90.000000
_cell_angle_gamma 90.000000
_cell_volume 2497.598032
_symmetry_space_group_name_H-M "C M M 2"
_symmetry_group_IT_number 35
_symmetry_cell_setting 'orthorhombic'
loop_
_space_group_symop_operation_xyz
x,y,z
-x,-y,z
-x,y,z
x,-y,z
1/2+x,1/2+y,z
1/2-x,1/2-y,z
1/2-x,1/2+y,z
1/2+x,1/2-y,z
loop_
_atom_site_type_symbol
_atom_site_label
_atom_site_fract_x
_atom_site_fract_y
_atom_site_fract_z
Si Si1 0.085076 0.000000 0.919490
Si Si2 0.331449 0.805474 0.663083
Si Si3 0.914551 0.000000 0.742542
Si Si4 0.078253 0.703482 0.192551
Si Si5 0.085093 0.304355 0.358652
Si Si6 0.585894 0.807096 0.025059
Si Si7 0.825893 0.191924 0.496846
O O1 0.111772 0.000000 0.831554
O O2 0.115033 0.828619 0.962059
O O3 0.000000 0.000000 0.923647
O O4 0.250000 0.750000 0.679882
O O5 0.385400 0.674509 0.704481
O O6 0.347324 0.807448 0.570734
O O7 0.344689 0.000000 0.694053
O O8 0.000000 0.000000 0.734898
O O9 0.068705 0.500000 0.197946
O O10 0.115672 0.761529 0.274042
O O11 0.117484 0.747764 0.110688
O O12 0.000000 0.790960 0.190037
O O13 0.108783 0.500000 0.374022
O O14 0.116368 0.192738 0.428337
O O15 0.000000 0.285231 0.358586
O O16 0.500000 0.805588 0.029876
O O17 0.611987 0.000000 0.002307
O O18 0.750000 0.250000 0.461259
O O19 0.819821 0.000000 0.530233
#
# Coordination Sequence:
#
# PCOD8174090 Si02
#       7
#     4   8   4   8   8   8   8
#     4   9  18  30  46  73 113 146 172 225 288 334
#     4  11  21  41  67  86 111 155 200 240 288 353
#     4  11  24  40  58  93 130 148 186 251 303 350
#     4   7  11  22  41  65  97 137 179 219 258 314
#     4   9  17  30  48  74 109 144 178 222 277 325
#     4   8  13  24  43  66  98 143 184 215 265 333
#     4  11  21  36  55  77 105 140 188 235 269 325
#
# _framework density 19.218464999999998
#
# number of rings (size 3 to 8) (size 9 to 14) (size 15 to 20)
#    0.000    2.667    1.667    4.500    0.000    2.000 
#    1.500    1.667    0.000    0.000    0.000    1.167 
#    0.000    0.000    0.000    0.000    0.000    0.000 
#
# Total GULP energy -297322.902069 kJ/mol
# GULP energy per Si atom -12388.454253 kJ/mol
# Density = 1.917472 g / cm^3
# Si number density = 19.218465 Si / 1000 Ang^3
#
#
#
# Elastic Constant Matrix: (Units=GPa)
#
#
# Indices 1 2 3 4 5 6 
#
# 1 40.8566 26.5088 40.3168 0.0000 0.0000 0.0000
# 2 26.5088 121.3985 52.9213 0.0000 0.0000 0.0000
# 3 40.3168 52.9213 141.9825 0.0000 0.0000 0.0000
# 4 0.0000 0.0000 0.0000 26.9504 0.0000 0.0000
# 5 0.0000 0.0000 0.0000 0.0000 0.2452 0.0000
# 6 0.0000 0.0000 0.0000 0.0000 0.0000 16.0228
#
#
#
# Elastic Compliance Matrix: (Units=1/GPa)
#
#
# Indices 1 2 3 4 5 6 
#
# 1 0.035572 -0.004017 -0.008604 0.000000 0.000000 0.000000
# 2 -0.004017 0.010289 -0.002694 0.000000 0.000000 0.000000
# 3 -0.008604 -0.002694 0.010490 0.000000 0.000000 0.000000
# 4 0.000000 0.000000 0.000000 0.037105 0.000000 0.000000
# 5 0.000000 0.000000 0.000000 0.000000 4.078323 0.000000
# 6 0.000000 0.000000 0.000000 0.000000 0.000000 0.062411
#
#
# Mechanical properties :
#
#
# Convention : Reuss Voigt Hill
#
# Bulk Modulus (GPa) = 38.87784 60.41458 49.64621
# Shear Modulus (GPa) = 1.17003 20.94305 11.05654
#
# Velocity S-wave (km/s) = 0.78111 3.30470 2.40116
# Velocity P-wave (km/s) = 4.59204 6.78714 5.79449
#
# Compressibility (1/GPa) = 0.02572159
#
# Stress axis : x y z
#
# Youngs Moduli (GPa) = 28.11179 97.19055 95.32443
#
# Poissons Ratio (x) = 0.39041 0.82014
# Poissons Ratio (y) = 0.11292 0.25684
# Poissons Ratio (z) = 0.24187 0.26187
#
# Static dielectric constant tensor:
#      x y z
#    x 2.917530 0.000000 0.000000 
#    y 0.000000 3.559690 0.000000 
#    z 0.000000 0.000000 3.770090 
# 
# 
# High freq. dielectric constant tensor:
#      x y z
#    x 1.680120 0.000000 0.000000 
#    y 0.000000 1.749210 0.000000 
#    z 0.000000 0.000000 1.757670 
# 
# From -- ./inp_files/18778.got.cif
#   From: 2010.03.12/outbox.cif.g09.slc.cpg/sg35_10_cif.got.tgz:18778.got - 2010.04.14 02:02:04.
