data_PCOD8174641
_publ_section_title
;
Structure prediction by ZEFSAII (Michael W. Deem and Ramdas Pophale) SiO2 
 PCOD8174641
Probable space group: C M C 21
;
_chemical_formula_sum "Si O2"
_cell_formula_units_Z 56
_cell_length_a 26.476191
_cell_length_b 5.356514
_cell_length_c 16.986774
_cell_angle_alpha 90.000000
_cell_angle_beta 90.000000
_cell_angle_gamma 90.000000
_cell_volume 2409.065779
_symmetry_space_group_name_H-M "C M C 21"
_symmetry_group_IT_number 36
_symmetry_cell_setting 'orthorhombic'
loop_
_space_group_symop_operation_xyz
x,y,z
-x,-y,1/2+z
x,-y,1/2+z
-x,y,z
1/2+x,1/2+y,z
1/2-x,1/2-y,1/2+z
1/2+x,1/2-y,1/2+z
1/2-x,1/2+y,z
loop_
_atom_site_type_symbol
_atom_site_label
_atom_site_fract_x
_atom_site_fract_y
_atom_site_fract_z
Si Si1 0.443343 0.317961 0.186430
Si Si2 0.307467 0.888067 0.033314
Si Si3 0.606398 0.915095 0.824672
Si Si4 0.722420 0.885320 0.858960
Si Si5 0.265703 0.394769 0.183973
Si Si6 0.943238 0.920749 0.839783
Si Si7 0.855415 0.896420 0.081481
O O1 0.500000 0.231826 0.164096
O O2 0.414439 0.096250 0.234465
O O3 0.445013 0.558875 0.244266
O O4 0.414065 0.383532 0.105773
O O5 0.266621 0.860668 0.103103
O O6 0.340061 0.141917 0.037268
O O7 0.344620 0.646627 0.031370
O O8 0.276139 0.893100 0.953439
O O9 0.666403 0.923376 0.825224
O O10 0.585798 0.669587 0.872345
O O11 0.585636 0.168650 0.865233
O O12 0.741688 0.613083 0.829472
O O13 0.255869 0.135241 0.231225
O O14 0.324348 0.420525 0.164013
O O15 0.000000 0.914850 0.874523
#
# Coordination Sequence:
#
# PCOD8174641 Si02
#       7
#     8   8   8   8   8   8   8
#     4   9  21  38  62  86 116 157 198 247 305 363
#     4  10  20  35  56  82 112 149 194 233 287 351
#     4  10  21  37  59  90 118 153 207 250 300 354
#     4  12  23  39  63  86 120 163 204 247 294 361
#     4   8  14  27  44  68  99 129 170 209 254 318
#     4   9  18  36  61  85 111 150 200 245 294 358
#     4  10  19  32  56  85 111 147 191 235 286 353
#
# _framework density 23.245526000000002
#
# number of rings (size 3 to 8) (size 9 to 14) (size 15 to 20)
#    0.857    1.429    0.000    5.143    2.000    0.000 
#    0.000    4.286    0.000    6.857    0.000    0.000 
#    0.000    0.000    0.000    0.000    0.000    0.000 
#
# Total GULP energy -347059.466728 kJ/mol
# GULP energy per Si atom -12394.980955 kJ/mol
# Density = 2.319262 g / cm^3
# Si number density = 23.245526 Si / 1000 Ang^3
#
#
#
# Elastic Constant Matrix: (Units=GPa)
#
#
# Indices 1 2 3 4 5 6 
#
# 1 163.5183 57.0490 17.2947 0.0000 0.0000 0.0000
# 2 57.0490 203.2089 21.7711 0.0000 0.0000 0.0000
# 3 17.2947 21.7711 54.5203 0.0000 0.0000 0.0000
# 4 0.0000 0.0000 0.0000 21.2060 0.0000 0.0000
# 5 0.0000 0.0000 0.0000 0.0000 30.7962 0.0000
# 6 0.0000 0.0000 0.0000 0.0000 0.0000 34.5650
#
#
#
# Elastic Compliance Matrix: (Units=1/GPa)
#
#
# Indices 1 2 3 4 5 6 
#
# 1 0.006892 -0.001777 -0.001477 0.000000 0.000000 0.000000
# 2 -0.001777 0.005599 -0.001672 0.000000 0.000000 0.000000
# 3 -0.001477 -0.001672 0.019478 0.000000 0.000000 0.000000
# 4 0.000000 0.000000 0.000000 0.047156 0.000000 0.000000
# 5 0.000000 0.000000 0.000000 0.000000 0.032472 0.000000
# 6 0.000000 0.000000 0.000000 0.000000 0.000000 0.028931
#
#
# Mechanical properties :
#
#
# Convention : Reuss Voigt Hill
#
# Bulk Modulus (GPa) = 45.21297 68.16411 56.68854
# Shear Modulus (GPa) = 31.69555 38.98895 35.34225
#
# Velocity S-wave (km/s) = 3.69658 4.09989 3.90345
# Velocity P-wave (km/s) = 6.14101 7.19717 6.68997
#
# Compressibility (1/GPa) = 0.02211755
#
# Stress axis : x y z
#
# Youngs Moduli (GPa) = 145.10617 178.60520 51.34000
#
# Poissons Ratio (x) = 0.31730 0.07581
# Poissons Ratio (y) = 0.25778 0.08585
# Poissons Ratio (z) = 0.21428 0.29867
#
# Static dielectric constant tensor:
#      x y z
#    x 3.979940 0.000000 0.000000 
#    y 0.000000 4.855090 0.000000 
#    z 0.000000 0.000000 3.851090 
# 
# 
# High freq. dielectric constant tensor:
#      x y z
#    x 1.909420 0.000000 0.000000 
#    y 0.000000 1.942640 0.000000 
#    z 0.000000 0.000000 1.897560 
# 
# From -- ./inp_files/16325.got.cif
#   From: 2010.03.12/outbox.cif.g09.slc.cpg/sg36_9_cif.got.tgz:16325.got - 2010.04.14 02:13:53.
