data_PCOD8174349
_publ_section_title
;
Structure prediction by ZEFSAII (Michael W. Deem and Ramdas Pophale) SiO2 
 PCOD8174349
Probable space group: C M C 21
;
_chemical_formula_sum "Si O2"
_cell_formula_units_Z 64
_cell_length_a 8.884843
_cell_length_b 22.963363
_cell_length_c 16.403565
_cell_angle_alpha 90.000000
_cell_angle_beta 90.000000
_cell_angle_gamma 90.000000
_cell_volume 3346.751702
_symmetry_space_group_name_H-M "C M C 21"
_symmetry_group_IT_number 36
_symmetry_cell_setting 'orthorhombic'
loop_
_space_group_symop_operation_xyz
x,y,z
-x,-y,1/2+z
x,-y,1/2+z
-x,y,z
1/2+x,1/2+y,z
1/2-x,1/2-y,1/2+z
1/2+x,1/2-y,1/2+z
1/2-x,1/2+y,z
loop_
_atom_site_type_symbol
_atom_site_label
_atom_site_fract_x
_atom_site_fract_y
_atom_site_fract_z
Si Si1 0.167342 0.355567 0.236140
Si Si2 0.826713 0.122390 0.488182
Si Si3 0.672660 0.653214 0.053359
Si Si4 0.823374 0.030890 0.358225
Si Si5 0.670917 0.444463 0.674659
Si Si6 0.178878 0.282739 0.085916
Si Si7 0.333317 0.047704 0.611591
Si Si8 0.179934 0.407611 0.399735
O O1 0.245499 0.310278 0.171467
O O2 0.164048 0.420301 0.198489
O O3 0.242892 0.366073 0.325267
O O4 0.000000 0.331457 0.251007
O O5 0.775222 0.089338 0.406474
O O6 0.731806 0.180563 0.506993
O O7 0.796958 0.076482 0.559172
O O8 0.000000 0.140516 0.485322
O O9 0.500000 0.656176 0.023737
O O10 0.685248 0.620803 0.140439
O O11 0.737050 0.717450 0.071977
O O12 0.767062 0.620890 0.983906
O O13 0.778138 0.049040 0.267439
O O14 0.000000 0.018521 0.368934
O O15 0.739127 0.973643 0.391120
O O16 0.500000 0.467364 0.664291
O O17 0.786829 0.481181 0.620923
O O18 0.000000 0.287204 0.090266
O O19 0.500000 0.051283 0.570965
O O20 0.000000 0.409990 0.397234
#
# Coordination Sequence:
#
# PCOD8174349 Si02
#       8
#     8   8   8   8   8   8   8   8
#     4   8  16  32  54  80 104 136 180 225 268 318
#     4  10  20  34  54  82 110 139 178 228 278 326
#     4  10  22  39  57  79 111 151 190 229 280 334
#     4  10  21  36  54  82 116 144 178 224 279 338
#     4  10  20  35  54  78 110 146 181 224 274 328
#     4   9  19  39  60  77 105 146 191 229 272 331
#     4  10  18  32  54  80 109 142 180 218 269 331
#     4  11  21  35  57  86 115 144 184 231 280 332
#
# _framework density 19.12302
#
# number of rings (size 3 to 8) (size 9 to 14) (size 15 to 20)
#    0.000    2.250    1.250    2.625    0.000    5.000 
#    2.250    0.625    0.000    0.000    0.000    0.000 
#    0.000    0.000    0.000    0.000    0.000    0.000 
#
# Total GULP energy -396500.050589 kJ/mol
# GULP energy per Si atom -12390.626581 kJ/mol
# Density = 1.907950 g / cm^3
# Si number density = 19.123020 Si / 1000 Ang^3
#
#
#
# Elastic Constant Matrix: (Units=GPa)
#
#
# Indices 1 2 3 4 5 6 
#
# 1 36.2066 32.1747 24.2885 0.0000 0.0000 0.0000
# 2 32.1747 141.6679 61.2856 0.0000 0.0000 0.0000
# 3 24.2885 61.2856 84.2829 0.0000 0.0000 0.0000
# 4 0.0000 0.0000 0.0000 25.2681 0.0000 0.0000
# 5 0.0000 0.0000 0.0000 0.0000 22.7944 0.0000
# 6 0.0000 0.0000 0.0000 0.0000 0.0000 23.4796
#
#
#
# Elastic Compliance Matrix: (Units=1/GPa)
#
#
# Indices 1 2 3 4 5 6 
#
# 1 0.036985 -0.005528 -0.006639 0.000000 0.000000 0.000000
# 2 -0.005528 0.011124 -0.006496 0.000000 0.000000 0.000000
# 3 -0.006639 -0.006496 0.018501 0.000000 0.000000 0.000000
# 4 0.000000 0.000000 0.000000 0.039576 0.000000 0.000000
# 5 0.000000 0.000000 0.000000 0.000000 0.043870 0.000000
# 6 0.000000 0.000000 0.000000 0.000000 0.000000 0.042590
#
#
# Mechanical properties :
#
#
# Convention : Reuss Voigt Hill
#
# Bulk Modulus (GPa) = 34.14637 55.29500 44.72068
# Shear Modulus (GPa) = 20.85644 23.93567 22.39606
#
# Velocity S-wave (km/s) = 3.30608 3.54173 3.42593
# Velocity P-wave (km/s) = 5.69811 6.76042 6.25187
#
# Compressibility (1/GPa) = 0.02928569
#
# Stress axis : x y z
#
# Youngs Moduli (GPa) = 27.03794 89.89266 54.04988
#
# Poissons Ratio (x) = 0.49692 0.35882
# Poissons Ratio (y) = 0.14946 0.35111
# Poissons Ratio (z) = 0.17950 0.58394
#
# Static dielectric constant tensor:
#      x y z
#    x 3.369870 0.000000 0.000000 
#    y 0.000000 3.538800 0.000000 
#    z 0.000000 0.000000 3.663670 
# 
# 
# High freq. dielectric constant tensor:
#      x y z
#    x 1.725750 0.000000 0.000000 
#    y 0.000000 1.735710 0.000000 
#    z 0.000000 0.000000 1.744250 
# 
# From -- ./inp_files/10884.got.cif
#   From: 2010.03.12/outbox.cif.g09.slc.cpg/sg36_6_cif.got.tgz:10884.got - 2010.04.14 02:13:53.
