data_PCOD8174142
_publ_section_title
;
Structure prediction by ZEFSAII (Michael W. Deem and Ramdas Pophale) SiO2 
 PCOD8174142
Probable space group: C M M 2
;
_chemical_formula_sum "Si O2"
_cell_formula_units_Z 40
_cell_length_a 17.677810
_cell_length_b 7.745247
_cell_length_c 14.804429
_cell_angle_alpha 90.000000
_cell_angle_beta 90.000000
_cell_angle_gamma 90.000000
_cell_volume 2027.007686
_symmetry_space_group_name_H-M "C M M 2"
_symmetry_group_IT_number 35
_symmetry_cell_setting 'orthorhombic'
loop_
_space_group_symop_operation_xyz
x,y,z
-x,-y,z
-x,y,z
x,-y,z
1/2+x,1/2+y,z
1/2-x,1/2-y,z
1/2-x,1/2+y,z
1/2+x,1/2-y,z
loop_
_atom_site_type_symbol
_atom_site_label
_atom_site_fract_x
_atom_site_fract_y
_atom_site_fract_z
Si Si1 0.914738 0.699223 0.607250
Si Si2 0.090208 0.500000 0.915719
Si Si3 0.910393 0.810208 0.795537
Si Si4 0.410414 0.000000 0.120030
Si Si5 0.663060 0.295750 0.234325
Si Si6 0.915510 0.202562 0.416663
O O1 0.913382 0.500000 0.631297
O O2 0.876030 0.791606 0.693770
O O3 0.875217 0.736930 0.510518
O O4 0.000000 0.770099 0.595448
O O5 0.122872 0.330834 0.864543
O O6 0.000000 0.500000 0.915115
O O7 0.120478 0.500000 0.017548
O O8 0.000000 0.781978 0.787368
O O9 0.889975 0.000000 0.833087
O O10 0.382251 0.178266 0.163930
O O11 0.500000 0.000000 0.124017
O O12 0.647954 0.500000 0.215763
O O13 0.750000 0.250000 0.224406
O O14 0.636419 0.237066 0.333862
O O15 0.000000 0.284324 0.405798
O O16 0.922217 0.000000 0.416664
#
# Coordination Sequence:
#
# PCOD8174142 Si02
#       6
#     8   4   8   4   8   8
#     4   9  15  23  40  70 108 147 184 223 275 341
#     4   9  18  32  47  75 111 142 185 238 294 345
#     4   9  15  25  43  67 105 149 181 220 282 346
#     4  11  24  40  63  91 120 152 197 260 311 351
#     4  11  23  41  62  85 118 157 204 244 298 365
#     4   9  18  31  49  78 114 149 190 238 285 339
#
# _framework density 19.733523000000002
#
# number of rings (size 3 to 8) (size 9 to 14) (size 15 to 20)
#    0.000    2.400    2.000    1.200    1.400    4.400 
#    0.000    2.000    0.000    0.000    0.000    1.400 
#    0.000    0.000    0.000    0.000    0.000    0.000 
#
# Total GULP energy -247867.555269 kJ/mol
# GULP energy per Si atom -12393.377763 kJ/mol
# Density = 1.968861 g / cm^3
# Si number density = 19.733523 Si / 1000 Ang^3
#
#
#
# Elastic Constant Matrix: (Units=GPa)
#
#
# Indices 1 2 3 4 5 6 
#
# 1 44.5458 20.5278 29.3705 0.0000 0.0000 0.0000
# 2 20.5278 128.4361 83.5612 0.0000 0.0000 0.0000
# 3 29.3705 83.5612 181.2092 0.0000 0.0000 0.0000
# 4 0.0000 0.0000 0.0000 23.9013 0.0000 0.0000
# 5 0.0000 0.0000 0.0000 0.0000 -1.1127 0.0000
# 6 0.0000 0.0000 0.0000 0.0000 0.0000 14.4122
#
#
#
# Elastic Compliance Matrix: (Units=1/GPa)
#
#
# Indices 1 2 3 4 5 6 
#
# 1 0.025482 -0.001980 -0.003217 0.000000 0.000000 0.000000
# 2 -0.001980 0.011277 -0.004879 0.000000 0.000000 0.000000
# 3 -0.003217 -0.004879 0.008290 0.000000 0.000000 0.000000
# 4 0.000000 0.000000 0.000000 0.041839 0.000000 0.000000
# 5 0.000000 0.000000 0.000000 0.000000 -0.898692 0.000000
# 6 0.000000 0.000000 0.000000 0.000000 0.000000 0.069386
#
#
# Mechanical properties :
#
#
# Convention : Reuss Voigt Hill
#
# Bulk Modulus (GPa) = 40.16589 69.01224 54.58906
# Shear Modulus (GPa) = -7.00313 22.15559 7.57623
#
# Velocity S-wave (km/s) = -1.88588 3.35436 1.96153
# Velocity P-wave (km/s) = 3.95680 7.07463 5.73178
#
# Compressibility (1/GPa) = 0.02489675
#
# Stress axis : x y z
#
# Youngs Moduli (GPa) = 39.24281 88.67743 120.62842
#
# Poissons Ratio (x) = 0.17555 0.38810
# Poissons Ratio (y) = 0.07769 0.58857
# Poissons Ratio (z) = 0.12626 0.43268
#
# Static dielectric constant tensor:
#      x y z
#    x 3.103170 0.000000 0.000000 
#    y 0.000000 3.758500 0.000000 
#    z 0.000000 0.000000 3.902420 
# 
# 
# High freq. dielectric constant tensor:
#      x y z
#    x 1.697700 0.000000 0.000000 
#    y 0.000000 1.781180 0.000000 
#    z 0.000000 0.000000 1.780290 
# 
# From -- ./inp_files/13806.got.cif
#   From: 2010.03.12/outbox.cif.g09.slc.cpg/sg35_7_cif.got.tgz:13806.got - 2010.04.14 02:02:04.
