data_PCOD8174843
_publ_section_title
;
Structure prediction by ZEFSAII (Michael W. Deem and Ramdas Pophale) SiO2 
 PCOD8174843
Probable space group: C M C 21
;
_chemical_formula_sum "Si O2"
_cell_formula_units_Z 56
_cell_length_a 19.248629
_cell_length_b 12.791560
_cell_length_c 13.027591
_cell_angle_alpha 90.000000
_cell_angle_beta 90.000000
_cell_angle_gamma 90.000000
_cell_volume 3207.653362
_symmetry_space_group_name_H-M "C M C 21"
_symmetry_group_IT_number 36
_symmetry_cell_setting 'orthorhombic'
loop_
_space_group_symop_operation_xyz
x,y,z
-x,-y,1/2+z
x,-y,1/2+z
-x,y,z
1/2+x,1/2+y,z
1/2-x,1/2-y,1/2+z
1/2+x,1/2-y,1/2+z
1/2-x,1/2+y,z
loop_
_atom_site_type_symbol
_atom_site_label
_atom_site_fract_x
_atom_site_fract_y
_atom_site_fract_z
Si Si1 0.782403 0.626941 0.171810
Si Si2 0.199455 0.225251 0.341807
Si Si3 0.079350 0.876910 0.960935
Si Si4 0.210569 0.605997 0.683132
Si Si5 0.694987 0.733628 0.013106
Si Si6 0.419808 0.389101 0.399432
Si Si7 0.363920 0.333035 0.179725
O O1 0.720466 0.641844 0.254468
O O2 0.816956 0.512543 0.178964
O O3 0.844490 0.710181 0.188635
O O4 0.745237 0.645213 0.062231
O O5 0.126260 0.200555 0.393798
O O6 0.193690 0.341675 0.293221
O O7 0.262324 0.216342 0.420883
O O8 0.000000 0.854138 0.930855
O O9 0.100681 0.993976 0.931149
O O10 0.088390 0.855804 0.081690
O O11 0.175521 0.675119 0.593730
O O12 0.293377 0.601458 0.666298
O O13 0.623356 0.687378 0.972304
O O14 0.500000 0.366076 0.421855
O O15 0.404679 0.370339 0.279910
#
# Coordination Sequence:
#
# PCOD8174843 Si02
#       7
#     8   8   8   8   8   8   8
#     4  10  20  33  59  83 109 147 186 232 276 320
#     4  10  19  35  54  84 113 140 185 234 270 322
#     4  11  22  36  58  84 114 149 179 226 287 335
#     4  10  20  33  56  84 108 145 187 232 276 317
#     4  10  19  35  54  84 113 140 185 234 270 322
#     4  11  22  36  58  84 114 149 179 226 287 335
#     4  10  19  38  53  83 114 138 191 232 265 339
#
# _framework density 17.458245999999999
#
# number of rings (size 3 to 8) (size 9 to 14) (size 15 to 20)
#    0.000    2.000    5.714    2.143    0.000    1.143 
#    0.000    5.714    0.000    5.143    0.000    0.000 
#    0.000    0.000    0.000    0.000    0.000    0.000 
#
# Total GULP energy -347180.983979 kJ/mol
# GULP energy per Si atom -12399.320856 kJ/mol
# Density = 1.741851 g / cm^3
# Si number density = 17.458246 Si / 1000 Ang^3
#
#
#
# Elastic Constant Matrix: (Units=GPa)
#
#
# Indices 1 2 3 4 5 6 
#
# 1 76.1696 32.7224 21.3808 0.0000 0.0000 0.0000
# 2 32.7224 118.9792 40.3308 0.0000 0.0000 0.0000
# 3 21.3808 40.3308 91.8548 0.0000 0.0000 0.0000
# 4 0.0000 0.0000 0.0000 17.0411 0.0000 0.0000
# 5 0.0000 0.0000 0.0000 0.0000 25.5929 0.0000
# 6 0.0000 0.0000 0.0000 0.0000 0.0000 19.9749
#
#
#
# Elastic Compliance Matrix: (Units=1/GPa)
#
#
# Indices 1 2 3 4 5 6 
#
# 1 0.015194 -0.003501 -0.001999 0.000000 0.000000 0.000000
# 2 -0.003501 0.010681 -0.003875 0.000000 0.000000 0.000000
# 3 -0.001999 -0.003875 0.013054 0.000000 0.000000 0.000000
# 4 0.000000 0.000000 0.000000 0.058682 0.000000 0.000000
# 5 0.000000 0.000000 0.000000 0.000000 0.039073 0.000000
# 6 0.000000 0.000000 0.000000 0.000000 0.000000 0.050063
#
#
# Mechanical properties :
#
#
# Convention : Reuss Voigt Hill
#
# Bulk Modulus (GPa) = 49.55908 52.87461 51.21684
# Shear Modulus (GPa) = 23.56014 25.35977 24.45995
#
# Velocity S-wave (km/s) = 3.67756 3.81543 3.74713
# Velocity P-wave (km/s) = 6.81773 7.05422 6.93698
#
# Compressibility (1/GPa) = 0.02017794
#
# Stress axis : x y z
#
# Youngs Moduli (GPa) = 65.81612 93.62277 76.60773
#
# Poissons Ratio (x) = 0.32777 0.15317
# Poissons Ratio (y) = 0.23042 0.29685
# Poissons Ratio (z) = 0.13160 0.36278
#
# Static dielectric constant tensor:
#      x y z
#    x 2.992960 0.000000 0.000000 
#    y 0.000000 3.213730 0.000000 
#    z 0.000000 0.000000 3.523380 
# 
# 
# High freq. dielectric constant tensor:
#      x y z
#    x 1.647850 0.000000 0.000000 
#    y 0.000000 1.666070 0.000000 
#    z 0.000000 0.000000 1.693840 
# 
# From -- ./inp_files/9237.got.cif
#   From: 2010.03.12/outbox.cif.g09.slc.cpg/sg36_5_cif.got.tgz:9237.got - 2010.04.14 02:13:53.
