data_PCOD8174684
_publ_section_title
;
Structure prediction by ZEFSAII (Michael W. Deem and Ramdas Pophale) SiO2 
 PCOD8174684
Probable space group: C M C 21
;
_chemical_formula_sum "Si O2"
_cell_formula_units_Z 64
_cell_length_a 16.015067
_cell_length_b 20.212082
_cell_length_c 10.677850
_cell_angle_alpha 90.000000
_cell_angle_beta 90.000000
_cell_angle_gamma 90.000000
_cell_volume 3456.397060
_symmetry_space_group_name_H-M "C M C 21"
_symmetry_group_IT_number 36
_symmetry_cell_setting 'orthorhombic'
loop_
_space_group_symop_operation_xyz
x,y,z
-x,-y,1/2+z
x,-y,1/2+z
-x,y,z
1/2+x,1/2+y,z
1/2-x,1/2-y,1/2+z
1/2+x,1/2-y,1/2+z
1/2-x,1/2+y,z
loop_
_atom_site_type_symbol
_atom_site_label
_atom_site_fract_x
_atom_site_fract_y
_atom_site_fract_z
Si Si1 0.593749 0.904304 0.234680
Si Si2 0.674987 0.336982 0.633114
Si Si3 0.302832 0.095525 0.970461
Si Si4 0.786403 0.359626 0.859664
Si Si5 0.905323 0.291552 0.034725
Si Si6 0.904135 0.555702 0.196829
Si Si7 0.687178 0.526837 0.457647
Si Si8 0.402664 0.525558 0.195110
O O1 0.500000 0.900752 0.289874
O O2 0.659277 0.881333 0.339306
O O3 0.604061 0.856015 0.118967
O O4 0.613430 0.977720 0.186254
O O5 0.733217 0.351402 0.512562
O O6 0.734149 0.323498 0.751549
O O7 0.617150 0.273981 0.611295
O O8 0.614817 0.398833 0.658504
O O9 0.263738 0.023167 0.963490
O O10 0.378950 0.091297 0.068339
O O11 0.847943 0.416075 0.807948
O O12 0.722718 0.398082 0.952531
O O13 0.839764 0.301270 0.922702
O O14 0.000000 0.284705 0.983987
O O15 0.000000 0.571534 0.227087
O O16 0.633296 0.521679 0.585160
O O17 0.635878 0.509298 0.331110
O O18 0.500000 0.511944 0.204380
#
# Coordination Sequence:
#
# PCOD8174684 Si02
#       8
#     8   8   8   8   8   8   8   8
#     4  10  21  31  52  82 111 143 172 216 268 321
#     4   9  22  37  56  77 103 147 184 223 268 315
#     4  10  19  34  54  78 110 141 178 221 268 322
#     4  10  20  36  56  81 110 143 180 223 275 323
#     4  11  23  37  55  80 108 143 185 223 263 325
#     4  10  19  33  54  82 116 146 173 216 276 333
#     4  10  20  33  57  83 112 141 179 230 276 334
#     4  10  20  37  58  83 110 144 181 230 284 327
#
# _framework density 18.516392
#
# number of rings (size 3 to 8) (size 9 to 14) (size 15 to 20)
#    0.000    2.000    1.250    3.000    3.500    0.000 
#    0.000    0.000    0.000    0.000    0.000    0.000 
#    0.000    0.000    0.000    0.000    0.000    0.000 
#
# Total GULP energy -396802.483797 kJ/mol
# GULP energy per Si atom -12400.077619 kJ/mol
# Density = 1.847425 g / cm^3
# Si number density = 18.516392 Si / 1000 Ang^3
#
#
#
# Elastic Constant Matrix: (Units=GPa)
#
#
# Indices 1 2 3 4 5 6 
#
# 1 92.6109 16.1306 35.0316 0.0000 0.0000 0.0000
# 2 16.1306 57.9518 10.7382 0.0000 0.0000 0.0000
# 3 35.0316 10.7382 72.2810 0.0000 0.0000 0.0000
# 4 0.0000 0.0000 0.0000 19.6114 0.0000 0.0000
# 5 0.0000 0.0000 0.0000 0.0000 26.5584 0.0000
# 6 0.0000 0.0000 0.0000 0.0000 0.0000 22.8189
#
#
#
# Elastic Compliance Matrix: (Units=1/GPa)
#
#
# Indices 1 2 3 4 5 6 
#
# 1 0.013603 -0.002637 -0.006201 0.000000 0.000000 0.000000
# 2 -0.002637 0.018255 -0.001434 0.000000 0.000000 0.000000
# 3 -0.006201 -0.001434 0.017053 0.000000 0.000000 0.000000
# 4 0.000000 0.000000 0.000000 0.050991 0.000000 0.000000
# 5 0.000000 0.000000 0.000000 0.000000 0.037653 0.000000
# 6 0.000000 0.000000 0.000000 0.000000 0.000000 0.043823
#
#
# Mechanical properties :
#
#
# Convention : Reuss Voigt Hill
#
# Bulk Modulus (GPa) = 35.25176 38.51604 36.88390
# Shear Modulus (GPa) = 23.65428 24.52732 24.09080
#
# Velocity S-wave (km/s) = 3.57806 3.64349 3.61092
# Velocity P-wave (km/s) = 6.01244 6.20856 6.11129
#
# Compressibility (1/GPa) = 0.02836738
#
# Stress axis : x y z
#
# Youngs Moduli (GPa) = 73.51421 54.77808 58.63992
#
# Poissons Ratio (x) = 0.14446 0.36362
# Poissons Ratio (y) = 0.19388 0.08408
# Poissons Ratio (z) = 0.45586 0.07855
#
# Static dielectric constant tensor:
#      x y z
#    x 3.518200 0.000000 0.000000 
#    y 0.000000 3.098630 0.000000 
#    z 0.000000 0.000000 3.481460 
# 
# 
# High freq. dielectric constant tensor:
#      x y z
#    x 1.729270 0.000000 0.000000 
#    y 0.000000 1.693380 0.000000 
#    z 0.000000 0.000000 1.719240 
# 
# From -- ./inp_files/8627.got.cif
#   From: 2010.03.12/outbox.cif.g09.slc.cpg/sg36_5_cif.got.tgz:8627.got - 2010.04.14 02:13:53.
