data_PCOD8174753
_publ_section_title
;
Structure prediction by ZEFSAII (Michael W. Deem and Ramdas Pophale) SiO2 
 PCOD8174753
Probable space group: C M C 21
;
_chemical_formula_sum "Si O2"
_cell_formula_units_Z 64
_cell_length_a 9.080323
_cell_length_b 22.654315
_cell_length_c 15.815174
_cell_angle_alpha 90.000000
_cell_angle_beta 90.000000
_cell_angle_gamma 90.000000
_cell_volume 3253.315682
_symmetry_space_group_name_H-M "C M C 21"
_symmetry_group_IT_number 36
_symmetry_cell_setting 'orthorhombic'
loop_
_space_group_symop_operation_xyz
x,y,z
-x,-y,1/2+z
x,-y,1/2+z
-x,y,z
1/2+x,1/2+y,z
1/2-x,1/2-y,1/2+z
1/2+x,1/2-y,1/2+z
1/2-x,1/2+y,z
loop_
_atom_site_type_symbol
_atom_site_label
_atom_site_fract_x
_atom_site_fract_y
_atom_site_fract_z
Si Si1 0.176185 0.795435 0.640480
Si Si2 0.168543 0.580056 0.127614
Si Si3 0.838895 0.918587 0.996776
Si Si4 0.824595 0.392069 0.301285
Si Si5 0.675519 0.285914 0.999202
Si Si6 0.336427 0.527690 0.678542
Si Si7 0.334739 0.022834 0.944468
Si Si8 0.174091 0.739916 0.817130
O O1 0.240708 0.859952 0.625947
O O2 0.241485 0.752288 0.569466
O O3 0.228039 0.775237 0.734165
O O4 0.000000 0.796412 0.632191
O O5 0.247725 0.533758 0.190790
O O6 0.173071 0.552186 0.035406
O O7 0.000000 0.590967 0.156633
O O8 0.000000 0.910348 0.955321
O O9 0.851410 0.955782 0.081523
O O10 0.743151 0.959240 0.934617
O O11 0.772346 0.853584 0.011821
O O12 0.754559 0.418716 0.217548
O O13 0.764738 0.430640 0.379484
O O14 0.762662 0.326250 0.312531
O O15 0.000000 0.392102 0.293331
O O16 0.500000 0.277298 0.011158
O O17 0.729210 0.268389 0.904909
O O18 0.500000 0.520889 0.718361
O O19 0.500000 0.009756 0.917076
O O20 0.000000 0.738230 0.817726
#
# Coordination Sequence:
#
# PCOD8174753 Si02
#       8
#     8   8   8   8   8   8   8   8
#     4  11  22  36  56  85 116 147 184 235 286 328
#     4  10  20  37  58  79 106 145 185 223 271 332
#     4   9  19  34  54  79 107 138 178 222 271 326
#     4  10  19  34  54  77 104 139 181 220 262 324
#     4  10  20  38  60  80 108 152 192 224 271 336
#     4  10  20  34  52  79 110 138 173 226 278 323
#     4   9  19  34  55  79 104 136 178 223 268 322
#     4   9  20  37  57  80 111 149 189 227 273 337
#
# _framework density 19.672239000000001
#
# number of rings (size 3 to 8) (size 9 to 14) (size 15 to 20)
#    0.000    2.250    0.000    2.625    0.000    5.000 
#    0.000    5.000    0.000    0.000    0.000    0.000 
#    0.000    0.000    0.000    0.000    0.000    0.000 
#
# Total GULP energy -396700.220189 kJ/mol
# GULP energy per Si atom -12396.881881 kJ/mol
# Density = 1.962746 g / cm^3
# Si number density = 19.672239 Si / 1000 Ang^3
#
#
#
# Elastic Constant Matrix: (Units=GPa)
#
#
# Indices 1 2 3 4 5 6 
#
# 1 72.6172 53.5810 27.3892 0.0000 0.0000 0.0000
# 2 53.5810 153.5744 22.7697 0.0000 0.0000 0.0000
# 3 27.3892 22.7697 61.7514 0.0000 0.0000 0.0000
# 4 0.0000 0.0000 0.0000 23.7444 0.0000 0.0000
# 5 0.0000 0.0000 0.0000 0.0000 18.3004 0.0000
# 6 0.0000 0.0000 0.0000 0.0000 0.0000 30.8009
#
#
#
# Elastic Compliance Matrix: (Units=1/GPa)
#
#
# Indices 1 2 3 4 5 6 
#
# 1 0.021077 -0.006313 -0.007021 0.000000 0.000000 0.000000
# 2 -0.006313 0.008779 -0.000437 0.000000 0.000000 0.000000
# 3 -0.007021 -0.000437 0.019469 0.000000 0.000000 0.000000
# 4 0.000000 0.000000 0.000000 0.042115 0.000000 0.000000
# 5 0.000000 0.000000 0.000000 0.000000 0.054644 0.000000
# 6 0.000000 0.000000 0.000000 0.000000 0.000000 0.032467
#
#
# Mechanical properties :
#
#
# Convention : Reuss Voigt Hill
#
# Bulk Modulus (GPa) = 45.90586 55.04698 50.47642
# Shear Modulus (GPa) = 23.43549 26.84935 25.14242
#
# Velocity S-wave (km/s) = 3.45526 3.69837 3.57888
# Velocity P-wave (km/s) = 6.26933 6.80295 6.54158
#
# Compressibility (1/GPa) = 0.02178371
#
# Stress axis : x y z
#
# Youngs Moduli (GPa) = 47.44600 113.91193 51.36346
#
# Poissons Ratio (x) = 0.71907 0.36061
# Poissons Ratio (y) = 0.29951 0.02245
# Poissons Ratio (z) = 0.33310 0.04979
#
# Static dielectric constant tensor:
#      x y z
#    x 3.653670 0.000000 0.000000 
#    y 0.000000 3.771960 0.000000 
#    z 0.000000 0.000000 3.535490 
# 
# 
# High freq. dielectric constant tensor:
#      x y z
#    x 1.753040 0.000000 0.000000 
#    y 0.000000 1.782420 0.000000 
#    z 0.000000 0.000000 1.758910 
# 
# From -- ./inp_files/13872.got.cif
#   From: 2010.03.12/outbox.cif.g09.slc.cpg/sg36_7_cif.got.tgz:13872.got - 2010.04.14 02:13:53.
