data_PCOD8174972
_publ_section_title
;
Structure prediction by ZEFSAII (Michael W. Deem and Ramdas Pophale) SiO2 
 PCOD8174972
Probable space group: C M C 21
;
_chemical_formula_sum "Si O2"
_cell_formula_units_Z 56
_cell_length_a 19.987092
_cell_length_b 9.637245
_cell_length_c 13.475425
_cell_angle_alpha 90.000000
_cell_angle_beta 90.000000
_cell_angle_gamma 90.000000
_cell_volume 2595.643134
_symmetry_space_group_name_H-M "C M C 21"
_symmetry_group_IT_number 36
_symmetry_cell_setting 'orthorhombic'
loop_
_space_group_symop_operation_xyz
x,y,z
-x,-y,1/2+z
x,-y,1/2+z
-x,y,z
1/2+x,1/2+y,z
1/2-x,1/2-y,1/2+z
1/2+x,1/2-y,1/2+z
1/2-x,1/2+y,z
loop_
_atom_site_type_symbol
_atom_site_label
_atom_site_fract_x
_atom_site_fract_y
_atom_site_fract_z
Si Si1 0.699041 0.764497 0.003070
Si Si2 0.923303 0.392791 0.298855
Si Si3 0.574498 0.170525 0.015882
Si Si4 0.924242 0.880473 0.181103
Si Si5 0.704747 0.049612 0.091160
Si Si6 0.836423 0.339417 0.788011
Si Si7 0.578742 0.689652 0.127163
O O1 0.750943 0.640570 0.017094
O O2 0.623445 0.715784 0.029476
O O3 0.724042 0.889700 0.074420
O O4 0.703692 0.808275 0.888259
O O5 0.911383 0.305823 0.399730
O O6 0.889311 0.540731 0.308869
O O7 0.896338 0.301470 0.208029
O O8 0.000000 0.424956 0.280072
O O9 0.500000 0.107287 0.032121
O O10 0.581298 0.318416 0.069906
O O11 0.625955 0.061850 0.064057
O O12 0.873965 0.800576 0.254048
O O13 0.000000 0.865794 0.221868
O O14 0.903513 0.040483 0.173809
O O15 0.715201 0.102751 0.204238
O O16 0.500000 0.699945 0.100092
#
# Coordination Sequence:
#
# PCOD8174972 Si02
#       7
#     8   8   8   8   8   8   8
#     4  12  27  45  68 100 135 180 227 277 342 402
#     4  10  19  36  68 102 132 173 226 284 336 391
#     4   9  19  38  67  96 131 174 222 276 332 393
#     4   9  20  39  63  99 141 177 218 274 343 399
#     4  11  26  45  66  97 136 173 226 279 336 398
#     4  11  23  43  68  99 129 181 223 278 337 411
#     4  10  23  42  66  99 139 178 226 288 336 396
#
# _framework density 21.574615999999999
#
# number of rings (size 3 to 8) (size 9 to 14) (size 15 to 20)
#    0.000    1.714    2.857    0.429    4.000    5.714 
#    0.000    2.857    0.000    0.000    0.000    0.000 
#    0.000    0.000    0.000    0.000    0.000    0.000 
#
# Total GULP energy -347230.519399 kJ/mol
# GULP energy per Si atom -12401.089979 kJ/mol
# Density = 2.152551 g / cm^3
# Si number density = 21.574616 Si / 1000 Ang^3
#
#
#
# Elastic Constant Matrix: (Units=GPa)
#
#
# Indices 1 2 3 4 5 6 
#
# 1 61.1625 30.7332 30.7886 0.0000 0.0000 0.0000
# 2 30.7332 105.5605 21.0819 0.0000 0.0000 0.0000
# 3 30.7886 21.0819 114.3214 0.0000 0.0000 0.0000
# 4 0.0000 0.0000 0.0000 24.7087 0.0000 0.0000
# 5 0.0000 0.0000 0.0000 0.0000 27.8862 0.0000
# 6 0.0000 0.0000 0.0000 0.0000 0.0000 27.2204
#
#
#
# Elastic Compliance Matrix: (Units=1/GPa)
#
#
# Indices 1 2 3 4 5 6 
#
# 1 0.021415 -0.005277 -0.004794 0.000000 0.000000 0.000000
# 2 -0.005277 0.011136 -0.000632 0.000000 0.000000 0.000000
# 3 -0.004794 -0.000632 0.010155 0.000000 0.000000 0.000000
# 4 0.000000 0.000000 0.000000 0.040472 0.000000 0.000000
# 5 0.000000 0.000000 0.000000 0.000000 0.035860 0.000000
# 6 0.000000 0.000000 0.000000 0.000000 0.000000 0.036737
#
#
# Mechanical properties :
#
#
# Convention : Reuss Voigt Hill
#
# Bulk Modulus (GPa) = 46.95212 49.58353 48.26783
# Shear Modulus (GPa) = 27.13232 29.19244 28.16238
#
# Velocity S-wave (km/s) = 3.55012 3.68243 3.61688
# Velocity P-wave (km/s) = 6.21405 6.41191 6.31375
#
# Compressibility (1/GPa) = 0.02129829
#
# Stress axis : x y z
#
# Youngs Moduli (GPa) = 46.69617 89.79903 98.47337
#
# Poissons Ratio (x) = 0.47390 0.47210
# Poissons Ratio (y) = 0.24643 0.06226
# Poissons Ratio (z) = 0.22387 0.05678
#
# Static dielectric constant tensor:
#      x y z
#    x 3.793770 0.000000 0.000000 
#    y 0.000000 3.850640 0.000000 
#    z 0.000000 0.000000 4.009130 
# 
# 
# High freq. dielectric constant tensor:
#      x y z
#    x 1.839020 0.000000 0.000000 
#    y 0.000000 1.848880 0.000000 
#    z 0.000000 0.000000 1.843510 
# 
# From -- ./inp_files/12843.got.cif
#   From: 2010.03.12/outbox.cif.g09.slc.cpg/sg36_7_cif.got.tgz:12843.got - 2010.04.14 02:13:53.
