data_PCOD8174613
_publ_section_title
;
Structure prediction by ZEFSAII (Michael W. Deem and Ramdas Pophale) SiO2 
 PCOD8174613
Probable space group: C M C 21
;
_chemical_formula_sum "Si O2"
_cell_formula_units_Z 64
_cell_length_a 8.779903
_cell_length_b 22.723862
_cell_length_c 16.506286
_cell_angle_alpha 90.000000
_cell_angle_beta 90.000000
_cell_angle_gamma 90.000000
_cell_volume 3293.223659
_symmetry_space_group_name_H-M "C M C 21"
_symmetry_group_IT_number 36
_symmetry_cell_setting 'orthorhombic'
loop_
_space_group_symop_operation_xyz
x,y,z
-x,-y,1/2+z
x,-y,1/2+z
-x,y,z
1/2+x,1/2+y,z
1/2-x,1/2-y,1/2+z
1/2+x,1/2-y,1/2+z
1/2-x,1/2+y,z
loop_
_atom_site_type_symbol
_atom_site_label
_atom_site_fract_x
_atom_site_fract_y
_atom_site_fract_z
Si Si1 0.676530 0.643166 0.797370
Si Si2 0.680902 0.900502 0.454590
Si Si3 0.675328 0.970281 0.906579
Si Si4 0.679646 0.655598 0.114862
Si Si5 0.671203 0.896774 0.058803
Si Si6 0.174411 0.285031 0.154509
Si Si7 0.176989 0.573667 0.237550
Si Si8 0.328673 0.534954 0.687765
O O1 0.500000 0.657175 0.811612
O O2 0.761919 0.643690 0.883831
O O3 0.738693 0.691580 0.734297
O O4 0.703116 0.577512 0.763591
O O5 0.500000 0.899475 0.457602
O O6 0.743427 0.967650 0.439741
O O7 0.740809 0.877283 0.540348
O O8 0.500000 0.983000 0.887121
O O9 0.750148 0.946078 0.823821
O O10 0.696511 0.914962 0.966346
O O11 0.500000 0.651374 0.101992
O O12 0.737207 0.722778 0.122690
O O13 0.728385 0.627159 0.200297
O O14 0.500000 0.915743 0.086780
O O15 0.692233 0.827516 0.076213
O O16 0.804897 0.928685 0.106630
O O17 0.000000 0.279061 0.181765
O O18 0.204841 0.516681 0.181873
O O19 0.000000 0.590899 0.241457
O O20 0.500000 0.509746 0.689636
#
# Coordination Sequence:
#
# PCOD8174613 Si02
#       8
#     8   8   8   8   8   8   8   8
#     4  10  20  35  59  88 117 150 195 244 290 341
#     4  11  21  37  61  89 119 154 196 242 296 358
#     4   9  19  34  56  86 114 141 189 240 284 347
#     4  11  24  41  57  84 121 157 199 249 300 349
#     4   9  17  34  59  83 107 146 190 235 282 341
#     4   9  20  39  61  81 114 156 198 241 291 349
#     4  11  21  36  56  81 114 155 194 236 288 351
#     4  10  19  32  53  84 116 147 181 231 291 344
#
# _framework density 19.433845999999999
#
# number of rings (size 3 to 8) (size 9 to 14) (size 15 to 20)
#    0.000    2.000    1.250    2.625    0.000    3.000 
#    2.250    1.875    0.000    0.000    0.000    0.000 
#    0.000    0.000    0.000    0.000    0.000    0.000 
#
# Total GULP energy -396635.480415 kJ/mol
# GULP energy per Si atom -12394.858763 kJ/mol
# Density = 1.938961 g / cm^3
# Si number density = 19.433846 Si / 1000 Ang^3
#
#
#
# Elastic Constant Matrix: (Units=GPa)
#
#
# Indices 1 2 3 4 5 6 
#
# 1 64.2514 35.6012 35.3041 0.0000 0.0000 0.0000
# 2 35.6012 130.1646 72.1331 0.0000 0.0000 0.0000
# 3 35.3041 72.1331 111.1281 0.0000 0.0000 0.0000
# 4 0.0000 0.0000 0.0000 26.6765 0.0000 0.0000
# 5 0.0000 0.0000 0.0000 0.0000 27.9284 0.0000
# 6 0.0000 0.0000 0.0000 0.0000 0.0000 24.9556
#
#
#
# Elastic Compliance Matrix: (Units=1/GPa)
#
#
# Indices 1 2 3 4 5 6 
#
# 1 0.019568 -0.002978 -0.004283 0.000000 0.000000 0.000000
# 2 -0.002978 0.012452 -0.007136 0.000000 0.000000 0.000000
# 3 -0.004283 -0.007136 0.014992 0.000000 0.000000 0.000000
# 4 0.000000 0.000000 0.000000 0.037486 0.000000 0.000000
# 5 0.000000 0.000000 0.000000 0.000000 0.035806 0.000000
# 6 0.000000 0.000000 0.000000 0.000000 0.000000 0.040071
#
#
# Mechanical properties :
#
#
# Convention : Reuss Voigt Hill
#
# Bulk Modulus (GPa) = 54.89868 65.73565 60.31716
# Shear Modulus (GPa) = 25.60928 26.74581 26.17755
#
# Velocity S-wave (km/s) = 3.63404 3.71381 3.67414
# Velocity P-wave (km/s) = 6.77633 7.23109 7.00740
#
# Compressibility (1/GPa) = 0.01821538
#
# Stress axis : x y z
#
# Youngs Moduli (GPa) = 51.10488 80.30896 66.70431
#
# Poissons Ratio (x) = 0.23918 0.28571
# Poissons Ratio (y) = 0.15221 0.47603
# Poissons Ratio (z) = 0.21889 0.57311
#
# Static dielectric constant tensor:
#      x y z
#    x 3.428570 0.000000 0.000000 
#    y 0.000000 3.601090 0.000000 
#    z 0.000000 0.000000 3.549390 
# 
# 
# High freq. dielectric constant tensor:
#      x y z
#    x 1.747900 0.000000 0.000000 
#    y 0.000000 1.746930 0.000000 
#    z 0.000000 0.000000 1.756000 
# 
# From -- ./inp_files/10930.got.cif
#   From: 2010.03.12/outbox.cif.g09.slc.cpg/sg36_6_cif.got.tgz:10930.got - 2010.04.14 02:13:53.
