data_PCOD8174929
_publ_section_title
;
Structure prediction by ZEFSAII (Michael W. Deem and Ramdas Pophale) SiO2 
 PCOD8174929
Probable space group: C M C 21
;
_chemical_formula_sum "Si O2"
_cell_formula_units_Z 28
_cell_length_a 17.390458
_cell_length_b 14.733375
_cell_length_c 4.814676
_cell_angle_alpha 90.000000
_cell_angle_beta 90.000000
_cell_angle_gamma 90.000000
_cell_volume 1233.616955
_symmetry_space_group_name_H-M "C M C 21"
_symmetry_group_IT_number 36
_symmetry_cell_setting 'orthorhombic'
loop_
_space_group_symop_operation_xyz
x,y,z
-x,-y,1/2+z
x,-y,1/2+z
-x,y,z
1/2+x,1/2+y,z
1/2-x,1/2-y,1/2+z
1/2+x,1/2-y,1/2+z
1/2-x,1/2+y,z
loop_
_atom_site_type_symbol
_atom_site_label
_atom_site_fract_x
_atom_site_fract_y
_atom_site_fract_z
Si Si1 0.727360 0.304193 0.012460
Si Si2 0.000000 0.561026 0.636761
Si Si3 0.840413 0.560676 0.778227
Si Si4 0.411324 0.435542 0.006889
O O1 0.729151 0.216416 0.220090
O O2 0.771830 0.375561 0.199542
O O3 0.642475 0.346579 0.959572
O O4 0.078612 0.613595 0.716379
O O5 0.000000 0.533790 0.314144
O O6 0.835411 0.467725 0.598958
O O7 0.393729 0.481048 0.301604
O O8 0.500000 0.402501 0.979426
#
# Coordination Sequence:
#
# PCOD8174929 Si02
#       4
#     8   4   8   8
#     4  12  24  38  55  90 124 152 191 242 313 358
#     4   8  16  30  52  78  98 128 180 222 258 316
#     4  10  19  36  58  78 106 148 193 228 268 336
#     4  10  21  41  67  89 115 160 214 256 292 354
#
# _framework density 22.697482999999998
#
# number of rings (size 3 to 8) (size 9 to 14) (size 15 to 20)
#    0.000    1.714    0.000    5.143    0.000    0.000 
#    5.143    0.000    0.000    0.000    0.000    0.000 
#    0.000    0.000    0.000    0.000    0.000    0.000 
#
# Total GULP energy -173454.654158 kJ/mol
# GULP energy per Si atom -12389.618154 kJ/mol
# Density = 2.264582 g / cm^3
# Si number density = 22.697483 Si / 1000 Ang^3
#
#
#
# Elastic Constant Matrix: (Units=GPa)
#
#
# Indices 1 2 3 4 5 6 
#
# 1 111.4607 41.1018 -9.3893 0.0000 0.0000 0.0000
# 2 41.1018 61.7239 0.0998 0.0000 0.0000 0.0000
# 3 -9.3893 0.0998 56.5488 0.0000 0.0000 0.0000
# 4 0.0000 0.0000 0.0000 15.5638 0.0000 0.0000
# 5 0.0000 0.0000 0.0000 0.0000 25.2177 0.0000
# 6 0.0000 0.0000 0.0000 0.0000 0.0000 23.1546
#
#
#
# Elastic Compliance Matrix: (Units=1/GPa)
#
#
# Indices 1 2 3 4 5 6 
#
# 1 0.012120 -0.008074 0.002027 0.000000 0.000000 0.000000
# 2 -0.008074 0.021580 -0.001379 0.000000 0.000000 0.000000
# 3 0.002027 -0.001379 0.018023 0.000000 0.000000 0.000000
# 4 0.000000 0.000000 0.000000 0.064252 0.000000 0.000000
# 5 0.000000 0.000000 0.000000 0.000000 0.039655 0.000000
# 6 0.000000 0.000000 0.000000 0.000000 0.000000 0.043188
#
#
# Mechanical properties :
#
#
# Convention : Reuss Voigt Hill
#
# Bulk Modulus (GPa) = 27.12192 32.59533 29.85863
# Shear Modulus (GPa) = 22.12794 25.98194 24.05494
#
# Velocity S-wave (km/s) = 3.12574 3.38702 3.25900
# Velocity P-wave (km/s) = 5.00022 5.44865 5.22925
#
# Compressibility (1/GPa) = 0.03687055
#
# Stress axis : x y z
#
# Youngs Moduli (GPa) = 82.51001 46.33979 55.48540
#
# Poissons Ratio (x) = 0.37414 -0.11245
# Poissons Ratio (y) = 0.66617 0.07650
# Poissons Ratio (z) = -0.16721 0.06389
#
# Static dielectric constant tensor:
#      x y z
#    x 4.435800 0.000000 0.000000 
#    y 0.000000 4.366250 0.000000 
#    z 0.000000 0.000000 4.515200 
# 
# 
# High freq. dielectric constant tensor:
#      x y z
#    x 1.909550 0.000000 0.000000 
#    y 0.000000 1.843630 0.000000 
#    z 0.000000 0.000000 1.920900 
# 
# From -- ./inp_files/982.got.cif
#   From: 2010.03.12/outbox.cif.g09.slc.cpg/sg36_1_cif.got.tgz:982.got - 2010.04.14 02:13:53.
