data_PCOD8174376
_publ_section_title
;
Structure prediction by ZEFSAII (Michael W. Deem and Ramdas Pophale) SiO2 
 PCOD8174376
Probable space group: C M C 21
;
_chemical_formula_sum "Si O2"
_cell_formula_units_Z 64
_cell_length_a 19.190182
_cell_length_b 8.585175
_cell_length_c 19.304119
_cell_angle_alpha 90.000000
_cell_angle_beta 90.000000
_cell_angle_gamma 90.000000
_cell_volume 3180.374275
_symmetry_space_group_name_H-M "C M C 21"
_symmetry_group_IT_number 36
_symmetry_cell_setting 'orthorhombic'
loop_
_space_group_symop_operation_xyz
x,y,z
-x,-y,1/2+z
x,-y,1/2+z
-x,y,z
1/2+x,1/2+y,z
1/2-x,1/2-y,1/2+z
1/2+x,1/2-y,1/2+z
1/2-x,1/2+y,z
loop_
_atom_site_type_symbol
_atom_site_label
_atom_site_fract_x
_atom_site_fract_y
_atom_site_fract_z
Si Si1 0.421148 0.911156 0.510970
Si Si2 0.340017 0.634508 0.707681
Si Si3 0.723488 0.650082 0.967229
Si Si4 0.840668 0.440460 0.899539
Si Si5 0.831444 0.141301 0.541808
Si Si6 0.778413 0.840902 0.685402
Si Si7 0.843274 0.452595 0.136304
Si Si8 0.080905 0.603211 0.261451
O O1 0.500000 0.920375 0.534940
O O2 0.409436 0.995460 0.438103
O O3 0.373564 0.012340 0.561937
O O4 0.397818 0.730303 0.508733
O O5 0.343741 0.640976 0.624105
O O6 0.272653 0.736675 0.732904
O O7 0.328437 0.455183 0.731407
O O8 0.407826 0.712670 0.742321
O O9 0.775845 0.554818 0.916613
O O10 0.676347 0.761447 0.919077
O O11 0.762708 0.758225 0.023403
O O12 0.673820 0.530694 0.009177
O O13 0.864673 0.448605 0.820103
O O14 0.828915 0.731688 0.640229
O O15 0.730772 0.956922 0.638892
O O16 0.898361 0.502499 0.194661
O O17 0.000000 0.577521 0.280859
#
# Coordination Sequence:
#
# PCOD8174376 Si02
#       8
#     8   8   8   8   8   8   8   8
#     4  11  22  37  54  83 117 160 202 231 282 353
#     4  10  19  31  58  85 114 149 184 241 294 345
#     4   9  21  36  60  92 118 139 195 240 315 340
#     4  10  23  38  63  86 119 156 188 247 297 358
#     4  10  18  32  59  86 115 146 182 252 287 345
#     4   9  19  32  54  93 114 136 186 243 313 329
#     4  10  21  34  62  85 116 149 192 254 291 347
#     4  11  23  42  58  80 119 167 201 232 289 355
#
# _framework density 20.123418000000001
#
# number of rings (size 3 to 8) (size 9 to 14) (size 15 to 20)
#    0.000    2.000    2.500    1.500   10.500    4.000 
#    0.000    5.000    0.000    0.000    0.000    0.000 
#    0.000    0.000    0.000    0.000    0.000    0.000 
#
# Total GULP energy -396551.477239 kJ/mol
# GULP energy per Si atom -12392.233664 kJ/mol
# Density = 2.007762 g / cm^3
# Si number density = 20.123418 Si / 1000 Ang^3
#
#
#
# Elastic Constant Matrix: (Units=GPa)
#
#
# Indices 1 2 3 4 5 6 
#
# 1 70.2618 20.8171 -0.4469 0.0000 0.0000 0.0000
# 2 20.8171 116.0841 -1.2013 0.0000 0.0000 0.0000
# 3 -0.4469 -1.2013 51.6561 0.0000 0.0000 0.0000
# 4 0.0000 0.0000 0.0000 20.2709 0.0000 0.0000
# 5 0.0000 0.0000 0.0000 0.0000 24.7300 0.0000
# 6 0.0000 0.0000 0.0000 0.0000 0.0000 17.6124
#
#
#
# Elastic Compliance Matrix: (Units=1/GPa)
#
#
# Indices 1 2 3 4 5 6 
#
# 1 0.015031 -0.002695 0.000067 0.000000 0.000000 0.000000
# 2 -0.002695 0.009100 0.000188 0.000000 0.000000 0.000000
# 3 0.000067 0.000188 0.019364 0.000000 0.000000 0.000000
# 4 0.000000 0.000000 0.000000 0.049332 0.000000 0.000000
# 5 0.000000 0.000000 0.000000 0.000000 0.040437 0.000000
# 6 0.000000 0.000000 0.000000 0.000000 0.000000 0.056778
#
#
# Mechanical properties :
#
#
# Convention : Reuss Voigt Hill
#
# Bulk Modulus (GPa) = 25.89571 30.70442 28.30006
# Shear Modulus (GPa) = 24.06253 27.11152 25.58703
#
# Velocity S-wave (km/s) = 3.46171 3.67449 3.56969
# Velocity P-wave (km/s) = 5.37348 5.77007 5.57530
#
# Compressibility (1/GPa) = 0.03861644
#
# Stress axis : x y z
#
# Youngs Moduli (GPa) = 66.52771 109.89432 51.64283
#
# Poissons Ratio (x) = 0.29615 -0.00348
# Poissons Ratio (y) = 0.17928 -0.00972
# Poissons Ratio (z) = -0.00448 -0.02069
#
# Static dielectric constant tensor:
#      x y z
#    x 3.457990 0.000000 0.000000 
#    y 0.000000 4.220340 0.000000 
#    z 0.000000 0.000000 3.383950 
# 
# 
# High freq. dielectric constant tensor:
#      x y z
#    x 1.754610 0.000000 0.000000 
#    y 0.000000 1.798380 0.000000 
#    z 0.000000 0.000000 1.769120 
# 
# From -- ./inp_files/16301.got.cif
#   From: 2010.03.12/outbox.cif.g09.slc.cpg/sg36_9_cif.got.tgz:16301.got - 2010.04.14 02:13:53.
