data_PCOD8174920
_publ_section_title
;
Structure prediction by ZEFSAII (Michael W. Deem and Ramdas Pophale) SiO2 
 PCOD8174920
Probable space group: C M C 21
;
_chemical_formula_sum "Si O2"
_cell_formula_units_Z 64
_cell_length_a 8.564996
_cell_length_b 23.897694
_cell_length_c 15.343853
_cell_angle_alpha 90.000000
_cell_angle_beta 90.000000
_cell_angle_gamma 90.000000
_cell_volume 3140.635891
_symmetry_space_group_name_H-M "C M C 21"
_symmetry_group_IT_number 36
_symmetry_cell_setting 'orthorhombic'
loop_
_space_group_symop_operation_xyz
x,y,z
-x,-y,1/2+z
x,-y,1/2+z
-x,y,z
1/2+x,1/2+y,z
1/2-x,1/2-y,1/2+z
1/2+x,1/2-y,1/2+z
1/2-x,1/2+y,z
loop_
_atom_site_type_symbol
_atom_site_label
_atom_site_fract_x
_atom_site_fract_y
_atom_site_fract_z
Si Si1 0.679333 0.385915 0.338160
Si Si2 0.684444 0.696931 0.509290
Si Si3 0.681894 0.500995 0.421440
Si Si4 0.318122 0.121508 0.656728
Si Si5 0.182576 0.887056 0.662730
Si Si6 0.184591 0.880152 0.856434
Si Si7 0.683035 0.823574 0.501645
Si Si8 0.317378 0.001740 0.106411
O O1 0.500000 0.373868 0.316310
O O2 0.709144 0.451872 0.351821
O O3 0.782258 0.365004 0.257255
O O4 0.724234 0.352552 0.424307
O O5 0.500000 0.696301 0.504233
O O6 0.734203 0.667397 0.598056
O O7 0.754853 0.664627 0.424818
O O8 0.746090 0.760263 0.508851
O O9 0.500000 0.504764 0.448756
O O10 0.747466 0.558174 0.380211
O O11 0.784724 0.486668 0.505337
O O12 0.500000 0.126134 0.638478
O O13 0.255469 0.059770 0.632293
O O14 0.231807 0.863736 0.757990
O O15 0.284136 0.854356 0.592329
O O16 0.000000 0.878029 0.643645
O O17 0.221335 0.953018 0.662099
O O18 0.000000 0.882064 0.863760
O O19 0.500000 0.826218 0.481498
O O20 0.500000 0.008473 0.126163
#
# Coordination Sequence:
#
# PCOD8174920 Si02
#       8
#     8   8   8   8   8   8   8   8
#     4  11  23  39  63  93 121 161 206 247 301 365
#     4  10  22  42  65  87 118 161 206 254 304 358
#     4  10  19  35  62  90 117 151 197 249 298 362
#     4  11  24  40  61  92 126 162 200 250 308 358
#     4  11  22  38  62  90 120 160 204 247 300 366
#     4   9  19  37  62  89 115 150 199 250 295 352
#     4  11  24  41  61  89 123 159 203 258 312 355
#     4  11  22  36  58  90 126 160 193 243 308 362
#
# _framework density 20.378039999999999
#
# number of rings (size 3 to 8) (size 9 to 14) (size 15 to 20)
#    0.000    1.500    2.500    2.625    0.000    5.000 
#    0.000    3.750    0.000    0.000    0.000    0.000 
#    0.000    0.000    0.000    0.000    0.000    0.000 
#
# Total GULP energy -396932.167894 kJ/mol
# GULP energy per Si atom -12404.130247 kJ/mol
# Density = 2.033166 g / cm^3
# Si number density = 20.378040 Si / 1000 Ang^3
#
#
#
# Elastic Constant Matrix: (Units=GPa)
#
#
# Indices 1 2 3 4 5 6 
#
# 1 28.9051 14.8371 2.9414 0.0000 0.0000 0.0000
# 2 14.8371 128.5518 34.9949 0.0000 0.0000 0.0000
# 3 2.9414 34.9949 110.3082 0.0000 0.0000 0.0000
# 4 0.0000 0.0000 0.0000 12.3615 0.0000 0.0000
# 5 0.0000 0.0000 0.0000 0.0000 20.5067 0.0000
# 6 0.0000 0.0000 0.0000 0.0000 0.0000 24.7488
#
#
#
# Elastic Compliance Matrix: (Units=1/GPa)
#
#
# Indices 1 2 3 4 5 6 
#
# 1 0.036791 -0.004355 0.000401 0.000000 0.000000 0.000000
# 2 -0.004355 0.009030 -0.002749 0.000000 0.000000 0.000000
# 3 0.000401 -0.002749 0.009927 0.000000 0.000000 0.000000
# 4 0.000000 0.000000 0.000000 0.080896 0.000000 0.000000
# 5 0.000000 0.000000 0.000000 0.000000 0.048764 0.000000
# 6 0.000000 0.000000 0.000000 0.000000 0.000000 0.040406
#
#
# Mechanical properties :
#
#
# Convention : Reuss Voigt Hill
#
# Bulk Modulus (GPa) = 23.61774 41.47910 32.54842
# Shear Modulus (GPa) = 19.73675 25.85617 22.79646
#
# Velocity S-wave (km/s) = 3.11550 3.56592 3.34829
# Velocity P-wave (km/s) = 4.95548 6.11174 5.56373
#
# Compressibility (1/GPa) = 0.04234105
#
# Stress axis : x y z
#
# Youngs Moduli (GPa) = 27.18065 110.74342 100.73742
#
# Poissons Ratio (x) = 0.48233 -0.04037
# Poissons Ratio (y) = 0.11838 0.27688
# Poissons Ratio (z) = -0.01089 0.30439
#
# Static dielectric constant tensor:
#      x y z
#    x 3.474630 0.000000 0.000000 
#    y 0.000000 3.925190 0.000000 
#    z 0.000000 0.000000 3.738160 
# 
# 
# High freq. dielectric constant tensor:
#      x y z
#    x 1.781740 0.000000 0.000000 
#    y 0.000000 1.797040 0.000000 
#    z 0.000000 0.000000 1.805970 
# 
# From -- ./inp_files/10919.got.cif
#   From: 2010.03.12/outbox.cif.g09.slc.cpg/sg36_6_cif.got.tgz:10919.got - 2010.04.14 02:13:53.
