data_PCOD8174698
_publ_section_title
;
Structure prediction by ZEFSAII (Michael W. Deem and Ramdas Pophale) SiO2 
 PCOD8174698
Probable space group: C M C 21
;
_chemical_formula_sum "Si O2"
_cell_formula_units_Z 64
_cell_length_a 8.879821
_cell_length_b 24.874143
_cell_length_c 14.754798
_cell_angle_alpha 90.000000
_cell_angle_beta 90.000000
_cell_angle_gamma 90.000000
_cell_volume 3259.009349
_symmetry_space_group_name_H-M "C M C 21"
_symmetry_group_IT_number 36
_symmetry_cell_setting 'orthorhombic'
loop_
_space_group_symop_operation_xyz
x,y,z
-x,-y,1/2+z
x,-y,1/2+z
-x,y,z
1/2+x,1/2+y,z
1/2-x,1/2-y,1/2+z
1/2+x,1/2-y,1/2+z
1/2-x,1/2+y,z
loop_
_atom_site_type_symbol
_atom_site_label
_atom_site_fract_x
_atom_site_fract_y
_atom_site_fract_z
Si Si1 0.828024 0.694532 0.166090
Si Si2 0.676762 0.379620 0.538731
Si Si3 0.321974 0.492587 0.459997
Si Si4 0.821299 0.797973 0.049009
Si Si5 0.822208 0.939928 0.282702
Si Si6 0.176661 0.338990 0.366724
Si Si7 0.826569 0.268176 0.861736
Si Si8 0.321516 0.417510 0.087301
O O1 0.726988 0.643345 0.136006
O O2 0.772797 0.750762 0.118884
O O3 0.813302 0.693127 0.274792
O O4 0.000000 0.684868 0.136812
O O5 0.500000 0.372507 0.524124
O O6 0.724712 0.441495 0.522255
O O7 0.766695 0.341483 0.469878
O O8 0.500000 0.497770 0.459029
O O9 0.262238 0.484114 0.356127
O O10 0.253352 0.547051 0.503974
O O11 0.764449 0.855955 0.087392
O O12 0.000000 0.797410 0.033766
O O13 0.741732 0.793892 0.951842
O O14 0.756654 0.882465 0.305607
O O15 0.773938 0.950163 0.178892
O O16 0.000000 0.935685 0.293403
O O17 0.227795 0.282001 0.329135
O O18 0.000000 0.346574 0.361543
O O19 0.000000 0.251969 0.879359
O O20 0.500000 0.416613 0.080771
#
# Coordination Sequence:
#
# PCOD8174698 Si02
#       8
#     8   8   8   8   8   8   8   8
#     4  10  21  36  54  78 111 148 182 220 278 342
#     4  10  19  33  55  81 107 138 182 229 273 322
#     4   8  16  31  52  82 109 134 180 233 273 321
#     4  10  20  35  55  80 110 146 185 228 277 334
#     4   9  17  32  56  81 106 144 189 230 279 329
#     4  11  20  32  53  79 109 142 182 230 274 320
#     4  11  22  36  54  79 112 149 183 222 278 337
#     4   9  17  33  55  80 112 147 183 230 284 329
#
# _framework density 19.637868999999998
#
# number of rings (size 3 to 8) (size 9 to 14) (size 15 to 20)
#    0.000    2.250    1.250    3.375    0.000    3.000 
#    2.250    1.875    0.000    7.500    0.000    0.000 
#    0.000    0.000    0.000    0.000    0.000    0.000 
#
# Total GULP energy -396529.191106 kJ/mol
# GULP energy per Si atom -12391.537222 kJ/mol
# Density = 1.959317 g / cm^3
# Si number density = 19.637869 Si / 1000 Ang^3
#
#
#
# Elastic Constant Matrix: (Units=GPa)
#
#
# Indices 1 2 3 4 5 6 
#
# 1 107.0490 8.3585 0.7880 0.0000 0.0000 0.0000
# 2 8.3585 63.0503 29.7150 0.0000 0.0000 0.0000
# 3 0.7880 29.7150 118.3863 0.0000 0.0000 0.0000
# 4 0.0000 0.0000 0.0000 27.0164 0.0000 0.0000
# 5 0.0000 0.0000 0.0000 0.0000 25.9824 0.0000
# 6 0.0000 0.0000 0.0000 0.0000 0.0000 16.3430
#
#
#
# Elastic Compliance Matrix: (Units=1/GPa)
#
#
# Indices 1 2 3 4 5 6 
#
# 1 0.009448 -0.001387 0.000285 0.000000 0.000000 0.000000
# 2 -0.001387 0.018192 -0.004557 0.000000 0.000000 0.000000
# 3 0.000285 -0.004557 0.009589 0.000000 0.000000 0.000000
# 4 0.000000 0.000000 0.000000 0.037014 0.000000 0.000000
# 5 0.000000 0.000000 0.000000 0.000000 0.038488 0.000000
# 6 0.000000 0.000000 0.000000 0.000000 0.000000 0.061188
#
#
# Mechanical properties :
#
#
# Convention : Reuss Voigt Hill
#
# Bulk Modulus (GPa) = 38.59338 40.68983 39.64161
# Shear Modulus (GPa) = 25.79008 30.50999 28.15004
#
# Velocity S-wave (km/s) = 3.62786 3.94589 3.79021
# Velocity P-wave (km/s) = 6.10276 6.44400 6.27570
#
# Compressibility (1/GPa) = 0.02591118
#
# Stress axis : x y z
#
# Youngs Moduli (GPa) = 105.84577 54.96973 104.28821
#
# Poissons Ratio (x) = 0.07624 -0.02975
# Poissons Ratio (y) = 0.14680 0.47523
# Poissons Ratio (z) = -0.03019 0.25049
#
# Static dielectric constant tensor:
#      x y z
#    x 3.276670 0.000000 0.000000 
#    y 0.000000 3.635870 0.000000 
#    z 0.000000 0.000000 3.736340 
# 
# 
# High freq. dielectric constant tensor:
#      x y z
#    x 1.733660 0.000000 0.000000 
#    y 0.000000 1.751610 0.000000 
#    z 0.000000 0.000000 1.772250 
# 
# From -- ./inp_files/10997.got.cif
#   From: 2010.03.12/outbox.cif.g09.slc.cpg/sg36_6_cif.got.tgz:10997.got - 2010.04.14 02:13:53.
