data_PCOD8174237
_publ_section_title
;
Structure prediction by ZEFSAII (Michael W. Deem and Ramdas Pophale) SiO2 
 PCOD8174237
Probable space group: C M C 21
;
_chemical_formula_sum "Si O2"
_cell_formula_units_Z 24
_cell_length_a 7.448678
_cell_length_b 31.433640
_cell_length_c 5.210303
_cell_angle_alpha 90.000000
_cell_angle_beta 90.000000
_cell_angle_gamma 90.000000
_cell_volume 1219.935461
_symmetry_space_group_name_H-M "C M C 21"
_symmetry_group_IT_number 36
_symmetry_cell_setting 'orthorhombic'
loop_
_space_group_symop_operation_xyz
x,y,z
-x,-y,1/2+z
x,-y,1/2+z
-x,y,z
1/2+x,1/2+y,z
1/2-x,1/2-y,1/2+z
1/2+x,1/2-y,1/2+z
1/2-x,1/2+y,z
loop_
_atom_site_type_symbol
_atom_site_label
_atom_site_fract_x
_atom_site_fract_y
_atom_site_fract_z
Si Si1 0.800277 0.017969 0.562400
Si Si2 0.500000 0.345730 0.605390
Si Si3 0.293688 0.776274 0.624060
Si Si4 0.000000 0.901033 0.105960
O O1 0.000000 0.996223 0.553148
O O2 0.821070 0.069361 0.575991
O O3 0.696280 0.001753 0.308202
O O4 0.677428 0.317794 0.566025
O O5 0.500000 0.381670 0.389225
O O6 0.500000 0.365154 0.889708
O O7 0.500000 0.790226 0.638692
O O8 0.266649 0.742710 0.396111
#
# Coordination Sequence:
#
# PCOD8174237 Si02
#       4
#     8   4   8   4
#     4   8  13  24  42  66 106 140 170 212 256 308
#     4  12  22  33  56  80 110 136 182 230 280 311
#     4  12  23  41  60  79 106 143 190 230 274 340
#     4  10  18  29  46  80 112 138 172 228 274 313
#
# _framework density 19.673172999999998
#
# number of rings (size 3 to 8) (size 9 to 14) (size 15 to 20)
#    1.000    0.667    3.333    4.000    0.000    0.000 
#    0.000    0.000    0.000    0.000    0.000    0.000 
#    0.000  106.667    0.000    0.000    0.000    0.000 
#
# Total GULP energy -148708.066824 kJ/mol
# GULP energy per Si atom -12392.338902 kJ/mol
# Density = 1.962840 g / cm^3
# Si number density = 19.673173 Si / 1000 Ang^3
#
#
#
# Elastic Constant Matrix: (Units=GPa)
#
#
# Indices 1 2 3 4 5 6 
#
# 1 83.9570 19.9268 9.3566 0.0000 0.0000 0.0000
# 2 19.9268 85.4440 17.7656 0.0000 0.0000 0.0000
# 3 9.3566 17.7656 129.6943 0.0000 0.0000 0.0000
# 4 0.0000 0.0000 0.0000 51.7158 0.0000 0.0000
# 5 0.0000 0.0000 0.0000 0.0000 0.5964 0.0000
# 6 0.0000 0.0000 0.0000 0.0000 0.0000 -11.3482
#
#
#
# Elastic Compliance Matrix: (Units=1/GPa)
#
#
# Indices 1 2 3 4 5 6 
#
# 1 0.012643 -0.002840 -0.000523 0.000000 0.000000 0.000000
# 2 -0.002840 0.012685 -0.001533 0.000000 0.000000 0.000000
# 3 -0.000523 -0.001533 0.007958 0.000000 0.000000 0.000000
# 4 0.000000 0.000000 0.000000 0.019336 0.000000 0.000000
# 5 0.000000 0.000000 0.000000 0.000000 1.676688 0.000000
# 6 0.000000 0.000000 0.000000 0.000000 0.000000 -0.088120
#
#
# Mechanical properties :
#
#
# Convention : Reuss Voigt Hill
#
# Bulk Modulus (GPa) = 42.56289 43.68814 43.12552
# Shear Modulus (GPa) = 3.01420 24.99589 14.00505
#
# Velocity S-wave (km/s) = 1.23914 3.56835 2.67101
# Velocity P-wave (km/s) = 4.87127 6.26360 5.61079
#
# Compressibility (1/GPa) = 0.02349464
#
# Stress axis : x y z
#
# Youngs Moduli (GPa) = 79.09404 78.83620 125.65772
#
# Poissons Ratio (x) = 0.22388 0.06573
# Poissons Ratio (y) = 0.22461 0.19259
# Poissons Ratio (z) = 0.04138 0.12083
#
# Static dielectric constant tensor:
#      x y z
#    x 3.321610 0.000000 0.000000 
#    y 0.000000 3.385010 0.000000 
#    z 0.000000 0.000000 4.207290 
# 
# 
# High freq. dielectric constant tensor:
#      x y z
#    x 1.718530 0.000000 0.000000 
#    y 0.000000 1.756530 0.000000 
#    z 0.000000 0.000000 1.800690 
# 
# From -- ./inp_files/164.got.cif
#   From: 2010.03.12/outbox.cif.g09.slc.cpg/sg36_1_cif.got.tgz:164.got - 2010.04.14 02:13:53.
