data_PCOD8174380
_publ_section_title
;
Structure prediction by ZEFSAII (Michael W. Deem and Ramdas Pophale) SiO2 
 PCOD8174380
Probable space group: C M C 21
;
_chemical_formula_sum "Si O2"
_cell_formula_units_Z 64
_cell_length_a 8.934229
_cell_length_b 19.893762
_cell_length_c 18.849830
_cell_angle_alpha 90.000000
_cell_angle_beta 90.000000
_cell_angle_gamma 90.000000
_cell_volume 3350.282553
_symmetry_space_group_name_H-M "C M C 21"
_symmetry_group_IT_number 36
_symmetry_cell_setting 'orthorhombic'
loop_
_space_group_symop_operation_xyz
x,y,z
-x,-y,1/2+z
x,-y,1/2+z
-x,y,z
1/2+x,1/2+y,z
1/2-x,1/2-y,1/2+z
1/2+x,1/2-y,1/2+z
1/2-x,1/2+y,z
loop_
_atom_site_type_symbol
_atom_site_label
_atom_site_fract_x
_atom_site_fract_y
_atom_site_fract_z
Si Si1 0.177666 0.579423 0.176070
Si Si2 0.677572 0.811310 0.788135
Si Si3 0.677372 0.231314 0.549298
Si Si4 0.821857 0.448836 0.252410
Si Si5 0.177352 0.374096 0.934103
Si Si6 0.678097 0.870379 0.525314
Si Si7 0.822575 0.303557 0.206991
Si Si8 0.821652 0.476765 0.410094
O O1 0.235701 0.634997 0.230887
O O2 0.240206 0.507170 0.200786
O O3 0.238429 0.597012 0.098262
O O4 0.000000 0.577880 0.175938
O O5 0.500000 0.803447 0.786300
O O6 0.736343 0.834746 0.864811
O O7 0.751733 0.740522 0.769330
O O8 0.500000 0.240069 0.545786
O O9 0.729086 0.166321 0.503929
O O10 0.752309 0.296879 0.515224
O O11 0.733687 0.220561 0.629728
O O12 0.764531 0.378917 0.220351
O O13 0.759497 0.460366 0.331793
O O14 0.000000 0.450973 0.254939
O O15 0.240581 0.450376 0.935473
O O16 0.000000 0.377936 0.929801
O O17 0.500000 0.863421 0.525369
O O18 0.736252 0.918634 0.462646
O O19 0.000000 0.299389 0.212200
O O20 0.000000 0.478208 0.410434
#
# Coordination Sequence:
#
# PCOD8174380 Si02
#       8
#     8   8   8   8   8   8   8   8
#     4   9  16  29  50  74  96 123 164 210 248 284
#     4  10  18  33  55  74  97 132 170 207 246 296
#     4  10  21  35  49  72 106 139 166 197 246 309
#     4   9  17  30  48  74 103 127 160 212 258 286
#     4   9  18  32  51  75 102 134 170 206 249 300
#     4  10  20  32  52  78 100 128 168 212 252 293
#     4  10  21  33  50  76 105 133 164 207 254 298
#     4   9  17  30  49  75 101 124 162 213 253 286
#
# _framework density 19.102865000000001
#
# number of rings (size 3 to 8) (size 9 to 14) (size 15 to 20)
#    0.000    2.500    2.500    0.000    3.500    0.000 
#    0.000    0.000    0.000    3.000    0.000    0.000 
#    0.000    0.000    0.000    0.000    0.000    0.000 
#
# Total GULP energy -396766.618943 kJ/mol
# GULP energy per Si atom -12398.956842 kJ/mol
# Density = 1.905939 g / cm^3
# Si number density = 19.102865 Si / 1000 Ang^3
#
#
#
# Elastic Constant Matrix: (Units=GPa)
#
#
# Indices 1 2 3 4 5 6 
#
# 1 10.7857 19.0442 11.7563 0.0000 0.0000 0.0000
# 2 19.0442 157.1598 50.3439 0.0000 0.0000 0.0000
# 3 11.7563 50.3439 96.8435 0.0000 0.0000 0.0000
# 4 0.0000 0.0000 0.0000 43.0387 0.0000 0.0000
# 5 0.0000 0.0000 0.0000 0.0000 14.3040 0.0000
# 6 0.0000 0.0000 0.0000 0.0000 0.0000 21.9439
#
#
#
# Elastic Compliance Matrix: (Units=1/GPa)
#
#
# Indices 1 2 3 4 5 6 
#
# 1 0.123736 -0.012217 -0.008670 0.000000 0.000000 0.000000
# 2 -0.012217 0.008840 -0.003113 0.000000 0.000000 0.000000
# 3 -0.008670 -0.003113 0.012997 0.000000 0.000000 0.000000
# 4 0.000000 0.000000 0.000000 0.023235 0.000000 0.000000
# 5 0.000000 0.000000 0.000000 0.000000 0.069910 0.000000
# 6 0.000000 0.000000 0.000000 0.000000 0.000000 0.045571
#
#
# Mechanical properties :
#
#
# Convention : Reuss Voigt Hill
#
# Bulk Modulus (GPa) = 10.24860 47.45307 28.85083
# Shear Modulus (GPa) = 13.70566 28.10030 20.90298
#
# Velocity S-wave (km/s) = 2.68146 3.83952 3.31151
# Velocity P-wave (km/s) = 3.86828 6.67463 5.45501
#
# Compressibility (1/GPa) = 0.09757430
#
# Stress axis : x y z
#
# Youngs Moduli (GPa) = 8.08171 113.11674 76.94355
#
# Poissons Ratio (x) = 1.38191 0.66711
# Poissons Ratio (y) = 0.09873 0.23950
# Poissons Ratio (z) = 0.07007 0.35209
#
# Static dielectric constant tensor:
#      x y z
#    x 2.836570 0.000000 0.000000 
#    y 0.000000 3.717190 0.000000 
#    z 0.000000 0.000000 3.722590 
# 
# 
# High freq. dielectric constant tensor:
#      x y z
#    x 1.674390 0.000000 0.000000 
#    y 0.000000 1.759720 0.000000 
#    z 0.000000 0.000000 1.754420 
# 
# From -- ./inp_files/13968.got.cif
#   From: 2010.03.12/outbox.cif.g09.slc.cpg/sg36_7_cif.got.tgz:13968.got - 2010.04.14 02:13:53.
