data_PCOD8174372
_publ_section_title
;
Structure prediction by ZEFSAII (Michael W. Deem and Ramdas Pophale) SiO2 
 PCOD8174372
Probable space group: C M C 21
;
_chemical_formula_sum "Si O2"
_cell_formula_units_Z 64
_cell_length_a 8.641357
_cell_length_b 15.514584
_cell_length_c 23.924255
_cell_angle_alpha 90.000000
_cell_angle_beta 90.000000
_cell_angle_gamma 90.000000
_cell_volume 3207.454508
_symmetry_space_group_name_H-M "C M C 21"
_symmetry_group_IT_number 36
_symmetry_cell_setting 'orthorhombic'
loop_
_space_group_symop_operation_xyz
x,y,z
-x,-y,1/2+z
x,-y,1/2+z
-x,y,z
1/2+x,1/2+y,z
1/2-x,1/2-y,1/2+z
1/2+x,1/2-y,1/2+z
1/2-x,1/2+y,z
loop_
_atom_site_type_symbol
_atom_site_label
_atom_site_fract_x
_atom_site_fract_y
_atom_site_fract_z
Si Si1 0.818591 0.493223 0.552520
Si Si2 0.180640 0.398585 0.360206
Si Si3 0.182325 0.992361 0.173201
Si Si4 0.822425 0.854545 0.985638
Si Si5 0.318325 0.649126 0.246247
Si Si6 0.176458 0.920604 0.864307
Si Si7 0.684414 0.839513 0.241215
Si Si8 0.683381 0.836730 0.476670
O O1 0.723712 0.493936 0.609233
O O2 0.787995 0.580276 0.518082
O O3 0.754778 0.411221 0.517827
O O4 0.000000 0.486205 0.565286
O O5 0.208999 0.499519 0.367583
O O6 0.253870 0.365630 0.301979
O O7 0.253618 0.350608 0.414337
O O8 0.000000 0.379836 0.358123
O O9 0.253736 0.902799 0.193816
O O10 0.000000 0.986783 0.180848
O O11 0.253886 0.072074 0.208972
O O12 0.803444 0.862923 0.919113
O O13 0.769739 0.757015 0.000481
O O14 0.000000 0.871385 0.003625
O O15 0.500000 0.647448 0.237138
O O16 0.276050 0.637208 0.311307
O O17 0.255790 0.742817 0.227113
O O18 0.000000 0.954003 0.858138
O O19 0.500000 0.844163 0.241813
O O20 0.500000 0.845000 0.472328
#
# Coordination Sequence:
#
# PCOD8174372 Si02
#       8
#     8   8   8   8   8   8   8   8
#     4  11  23  40  59  80 111 147 189 237 281 329
#     4  10  18  32  57  86 117 149 182 223 276 335
#     4  11  23  40  59  80 111 147 189 237 281 329
#     4  10  20  36  60  87 114 148 187 227 277 336
#     4   9  19  36  58  84 115 150 185 225 277 334
#     4  10  18  32  57  86 117 149 182 223 276 335
#     4  10  20  36  60  87 114 148 187 227 277 336
#     4   9  19  36  58  84 115 150 185 225 277 334
#
# _framework density 19.953519
#
# number of rings (size 3 to 8) (size 9 to 14) (size 15 to 20)
#    0.000    2.000    2.500    1.500    0.000    4.000 
#    0.000    6.250    0.000    3.000    0.000    0.000 
#    0.000    0.000    0.000    0.000    0.000    0.000 
#
# Total GULP energy -396784.808561 kJ/mol
# GULP energy per Si atom -12399.525268 kJ/mol
# Density = 1.990810 g / cm^3
# Si number density = 19.953519 Si / 1000 Ang^3
#
#
#
# Elastic Constant Matrix: (Units=GPa)
#
#
# Indices 1 2 3 4 5 6 
#
# 1 20.9499 14.7465 9.8053 0.0000 0.0000 0.0000
# 2 14.7465 151.2507 48.1085 0.0000 0.0000 0.0000
# 3 9.8053 48.1085 110.8091 0.0000 0.0000 0.0000
# 4 0.0000 0.0000 0.0000 18.3371 0.0000 0.0000
# 5 0.0000 0.0000 0.0000 0.0000 12.9694 0.0000
# 6 0.0000 0.0000 0.0000 0.0000 0.0000 25.2384
#
#
#
# Elastic Compliance Matrix: (Units=1/GPa)
#
#
# Indices 1 2 3 4 5 6 
#
# 1 0.051980 -0.004182 -0.002784 0.000000 0.000000 0.000000
# 2 -0.004182 0.008007 -0.003106 0.000000 0.000000 0.000000
# 3 -0.002784 -0.003106 0.010620 0.000000 0.000000 0.000000
# 4 0.000000 0.000000 0.000000 0.054534 0.000000 0.000000
# 5 0.000000 0.000000 0.000000 0.000000 0.077105 0.000000
# 6 0.000000 0.000000 0.000000 0.000000 0.000000 0.039622
#
#
# Mechanical properties :
#
#
# Convention : Reuss Voigt Hill
#
# Bulk Modulus (GPa) = 19.81705 47.59226 33.70466
# Shear Modulus (GPa) = 17.93183 25.33225 21.63204
#
# Velocity S-wave (km/s) = 3.00105 3.56696 3.29617
# Velocity P-wave (km/s) = 4.68632 6.39278 5.60487
#
# Compressibility (1/GPa) = 0.05046159
#
# Stress axis : x y z
#
# Youngs Moduli (GPa) = 19.23820 124.88521 94.16635
#
# Poissons Ratio (x) = 0.52233 0.26214
# Poissons Ratio (y) = 0.08046 0.29251
# Poissons Ratio (z) = 0.05356 0.38794
#
# Static dielectric constant tensor:
#      x y z
#    x 3.261060 0.000000 0.000000 
#    y 0.000000 3.840090 0.000000 
#    z 0.000000 0.000000 3.703950 
# 
# 
# High freq. dielectric constant tensor:
#      x y z
#    x 1.740440 0.000000 0.000000 
#    y 0.000000 1.790750 0.000000 
#    z 0.000000 0.000000 1.781390 
# 
# From -- ./inp_files/16643.got.cif
#   From: 2010.03.12/outbox.cif.g09.slc.cpg/sg36_9_cif.got.tgz:16643.got - 2010.04.14 02:13:53.
