data_PCOD8174828
_publ_section_title
;
Structure prediction by ZEFSAII (Michael W. Deem and Ramdas Pophale) SiO2 
 PCOD8174828
Probable space group: C M C 21
;
_chemical_formula_sum "Si O2"
_cell_formula_units_Z 64
_cell_length_a 8.791428
_cell_length_b 15.444337
_cell_length_c 23.921263
_cell_angle_alpha 90.000000
_cell_angle_beta 90.000000
_cell_angle_gamma 90.000000
_cell_volume 3247.975907
_symmetry_space_group_name_H-M "C M C 21"
_symmetry_group_IT_number 36
_symmetry_cell_setting 'orthorhombic'
loop_
_space_group_symop_operation_xyz
x,y,z
-x,-y,1/2+z
x,-y,1/2+z
-x,y,z
1/2+x,1/2+y,z
1/2-x,1/2-y,1/2+z
1/2+x,1/2-y,1/2+z
1/2-x,1/2+y,z
loop_
_atom_site_type_symbol
_atom_site_label
_atom_site_fract_x
_atom_site_fract_y
_atom_site_fract_z
Si Si1 0.323893 0.226796 0.320910
Si Si2 0.178581 0.970137 0.938270
Si Si3 0.819057 0.532383 0.321199
Si Si4 0.674317 0.025724 0.047814
Si Si5 0.819755 0.115027 0.749595
Si Si6 0.824440 0.288756 0.945799
Si Si7 0.826220 0.282373 0.548430
Si Si8 0.821923 0.120889 0.621162
O O1 0.500000 0.222853 0.306146
O O2 0.257102 0.130366 0.309980
O O3 0.250795 0.300837 0.281717
O O4 0.295280 0.254047 0.385282
O O5 0.258933 0.000356 0.881150
O O6 0.219007 0.872033 0.954195
O O7 0.000000 0.981733 0.930558
O O8 0.234946 0.028183 0.989602
O O9 0.757117 0.471741 0.272468
O O10 0.000000 0.530588 0.322665
O O11 0.500000 0.002299 0.035202
O O12 0.737483 0.957957 0.091993
O O13 0.690790 0.121722 0.074498
O O14 0.772673 0.124571 0.685416
O O15 0.000000 0.107491 0.758130
O O16 0.000000 0.317168 0.951115
O O17 0.779206 0.221295 0.993499
O O18 0.772264 0.212068 0.593912
O O19 0.000000 0.264627 0.530569
O O20 0.000000 0.104534 0.614457
#
# Coordination Sequence:
#
# PCOD8174828 Si02
#       8
#     8   8   8   8   8   8   8   8
#     4   8  18  36  57  83 116 152 191 233 291 353
#     4  11  21  36  59  86 122 161 196 240 304 360
#     4  10  21  38  59  88 120 153 195 245 300 354
#     4  11  23  38  59  89 120 154 202 251 300 352
#     4  10  21  39  62  86 114 156 202 242 289 357
#     4  10  19  34  58  88 121 155 194 242 295 355
#     4  10  22  38  57  85 118 157 198 242 297 357
#     4  10  22  41  61  83 117 158 200 243 296 358
#
# _framework density 19.70458
#
# number of rings (size 3 to 8) (size 9 to 14) (size 15 to 20)
#    0.000    2.000    1.250    3.000    1.750    2.500 
#    0.000    5.625    0.000    0.000    0.000    0.000 
#    0.000    0.000    0.000    0.000    0.000    0.000 
#
# Total GULP energy -396816.548824 kJ/mol
# GULP energy per Si atom -12400.517151 kJ/mol
# Density = 1.965973 g / cm^3
# Si number density = 19.704580 Si / 1000 Ang^3
#
#
#
# Elastic Constant Matrix: (Units=GPa)
#
#
# Indices 1 2 3 4 5 6 
#
# 1 69.3559 38.7639 51.2760 0.0000 0.0000 0.0000
# 2 38.7639 128.4567 76.7995 0.0000 0.0000 0.0000
# 3 51.2760 76.7995 136.0297 0.0000 0.0000 0.0000
# 4 0.0000 0.0000 0.0000 25.5583 0.0000 0.0000
# 5 0.0000 0.0000 0.0000 0.0000 28.5023 0.0000
# 6 0.0000 0.0000 0.0000 0.0000 0.0000 26.5249
#
#
#
# Elastic Compliance Matrix: (Units=1/GPa)
#
#
# Indices 1 2 3 4 5 6 
#
# 1 0.020452 -0.002359 -0.006378 0.000000 0.000000 0.000000
# 2 -0.002359 0.012023 -0.005899 0.000000 0.000000 0.000000
# 3 -0.006378 -0.005899 0.013086 0.000000 0.000000 0.000000
# 4 0.000000 0.000000 0.000000 0.039126 0.000000 0.000000
# 5 0.000000 0.000000 0.000000 0.000000 0.035085 0.000000
# 6 0.000000 0.000000 0.000000 0.000000 0.000000 0.037700
#
#
# Mechanical properties :
#
#
# Convention : Reuss Voigt Hill
#
# Bulk Modulus (GPa) = 61.38624 74.16899 67.77762
# Shear Modulus (GPa) = 26.01823 27.25063 26.63443
#
# Velocity S-wave (km/s) = 3.63769 3.72285 3.68052
# Velocity P-wave (km/s) = 6.99033 7.49678 7.24798
#
# Compressibility (1/GPa) = 0.01629029
#
# Stress axis : x y z
#
# Youngs Moduli (GPa) = 48.89561 83.17184 76.41894
#
# Poissons Ratio (x) = 0.19618 0.48736
# Poissons Ratio (y) = 0.11533 0.45079
# Poissons Ratio (z) = 0.31183 0.49063
#
# Static dielectric constant tensor:
#      x y z
#    x 3.442050 0.000000 0.000000 
#    y 0.000000 3.702710 0.000000 
#    z 0.000000 0.000000 3.609850 
# 
# 
# High freq. dielectric constant tensor:
#      x y z
#    x 1.755640 0.000000 0.000000 
#    y 0.000000 1.774020 0.000000 
#    z 0.000000 0.000000 1.763190 
# 
# From -- ./inp_files/16650.got.cif
#   From: 2010.03.12/outbox.cif.g09.slc.cpg/sg36_9_cif.got.tgz:16650.got - 2010.04.14 02:13:53.
