data_PCOD8174437
_publ_section_title
;
Structure prediction by ZEFSAII (Michael W. Deem and Ramdas Pophale) SiO2 
 PCOD8174437
Probable space group: C M C 21
;
_chemical_formula_sum "Si O2"
_cell_formula_units_Z 64
_cell_length_a 19.764960
_cell_length_b 11.448779
_cell_length_c 14.164870
_cell_angle_alpha 90.000000
_cell_angle_beta 90.000000
_cell_angle_gamma 90.000000
_cell_volume 3205.292778
_symmetry_space_group_name_H-M "C M C 21"
_symmetry_group_IT_number 36
_symmetry_cell_setting 'orthorhombic'
loop_
_space_group_symop_operation_xyz
x,y,z
-x,-y,1/2+z
x,-y,1/2+z
-x,y,z
1/2+x,1/2+y,z
1/2-x,1/2-y,1/2+z
1/2+x,1/2-y,1/2+z
1/2-x,1/2+y,z
loop_
_atom_site_type_symbol
_atom_site_label
_atom_site_fract_x
_atom_site_fract_y
_atom_site_fract_z
Si Si1 0.800424 0.291307 0.048740
Si Si2 0.699827 0.121545 0.839533
Si Si3 0.313370 0.344228 0.726543
Si Si4 0.577028 0.479891 0.250597
Si Si5 0.813604 0.514932 0.160600
Si Si6 0.849976 0.700601 0.026783
Si Si7 0.422899 0.568525 0.533653
Si Si8 0.345004 0.385772 0.407173
O O1 0.837604 0.225902 0.134625
O O2 0.807182 0.428577 0.069948
O O3 0.721466 0.263322 0.042817
O O4 0.837621 0.243090 0.954282
O O5 0.716127 0.253140 0.802953
O O6 0.772372 0.067040 0.869390
O O7 0.661009 0.047920 0.757027
O O8 0.651382 0.124265 0.930719
O O9 0.378221 0.405988 0.774154
O O10 0.259575 0.438445 0.690512
O O11 0.500000 0.510465 0.273979
O O12 0.588824 0.443283 0.144351
O O13 0.603055 0.375908 0.319422
O O14 0.861986 0.617792 0.119565
O O15 0.908305 0.795646 0.013186
O O16 0.500000 0.540202 0.504257
O O17 0.372389 0.481574 0.480945
#
# Coordination Sequence:
#
# PCOD8174437 Si02
#       8
#     8   8   8   8   8   8   8   8
#     4   9  20  33  56  84 122 155 191 253 308 360
#     4  10  22  32  58  92 119 159 192 251 311 368
#     4  10  18  36  55  82 126 156 197 246 303 366
#     4  11  22  36  61  88 121 164 203 248 302 367
#     4  10  20  36  57  86 121 158 191 252 309 359
#     4  10  22  35  59  87 119 160 201 245 308 369
#     4  11  24  42  62  86 124 164 208 257 299 367
#     4  11  21  36  58  89 125 156 199 252 306 366
#
# _framework density 19.966975000000001
#
# number of rings (size 3 to 8) (size 9 to 14) (size 15 to 20)
#    0.000    1.750    2.500    1.875    7.000    1.000 
#    0.000    0.000    0.000    5.250    0.000    0.000 
#    0.000    0.000    0.000    0.000    0.000    0.000 
#
# Total GULP energy -396562.447729 kJ/mol
# GULP energy per Si atom -12392.576492 kJ/mol
# Density = 1.992153 g / cm^3
# Si number density = 19.966975 Si / 1000 Ang^3
#
#
#
# Elastic Constant Matrix: (Units=GPa)
#
#
# Indices 1 2 3 4 5 6 
#
# 1 58.1245 27.7077 35.8282 0.0000 0.0000 0.0000
# 2 27.7077 83.5815 35.5857 0.0000 0.0000 0.0000
# 3 35.8282 35.5857 110.9910 0.0000 0.0000 0.0000
# 4 0.0000 0.0000 0.0000 30.9791 0.0000 0.0000
# 5 0.0000 0.0000 0.0000 0.0000 25.3815 0.0000
# 6 0.0000 0.0000 0.0000 0.0000 0.0000 25.0503
#
#
#
# Elastic Compliance Matrix: (Units=1/GPa)
#
#
# Indices 1 2 3 4 5 6 
#
# 1 0.023303 -0.005237 -0.005843 0.000000 0.000000 0.000000
# 2 -0.005237 0.015033 -0.003129 0.000000 0.000000 0.000000
# 3 -0.005843 -0.003129 0.011899 0.000000 0.000000 0.000000
# 4 0.000000 0.000000 0.000000 0.032280 0.000000 0.000000
# 5 0.000000 0.000000 0.000000 0.000000 0.039399 0.000000
# 6 0.000000 0.000000 0.000000 0.000000 0.000000 0.039920
#
#
# Mechanical properties :
#
#
# Convention : Reuss Voigt Hill
#
# Bulk Modulus (GPa) = 45.83843 50.10450 47.97146
# Shear Modulus (GPa) = 25.31339 26.52053 25.91696
#
# Velocity S-wave (km/s) = 3.56443 3.64843 3.60667
# Velocity P-wave (km/s) = 6.32038 6.54952 6.43597
#
# Compressibility (1/GPa) = 0.02181576
#
# Stress axis : x y z
#
# Youngs Moduli (GPa) = 42.91346 66.52100 84.03953
#
# Poissons Ratio (x) = 0.34839 0.49105
# Poissons Ratio (y) = 0.22475 0.26298
# Poissons Ratio (z) = 0.25074 0.20816
#
# Static dielectric constant tensor:
#      x y z
#    x 3.249480 0.000000 0.000000 
#    y 0.000000 3.732250 0.000000 
#    z 0.000000 0.000000 4.054910 
# 
# 
# High freq. dielectric constant tensor:
#      x y z
#    x 1.723370 0.000000 0.000000 
#    y 0.000000 1.771530 0.000000 
#    z 0.000000 0.000000 1.807790 
# 
# From -- ./inp_files/12630.got.cif
#   From: 2010.03.12/outbox.cif.g09.slc.cpg/sg36_7_cif.got.tgz:12630.got - 2010.04.14 02:13:53.
