data_PCOD8174786
_publ_section_title
;
Structure prediction by ZEFSAII (Michael W. Deem and Ramdas Pophale) SiO2 
 PCOD8174786
Probable space group: C M C 21
;
_chemical_formula_sum "Si O2"
_cell_formula_units_Z 64
_cell_length_a 9.199125
_cell_length_b 28.634682
_cell_length_c 14.037779
_cell_angle_alpha 90.000000
_cell_angle_beta 90.000000
_cell_angle_gamma 90.000000
_cell_volume 3697.747785
_symmetry_space_group_name_H-M "C M C 21"
_symmetry_group_IT_number 36
_symmetry_cell_setting 'orthorhombic'
loop_
_space_group_symop_operation_xyz
x,y,z
-x,-y,1/2+z
x,-y,1/2+z
-x,y,z
1/2+x,1/2+y,z
1/2-x,1/2-y,1/2+z
1/2+x,1/2-y,1/2+z
1/2-x,1/2+y,z
loop_
_atom_site_type_symbol
_atom_site_label
_atom_site_fract_x
_atom_site_fract_y
_atom_site_fract_z
Si Si1 0.828754 0.072427 0.553910
Si Si2 0.669250 0.233261 0.368753
Si Si3 0.829906 0.821848 0.020048
Si Si4 0.168827 0.818470 0.503545
Si Si5 0.337106 0.508693 0.382947
Si Si6 0.336379 0.593110 0.891969
Si Si7 0.172507 0.454974 0.239464
Si Si8 0.328837 0.762327 0.652899
O O1 0.783287 0.126472 0.551072
O O2 0.736094 0.046277 0.633778
O O3 0.000000 0.065721 0.574069
O O4 0.783504 0.049151 0.453427
O O5 0.500000 0.221375 0.370900
O O6 0.751045 0.191195 0.421622
O O7 0.703782 0.282064 0.419764
O O8 0.727407 0.237619 0.261086
O O9 0.781650 0.786461 0.103888
O O10 0.000000 0.819002 0.999997
O O11 0.223170 0.869093 0.467059
O O12 0.256527 0.805800 0.598475
O O13 0.000000 0.818904 0.530506
O O14 0.500000 0.519970 0.345726
O O15 0.338486 0.458645 0.439511
O O16 0.229766 0.502632 0.291750
O O17 0.500000 0.608020 0.859614
O O18 0.234205 0.590283 0.797647
O O19 0.000000 0.454387 0.236895
O O20 0.500000 0.768978 0.647684
#
# Coordination Sequence:
#
# PCOD8174786 Si02
#       8
#     8   8   8   8   8   8   8   8
#     4  10  19  34  57  78 101 136 175 213 251 300
#     4   9  18  32  49  70 101 136 166 204 257 307
#     4   9  19  33  52  77 101 131 172 215 252 295
#     4   9  17  30  51  73  95 128 169 210 249 294
#     4   8  17  34  53  73  98 130 169 211 250 296
#     4   8  16  32  52  72  95 125 165 207 246 293
#     4  10  20  32  50  78 106 131 162 205 258 306
#     4   9  18  31  48  71 101 135 168 205 255 307
#
# _framework density 17.307832000000001
#
# number of rings (size 3 to 8) (size 9 to 14) (size 15 to 20)
#    0.750    2.250    0.000    0.750    1.750    2.000 
#    0.000    1.250    0.000    6.000    0.000    0.000 
#    0.000    0.000    0.000    0.000    0.000    0.000 
#
# Total GULP energy -396597.416305 kJ/mol
# GULP energy per Si atom -12393.669260 kJ/mol
# Density = 1.726844 g / cm^3
# Si number density = 17.307832 Si / 1000 Ang^3
#
#
#
# Elastic Constant Matrix: (Units=GPa)
#
#
# Indices 1 2 3 4 5 6 
#
# 1 61.7270 23.9849 44.5283 0.0000 0.0000 0.0000
# 2 23.9849 48.3134 27.3361 0.0000 0.0000 0.0000
# 3 44.5283 27.3361 112.0728 0.0000 0.0000 0.0000
# 4 0.0000 0.0000 0.0000 23.0003 0.0000 0.0000
# 5 0.0000 0.0000 0.0000 0.0000 29.4279 0.0000
# 6 0.0000 0.0000 0.0000 0.0000 0.0000 20.3837
#
#
#
# Elastic Compliance Matrix: (Units=1/GPa)
#
#
# Indices 1 2 3 4 5 6 
#
# 1 0.025063 -0.007898 -0.008031 0.000000 0.000000 0.000000
# 2 -0.007898 0.026501 -0.003326 0.000000 0.000000 0.000000
# 3 -0.008031 -0.003326 0.012925 0.000000 0.000000 0.000000
# 4 0.000000 0.000000 0.000000 0.043478 0.000000 0.000000
# 5 0.000000 0.000000 0.000000 0.000000 0.033981 0.000000
# 6 0.000000 0.000000 0.000000 0.000000 0.000000 0.049059
#
#
# Mechanical properties :
#
#
# Convention : Reuss Voigt Hill
#
# Bulk Modulus (GPa) = 38.49404 45.97909 42.23657
# Shear Modulus (GPa) = 20.99275 22.97995 21.98635
#
# Velocity S-wave (km/s) = 3.48646 3.64774 3.56801
# Velocity P-wave (km/s) = 6.20454 6.66067 6.43664
#
# Compressibility (1/GPa) = 0.02597805
#
# Stress axis : x y z
#
# Youngs Moduli (GPa) = 39.89942 37.73439 77.36918
#
# Poissons Ratio (x) = 0.29803 0.62139
# Poissons Ratio (y) = 0.31513 0.25732
# Poissons Ratio (z) = 0.32045 0.12550
#
# Static dielectric constant tensor:
#      x y z
#    x 3.078970 0.000000 0.000000 
#    y 0.000000 3.162930 0.000000 
#    z 0.000000 0.000000 3.153940 
# 
# 
# High freq. dielectric constant tensor:
#      x y z
#    x 1.657430 0.000000 0.000000 
#    y 0.000000 1.654470 0.000000 
#    z 0.000000 0.000000 1.657190 
# 
# From -- ./inp_files/11181.got.cif
#   From: 2010.03.12/outbox.cif.g09.slc.cpg/sg36_6_cif.got.tgz:11181.got - 2010.04.14 02:13:53.
