data_PCOD8174673
_publ_section_title
;
Structure prediction by ZEFSAII (Michael W. Deem and Ramdas Pophale) SiO2 
 PCOD8174673
Probable space group: C M C 21
;
_chemical_formula_sum "Si O2"
_cell_formula_units_Z 48
_cell_length_a 9.074437
_cell_length_b 18.287076
_cell_length_c 16.337134
_cell_angle_alpha 90.000000
_cell_angle_beta 90.000000
_cell_angle_gamma 90.000000
_cell_volume 2711.064380
_symmetry_space_group_name_H-M "C M C 21"
_symmetry_group_IT_number 36
_symmetry_cell_setting 'orthorhombic'
loop_
_space_group_symop_operation_xyz
x,y,z
-x,-y,1/2+z
x,-y,1/2+z
-x,y,z
1/2+x,1/2+y,z
1/2-x,1/2-y,1/2+z
1/2+x,1/2-y,1/2+z
1/2-x,1/2+y,z
loop_
_atom_site_type_symbol
_atom_site_label
_atom_site_fract_x
_atom_site_fract_y
_atom_site_fract_z
Si Si1 0.831227 0.179021 0.086510
Si Si2 0.168936 0.547180 0.636913
Si Si3 0.665840 0.413059 0.891891
Si Si4 0.334622 0.535652 0.004191
Si Si5 0.671566 0.907450 0.729296
Si Si6 0.670449 0.328651 0.060055
O O1 0.761839 0.143003 0.167183
O O2 0.748136 0.251095 0.059681
O O3 0.000000 0.197869 0.106491
O O4 0.819560 0.123474 0.008531
O O5 0.205860 0.497321 0.559163
O O6 0.201065 0.494387 0.714532
O O7 0.266902 0.620737 0.634100
O O8 0.000000 0.571746 0.633558
O O9 0.500000 0.397110 0.861458
O O10 0.683721 0.499937 0.914005
O O11 0.777803 0.389691 0.821245
O O12 0.702061 0.366507 0.973058
O O13 0.500000 0.513114 0.036822
O O14 0.500000 0.888505 0.719221
O O15 0.500000 0.316230 0.076972
#
# Coordination Sequence:
#
# PCOD8174673 Si02
#       6
#     8   8   8   8   8   8
#     4  10  19  33  54  76 101 135 171 208 253 304
#     4   9  17  30  49  72  96 126 165 204 242 291
#     4   9  18  33  52  73  99 132 169 209 253 299
#     4   8  16  31  50  72  96 125 162 201 243 293
#     4  10  20  33  51  76 103 131 167 210 254 300
#     4  10  20  34  52  75 103 135 170 208 251 301
#
# _framework density 17.705224000000001
#
# number of rings (size 3 to 8) (size 9 to 14) (size 15 to 20)
#    0.000    2.667    0.000    3.000    0.000    6.000 
#    0.000    1.667    0.000    8.000    0.000    0.000 
#    0.000    0.000    0.000    0.000    0.000    0.000 
#
# Total GULP energy -297397.158994 kJ/mol
# GULP energy per Si atom -12391.548291 kJ/mol
# Density = 1.766493 g / cm^3
# Si number density = 17.705224 Si / 1000 Ang^3
#
#
#
# Elastic Constant Matrix: (Units=GPa)
#
#
# Indices 1 2 3 4 5 6 
#
# 1 113.7672 60.1730 42.7531 0.0000 0.0000 0.0000
# 2 60.1730 117.3239 32.5671 0.0000 0.0000 0.0000
# 3 42.7531 32.5671 64.0523 0.0000 0.0000 0.0000
# 4 0.0000 0.0000 0.0000 16.0622 0.0000 0.0000
# 5 0.0000 0.0000 0.0000 0.0000 24.0350 0.0000
# 6 0.0000 0.0000 0.0000 0.0000 0.0000 33.1584
#
#
#
# Elastic Compliance Matrix: (Units=1/GPa)
#
#
# Indices 1 2 3 4 5 6 
#
# 1 0.014170 -0.005405 -0.006710 0.000000 0.000000 0.000000
# 2 -0.005405 0.011986 -0.002486 0.000000 0.000000 0.000000
# 3 -0.006710 -0.002486 0.021355 0.000000 0.000000 0.000000
# 4 0.000000 0.000000 0.000000 0.062258 0.000000 0.000000
# 5 0.000000 0.000000 0.000000 0.000000 0.041606 0.000000
# 6 0.000000 0.000000 0.000000 0.000000 0.000000 0.030158
#
#
# Mechanical properties :
#
#
# Convention : Reuss Voigt Hill
#
# Bulk Modulus (GPa) = 54.62029 62.90332 58.76181
# Shear Modulus (GPa) = 23.05853 25.29445 24.17649
#
# Velocity S-wave (km/s) = 3.61273 3.78384 3.69928
# Velocity P-wave (km/s) = 6.95121 7.39562 7.17685
#
# Compressibility (1/GPa) = 0.01830821
#
# Stress axis : x y z
#
# Youngs Moduli (GPa) = 70.57011 83.43257 46.82687
#
# Poissons Ratio (x) = 0.45096 0.31421
# Poissons Ratio (y) = 0.38143 0.11643
# Poissons Ratio (z) = 0.47353 0.20745
#
# Static dielectric constant tensor:
#      x y z
#    x 3.371710 0.000000 0.000000 
#    y 0.000000 3.390630 0.000000 
#    z 0.000000 0.000000 3.020380 
# 
# 
# High freq. dielectric constant tensor:
#      x y z
#    x 1.699630 0.000000 0.000000 
#    y 0.000000 1.681420 0.000000 
#    z 0.000000 0.000000 1.649200 
# 
# From -- ./inp_files/10382.got.cif
#   From: 2010.03.12/outbox.cif.g09.slc.cpg/sg36_6_cif.got.tgz:10382.got - 2010.04.14 02:13:53.
