data_PCOD8174231
_publ_section_title
;
Structure prediction by ZEFSAII (Michael W. Deem and Ramdas Pophale) SiO2 
 PCOD8174231
Probable space group: C M C 21
;
_chemical_formula_sum "Si O2"
_cell_formula_units_Z 64
_cell_length_a 28.012973
_cell_length_b 14.838626
_cell_length_c 8.652299
_cell_angle_alpha 90.000000
_cell_angle_beta 90.000000
_cell_angle_gamma 90.000000
_cell_volume 3596.535990
_symmetry_space_group_name_H-M "C M C 21"
_symmetry_group_IT_number 36
_symmetry_cell_setting 'orthorhombic'
loop_
_space_group_symop_operation_xyz
x,y,z
-x,-y,1/2+z
x,-y,1/2+z
-x,y,z
1/2+x,1/2+y,z
1/2-x,1/2-y,1/2+z
1/2+x,1/2-y,1/2+z
1/2-x,1/2+y,z
loop_
_atom_site_type_symbol
_atom_site_label
_atom_site_fract_x
_atom_site_fract_y
_atom_site_fract_z
Si Si1 0.863126 0.279717 0.705450
Si Si2 0.053681 0.404415 0.339470
Si Si3 0.824676 0.905986 0.205500
Si Si4 0.278550 0.094664 0.206494
Si Si5 0.824676 0.094015 0.340063
Si Si6 0.221449 0.405336 0.339070
Si Si7 0.136874 0.279717 0.340114
Si Si8 0.053681 0.595586 0.206097
O O1 0.860573 0.174662 0.755131
O O2 0.815890 0.330638 0.765564
O O3 0.864080 0.287643 0.522782
O O4 0.911086 0.326617 0.771502
O O5 0.088914 0.326618 0.274064
O O6 0.070573 0.500001 0.272784
O O7 0.056284 0.410674 0.522783
O O8 0.000000 0.381171 0.283610
O O9 0.772969 0.881336 0.271306
O O10 0.844555 0.000000 0.272781
O O11 0.820441 0.915006 0.022782
O O12 0.227031 0.118665 0.274257
O O13 0.296898 0.000000 0.272782
O O14 0.274930 0.089295 0.022782
O O15 0.860573 0.174663 0.290432
O O16 0.184110 0.330639 0.279999
O O17 0.000000 0.618830 0.261955
#
# Coordination Sequence:
#
# PCOD8174231 Si02
#       8
#     8   8   8   8   8   8   8   8
#     4   9  18  30  46  67  90 118 150 183 218 262
#     4   9  17  31  50  71  94 118 144 176 218 266
#     4  10  19  32  46  62  88 119 153 188 221 257
#     4  10  18  29  44  65  93 120 148 180 218 262
#     4  10  19  32  46  62  88 119 153 188 221 257
#     4  10  18  29  44  65  93 120 148 180 218 262
#     4   9  18  30  46  67  90 118 150 183 218 262
#     4   9  17  31  50  71  94 118 144 176 218 266
#
# _framework density 17.794899999999998
#
# number of rings (size 3 to 8) (size 9 to 14) (size 15 to 20)
#    0.000    2.500    0.000    4.500    0.000    0.000 
#    0.000    7.500    0.000    0.750    0.000    0.000 
#    0.000    0.000    0.000    0.000    0.000    1.000 
#
# Total GULP energy -396675.218631 kJ/mol
# GULP energy per Si atom -12396.100582 kJ/mol
# Density = 1.775440 g / cm^3
# Si number density = 17.794900 Si / 1000 Ang^3
#
#
#
# Elastic Constant Matrix: (Units=GPa)
#
#
# Indices 1 2 3 4 5 6 
#
# 1 99.2823 91.0686 21.2408 0.0000 0.0000 0.0000
# 2 91.0686 165.1800 30.6609 0.0000 0.0000 0.0000
# 3 21.2408 30.6609 53.2304 0.0000 0.0000 0.0000
# 4 0.0000 0.0000 0.0000 24.7597 0.0000 0.0000
# 5 0.0000 0.0000 0.0000 0.0000 15.3823 0.0000
# 6 0.0000 0.0000 0.0000 0.0000 0.0000 33.5264
#
#
#
# Elastic Compliance Matrix: (Units=1/GPa)
#
#
# Indices 1 2 3 4 5 6 
#
# 1 0.020543 -0.010978 -0.001874 0.000000 0.000000 0.000000
# 2 -0.010978 0.012646 -0.002903 0.000000 0.000000 0.000000
# 3 -0.001874 -0.002903 0.021206 0.000000 0.000000 0.000000
# 4 0.000000 0.000000 0.000000 0.040388 0.000000 0.000000
# 5 0.000000 0.000000 0.000000 0.000000 0.065010 0.000000
# 6 0.000000 0.000000 0.000000 0.000000 0.000000 0.029827
#
#
# Mechanical properties :
#
#
# Convention : Reuss Voigt Hill
#
# Bulk Modulus (GPa) = 43.69812 67.07037 55.38424
# Shear Modulus (GPa) = 21.85709 26.38186 24.11947
#
# Velocity S-wave (km/s) = 3.50848 3.85457 3.68559
# Velocity P-wave (km/s) = 6.40488 7.58834 7.02159
#
# Compressibility (1/GPa) = 0.02288428
#
# Stress axis : x y z
#
# Youngs Moduli (GPa) = 48.67791 79.07950 47.15588
#
# Poissons Ratio (x) = 0.86815 0.08837
# Poissons Ratio (y) = 0.53440 0.13690
# Poissons Ratio (z) = 0.09122 0.22958
#
# Static dielectric constant tensor:
#      x y z
#    x 3.422320 0.000000 0.000000 
#    y 0.000000 3.557200 0.000000 
#    z 0.000000 0.000000 3.137380 
# 
# 
# High freq. dielectric constant tensor:
#      x y z
#    x 1.668180 0.000000 0.000000 
#    y 0.000000 1.693410 0.000000 
#    z 0.000000 0.000000 1.674850 
# 
# From -- ./inp_files/6133.got.cif
#   From: 2010.03.12/outbox.cif.g09.slc.cpg/sg36_4_cif.got.tgz:6133.got - 2010.04.14 02:13:53.
