data_PCOD8174205
_publ_section_title
;
Structure prediction by ZEFSAII (Michael W. Deem and Ramdas Pophale) SiO2 
 PCOD8174205
Probable space group: C M C 21
;
_chemical_formula_sum "Si O2"
_cell_formula_units_Z 40
_cell_length_a 22.651125
_cell_length_b 24.496894
_cell_length_c 4.968891
_cell_angle_alpha 90.000000
_cell_angle_beta 90.000000
_cell_angle_gamma 90.000000
_cell_volume 2757.149210
_symmetry_space_group_name_H-M "C M C 21"
_symmetry_group_IT_number 36
_symmetry_cell_setting 'orthorhombic'
loop_
_space_group_symop_operation_xyz
x,y,z
-x,-y,1/2+z
x,-y,1/2+z
-x,y,z
1/2+x,1/2+y,z
1/2-x,1/2-y,1/2+z
1/2+x,1/2-y,1/2+z
1/2-x,1/2+y,z
loop_
_atom_site_type_symbol
_atom_site_label
_atom_site_fract_x
_atom_site_fract_y
_atom_site_fract_z
Si Si1 0.679416 0.353047 0.777920
Si Si2 0.872591 0.205060 0.777962
Si Si3 0.725508 0.222586 0.165762
Si Si4 0.621844 0.463827 0.780745
Si Si5 0.000000 0.828611 0.286286
Si Si6 0.500000 0.596912 0.286858
O O1 0.640442 0.316472 0.576237
O O2 0.749368 0.337801 0.739549
O O3 0.670674 0.417141 0.727313
O O4 0.656569 0.338674 0.075300
O O5 0.843727 0.265589 0.730407
O O6 0.942801 0.209152 0.736122
O O7 0.762500 0.265283 0.352401
O O8 0.631241 0.513915 0.579774
O O9 0.556866 0.439951 0.736294
O O10 0.000000 0.851730 0.587547
O O11 0.000000 0.880687 0.089752
#
# Coordination Sequence:
#
# PCOD8174205 Si02
#       6
#     8   8   8   8   4   4
#     4  10  18  32  43  57  78 101 136 173 203 236
#     4  10  17  29  44  62  78 102 131 161 206 245
#     4   8  16  27  45  60  74  96 127 165 203 246
#     4  12  22  32  42  56  77 110 147 178 202 224
#     4  12  18  29  46  60  84 108 132 171 200 240
#     4  12  22  33  40  54  82 114 144 173 202 222
#
# _framework density 14.50774
#
# number of rings (size 3 to 8) (size 9 to 14) (size 15 to 20)
#    0.000    1.600    4.000    3.000    0.000    0.000 
#    0.000    0.000    0.000    0.000    0.000    0.000 
#    0.000    0.000    0.000    1.800    0.000    0.000 
#
# Total GULP energy -247892.343331 kJ/mol
# GULP energy per Si atom -12394.617167 kJ/mol
# Density = 1.447472 g / cm^3
# Si number density = 14.507740 Si / 1000 Ang^3
#
#
#
# Elastic Constant Matrix: (Units=GPa)
#
#
# Indices 1 2 3 4 5 6 
#
# 1 83.1151 54.9236 7.1487 0.0000 0.0000 0.0000
# 2 54.9236 65.3438 4.7150 0.0000 0.0000 0.0000
# 3 7.1487 4.7150 54.9631 0.0000 0.0000 0.0000
# 4 0.0000 0.0000 0.0000 19.8175 0.0000 0.0000
# 5 0.0000 0.0000 0.0000 0.0000 14.0949 0.0000
# 6 0.0000 0.0000 0.0000 0.0000 0.0000 15.3308
#
#
#
# Elastic Compliance Matrix: (Units=1/GPa)
#
#
# Indices 1 2 3 4 5 6 
#
# 1 0.027200 -0.022748 -0.001586 0.000000 0.000000 0.000000
# 2 -0.022748 0.034424 0.000006 0.000000 0.000000 0.000000
# 3 -0.001586 0.000006 0.018400 0.000000 0.000000 0.000000
# 4 0.000000 0.000000 0.000000 0.050460 0.000000 0.000000
# 5 0.000000 0.000000 0.000000 0.000000 0.070948 0.000000
# 6 0.000000 0.000000 0.000000 0.000000 0.000000 0.065228
#
#
# Mechanical properties :
#
#
# Convention : Reuss Voigt Hill
#
# Bulk Modulus (GPa) = 31.88142 37.44409 34.66275
# Shear Modulus (GPa) = 15.34809 18.95763 17.15286
#
# Velocity S-wave (km/s) = 3.25610 3.61879 3.44223
# Velocity P-wave (km/s) = 6.01327 6.58229 6.30421
#
# Compressibility (1/GPa) = 0.03136623
#
# Stress axis : x y z
#
# Youngs Moduli (GPa) = 36.76428 29.04958 54.34823
#
# Poissons Ratio (x) = 0.66083 0.08621
# Poissons Ratio (y) = 0.83632 -0.00031
# Poissons Ratio (z) = 0.05832 -0.00016
#
# Static dielectric constant tensor:
#      x y z
#    x 2.990480 0.000000 0.000000 
#    y 0.000000 2.697890 0.000000 
#    z 0.000000 0.000000 3.011830 
# 
# 
# High freq. dielectric constant tensor:
#      x y z
#    x 1.531950 0.000000 0.000000 
#    y 0.000000 1.511510 0.000000 
#    z 0.000000 0.000000 1.583660 
# 
# From -- ./inp_files/520.got.cif
#   From: 2010.03.12/outbox.cif.g09.slc.cpg/sg36_1_cif.got.tgz:520.got - 2010.04.14 02:13:53.
