data_PCOD8174442
_publ_section_title
;
Structure prediction by ZEFSAII (Michael W. Deem and Ramdas Pophale) SiO2 
 PCOD8174442
Probable space group: C M C 21
;
_chemical_formula_sum "Si O2"
_cell_formula_units_Z 64
_cell_length_a 8.949915
_cell_length_b 19.765781
_cell_length_c 18.675389
_cell_angle_alpha 90.000000
_cell_angle_beta 90.000000
_cell_angle_gamma 90.000000
_cell_volume 3303.714783
_symmetry_space_group_name_H-M "C M C 21"
_symmetry_group_IT_number 36
_symmetry_cell_setting 'orthorhombic'
loop_
_space_group_symop_operation_xyz
x,y,z
-x,-y,1/2+z
x,-y,1/2+z
-x,y,z
1/2+x,1/2+y,z
1/2-x,1/2-y,1/2+z
1/2+x,1/2-y,1/2+z
1/2-x,1/2+y,z
loop_
_atom_site_type_symbol
_atom_site_label
_atom_site_fract_x
_atom_site_fract_y
_atom_site_fract_z
Si Si1 0.322837 0.949794 0.541240
Si Si2 0.826259 0.874860 0.227707
Si Si3 0.677308 0.372462 0.811049
Si Si4 0.177505 0.171806 0.574793
Si Si5 0.177689 0.935793 0.958725
Si Si6 0.177516 0.722184 0.837700
Si Si7 0.322563 0.802793 0.497526
Si Si8 0.325925 0.474212 0.690660
O O1 0.500000 0.954975 0.539229
O O2 0.265009 0.873827 0.527830
O O3 0.265552 0.975167 0.617635
O O4 0.254645 0.993141 0.476461
O O5 0.760445 0.846277 0.153034
O O6 0.738556 0.839273 0.291207
O O7 0.000000 0.857200 0.235402
O O8 0.799200 0.955290 0.232059
O O9 0.500000 0.372893 0.814244
O O10 0.736630 0.410129 0.881993
O O11 0.735915 0.295044 0.808565
O O12 0.732884 0.413274 0.741129
O O13 0.234791 0.117155 0.517886
O O14 0.238304 0.245237 0.551339
O O15 0.000000 0.169879 0.575634
O O16 0.000000 0.944722 0.959851
O O17 0.238838 0.711612 0.917982
O O18 0.000000 0.720026 0.835878
O O19 0.500000 0.800475 0.494963
O O20 0.500000 0.465965 0.671373
#
# Coordination Sequence:
#
# PCOD8174442 Si02
#       8
#     8   8   8   8   8   8   8   8
#     4  11  23  36  54  83 114 144 181 229 278 328
#     4  10  21  35  55  82 111 143 181 225 272 325
#     4   9  19  35  60  85 107 142 190 231 270 324
#     4   9  16  33  58  77  99 142 188 219 260 324
#     4  10  18  36  63  82 102 143 189 230 271 321
#     4  10  20  37  58  81 110 145 182 223 271 328
#     4   9  19  35  55  78 108 144 185 222 265 330
#     4  10  21  39  57  80 111 145 186 229 271 326
#
# _framework density 19.372133000000002
#
# number of rings (size 3 to 8) (size 9 to 14) (size 15 to 20)
#    0.000    2.250    2.500    0.375    3.500    0.500 
#    0.000    1.875    0.000    2.250    0.000    0.000 
#    0.000    0.000    0.000    0.000    0.000    0.000 
#
# Total GULP energy -396805.746650 kJ/mol
# GULP energy per Si atom -12400.179583 kJ/mol
# Density = 1.932804 g / cm^3
# Si number density = 19.372133 Si / 1000 Ang^3
#
#
#
# Elastic Constant Matrix: (Units=GPa)
#
#
# Indices 1 2 3 4 5 6 
#
# 1 27.3744 22.3260 12.9071 0.0000 0.0000 0.0000
# 2 22.3260 118.5737 22.4843 0.0000 0.0000 0.0000
# 3 12.9071 22.4843 69.9524 0.0000 0.0000 0.0000
# 4 0.0000 0.0000 0.0000 42.7880 0.0000 0.0000
# 5 0.0000 0.0000 0.0000 0.0000 19.9907 0.0000
# 6 0.0000 0.0000 0.0000 0.0000 0.0000 20.7831
#
#
#
# Elastic Compliance Matrix: (Units=1/GPa)
#
#
# Indices 1 2 3 4 5 6 
#
# 1 0.045402 -0.007412 -0.005995 0.000000 0.000000 0.000000
# 2 -0.007412 0.010191 -0.001908 0.000000 0.000000 0.000000
# 3 -0.005995 -0.001908 0.016015 0.000000 0.000000 0.000000
# 4 0.000000 0.000000 0.000000 0.023371 0.000000 0.000000
# 5 0.000000 0.000000 0.000000 0.000000 0.050023 0.000000
# 6 0.000000 0.000000 0.000000 0.000000 0.000000 0.048116
#
#
# Mechanical properties :
#
#
# Convention : Reuss Voigt Hill
#
# Bulk Modulus (GPa) = 24.40316 36.81502 30.60909
# Shear Modulus (GPa) = 21.06085 27.25791 24.15938
#
# Velocity S-wave (km/s) = 3.30081 3.75516 3.53529
# Velocity P-wave (km/s) = 5.21071 6.15199 5.70081
#
# Compressibility (1/GPa) = 0.04097829
#
# Stress axis : x y z
#
# Youngs Moduli (GPa) = 22.02537 98.12629 62.44204
#
# Poissons Ratio (x) = 0.72730 0.37434
# Poissons Ratio (y) = 0.16325 0.11914
# Poissons Ratio (z) = 0.13204 0.18723
#
# Static dielectric constant tensor:
#      x y z
#    x 3.032820 0.000000 0.000000 
#    y 0.000000 3.825530 0.000000 
#    z 0.000000 0.000000 3.653300 
# 
# 
# High freq. dielectric constant tensor:
#      x y z
#    x 1.703980 0.000000 0.000000 
#    y 0.000000 1.771570 0.000000 
#    z 0.000000 0.000000 1.761990 
# 
# From -- ./inp_files/13877.got.cif
#   From: 2010.03.12/outbox.cif.g09.slc.cpg/sg36_7_cif.got.tgz:13877.got - 2010.04.14 02:13:53.
