data_PCOD8174452
_publ_section_title
;
Structure prediction by ZEFSAII (Michael W. Deem and Ramdas Pophale) SiO2 
 PCOD8174452
Probable space group: C M C 21
;
_chemical_formula_sum "Si O2"
_cell_formula_units_Z 44
_cell_length_a 7.691324
_cell_length_b 18.331805
_cell_length_c 17.804728
_cell_angle_alpha 90.000000
_cell_angle_beta 90.000000
_cell_angle_gamma 90.000000
_cell_volume 2510.392790
_symmetry_space_group_name_H-M "C M C 21"
_symmetry_group_IT_number 36
_symmetry_cell_setting 'orthorhombic'
loop_
_space_group_symop_operation_xyz
x,y,z
-x,-y,1/2+z
x,-y,1/2+z
-x,y,z
1/2+x,1/2+y,z
1/2-x,1/2-y,1/2+z
1/2+x,1/2-y,1/2+z
1/2-x,1/2+y,z
loop_
_atom_site_type_symbol
_atom_site_label
_atom_site_fract_x
_atom_site_fract_y
_atom_site_fract_z
Si Si1 0.299616 0.512437 0.032720
Si Si2 0.500000 0.314790 0.723643
Si Si3 0.500000 0.952313 0.232140
Si Si4 0.000000 0.758948 0.557916
Si Si5 0.000000 0.590608 0.559619
Si Si6 0.311233 0.452626 0.701169
Si Si7 0.000000 0.685605 0.839309
Si Si8 0.309338 0.653332 0.945420
O O1 0.500000 0.487228 0.024499
O O2 0.172739 0.443770 0.022308
O O3 0.262783 0.548498 0.113469
O O4 0.250559 0.572495 0.970371
O O5 0.500000 0.269835 0.646706
O O6 0.329072 0.367811 0.727614
O O7 0.500000 0.259065 0.791569
O O8 0.331839 0.002918 0.247883
O O9 0.500000 0.919598 0.149043
O O10 0.500000 0.886362 0.289456
O O11 0.171024 0.796224 0.520288
O O12 0.000000 0.674386 0.538128
O O13 0.500000 0.491819 0.712097
O O14 0.171436 0.688066 0.889661
O O15 0.500000 0.649278 0.905408
#
# Coordination Sequence:
#
# PCOD8174452 Si02
#       8
#     8   4   4   4   4   8   4   8
#     4   9  15  33  59  82 104 144 185 229 269 336
#     4  10  18  39  60  81 116 152 188 237 285 338
#     4  10  20  32  58  85 110 138 183 238 283 323
#     4  10  18  41  60  80 114 155 187 243 276 330
#     4  10  19  30  59  93 110 123 193 252 268 301
#     4   8  16  34  58  80 107 141 187 224 271 334
#     4  12  23  36  57  87 116 148 189 238 294 336
#     4   9  20  39  60  75 115 158 189 219 287 356
#
# _framework density 17.527138000000001
#
# number of rings (size 3 to 8) (size 9 to 14) (size 15 to 20)
#    1.091    1.455    2.727    0.545    0.000    0.727 
#    3.273    3.636    0.000    0.000    0.000    0.000 
#    0.000    0.000    0.000    0.000    0.000    0.000 
#
# Total GULP energy -272588.928645 kJ/mol
# GULP energy per Si atom -12390.405847 kJ/mol
# Density = 1.748724 g / cm^3
# Si number density = 17.527138 Si / 1000 Ang^3
#
#
#
# Elastic Constant Matrix: (Units=GPa)
#
#
# Indices 1 2 3 4 5 6 
#
# 1 89.5613 37.1802 24.3435 0.0000 0.0000 0.0000
# 2 37.1802 102.5203 13.3942 0.0000 0.0000 0.0000
# 3 24.3435 13.3942 40.6699 0.0000 0.0000 0.0000
# 4 0.0000 0.0000 0.0000 30.4923 0.0000 0.0000
# 5 0.0000 0.0000 0.0000 0.0000 15.7115 0.0000
# 6 0.0000 0.0000 0.0000 0.0000 0.0000 18.1254
#
#
#
# Elastic Compliance Matrix: (Units=1/GPa)
#
#
# Indices 1 2 3 4 5 6 
#
# 1 0.015078 -0.004482 -0.007549 0.000000 0.000000 0.000000
# 2 -0.004482 0.011525 -0.001113 0.000000 0.000000 0.000000
# 3 -0.007549 -0.001113 0.029473 0.000000 0.000000 0.000000
# 4 0.000000 0.000000 0.000000 0.032795 0.000000 0.000000
# 5 0.000000 0.000000 0.000000 0.000000 0.063647 0.000000
# 6 0.000000 0.000000 0.000000 0.000000 0.000000 0.055171
#
#
# Mechanical properties :
#
#
# Convention : Reuss Voigt Hill
#
# Bulk Modulus (GPa) = 33.56999 42.50969 38.03984
# Shear Modulus (GPa) = 20.49957 23.38809 21.94383
#
# Velocity S-wave (km/s) = 3.42364 3.65690 3.54219
# Velocity P-wave (km/s) = 5.90111 6.49129 6.20322
#
# Compressibility (1/GPa) = 0.02978851
#
# Stress axis : x y z
#
# Youngs Moduli (GPa) = 66.32146 86.76786 33.92899
#
# Poissons Ratio (x) = 0.38889 0.25613
# Poissons Ratio (y) = 0.29725 0.03776
# Poissons Ratio (z) = 0.50067 0.09656
#
# Static dielectric constant tensor:
#      x y z
#    x 3.278130 0.000000 0.000000 
#    y 0.000000 3.161140 0.000000 
#    z 0.000000 0.000000 2.953230 
# 
# 
# High freq. dielectric constant tensor:
#      x y z
#    x 1.671530 0.000000 0.000000 
#    y 0.000000 1.671470 0.000000 
#    z 0.000000 0.000000 1.654100 
# 
# From -- ./inp_files/10328.got.cif
#   From: 2010.03.12/outbox.cif.g09.slc.cpg/sg36_6_cif.got.tgz:10328.got - 2010.04.14 02:13:53.
