data_PCOD8174585
_publ_section_title
;
Structure prediction by ZEFSAII (Michael W. Deem and Ramdas Pophale) SiO2 
 PCOD8174585
Probable space group: C M C 21
;
_chemical_formula_sum "Si O2"
_cell_formula_units_Z 48
_cell_length_a 9.238901
_cell_length_b 30.997593
_cell_length_c 9.496013
_cell_angle_alpha 90.000000
_cell_angle_beta 90.000000
_cell_angle_gamma 90.000000
_cell_volume 2719.503271
_symmetry_space_group_name_H-M "C M C 21"
_symmetry_group_IT_number 36
_symmetry_cell_setting 'orthorhombic'
loop_
_space_group_symop_operation_xyz
x,y,z
-x,-y,1/2+z
x,-y,1/2+z
-x,y,z
1/2+x,1/2+y,z
1/2-x,1/2-y,1/2+z
1/2+x,1/2-y,1/2+z
1/2-x,1/2+y,z
loop_
_atom_site_type_symbol
_atom_site_label
_atom_site_fract_x
_atom_site_fract_y
_atom_site_fract_z
Si Si1 0.840460 0.617631 0.392720
Si Si2 0.170017 0.954891 0.243128
Si Si3 0.331614 0.211703 0.397718
Si Si4 0.163130 0.371516 0.225708
Si Si5 0.669563 0.712050 0.684626
Si Si6 0.831764 0.963557 0.918207
O O1 0.790392 0.664406 0.333800
O O2 0.839449 0.622247 0.559859
O O3 0.736548 0.578902 0.345730
O O4 0.000000 0.605922 0.337170
O O5 0.255477 0.912433 0.294160
O O6 0.000000 0.946075 0.261877
O O7 0.226199 0.993823 0.340637
O O8 0.207609 0.967068 0.082336
O O9 0.500000 0.211368 0.445216
O O10 0.300238 0.246165 0.278053
O O11 0.233891 0.222515 0.531988
O O12 0.251695 0.328128 0.260634
O O13 0.000000 0.368177 0.286664
O O14 0.500000 0.701462 0.670569
O O15 0.000000 0.958709 0.891649
#
# Coordination Sequence:
#
# PCOD8174585 Si02
#       6
#     8   8   8   8   8   8
#     4   8  15  29  47  65  89 120 152 187 226 272
#     4   9  17  30  47  67  91 119 152 189 231 278
#     4   9  19  34  50  72 100 127 160 201 240 284
#     4   9  17  30  48  69  93 122 158 196 232 278
#     4  10  19  32  52  74  97 128 163 199 241 286
#     4   9  17  29  46  67  90 116 149 188 226 270
#
# _framework density 17.650282000000001
#
# number of rings (size 3 to 8) (size 9 to 14) (size 15 to 20)
#    0.000    3.000    0.000    2.000    0.000    6.000 
#    0.000    1.667    0.000    6.000    0.000    0.000 
#    0.000    0.000    0.000    0.000    0.000    0.000 
#
# Total GULP energy -297525.464877 kJ/mol
# GULP energy per Si atom -12396.894370 kJ/mol
# Density = 1.761011 g / cm^3
# Si number density = 17.650282 Si / 1000 Ang^3
#
#
#
# Elastic Constant Matrix: (Units=GPa)
#
#
# Indices 1 2 3 4 5 6 
#
# 1 69.0486 26.9591 16.1661 0.0000 0.0000 0.0000
# 2 26.9591 55.9563 3.1026 0.0000 0.0000 0.0000
# 3 16.1661 3.1026 22.0562 0.0000 0.0000 0.0000
# 4 0.0000 0.0000 0.0000 30.0749 0.0000 0.0000
# 5 0.0000 0.0000 0.0000 0.0000 17.5487 0.0000
# 6 0.0000 0.0000 0.0000 0.0000 0.0000 36.0040
#
#
#
# Elastic Compliance Matrix: (Units=1/GPa)
#
#
# Indices 1 2 3 4 5 6 
#
# 1 0.021634 -0.009619 -0.014503 0.000000 0.000000 0.000000
# 2 -0.009619 0.022288 0.003915 0.000000 0.000000 0.000000
# 3 -0.014503 0.003915 0.055418 0.000000 0.000000 0.000000
# 4 0.000000 0.000000 0.000000 0.033250 0.000000 0.000000
# 5 0.000000 0.000000 0.000000 0.000000 0.056984 0.000000
# 6 0.000000 0.000000 0.000000 0.000000 0.000000 0.027775
#
#
# Mechanical properties :
#
#
# Convention : Reuss Voigt Hill
#
# Bulk Modulus (GPa) = 16.97053 26.61297 21.79175
# Shear Modulus (GPa) = 18.02413 23.44774 20.73593
#
# Velocity S-wave (km/s) = 3.19906 3.64876 3.43129
# Velocity P-wave (km/s) = 4.82504 5.73253 5.29825
#
# Compressibility (1/GPa) = 0.05892567
#
# Stress axis : x y z
#
# Youngs Moduli (GPa) = 46.22425 44.86679 18.04458
#
# Poissons Ratio (x) = 0.43156 0.26171
# Poissons Ratio (y) = 0.44462 -0.07064
# Poissons Ratio (z) = 0.67041 -0.17565
#
# Static dielectric constant tensor:
#      x y z
#    x 3.388330 0.000000 0.000000 
#    y 0.000000 3.704120 0.000000 
#    z 0.000000 0.000000 2.886340 
# 
# 
# High freq. dielectric constant tensor:
#      x y z
#    x 1.685380 0.000000 0.000000 
#    y 0.000000 1.700590 0.000000 
#    z 0.000000 0.000000 1.635530 
# 
# From -- ./inp_files/2730.got.cif
#   From: 2010.03.12/outbox.cif.g09.slc.cpg/sg36_2_cif.got.tgz:2730.got - 2010.04.14 02:13:53.
