data_PCOD8174463
_publ_section_title
;
Structure prediction by ZEFSAII (Michael W. Deem and Ramdas Pophale) SiO2 
 PCOD8174463
Probable space group: C M C 21
;
_chemical_formula_sum "Si O2"
_cell_formula_units_Z 64
_cell_length_a 9.302558
_cell_length_b 22.708381
_cell_length_c 18.026229
_cell_angle_alpha 90.000000
_cell_angle_beta 90.000000
_cell_angle_gamma 90.000000
_cell_volume 3807.969336
_symmetry_space_group_name_H-M "C M C 21"
_symmetry_group_IT_number 36
_symmetry_cell_setting 'orthorhombic'
loop_
_space_group_symop_operation_xyz
x,y,z
-x,-y,1/2+z
x,-y,1/2+z
-x,y,z
1/2+x,1/2+y,z
1/2-x,1/2-y,1/2+z
1/2+x,1/2-y,1/2+z
1/2-x,1/2+y,z
loop_
_atom_site_type_symbol
_atom_site_label
_atom_site_fract_x
_atom_site_fract_y
_atom_site_fract_z
Si Si1 0.331660 0.866877 0.094600
Si Si2 0.170072 0.312388 0.781312
Si Si3 0.838537 0.916000 0.715042
Si Si4 0.659887 0.013991 0.656225
Si Si5 0.830314 0.695623 0.739293
Si Si6 0.166513 0.624267 0.431008
Si Si7 0.157531 0.575118 0.813178
Si Si8 0.340247 0.479190 0.872346
O O1 0.500000 0.873221 0.110649
O O2 0.270317 0.933103 0.107357
O O3 0.275593 0.819994 0.155466
O O4 0.297244 0.845723 0.010794
O O5 0.243919 0.357218 0.723926
O O6 0.235844 0.248711 0.768916
O O7 0.207825 0.330455 0.866007
O O8 0.000000 0.312136 0.767028
O O9 0.000000 0.899333 0.689079
O O10 0.763958 0.957126 0.652676
O O11 0.844610 0.950731 0.791605
O O12 0.500000 0.995874 0.628139
O O13 0.647751 0.036048 0.739993
O O14 0.793181 0.641101 0.793196
O O15 0.000000 0.711089 0.741118
O O16 0.252703 0.563437 0.426579
O O17 0.000000 0.607033 0.425773
O O18 0.267684 0.543921 0.869833
O O19 0.000000 0.576963 0.850745
O O20 0.500000 0.487032 0.904421
#
# Coordination Sequence:
#
# PCOD8174463 Si02
#       8
#     8   8   8   8   8   8   8   8
#     4   8  15  29  49  69  88 116 151 186 229 280
#     4  10  19  29  44  67  93 122 157 194 228 266
#     4   9  16  26  41  62  88 115 142 175 217 262
#     4   8  13  24  43  65  86 106 134 174 218 264
#     4   9  17  30  48  68  90 118 156 197 232 271
#     4   9  17  30  47  66  90 120 152 185 227 280
#     4   8  14  25  42  63  85 110 139 174 219 268
#     4   9  16  25  40  64  90 113 139 175 218 261
#
# _framework density 16.806857999999998
#
# number of rings (size 3 to 8) (size 9 to 14) (size 15 to 20)
#    0.000    3.250    0.000    2.625    0.000    4.000 
#    0.000    3.125    0.000    1.500    0.000    3.500 
#    0.000    0.000    0.000    0.000    0.000    0.000 
#
# Total GULP energy -396561.425442 kJ/mol
# GULP energy per Si atom -12392.544545 kJ/mol
# Density = 1.676860 g / cm^3
# Si number density = 16.806858 Si / 1000 Ang^3
#
#
#
# Elastic Constant Matrix: (Units=GPa)
#
#
# Indices 1 2 3 4 5 6 
#
# 1 93.4474 62.8159 31.2020 0.0000 0.0000 0.0000
# 2 62.8159 119.6286 39.7101 0.0000 0.0000 0.0000
# 3 31.2020 39.7101 61.3623 0.0000 0.0000 0.0000
# 4 0.0000 0.0000 0.0000 15.7602 0.0000 0.0000
# 5 0.0000 0.0000 0.0000 0.0000 11.3244 0.0000
# 6 0.0000 0.0000 0.0000 0.0000 0.0000 30.5949
#
#
#
# Elastic Compliance Matrix: (Units=1/GPa)
#
#
# Indices 1 2 3 4 5 6 
#
# 1 0.017170 -0.007792 -0.003689 0.000000 0.000000 0.000000
# 2 -0.007792 0.014182 -0.005216 0.000000 0.000000 0.000000
# 3 -0.003689 -0.005216 0.021548 0.000000 0.000000 0.000000
# 4 0.000000 0.000000 0.000000 0.063451 0.000000 0.000000
# 5 0.000000 0.000000 0.000000 0.000000 0.088305 0.000000
# 6 0.000000 0.000000 0.000000 0.000000 0.000000 0.032685
#
#
# Mechanical properties :
#
#
# Convention : Reuss Voigt Hill
#
# Bulk Modulus (GPa) = 51.26139 60.21049 55.73594
# Shear Modulus (GPa) = 18.03521 20.91659 19.47590
#
# Velocity S-wave (km/s) = 3.27935 3.53161 3.40782
# Velocity P-wave (km/s) = 6.70115 7.24793 6.97989
#
# Compressibility (1/GPa) = 0.01950786
#
# Stress axis : x y z
#
# Youngs Moduli (GPa) = 58.23976 70.51279 46.40884
#
# Poissons Ratio (x) = 0.54941 0.17119
# Poissons Ratio (y) = 0.45378 0.24206
# Poissons Ratio (z) = 0.21483 0.36778
#
# Static dielectric constant tensor:
#      x y z
#    x 3.286130 0.000000 0.000000 
#    y 0.000000 3.072750 0.000000 
#    z 0.000000 0.000000 2.912320 
# 
# 
# High freq. dielectric constant tensor:
#      x y z
#    x 1.642490 0.000000 0.000000 
#    y 0.000000 1.634900 0.000000 
#    z 0.000000 0.000000 1.608360 
# 
# From -- ./inp_files/14087.got.cif
#   From: 2010.03.12/outbox.cif.g09.slc.cpg/sg36_8_cif.got.tgz:14087.got - 2010.04.14 02:13:53.
