data_PCOD8174230
_publ_section_title
;
Structure prediction by ZEFSAII (Michael W. Deem and Ramdas Pophale) SiO2 
 PCOD8174230
Probable space group: C M C 21
;
_chemical_formula_sum "Si O2"
_cell_formula_units_Z 40
_cell_length_a 19.312546
_cell_length_b 14.026281
_cell_length_c 8.981063
_cell_angle_alpha 90.000000
_cell_angle_beta 90.000000
_cell_angle_gamma 90.000000
_cell_volume 2432.819058
_symmetry_space_group_name_H-M "C M C 21"
_symmetry_group_IT_number 36
_symmetry_cell_setting 'orthorhombic'
loop_
_space_group_symop_operation_xyz
x,y,z
-x,-y,1/2+z
x,-y,1/2+z
-x,y,z
1/2+x,1/2+y,z
1/2-x,1/2-y,1/2+z
1/2+x,1/2-y,1/2+z
1/2-x,1/2+y,z
loop_
_atom_site_type_symbol
_atom_site_label
_atom_site_fract_x
_atom_site_fract_y
_atom_site_fract_z
Si Si1 0.270455 0.054693 0.534930
Si Si2 0.500000 0.873522 0.182180
Si Si3 0.853024 0.622868 0.028847
Si Si4 0.728595 0.610312 0.219941
Si Si5 0.646030 0.208921 0.715237
Si Si6 0.000000 0.564343 0.017543
O O1 0.228981 0.097879 0.396981
O O2 0.302100 0.138657 0.631880
O O3 0.331420 0.984419 0.475142
O O4 0.217507 0.991439 0.636953
O O5 0.432795 0.806886 0.164325
O O6 0.500000 0.928537 0.338947
O O7 0.500000 0.952717 0.054370
O O8 0.802791 0.654937 0.164486
O O9 0.845179 0.694733 0.891832
O O10 0.932521 0.617630 0.084316
O O11 0.667003 0.682503 0.177262
#
# Coordination Sequence:
#
# PCOD8174230 Si02
#       6
#     8   4   8   8   8   4
#     4  10  18  32  47  73  99 126 164 194 250 284
#     4  10  20  30  48  72 100 128 162 192 256 292
#     4   9  18  32  45  74  99 131 156 189 252 292
#     4  10  20  31  51  71 102 127 166 205 237 294
#     4  11  19  33  50  74 100 129 165 201 241 299
#     4  10  18  28  50  68 104 128 148 198 244 314
#
# _framework density 16.441832000000002
#
# number of rings (size 3 to 8) (size 9 to 14) (size 15 to 20)
#    1.200    0.800    4.000    1.200    2.800    0.000 
#    0.000    0.000    0.000    1.200    0.000    1.400 
#    0.000    0.000    0.000    0.000    0.000    0.000 
#
# Total GULP energy -247859.219399 kJ/mol
# GULP energy per Si atom -12392.960970 kJ/mol
# Density = 1.640441 g / cm^3
# Si number density = 16.441832 Si / 1000 Ang^3
#
#
#
# Elastic Constant Matrix: (Units=GPa)
#
#
# Indices 1 2 3 4 5 6 
#
# 1 89.7708 56.7473 38.7617 0.0000 0.0000 0.0000
# 2 56.7473 87.6894 37.2400 0.0000 0.0000 0.0000
# 3 38.7617 37.2400 63.8805 0.0000 0.0000 0.0000
# 4 0.0000 0.0000 0.0000 17.1417 0.0000 0.0000
# 5 0.0000 0.0000 0.0000 0.0000 16.1303 0.0000
# 6 0.0000 0.0000 0.0000 0.0000 0.0000 26.2783
#
#
#
# Elastic Compliance Matrix: (Units=1/GPa)
#
#
# Indices 1 2 3 4 5 6 
#
# 1 0.020587 -0.010656 -0.006280 0.000000 0.000000 0.000000
# 2 -0.010656 0.020671 -0.005585 0.000000 0.000000 0.000000
# 3 -0.006280 -0.005585 0.022721 0.000000 0.000000 0.000000
# 4 0.000000 0.000000 0.000000 0.058337 0.000000 0.000000
# 5 0.000000 0.000000 0.000000 0.000000 0.061995 0.000000
# 6 0.000000 0.000000 0.000000 0.000000 0.000000 0.038054
#
#
# Mechanical properties :
#
#
# Convention : Reuss Voigt Hill
#
# Bulk Modulus (GPa) = 52.80449 56.31539 54.55994
# Shear Modulus (GPa) = 18.26690 19.14952 18.70821
#
# Velocity S-wave (km/s) = 3.33678 3.41645 3.37685
# Velocity P-wave (km/s) = 6.85793 7.06318 6.96131
#
# Compressibility (1/GPa) = 0.01893778
#
# Stress axis : x y z
#
# Youngs Moduli (GPa) = 48.57473 48.37608 44.01277
#
# Poissons Ratio (x) = 0.51547 0.27640
# Poissons Ratio (y) = 0.51759 0.24581
# Poissons Ratio (z) = 0.30505 0.27018
#
# Static dielectric constant tensor:
#      x y z
#    x 2.985870 0.000000 0.000000 
#    y 0.000000 2.870930 0.000000 
#    z 0.000000 0.000000 2.976250 
# 
# 
# High freq. dielectric constant tensor:
#      x y z
#    x 1.610700 0.000000 0.000000 
#    y 0.000000 1.610200 0.000000 
#    z 0.000000 0.000000 1.631030 
# 
# From -- ./inp_files/5103.got.cif
#   From: 2010.03.12/outbox.cif.g09.slc.cpg/sg36_3_cif.got.tgz:5103.got - 2010.04.14 02:13:53.
