data_PCOD8174587
_publ_section_title
;
Structure prediction by ZEFSAII (Michael W. Deem and Ramdas Pophale) SiO2 
 PCOD8174587
Probable space group: C M C 21
;
_chemical_formula_sum "Si O2"
_cell_formula_units_Z 64
_cell_length_a 9.115051
_cell_length_b 27.628267
_cell_length_c 14.154756
_cell_angle_alpha 90.000000
_cell_angle_beta 90.000000
_cell_angle_gamma 90.000000
_cell_volume 3564.635556
_symmetry_space_group_name_H-M "C M C 21"
_symmetry_group_IT_number 36
_symmetry_cell_setting 'orthorhombic'
loop_
_space_group_symop_operation_xyz
x,y,z
-x,-y,1/2+z
x,-y,1/2+z
-x,y,z
1/2+x,1/2+y,z
1/2-x,1/2-y,1/2+z
1/2+x,1/2-y,1/2+z
1/2-x,1/2+y,z
loop_
_atom_site_type_symbol
_atom_site_label
_atom_site_fract_x
_atom_site_fract_y
_atom_site_fract_z
Si Si1 0.172758 0.819498 0.408770
Si Si2 0.670465 0.126866 0.641628
Si Si3 0.326503 0.316219 0.621010
Si Si4 0.165098 0.485547 0.828519
Si Si5 0.672767 0.599176 0.254973
Si Si6 0.834899 0.606203 0.433363
Si Si7 0.170528 0.726823 0.741266
Si Si8 0.327753 0.418518 0.308916
O O1 0.235964 0.812712 0.514616
O O2 0.247217 0.780042 0.340754
O O3 0.213601 0.873657 0.376013
O O4 0.000000 0.810884 0.404115
O O5 0.500000 0.112490 0.649763
O O6 0.727871 0.121495 0.534720
O O7 0.699129 0.181556 0.673039
O O8 0.764162 0.090054 0.704555
O O9 0.500000 0.310442 0.616603
O O10 0.283887 0.368139 0.665102
O O11 0.263364 0.273247 0.686620
O O12 0.246259 0.453142 0.746865
O O13 0.162870 0.452665 0.923721
O O14 0.253495 0.533952 0.852377
O O15 0.000000 0.498003 0.794932
O O16 0.500000 0.590917 0.262089
O O17 0.729765 0.626976 0.350193
O O18 0.000000 0.626888 0.419932
O O19 0.000000 0.733473 0.764582
O O20 0.500000 0.426774 0.302238
#
# Coordination Sequence:
#
# PCOD8174587 Si02
#       8
#     8   8   8   8   8   8   8   8
#     4   9  19  36  54  76 106 138 173 214 258 309
#     4   9  17  32  52  73 100 135 171 208 253 308
#     4   9  18  34  54  77 106 141 174 210 261 313
#     4   9  18  34  51  70 102 136 169 211 258 308
#     4   9  17  31  50  71 101 134 169 212 254 301
#     4   8  17  32  49  72 100 129 166 208 253 305
#     4   9  18  33  54  77 102 135 175 213 254 306
#     4  10  19  32  52  76 103 134 173 214 257 308
#
# _framework density 17.954149999999998
#
# number of rings (size 3 to 8) (size 9 to 14) (size 15 to 20)
#    0.750    2.250    0.000    0.750    0.000    2.000 
#    2.250    4.375    0.000    0.000    0.000    0.000 
#    0.000    0.000    0.000    0.000    0.000    0.000 
#
# Total GULP energy -396591.564284 kJ/mol
# GULP energy per Si atom -12393.486384 kJ/mol
# Density = 1.791329 g / cm^3
# Si number density = 17.954150 Si / 1000 Ang^3
#
#
#
# Elastic Constant Matrix: (Units=GPa)
#
#
# Indices 1 2 3 4 5 6 
#
# 1 63.6803 32.2651 36.9853 0.0000 0.0000 0.0000
# 2 32.2651 81.0512 42.6911 0.0000 0.0000 0.0000
# 3 36.9853 42.6911 127.7091 0.0000 0.0000 0.0000
# 4 0.0000 0.0000 0.0000 19.7797 0.0000 0.0000
# 5 0.0000 0.0000 0.0000 0.0000 25.5742 0.0000
# 6 0.0000 0.0000 0.0000 0.0000 0.0000 21.4387
#
#
#
# Elastic Compliance Matrix: (Units=1/GPa)
#
#
# Indices 1 2 3 4 5 6 
#
# 1 0.021259 -0.006336 -0.004039 0.000000 0.000000 0.000000
# 2 -0.006336 0.016863 -0.003802 0.000000 0.000000 0.000000
# 3 -0.004039 -0.003802 0.010271 0.000000 0.000000 0.000000
# 4 0.000000 0.000000 0.000000 0.050557 0.000000 0.000000
# 5 0.000000 0.000000 0.000000 0.000000 0.039102 0.000000
# 6 0.000000 0.000000 0.000000 0.000000 0.000000 0.046645
#
#
# Mechanical properties :
#
#
# Convention : Reuss Voigt Hill
#
# Bulk Modulus (GPa) = 49.90101 55.14707 52.52404
# Shear Modulus (GPa) = 22.75527 24.05846 23.40687
#
# Velocity S-wave (km/s) = 3.56393 3.66456 3.61460
# Velocity P-wave (km/s) = 6.69249 6.97765 6.83655
#
# Compressibility (1/GPa) = 0.02003967
#
# Stress axis : x y z
#
# Youngs Moduli (GPa) = 47.03823 59.30296 97.36179
#
# Poissons Ratio (x) = 0.37572 0.39324
# Poissons Ratio (y) = 0.29801 0.37018
# Poissons Ratio (z) = 0.18998 0.22547
#
# Static dielectric constant tensor:
#      x y z
#    x 3.199670 0.000000 0.000000 
#    y 0.000000 3.245560 0.000000 
#    z 0.000000 0.000000 3.297940 
# 
# 
# High freq. dielectric constant tensor:
#      x y z
#    x 1.684570 0.000000 0.000000 
#    y 0.000000 1.687570 0.000000 
#    z 0.000000 0.000000 1.683100 
# 
# From -- ./inp_files/11176.got.cif
#   From: 2010.03.12/outbox.cif.g09.slc.cpg/sg36_6_cif.got.tgz:11176.got - 2010.04.14 02:13:53.
