data_PCOD8174389
_publ_section_title
;
Structure prediction by ZEFSAII (Michael W. Deem and Ramdas Pophale) SiO2 
 PCOD8174389
Probable space group: C M C 21
;
_chemical_formula_sum "Si O2"
_cell_formula_units_Z 64
_cell_length_a 8.763144
_cell_length_b 20.121312
_cell_length_c 19.769076
_cell_angle_alpha 90.000000
_cell_angle_beta 90.000000
_cell_angle_gamma 90.000000
_cell_volume 3485.801196
_symmetry_space_group_name_H-M "C M C 21"
_symmetry_group_IT_number 36
_symmetry_cell_setting 'orthorhombic'
loop_
_space_group_symop_operation_xyz
x,y,z
-x,-y,1/2+z
x,-y,1/2+z
-x,y,z
1/2+x,1/2+y,z
1/2-x,1/2-y,1/2+z
1/2+x,1/2-y,1/2+z
1/2-x,1/2+y,z
loop_
_atom_site_type_symbol
_atom_site_label
_atom_site_fract_x
_atom_site_fract_y
_atom_site_fract_z
Si Si1 0.819615 0.539616 0.971390
Si Si2 0.676743 0.333395 0.243636
Si Si3 0.820191 0.275621 0.637085
Si Si4 0.680469 0.406360 0.008280
Si Si5 0.320242 0.063115 0.651069
Si Si6 0.819687 0.270456 0.998599
Si Si7 0.179443 0.579170 0.118197
Si Si8 0.321710 0.344006 0.397394
O O1 0.765573 0.587091 0.911035
O O2 0.000000 0.531200 0.969700
O O3 0.746004 0.466871 0.963788
O O4 0.758958 0.571481 0.041643
O O5 0.500000 0.350797 0.233454
O O6 0.721069 0.266392 0.203620
O O7 0.772484 0.396144 0.217008
O O8 0.717455 0.320983 0.321551
O O9 0.728966 0.246060 0.574519
O O10 0.762145 0.351476 0.650127
O O11 0.000000 0.272593 0.620549
O O12 0.500000 0.408486 0.007152
O O13 0.736822 0.407609 0.085652
O O14 0.740002 0.338427 0.974573
O O15 0.500000 0.068993 0.638204
O O16 0.270951 0.985590 0.661662
O O17 0.762524 0.212944 0.947983
O O18 0.000000 0.279575 0.994802
O O19 0.000000 0.582162 0.114292
O O20 0.500000 0.356964 0.407506
#
# Coordination Sequence:
#
# PCOD8174389 Si02
#       8
#     8   8   8   8   8   8   8   8
#     4  10  19  34  56  82 109 141 184 235 281 331
#     4  10  21  36  55  79 112 153 189 226 282 347
#     4  10  18  33  56  80 106 144 188 230 280 336
#     4  11  21  34  55  82 112 146 182 228 285 338
#     4  10  19  33  53  81 112 142 183 235 278 327
#     4  11  21  34  54  82 114 147 189 240 278 328
#     4   8  16  30  51  79 107 132 174 229 276 321
#     4  10  22  38  54  79 116 155 191 229 282 344
#
# _framework density 18.360198
#
# number of rings (size 3 to 8) (size 9 to 14) (size 15 to 20)
#    0.000    2.000    2.500    3.000    0.000    1.000 
#    0.000    1.875    0.000    3.000    0.000    0.000 
#    0.000    0.000    0.000    0.000    0.000    0.000 
#
# Total GULP energy -396792.241289 kJ/mol
# GULP energy per Si atom -12399.757540 kJ/mol
# Density = 1.831841 g / cm^3
# Si number density = 18.360198 Si / 1000 Ang^3
#
#
#
# Elastic Constant Matrix: (Units=GPa)
#
#
# Indices 1 2 3 4 5 6 
#
# 1 76.4914 44.9255 29.6327 0.0000 0.0000 0.0000
# 2 44.9255 153.0821 45.2193 0.0000 0.0000 0.0000
# 3 29.6327 45.2193 73.7939 0.0000 0.0000 0.0000
# 4 0.0000 0.0000 0.0000 26.9263 0.0000 0.0000
# 5 0.0000 0.0000 0.0000 0.0000 21.5427 0.0000
# 6 0.0000 0.0000 0.0000 0.0000 0.0000 29.1384
#
#
#
# Elastic Compliance Matrix: (Units=1/GPa)
#
#
# Indices 1 2 3 4 5 6 
#
# 1 0.016984 -0.003626 -0.004598 0.000000 0.000000 0.000000
# 2 -0.003626 0.008750 -0.003906 0.000000 0.000000 0.000000
# 3 -0.004598 -0.003906 0.017791 0.000000 0.000000 0.000000
# 4 0.000000 0.000000 0.000000 0.037138 0.000000 0.000000
# 5 0.000000 0.000000 0.000000 0.000000 0.046419 0.000000
# 6 0.000000 0.000000 0.000000 0.000000 0.000000 0.034319
#
#
# Mechanical properties :
#
#
# Convention : Reuss Voigt Hill
#
# Bulk Modulus (GPa) = 51.90662 60.32473 56.11568
# Shear Modulus (GPa) = 26.03008 27.76080 26.89544
#
# Velocity S-wave (km/s) = 3.76938 3.89268 3.83152
# Velocity P-wave (km/s) = 6.87582 7.28913 7.08549
#
# Compressibility (1/GPa) = 0.01926536
#
# Stress axis : x y z
#
# Youngs Moduli (GPa) = 58.87725 114.28020 56.20758
#
# Poissons Ratio (x) = 0.41440 0.25846
# Poissons Ratio (y) = 0.21350 0.21954
# Poissons Ratio (z) = 0.27073 0.44637
#
# Static dielectric constant tensor:
#      x y z
#    x 3.265180 0.000000 0.000000 
#    y 0.000000 3.911110 0.000000 
#    z 0.000000 0.000000 3.139850 
# 
# 
# High freq. dielectric constant tensor:
#      x y z
#    x 1.705360 0.000000 0.000000 
#    y 0.000000 1.731580 0.000000 
#    z 0.000000 0.000000 1.677420 
# 
# From -- ./inp_files/15803.got.cif
#   From: 2010.03.12/outbox.cif.g09.slc.cpg/sg36_8_cif.got.tgz:15803.got - 2010.04.14 02:13:53.
