data_PCOD8174904
_publ_section_title
;
Structure prediction by ZEFSAII (Michael W. Deem and Ramdas Pophale) SiO2 
 PCOD8174904
Probable space group: C M C 21
;
_chemical_formula_sum "Si O2"
_cell_formula_units_Z 64
_cell_length_a 28.239557
_cell_length_b 5.863583
_cell_length_c 18.115801
_cell_angle_alpha 90.000000
_cell_angle_beta 90.000000
_cell_angle_gamma 90.000000
_cell_volume 2999.704661
_symmetry_space_group_name_H-M "C M C 21"
_symmetry_group_IT_number 36
_symmetry_cell_setting 'orthorhombic'
loop_
_space_group_symop_operation_xyz
x,y,z
-x,-y,1/2+z
x,-y,1/2+z
-x,y,z
1/2+x,1/2+y,z
1/2-x,1/2-y,1/2+z
1/2+x,1/2-y,1/2+z
1/2-x,1/2+y,z
loop_
_atom_site_type_symbol
_atom_site_label
_atom_site_fract_x
_atom_site_fract_y
_atom_site_fract_z
Si Si1 0.897091 0.348947 0.543020
Si Si2 0.858510 0.256748 0.778607
Si Si3 0.727895 0.555796 0.708252
Si Si4 0.947664 0.961830 0.940210
Si Si5 0.945997 0.955528 0.775324
Si Si6 0.358750 0.777647 0.946675
Si Si7 0.612970 0.863873 0.174823
Si Si8 0.326780 0.534559 0.079039
O O1 0.941064 0.237864 0.500102
O O2 0.864175 0.475279 0.482726
O O3 0.915933 0.500494 0.611008
O O4 0.864295 0.165994 0.582635
O O5 0.824391 0.060722 0.745586
O O6 0.913230 0.179393 0.773387
O O7 0.841788 0.300216 0.862831
O O8 0.855871 0.488233 0.732155
O O9 0.750326 0.307621 0.732499
O O10 0.721985 0.549871 0.618271
O O11 0.000000 0.067483 0.950177
O O12 0.942439 0.853277 0.858262
O O13 0.910027 0.159920 0.953943
O O14 0.000000 0.023568 0.755639
O O15 0.927435 0.774207 0.716766
O O16 0.320769 0.629168 0.995116
O O17 0.653774 0.730899 0.132343
#
# Coordination Sequence:
#
# PCOD8174904 Si02
#       8
#     8   8   8   8   8   8   8   8
#     4  10  19  35  60  86 114 170 216 259 340 399
#     4  11  22  42  65  94 135 175 219 288 336 404
#     4  12  26  44  73 104 132 179 229 279 351 418
#     4   9  19  35  52  84 127 165 216 272 325 397
#     4  10  21  36  59  91 129 174 222 272 333 399
#     4   9  21  37  64  89 121 178 218 269 342 396
#     4  11  19  35  63  88 129 171 219 273 339 397
#     4  10  21  42  62  92 126 168 215 274 336 410
#
# _framework density 21.335433999999999
#
# number of rings (size 3 to 8) (size 9 to 14) (size 15 to 20)
#    0.000    1.750    2.500    1.500    1.750    1.500 
#    0.000   12.500    0.000    0.000    0.000    0.000 
#    0.000    0.000    0.000    0.000    0.000    0.000 
#
# Total GULP energy -396490.030790 kJ/mol
# GULP energy per Si atom -12390.313462 kJ/mol
# Density = 2.128687 g / cm^3
# Si number density = 21.335434 Si / 1000 Ang^3
#
#
#
# Elastic Constant Matrix: (Units=GPa)
#
#
# Indices 1 2 3 4 5 6 
#
# 1 43.7147 12.4146 11.4501 0.0000 0.0000 0.0000
# 2 12.4146 93.2575 42.1966 0.0000 0.0000 0.0000
# 3 11.4501 42.1966 126.5607 0.0000 0.0000 0.0000
# 4 0.0000 0.0000 0.0000 39.3817 0.0000 0.0000
# 5 0.0000 0.0000 0.0000 0.0000 28.8023 0.0000
# 6 0.0000 0.0000 0.0000 0.0000 0.0000 22.9645
#
#
#
# Elastic Compliance Matrix: (Units=1/GPa)
#
#
# Indices 1 2 3 4 5 6 
#
# 1 0.023955 -0.002601 -0.001300 0.000000 0.000000 0.000000
# 2 -0.002601 0.012910 -0.004069 0.000000 0.000000 0.000000
# 3 -0.001300 -0.004069 0.009376 0.000000 0.000000 0.000000
# 4 0.000000 0.000000 0.000000 0.025393 0.000000 0.000000
# 5 0.000000 0.000000 0.000000 0.000000 0.034719 0.000000
# 6 0.000000 0.000000 0.000000 0.000000 0.000000 0.043545
#
#
# Mechanical properties :
#
#
# Convention : Reuss Voigt Hill
#
# Bulk Modulus (GPa) = 33.00229 43.96172 38.48201
# Shear Modulus (GPa) = 28.41906 31.39448 29.90677
#
# Velocity S-wave (km/s) = 3.65363 3.84014 3.74805
# Velocity P-wave (km/s) = 5.77067 6.34917 6.06682
#
# Compressibility (1/GPa) = 0.03030093
#
# Stress axis : x y z
#
# Youngs Moduli (GPa) = 41.74545 77.45701 106.65903
#
# Poissons Ratio (x) = 0.20143 0.13867
# Poissons Ratio (y) = 0.10856 0.43401
# Poissons Ratio (z) = 0.05428 0.31519
#
# Static dielectric constant tensor:
#      x y z
#    x 3.633060 0.000000 0.000000 
#    y 0.000000 3.941950 0.000000 
#    z 0.000000 0.000000 4.217270 
# 
# 
# High freq. dielectric constant tensor:
#      x y z
#    x 1.804010 0.000000 0.000000 
#    y 0.000000 1.837810 0.000000 
#    z 0.000000 0.000000 1.853320 
# 
# From -- ./inp_files/15199.got.cif
#   From: 2010.03.12/outbox.cif.g09.slc.cpg/sg36_8_cif.got.tgz:15199.got - 2010.04.14 02:13:53.
