data_PCOD8174584
_publ_section_title
;
Structure prediction by ZEFSAII (Michael W. Deem and Ramdas Pophale) SiO2 
 PCOD8174584
Probable space group: C M C 21
;
_chemical_formula_sum "Si O2"
_cell_formula_units_Z 64
_cell_length_a 23.771727
_cell_length_b 9.629253
_cell_length_c 14.766725
_cell_angle_alpha 90.000000
_cell_angle_beta 90.000000
_cell_angle_gamma 90.000000
_cell_volume 3380.162029
_symmetry_space_group_name_H-M "C M C 21"
_symmetry_group_IT_number 36
_symmetry_cell_setting 'orthorhombic'
loop_
_space_group_symop_operation_xyz
x,y,z
-x,-y,1/2+z
x,-y,1/2+z
-x,y,z
1/2+x,1/2+y,z
1/2-x,1/2-y,1/2+z
1/2+x,1/2-y,1/2+z
1/2-x,1/2+y,z
loop_
_atom_site_type_symbol
_atom_site_label
_atom_site_fract_x
_atom_site_fract_y
_atom_site_fract_z
Si Si1 0.873940 0.766872 0.914310
Si Si2 0.270195 0.111676 0.622546
Si Si3 0.872218 0.233223 0.206776
Si Si4 0.847215 0.086149 0.912884
Si Si5 0.938776 0.837972 0.076402
Si Si6 0.233483 0.648175 0.000390
Si Si7 0.154087 0.912809 0.209651
Si Si8 0.061277 0.162636 0.044168
O O1 0.891897 0.738136 0.810211
O O2 0.858039 0.925641 0.930236
O O3 0.924976 0.746907 0.985871
O O4 0.822549 0.667091 0.941068
O O5 0.324964 0.156102 0.678905
O O6 0.257353 0.207921 0.537409
O O7 0.217952 0.126676 0.690127
O O8 0.278156 0.956852 0.583435
O O9 0.924743 0.244440 0.137758
O O10 0.849245 0.077553 0.193507
O O11 0.860967 0.129791 0.811085
O O12 0.781520 0.098232 0.932572
O O13 0.887657 0.185723 0.973218
O O14 0.888544 0.820908 0.148963
O O15 0.000000 0.785285 0.112325
O O16 0.944482 0.999785 0.057605
O O17 0.000000 0.218334 0.010053
#
# Coordination Sequence:
#
# PCOD8174584 Si02
#       8
#     8   8   8   8   8   8   8   8
#     4  10  20  34  53  80 110 142 182 227 275 328
#     4  12  20  35  56  77 111 145 179 223 274 328
#     4  10  20  34  53  80 110 142 182 227 275 328
#     4  10  19  32  51  79 112 144 181 227 272 322
#     4   9  17  31  51  77 108 142 180 227 275 316
#     4  12  20  35  56  77 111 145 179 223 274 328
#     4  10  19  32  51  79 112 144 181 227 272 322
#     4   9  17  31  51  77 108 142 180 227 275 316
#
# _framework density 18.934003000000001
#
# number of rings (size 3 to 8) (size 9 to 14) (size 15 to 20)
#    0.000    1.750    5.000    1.500    0.000    1.000 
#    0.000    5.000    0.000    0.750    0.000    0.000 
#    0.000    0.000    0.000    0.000    0.000    0.000 
#
# Total GULP energy -396586.071791 kJ/mol
# GULP energy per Si atom -12393.314743 kJ/mol
# Density = 1.889091 g / cm^3
# Si number density = 18.934003 Si / 1000 Ang^3
#
#
#
# Elastic Constant Matrix: (Units=GPa)
#
#
# Indices 1 2 3 4 5 6 
#
# 1 129.1553 18.1512 59.7969 0.0000 0.0000 0.0000
# 2 18.1512 21.6121 26.3705 0.0000 0.0000 0.0000
# 3 59.7969 26.3705 115.8774 0.0000 0.0000 0.0000
# 4 0.0000 0.0000 0.0000 17.3316 0.0000 0.0000
# 5 0.0000 0.0000 0.0000 0.0000 18.1851 0.0000
# 6 0.0000 0.0000 0.0000 0.0000 0.0000 6.2594
#
#
#
# Elastic Compliance Matrix: (Units=1/GPa)
#
#
# Indices 1 2 3 4 5 6 
#
# 1 0.010312 -0.003001 -0.004638 0.000000 0.000000 0.000000
# 2 -0.003001 0.064931 -0.013228 0.000000 0.000000 0.000000
# 3 -0.004638 -0.013228 0.014034 0.000000 0.000000 0.000000
# 4 0.000000 0.000000 0.000000 0.057698 0.000000 0.000000
# 5 0.000000 0.000000 0.000000 0.000000 0.054990 0.000000
# 6 0.000000 0.000000 0.000000 0.000000 0.000000 0.159760
#
#
# Mechanical properties :
#
#
# Convention : Reuss Voigt Hill
#
# Bulk Modulus (GPa) = 21.03391 52.80912 36.92151
# Shear Modulus (GPa) = 11.92444 19.17695 15.55069
#
# Velocity S-wave (km/s) = 2.51228 3.18595 2.86896
# Velocity P-wave (km/s) = 4.42138 6.44092 5.52422
#
# Compressibility (1/GPa) = 0.04754227
#
# Stress axis : x y z
#
# Youngs Moduli (GPa) = 96.97583 15.40088 71.25711
#
# Poissons Ratio (x) = 0.04622 0.33051
# Poissons Ratio (y) = 0.29102 0.94259
# Poissons Ratio (z) = 0.44981 0.20372
#
# Static dielectric constant tensor:
#      x y z
#    x 3.817830 0.000000 0.000000 
#    y 0.000000 3.133070 0.000000 
#    z 0.000000 0.000000 3.571320 
# 
# 
# High freq. dielectric constant tensor:
#      x y z
#    x 1.736160 0.000000 0.000000 
#    y 0.000000 1.687520 0.000000 
#    z 0.000000 0.000000 1.740080 
# 
# From -- ./inp_files/12999.got.cif
#   From: 2010.03.12/outbox.cif.g09.slc.cpg/sg36_7_cif.got.tgz:12999.got - 2010.04.14 02:13:53.
