data_PCOD8174617
_publ_section_title
;
Structure prediction by ZEFSAII (Michael W. Deem and Ramdas Pophale) SiO2 
 PCOD8174617
Probable space group: C M C 21
;
_chemical_formula_sum "Si O2"
_cell_formula_units_Z 64
_cell_length_a 8.717457
_cell_length_b 20.938239
_cell_length_c 18.571359
_cell_angle_alpha 90.000000
_cell_angle_beta 90.000000
_cell_angle_gamma 90.000000
_cell_volume 3389.796695
_symmetry_space_group_name_H-M "C M C 21"
_symmetry_group_IT_number 36
_symmetry_cell_setting 'orthorhombic'
loop_
_space_group_symop_operation_xyz
x,y,z
-x,-y,1/2+z
x,-y,1/2+z
-x,y,z
1/2+x,1/2+y,z
1/2-x,1/2-y,1/2+z
1/2+x,1/2-y,1/2+z
1/2-x,1/2+y,z
loop_
_atom_site_type_symbol
_atom_site_label
_atom_site_fract_x
_atom_site_fract_y
_atom_site_fract_z
Si Si1 0.178262 0.493841 0.199230
Si Si2 0.823322 0.002102 0.548405
Si Si3 0.180496 0.373754 0.025703
Si Si4 0.177003 0.860145 0.552256
Si Si5 0.680936 0.747480 0.942252
Si Si6 0.182671 0.641854 0.689385
Si Si7 0.682249 0.131375 0.207583
Si Si8 0.681258 0.745913 0.288819
O O1 0.207172 0.493981 0.114411
O O2 0.243112 0.425108 0.226586
O O3 0.246527 0.560284 0.230409
O O4 0.000000 0.495462 0.214496
O O5 0.802155 0.930676 0.515821
O O6 0.000000 0.011908 0.571617
O O7 0.768447 0.061522 0.498210
O O8 0.235777 0.354079 0.106232
O O9 0.000000 0.386331 0.022948
O O10 0.227897 0.316417 0.973192
O O11 0.238142 0.807728 0.496368
O O12 0.266791 0.851517 0.626863
O O13 0.000000 0.846865 0.570847
O O14 0.500000 0.742616 0.929043
O O15 0.769102 0.735783 0.868527
O O16 0.250105 0.700797 0.734424
O O17 0.000000 0.643315 0.692101
O O18 0.500000 0.134138 0.210658
O O19 0.750335 0.178087 0.266816
O O20 0.500000 0.742753 0.283581
#
# Coordination Sequence:
#
# PCOD8174617 Si02
#       8
#     8   8   8   8   8   8   8   8
#     4   8  15  30  51  73  98 128 164 203 242 292
#     4   9  16  27  48  78 105 125 154 202 255 299
#     4   9  17  32  54  74  95 128 167 204 244 296
#     4   9  18  34  55  76 101 133 166 205 253 300
#     4  10  21  37  53  70  98 137 176 209 245 294
#     4   8  15  31  54  75  94 124 165 203 244 295
#     4  10  19  32  54  80 103 129 165 208 249 298
#     4  11  22  35  51  72 102 136 169 210 256 298
#
# _framework density 18.880189000000001
#
# number of rings (size 3 to 8) (size 9 to 14) (size 15 to 20)
#    0.000    2.750    0.000    2.625    0.000    4.000 
#    0.000    8.750    0.000    4.500    0.000    0.000 
#    0.000    0.000    0.000    0.000    0.000    0.000 
#
# Total GULP energy -396444.142850 kJ/mol
# GULP energy per Si atom -12388.879464 kJ/mol
# Density = 1.883722 g / cm^3
# Si number density = 18.880189 Si / 1000 Ang^3
#
#
#
# Elastic Constant Matrix: (Units=GPa)
#
#
# Indices 1 2 3 4 5 6 
#
# 1 23.8655 17.0819 16.6815 0.0000 0.0000 0.0000
# 2 17.0819 110.9807 21.3697 0.0000 0.0000 0.0000
# 3 16.6815 21.3697 52.4444 0.0000 0.0000 0.0000
# 4 0.0000 0.0000 0.0000 11.2148 0.0000 0.0000
# 5 0.0000 0.0000 0.0000 0.0000 24.9995 0.0000
# 6 0.0000 0.0000 0.0000 0.0000 0.0000 25.0367
#
#
#
# Elastic Compliance Matrix: (Units=1/GPa)
#
#
# Indices 1 2 3 4 5 6 
#
# 1 0.057060 -0.005738 -0.015812 0.000000 0.000000 0.000000
# 2 -0.005738 0.010355 -0.002394 0.000000 0.000000 0.000000
# 3 -0.015812 -0.002394 0.025073 0.000000 0.000000 0.000000
# 4 0.000000 0.000000 0.000000 0.089168 0.000000 0.000000
# 5 0.000000 0.000000 0.000000 0.000000 0.040001 0.000000
# 6 0.000000 0.000000 0.000000 0.000000 0.000000 0.039941
#
#
# Mechanical properties :
#
#
# Convention : Reuss Voigt Hill
#
# Bulk Modulus (GPa) = 22.42139 33.06189 27.74164
# Shear Modulus (GPa) = 15.41534 21.06071 18.23803
#
# Velocity S-wave (km/s) = 2.86052 3.34352 3.11141
# Velocity P-wave (km/s) = 4.77614 5.69693 5.25673
#
# Compressibility (1/GPa) = 0.04460026
#
# Stress axis : x y z
#
# Youngs Moduli (GPa) = 17.52527 96.57394 39.88396
#
# Poissons Ratio (x) = 0.55414 0.63063
# Poissons Ratio (y) = 0.10056 0.09549
# Poissons Ratio (z) = 0.27710 0.23121
#
# Static dielectric constant tensor:
#      x y z
#    x 3.262820 0.000000 0.000000 
#    y 0.000000 4.277720 0.000000 
#    z 0.000000 0.000000 3.103130 
# 
# 
# High freq. dielectric constant tensor:
#      x y z
#    x 1.715210 0.000000 0.000000 
#    y 0.000000 1.765680 0.000000 
#    z 0.000000 0.000000 1.685870 
# 
# From -- ./inp_files/13963.got.cif
#   From: 2010.03.12/outbox.cif.g09.slc.cpg/sg36_7_cif.got.tgz:13963.got - 2010.04.14 02:13:53.
