data_PCOD8174229
_publ_section_title
;
Structure prediction by ZEFSAII (Michael W. Deem and Ramdas Pophale) SiO2 
 PCOD8174229
Probable space group: C M C 21
;
_chemical_formula_sum "Si O2"
_cell_formula_units_Z 64
_cell_length_a 9.204127
_cell_length_b 20.907752
_cell_length_c 19.284050
_cell_angle_alpha 90.000000
_cell_angle_beta 90.000000
_cell_angle_gamma 90.000000
_cell_volume 3710.976391
_symmetry_space_group_name_H-M "C M C 21"
_symmetry_group_IT_number 36
_symmetry_cell_setting 'orthorhombic'
loop_
_space_group_symop_operation_xyz
x,y,z
-x,-y,1/2+z
x,-y,1/2+z
-x,y,z
1/2+x,1/2+y,z
1/2-x,1/2-y,1/2+z
1/2+x,1/2-y,1/2+z
1/2-x,1/2+y,z
loop_
_atom_site_type_symbol
_atom_site_label
_atom_site_fract_x
_atom_site_fract_y
_atom_site_fract_z
Si Si1 0.170706 0.067129 0.740110
Si Si2 0.169190 0.315546 0.173638
Si Si3 0.168611 0.753466 0.894101
Si Si4 0.826389 0.934966 0.678669
Si Si5 0.667715 0.240096 0.527888
Si Si6 0.168256 0.191333 0.250258
Si Si7 0.829793 0.122307 0.884391
Si Si8 0.329583 0.384869 0.536514
O O1 0.245502 0.122181 0.696273
O O2 0.206464 0.073407 0.822254
O O3 0.000000 0.072457 0.726804
O O4 0.234373 0.999725 0.713141
O O5 0.193756 0.307389 0.091555
O O6 0.235959 0.253698 0.212800
O O7 0.000000 0.324405 0.192172
O O8 0.191946 0.804628 0.832713
O O9 0.243400 0.687452 0.871494
O O10 0.000000 0.739552 0.907183
O O11 0.239020 0.784406 0.962613
O O12 0.763179 0.874688 0.722163
O O13 0.766583 0.928569 0.599098
O O14 0.000000 0.936162 0.682082
O O15 0.500000 0.241686 0.505384
O O16 0.720589 0.311583 0.547613
O O17 0.000000 0.191243 0.229388
O O18 0.000000 0.139701 0.886191
O O19 0.782708 0.091733 0.959094
O O20 0.500000 0.388624 0.544687
#
# Coordination Sequence:
#
# PCOD8174229 Si02
#       8
#     8   8   8   8   8   8   8   8
#     4  10  20  31  47  74 104 128 157 207 255 287
#     4  10  18  32  53  72  95 130 167 198 237 298
#     4  10  18  28  47  75 101 124 156 206 253 286
#     4   9  16  29  48  71  97 126 165 208 243 282
#     4   9  17  30  50  73  95 126 164 202 243 292
#     4   9  16  28  48  73  96 123 162 201 241 286
#     4   9  17  29  45  69  98 128 162 197 242 301
#     4   8  13  25  46  67  88 119 163 201 230 280
#
# _framework density 17.246134999999999
#
# number of rings (size 3 to 8) (size 9 to 14) (size 15 to 20)
#    0.000    2.750    2.500    1.125    0.000    0.500 
#    0.000    1.250    0.000    9.750    0.000    0.000 
#    0.000    0.000    0.000    0.000    0.000    0.000 
#
# Total GULP energy -396596.101896 kJ/mol
# GULP energy per Si atom -12393.628184 kJ/mol
# Density = 1.720688 g / cm^3
# Si number density = 17.246135 Si / 1000 Ang^3
#
#
#
# Elastic Constant Matrix: (Units=GPa)
#
#
# Indices 1 2 3 4 5 6 
#
# 1 35.1082 25.0272 35.7836 0.0000 0.0000 0.0000
# 2 25.0272 120.8127 76.5624 0.0000 0.0000 0.0000
# 3 35.7836 76.5624 148.9308 0.0000 0.0000 0.0000
# 4 0.0000 0.0000 0.0000 26.9253 0.0000 0.0000
# 5 0.0000 0.0000 0.0000 0.0000 22.9955 0.0000
# 6 0.0000 0.0000 0.0000 0.0000 0.0000 17.3945
#
#
#
# Elastic Compliance Matrix: (Units=1/GPa)
#
#
# Indices 1 2 3 4 5 6 
#
# 1 0.038505 -0.003135 -0.007640 0.000000 0.000000 0.000000
# 2 -0.003135 0.012532 -0.005689 0.000000 0.000000 0.000000
# 3 -0.007640 -0.005689 0.011475 0.000000 0.000000 0.000000
# 4 0.000000 0.000000 0.000000 0.037140 0.000000 0.000000
# 5 0.000000 0.000000 0.000000 0.000000 0.043487 0.000000
# 6 0.000000 0.000000 0.000000 0.000000 0.000000 0.057490
#
#
# Mechanical properties :
#
#
# Convention : Reuss Voigt Hill
#
# Bulk Modulus (GPa) = 33.80234 64.39979 49.10106
# Shear Modulus (GPa) = 20.54079 24.62829 22.58454
#
# Velocity S-wave (km/s) = 3.45488 3.78305 3.62269
# Velocity P-wave (km/s) = 5.96301 7.51695 6.78462
#
# Compressibility (1/GPa) = 0.02958375
#
# Stress axis : x y z
#
# Youngs Moduli (GPa) = 25.97058 79.79457 87.14628
#
# Poissons Ratio (x) = 0.25015 0.66580
# Poissons Ratio (y) = 0.08142 0.49580
# Poissons Ratio (z) = 0.19842 0.45398
#
# Static dielectric constant tensor:
#      x y z
#    x 2.873940 0.000000 0.000000 
#    y 0.000000 3.136550 0.000000 
#    z 0.000000 0.000000 3.598660 
# 
# 
# High freq. dielectric constant tensor:
#      x y z
#    x 1.624850 0.000000 0.000000 
#    y 0.000000 1.637090 0.000000 
#    z 0.000000 0.000000 1.687000 
# 
# From -- ./inp_files/15786.got.cif
#   From: 2010.03.12/outbox.cif.g09.slc.cpg/sg36_8_cif.got.tgz:15786.got - 2010.04.14 02:13:53.
