data_PCOD8174764
_publ_section_title
;
Structure prediction by ZEFSAII (Michael W. Deem and Ramdas Pophale) SiO2 
 PCOD8174764
Probable space group: C M C 21
;
_chemical_formula_sum "Si O2"
_cell_formula_units_Z 52
_cell_length_a 18.129619
_cell_length_b 25.164980
_cell_length_c 5.251607
_cell_angle_alpha 90.000000
_cell_angle_beta 90.000000
_cell_angle_gamma 90.000000
_cell_volume 2395.948537
_symmetry_space_group_name_H-M "C M C 21"
_symmetry_group_IT_number 36
_symmetry_cell_setting 'orthorhombic'
loop_
_space_group_symop_operation_xyz
x,y,z
-x,-y,1/2+z
x,-y,1/2+z
-x,y,z
1/2+x,1/2+y,z
1/2-x,1/2-y,1/2+z
1/2+x,1/2-y,1/2+z
1/2-x,1/2+y,z
loop_
_atom_site_type_symbol
_atom_site_label
_atom_site_fract_x
_atom_site_fract_y
_atom_site_fract_z
Si Si1 0.724651 0.973618 0.329540
Si Si2 0.000000 0.534105 0.907708
Si Si3 0.371741 0.118040 0.880563
Si Si4 0.587830 0.820571 0.878938
Si Si5 0.613221 0.519078 0.345142
Si Si6 0.412676 0.699878 0.857633
Si Si7 0.087996 0.861247 0.856868
O O1 0.708194 0.910320 0.348709
O O2 0.688024 0.003176 0.572199
O O3 0.811854 0.984444 0.322176
O O4 0.928940 0.570151 0.867120
O O5 0.000000 0.488573 0.693770
O O6 0.386063 0.159000 0.652936
O O7 0.374299 0.147661 0.150089
O O8 0.500000 0.825654 0.851867
O O9 0.615829 0.760134 0.858420
O O10 0.568341 0.497146 0.590001
O O11 0.627544 0.581727 0.359696
O O12 0.500000 0.700069 0.861903
O O13 0.384294 0.670721 0.603842
O O14 0.383605 0.669895 0.108485
O O15 0.000000 0.869565 0.856828
#
# Coordination Sequence:
#
# PCOD8174764 Si02
#       7
#     8   4   8   8   8   8   8
#     4  10  21  38  54  76 104 144 198 227 271 325
#     4  12  22  32  46  72 110 146 180 232 276 314
#     4  12  21  34  53  77 110 152 192 231 279 323
#     4  11  20  35  52  81 114 149 190 230 279 326
#     4  10  21  36  57  83 110 147 186 227 272 335
#     4   9  19  33  54  80 117 151 179 224 275 337
#     4  10  19  34  55  87 118 146 178 222 282 331
#
# _framework density 21.703302999999998
#
# number of rings (size 3 to 8) (size 9 to 14) (size 15 to 20)
#    0.000    1.538    1.538    4.615    0.000    3.077 
#    0.000    0.000    0.000    0.000    0.000   86.154 
#    0.000    0.000    0.000    0.000    0.000    0.000 
#
# Total GULP energy -322334.741714 kJ/mol
# GULP energy per Si atom -12397.490066 kJ/mol
# Density = 2.165391 g / cm^3
# Si number density = 21.703303 Si / 1000 Ang^3
#
#
#
# Elastic Constant Matrix: (Units=GPa)
#
#
# Indices 1 2 3 4 5 6 
#
# 1 43.2317 19.9649 -4.0323 0.0000 0.0000 0.0000
# 2 19.9649 137.2820 49.0908 0.0000 0.0000 0.0000
# 3 -4.0323 49.0908 181.3200 0.0000 0.0000 0.0000
# 4 0.0000 0.0000 0.0000 52.9384 0.0000 0.0000
# 5 0.0000 0.0000 0.0000 0.0000 -7.2985 0.0000
# 6 0.0000 0.0000 0.0000 0.0000 0.0000 156.6029
#
#
#
# Elastic Compliance Matrix: (Units=1/GPa)
#
#
# Indices 1 2 3 4 5 6 
#
# 1 0.025274 -0.004292 0.001724 0.000000 0.000000 0.000000
# 2 -0.004292 0.008794 -0.002476 0.000000 0.000000 0.000000
# 3 0.001724 -0.002476 0.006224 0.000000 0.000000 0.000000
# 4 0.000000 0.000000 0.000000 0.018890 0.000000 0.000000
# 5 0.000000 0.000000 0.000000 0.000000 -0.137014 0.000000
# 6 0.000000 0.000000 0.000000 0.000000 0.000000 0.006386
#
#
# Mechanical properties :
#
#
# Convention : Reuss Voigt Hill
#
# Bulk Modulus (GPa) = 33.10896 54.65339 43.88117
# Shear Modulus (GPa) = -97.48550 60.23589 -18.62481
#
# Velocity S-wave (km/s) = -6.70931 5.27395 -2.93261
# Velocity P-wave (km/s) = 6.68816 7.89447 2.96574
#
# Compressibility (1/GPa) = 0.03020331
#
# Stress axis : x y z
#
# Youngs Moduli (GPa) = 39.56612 113.71383 160.67085
#
# Poissons Ratio (x) = 0.48808 -0.27702
# Poissons Ratio (y) = 0.16982 0.39788
# Poissons Ratio (z) = -0.06822 0.28160
#
# Static dielectric constant tensor:
#      x y z
#    x 3.499110 0.000000 0.000000 
#    y 0.000000 4.010950 0.000000 
#    z 0.000000 0.000000 5.454160 
# 
# 
# High freq. dielectric constant tensor:
#      x y z
#    x 1.806860 0.000000 0.000000 
#    y 0.000000 1.858520 0.000000 
#    z 0.000000 0.000000 1.886700 
# 
# From -- ./inp_files/1391.got.cif
#   From: 2010.03.12/outbox.cif.g09.slc.cpg/sg36_1_cif.got.tgz:1391.got - 2010.04.14 02:13:53.
