data_PCOD8174163
_publ_section_title
;
Structure prediction by ZEFSAII (Michael W. Deem and Ramdas Pophale) SiO2 
 PCOD8174163
Probable space group: C M M 2
;
_chemical_formula_sum "Si O2"
_cell_formula_units_Z 40
_cell_length_a 27.371768
_cell_length_b 9.125654
_cell_length_c 10.419132
_cell_angle_alpha 90.000000
_cell_angle_beta 90.000000
_cell_angle_gamma 90.000000
_cell_volume 2602.545847
_symmetry_space_group_name_H-M "C M M 2"
_symmetry_group_IT_number 35
_symmetry_cell_setting 'orthorhombic'
loop_
_space_group_symop_operation_xyz
x,y,z
-x,-y,z
-x,y,z
x,-y,z
1/2+x,1/2+y,z
1/2-x,1/2-y,z
1/2-x,1/2+y,z
1/2+x,1/2-y,z
loop_
_atom_site_type_symbol
_atom_site_label
_atom_site_fract_x
_atom_site_fract_y
_atom_site_fract_z
Si Si1 0.606006 0.834112 0.723670
Si Si2 0.055694 0.827991 0.212291
Si Si3 0.882996 0.826282 0.967013
Si Si4 0.299211 0.166074 0.854863
Si Si5 0.056455 0.329068 0.467200
O O1 0.665604 0.833583 0.728566
O O2 0.587252 0.769941 0.588812
O O3 0.585977 0.000000 0.741955
O O4 0.586902 0.733575 0.842335
O O5 0.088548 0.775718 0.093699
O O6 0.075872 0.752282 0.340790
O O7 0.000000 0.779339 0.185166
O O8 0.059531 0.000000 0.232601
O O9 0.877662 0.000000 0.957926
O O10 0.829039 0.750722 0.968388
O O11 0.250000 0.250000 0.819953
O O12 0.287515 0.000000 0.898662
O O13 0.065246 0.500000 0.445872
O O14 0.000000 0.291755 0.492991
#
# Coordination Sequence:
#
# PCOD8174163 Si02
#       5
#     8   8   8   8   8
#     4   8  17  30  44  67  93 117 149 190 229 267
#     4   9  18  31  45  65  95 127 157 188 222 265
#     4   9  17  29  46  68  92 121 154 188 226 268
#     4   9  17  30  48  69  92 116 147 189 233 276
#     4   9  17  30  47  66  91 124 157 188 225 268
#
# _framework density 15.369565
#
# number of rings (size 3 to 8) (size 9 to 14) (size 15 to 20)
#    1.200    2.000    0.000    0.600    0.000    3.200 
#    0.000    0.000    0.000    1.200    0.000    5.600 
#    0.000    0.000    0.000    0.000    0.000    0.000 
#
# Total GULP energy -247789.372034 kJ/mol
# GULP energy per Si atom -12389.468602 kJ/mol
# Density = 1.533458 g / cm^3
# Si number density = 15.369565 Si / 1000 Ang^3
#
#
#
# Elastic Constant Matrix: (Units=GPa)
#
#
# Indices 1 2 3 4 5 6 
#
# 1 69.3076 33.2444 58.5430 0.0000 0.0000 0.0000
# 2 33.2444 66.9164 50.6293 0.0000 0.0000 0.0000
# 3 58.5430 50.6293 132.8118 0.0000 0.0000 0.0000
# 4 0.0000 0.0000 0.0000 27.4455 0.0000 0.0000
# 5 0.0000 0.0000 0.0000 0.0000 8.4959 0.0000
# 6 0.0000 0.0000 0.0000 0.0000 0.0000 21.5761
#
#
#
# Elastic Compliance Matrix: (Units=1/GPa)
#
#
# Indices 1 2 3 4 5 6 
#
# 1 0.024394 -0.005598 -0.008619 0.000000 0.000000 0.000000
# 2 -0.005598 0.022286 -0.006028 0.000000 0.000000 0.000000
# 3 -0.008619 -0.006028 0.013626 0.000000 0.000000 0.000000
# 4 0.000000 0.000000 0.000000 0.036436 0.000000 0.000000
# 5 0.000000 0.000000 0.000000 0.000000 0.117704 0.000000
# 6 0.000000 0.000000 0.000000 0.000000 0.000000 0.046348
#
#
# Mechanical properties :
#
#
# Convention : Reuss Voigt Hill
#
# Bulk Modulus (GPa) = 50.46242 61.54102 56.00172
# Shear Modulus (GPa) = 16.23962 19.94475 18.09218
#
# Velocity S-wave (km/s) = 3.25408 3.60624 3.43467
# Velocity P-wave (km/s) = 6.85731 7.58075 7.22808
#
# Compressibility (1/GPa) = 0.01981673
#
# Stress axis : x y z
#
# Youngs Moduli (GPa) = 40.99440 44.87116 73.38643
#
# Poissons Ratio (x) = 0.25119 0.63249
# Poissons Ratio (y) = 0.22948 0.44238
# Poissons Ratio (z) = 0.35331 0.27049
#
# Static dielectric constant tensor:
#      x y z
#    x 2.774290 0.000000 0.000000 
#    y 0.000000 2.932610 0.000000 
#    z 0.000000 0.000000 2.884520 
# 
# 
# High freq. dielectric constant tensor:
#      x y z
#    x 1.567450 0.000000 0.000000 
#    y 0.000000 1.596210 0.000000 
#    z 0.000000 0.000000 1.573350 
# 
# From -- ./inp_files/4987.got.cif
#   From: 2010.03.12/outbox.cif.g09.slc.cpg/sg35_3_cif.got.tgz:4987.got - 2010.04.14 02:02:04.
