data_PCOD8174806
_publ_section_title
;
Structure prediction by ZEFSAII (Michael W. Deem and Ramdas Pophale) SiO2 
 PCOD8174806
Probable space group: C M C 21
;
_chemical_formula_sum "Si O2"
_cell_formula_units_Z 64
_cell_length_a 9.222344
_cell_length_b 14.916507
_cell_length_c 23.869833
_cell_angle_alpha 90.000000
_cell_angle_beta 90.000000
_cell_angle_gamma 90.000000
_cell_volume 3283.657368
_symmetry_space_group_name_H-M "C M C 21"
_symmetry_group_IT_number 36
_symmetry_cell_setting 'orthorhombic'
loop_
_space_group_symop_operation_xyz
x,y,z
-x,-y,1/2+z
x,-y,1/2+z
-x,y,z
1/2+x,1/2+y,z
1/2-x,1/2-y,1/2+z
1/2+x,1/2-y,1/2+z
1/2-x,1/2+y,z
loop_
_atom_site_type_symbol
_atom_site_label
_atom_site_fract_x
_atom_site_fract_y
_atom_site_fract_z
Si Si1 0.666174 0.262353 0.278530
Si Si2 0.168282 0.495426 0.570509
Si Si3 0.828312 0.290192 0.559466
Si Si4 0.335766 0.486776 0.679172
Si Si5 0.329399 0.892934 0.861372
Si Si6 0.665790 0.540306 0.799958
Si Si7 0.165885 0.224276 0.170394
Si Si8 0.329756 0.152041 0.486699
O O1 0.500000 0.244724 0.260239
O O2 0.724057 0.183005 0.318079
O O3 0.678331 0.354366 0.313688
O O4 0.763399 0.272968 0.223427
O O5 0.213539 0.394876 0.552342
O O6 0.246663 0.526830 0.627325
O O7 0.212155 0.562984 0.521242
O O8 0.000000 0.498994 0.584152
O O9 0.755194 0.249126 0.615144
O O10 0.761625 0.237449 0.507039
O O11 0.000000 0.275832 0.562409
O O12 0.500000 0.519839 0.671541
O O13 0.271260 0.522928 0.737568
O O14 0.322929 0.380644 0.680737
O O15 0.500000 0.906660 0.858350
O O16 0.281297 0.864862 0.923223
O O17 0.256236 0.987108 0.846209
O O18 0.500000 0.506669 0.802450
O O19 0.000000 0.256140 0.163113
O O20 0.500000 0.173945 0.491812
#
# Coordination Sequence:
#
# PCOD8174806 Si02
#       8
#     8   8   8   8   8   8   8   8
#     4  10  21  36  56  84 115 150 188 233 285 337
#     4   9  20  37  56  80 112 148 186 231 279 335
#     4  10  21  37  57  84 113 146 187 234 284 337
#     4   9  18  33  54  81 114 145 178 229 284 334
#     4  10  22  40  59  81 115 154 193 236 283 336
#     4  10  21  37  56  82 114 147 187 236 282 334
#     4  10  19  34  57  84 115 149 183 229 284 339
#     4  10  22  40  59  82 114 153 194 236 281 336
#
# _framework density 19.490462000000001
#
# number of rings (size 3 to 8) (size 9 to 14) (size 15 to 20)
#    0.000    2.250    1.250    0.750    1.750    4.000 
#    0.000    0.000    0.000    0.000    0.000    0.000 
#    0.000    0.000    0.000    0.000    0.000    0.000 
#
# Total GULP energy -396909.229809 kJ/mol
# GULP energy per Si atom -12403.413432 kJ/mol
# Density = 1.944610 g / cm^3
# Si number density = 19.490462 Si / 1000 Ang^3
#
#
#
# Elastic Constant Matrix: (Units=GPa)
#
#
# Indices 1 2 3 4 5 6 
#
# 1 53.6773 19.5419 28.5660 0.0000 0.0000 0.0000
# 2 19.5419 52.4563 16.0961 0.0000 0.0000 0.0000
# 3 28.5660 16.0961 89.3091 0.0000 0.0000 0.0000
# 4 0.0000 0.0000 0.0000 27.3675 0.0000 0.0000
# 5 0.0000 0.0000 0.0000 0.0000 33.0524 0.0000
# 6 0.0000 0.0000 0.0000 0.0000 0.0000 25.6521
#
#
#
# Elastic Compliance Matrix: (Units=1/GPa)
#
#
# Indices 1 2 3 4 5 6 
#
# 1 0.024777 -0.007197 -0.006628 0.000000 0.000000 0.000000
# 2 -0.007197 0.022270 -0.001712 0.000000 0.000000 0.000000
# 3 -0.006628 -0.001712 0.013626 0.000000 0.000000 0.000000
# 4 0.000000 0.000000 0.000000 0.036540 0.000000 0.000000
# 5 0.000000 0.000000 0.000000 0.000000 0.030255 0.000000
# 6 0.000000 0.000000 0.000000 0.000000 0.000000 0.038983
#
#
# Mechanical properties :
#
#
# Convention : Reuss Voigt Hill
#
# Bulk Modulus (GPa) = 33.78420 35.98339 34.88380
# Shear Modulus (GPa) = 24.10918 25.96365 25.03642
#
# Velocity S-wave (km/s) = 3.52088 3.65378 3.58795
# Velocity P-wave (km/s) = 5.82238 6.02514 5.92463
#
# Compressibility (1/GPa) = 0.02959963
#
# Stress axis : x y z
#
# Youngs Moduli (GPa) = 40.35967 44.90394 73.39123
#
# Poissons Ratio (x) = 0.32316 0.48644
# Poissons Ratio (y) = 0.29045 0.12563
# Poissons Ratio (z) = 0.26751 0.07687
#
# Static dielectric constant tensor:
#      x y z
#    x 3.484470 0.000000 0.000000 
#    y 0.000000 3.554940 0.000000 
#    z 0.000000 0.000000 3.515790 
# 
# 
# High freq. dielectric constant tensor:
#      x y z
#    x 1.751600 0.000000 0.000000 
#    y 0.000000 1.763350 0.000000 
#    z 0.000000 0.000000 1.752530 
# 
# From -- ./inp_files/16533.got.cif
#   From: 2010.03.12/outbox.cif.g09.slc.cpg/sg36_9_cif.got.tgz:16533.got - 2010.04.14 02:13:53.
