data_PCOD8174408
_publ_section_title
;
Structure prediction by ZEFSAII (Michael W. Deem and Ramdas Pophale) SiO2 
 PCOD8174408
Probable space group: C M C 21
;
_chemical_formula_sum "Si O2"
_cell_formula_units_Z 64
_cell_length_a 8.660336
_cell_length_b 27.302863
_cell_length_c 13.181495
_cell_angle_alpha 90.000000
_cell_angle_beta 90.000000
_cell_angle_gamma 90.000000
_cell_volume 3116.790425
_symmetry_space_group_name_H-M "C M C 21"
_symmetry_group_IT_number 36
_symmetry_cell_setting 'orthorhombic'
loop_
_space_group_symop_operation_xyz
x,y,z
-x,-y,1/2+z
x,-y,1/2+z
-x,y,z
1/2+x,1/2+y,z
1/2-x,1/2-y,1/2+z
1/2+x,1/2-y,1/2+z
1/2-x,1/2+y,z
loop_
_atom_site_type_symbol
_atom_site_label
_atom_site_fract_x
_atom_site_fract_y
_atom_site_fract_z
Si Si1 0.819596 0.224433 0.304440
Si Si2 0.816351 0.908605 0.434387
Si Si3 0.817258 0.051396 0.148542
Si Si4 0.816919 0.623513 0.545131
Si Si5 0.319535 0.119575 0.319144
Si Si6 0.327077 0.297981 0.441790
Si Si7 0.827741 0.726748 0.611020
Si Si8 0.683401 0.554213 0.716506
O O1 0.715668 0.176559 0.307622
O O2 0.793256 0.258119 0.401166
O O3 0.749196 0.259910 0.217197
O O4 0.000000 0.210738 0.291188
O O5 0.750887 0.935111 0.536213
O O6 0.758026 0.852478 0.435034
O O7 0.755259 0.934164 0.330838
O O8 0.000000 0.909455 0.438279
O O9 0.771391 0.090076 0.234001
O O10 0.000000 0.050250 0.142619
O O11 0.751994 0.998619 0.182433
O O12 0.766897 0.603699 0.433454
O O13 0.751966 0.679661 0.554885
O O14 0.741547 0.593221 0.635469
O O15 0.000000 0.619808 0.553329
O O16 0.500000 0.110524 0.303360
O O17 0.500000 0.295600 0.393061
O O18 0.334679 0.279548 0.556712
O O19 0.000000 0.708194 0.633881
O O20 0.500000 0.555303 0.716858
#
# Coordination Sequence:
#
# PCOD8174408 Si02
#       8
#     8   8   8   8   8   8   8   8
#     4  11  21  34  57  87 117 152 196 240 287 344
#     4   9  19  37  59  87 121 158 196 242 305 360
#     4  10  22  40  64  88 118 157 197 249 305 356
#     4  10  21  39  60  84 120 161 199 242 297 353
#     4  11  23  40  61  87 122 161 201 243 295 355
#     4  10  18  34  56  76 112 157 191 226 282 351
#     4   9  18  34  55  79 112 158 194 225 285 350
#     4  10  22  38  62  92 118 152 200 251 302 355
#
# _framework density 20.533944000000002
#
# number of rings (size 3 to 8) (size 9 to 14) (size 15 to 20)
#    0.000    2.000    1.250    2.250    1.750    3.500 
#    0.000    4.375    0.000    0.000    0.000    0.000 
#    0.000    0.000    0.000    0.000    0.000    0.000 
#
# Total GULP energy -396515.552612 kJ/mol
# GULP energy per Si atom -12391.111019 kJ/mol
# Density = 2.048721 g / cm^3
# Si number density = 20.533944 Si / 1000 Ang^3
#
#
#
# Elastic Constant Matrix: (Units=GPa)
#
#
# Indices 1 2 3 4 5 6 
#
# 1 11.3940 5.9290 11.8205 0.0000 0.0000 0.0000
# 2 5.9290 147.8591 70.2014 0.0000 0.0000 0.0000
# 3 11.8205 70.2014 144.0516 0.0000 0.0000 0.0000
# 4 0.0000 0.0000 0.0000 37.9827 0.0000 0.0000
# 5 0.0000 0.0000 0.0000 0.0000 26.3602 0.0000
# 6 0.0000 0.0000 0.0000 0.0000 0.0000 22.7633
#
#
#
# Elastic Compliance Matrix: (Units=1/GPa)
#
#
# Indices 1 2 3 4 5 6 
#
# 1 0.095934 -0.000142 -0.007803 0.000000 0.000000 0.000000
# 2 -0.000142 0.008799 -0.004277 0.000000 0.000000 0.000000
# 3 -0.007803 -0.004277 0.009666 0.000000 0.000000 0.000000
# 4 0.000000 0.000000 0.000000 0.026328 0.000000 0.000000
# 5 0.000000 0.000000 0.000000 0.000000 0.037936 0.000000
# 6 0.000000 0.000000 0.000000 0.000000 0.000000 0.043930
#
#
# Mechanical properties :
#
#
# Convention : Reuss Voigt Hill
#
# Bulk Modulus (GPa) = 11.11642 53.24518 32.18080
# Shear Modulus (GPa) = 18.04904 31.77816 24.91360
#
# Velocity S-wave (km/s) = 2.96799 3.93821 3.48701
# Velocity P-wave (km/s) = 4.14375 6.83125 5.64963
#
# Compressibility (1/GPa) = 0.08995700
#
# Stress axis : x y z
#
# Youngs Moduli (GPa) = 10.42378 113.64475 103.45165
#
# Poissons Ratio (x) = 0.01616 0.80721
# Poissons Ratio (y) = 0.00148 0.44242
# Poissons Ratio (z) = 0.08133 0.48601
#
# Static dielectric constant tensor:
#      x y z
#    x 3.328580 0.000000 0.000000 
#    y 0.000000 3.894700 0.000000 
#    z 0.000000 0.000000 4.024180 
# 
# 
# High freq. dielectric constant tensor:
#      x y z
#    x 1.762730 0.000000 0.000000 
#    y 0.000000 1.808100 0.000000 
#    z 0.000000 0.000000 1.820790 
# 
# From -- ./inp_files/7097.got.cif
#   From: 2010.03.12/outbox.cif.g09.slc.cpg/sg36_4_cif.got.tgz:7097.got - 2010.04.14 02:13:53.
