data_PCOD8174121
_publ_section_title
;
Structure prediction by ZEFSAII (Michael W. Deem and Ramdas Pophale) SiO2 
 PCOD8174121
Probable space group: C M M 2
;
_chemical_formula_sum "Si O2"
_cell_formula_units_Z 40
_cell_length_a 15.668862
_cell_length_b 8.562554
_cell_length_c 14.382418
_cell_angle_alpha 90.000000
_cell_angle_beta 90.000000
_cell_angle_gamma 90.000000
_cell_volume 1929.623971
_symmetry_space_group_name_H-M "C M M 2"
_symmetry_group_IT_number 35
_symmetry_cell_setting 'orthorhombic'
loop_
_space_group_symop_operation_xyz
x,y,z
-x,-y,z
-x,y,z
x,-y,z
1/2+x,1/2+y,z
1/2-x,1/2-y,z
1/2-x,1/2+y,z
1/2+x,1/2-y,z
loop_
_atom_site_type_symbol
_atom_site_label
_atom_site_fract_x
_atom_site_fract_y
_atom_site_fract_z
Si Si1 0.500000 0.685258 0.495930
Si Si2 0.500000 0.314860 0.283543
Si Si3 0.337928 0.315302 0.608632
Si Si4 0.158666 0.816159 0.971116
Si Si5 0.156087 0.315153 0.168676
Si Si6 0.403928 0.823231 0.790918
O O1 0.500000 0.500000 0.502786
O O2 0.500000 0.741168 0.389969
O O3 0.584420 0.751498 0.546698
O O4 0.500000 0.500000 0.272992
O O5 0.413803 0.248187 0.239609
O O6 0.336502 0.500000 0.607492
O O7 0.250000 0.250000 0.565654
O O8 0.344607 0.257264 0.714574
O O9 0.250000 0.750000 0.941896
O O10 0.096304 0.772544 0.887155
O O11 0.162126 0.000000 0.987800
O O12 0.126790 0.736572 0.065966
O O13 0.159596 0.500000 0.174313
O O14 0.250000 0.250000 0.193461
O O15 0.500000 0.819967 0.752740
O O16 0.372116 0.000000 0.808170
#
# Coordination Sequence:
#
# PCOD8174121 Si02
#       6
#     4   4   8   8   8   8
#     4   9  22  43  66  91 124 159 203 258 312 373
#     4  11  23  43  68  95 126 163 207 260 322 379
#     4  11  22  41  65  92 124 163 206 252 309 368
#     4  11  22  38  60  87 122 164 208 253 304 364
#     4  11  23  42  65  94 129 167 211 260 312 372
#     4  11  23  38  58  88 125 164 208 256 304 362
#
# _framework density 20.729427999999999
#
# number of rings (size 3 to 8) (size 9 to 14) (size 15 to 20)
#    0.000    1.200    1.000    6.900    1.400    2.000 
#    0.000    6.000    0.000    0.000    0.000    0.000 
#    0.000    0.000    0.000    0.000    0.000    0.000 
#
# Total GULP energy -248080.324482 kJ/mol
# GULP energy per Si atom -12404.016224 kJ/mol
# Density = 2.068225 g / cm^3
# Si number density = 20.729428 Si / 1000 Ang^3
#
#
#
# Elastic Constant Matrix: (Units=GPa)
#
#
# Indices 1 2 3 4 5 6 
#
# 1 144.9651 49.1096 79.1461 0.0000 0.0000 0.0000
# 2 49.1096 140.2050 48.2687 0.0000 0.0000 0.0000
# 3 79.1461 48.2687 144.6859 0.0000 0.0000 0.0000
# 4 0.0000 0.0000 0.0000 23.7273 0.0000 0.0000
# 5 0.0000 0.0000 0.0000 0.0000 37.7096 0.0000
# 6 0.0000 0.0000 0.0000 0.0000 0.0000 34.6040
#
#
#
# Elastic Compliance Matrix: (Units=1/GPa)
#
#
# Indices 1 2 3 4 5 6 
#
# 1 0.010255 -0.001876 -0.004984 0.000000 0.000000 0.000000
# 2 -0.001876 0.008401 -0.001776 0.000000 0.000000 0.000000
# 3 -0.004984 -0.001776 0.010230 0.000000 0.000000 0.000000
# 4 0.000000 0.000000 0.000000 0.042145 0.000000 0.000000
# 5 0.000000 0.000000 0.000000 0.000000 0.026518 0.000000
# 6 0.000000 0.000000 0.000000 0.000000 0.000000 0.028898
#
#
# Mechanical properties :
#
#
# Convention : Reuss Voigt Hill
#
# Bulk Modulus (GPa) = 86.10495 86.98943 86.54719
# Shear Modulus (GPa) = 33.87716 36.09697 34.98707
#
# Velocity S-wave (km/s) = 4.04698 4.17746 4.11274
# Velocity P-wave (km/s) = 7.96650 8.08230 8.02461
#
# Compressibility (1/GPa) = 0.01161373
#
# Stress axis : x y z
#
# Youngs Moduli (GPa) = 97.51641 119.03134 97.74903
#
# Poissons Ratio (x) = 0.22333 0.48714
# Poissons Ratio (y) = 0.18296 0.17364
# Poissons Ratio (z) = 0.48598 0.21145
#
# Static dielectric constant tensor:
#      x y z
#    x 3.259580 0.000000 0.000000 
#    y 0.000000 3.763580 0.000000 
#    z 0.000000 0.000000 3.734460 
# 
# 
# High freq. dielectric constant tensor:
#      x y z
#    x 1.821310 0.000000 0.000000 
#    y 0.000000 1.817690 0.000000 
#    z 0.000000 0.000000 1.806930 
# 
# From -- ./inp_files/14730.got.cif
#   From: 2010.03.12/outbox.cif.g09.slc.cpg/sg35_8_cif.got.tgz:14730.got - 2010.04.14 02:02:04.
