data_PCOD8174257
_publ_section_title
;
Structure prediction by ZEFSAII (Michael W. Deem and Ramdas Pophale) SiO2 
 PCOD8174257
Probable space group: C M C 21
;
_chemical_formula_sum "Si O2"
_cell_formula_units_Z 64
_cell_length_a 9.322826
_cell_length_b 22.621642
_cell_length_c 16.126530
_cell_angle_alpha 90.000000
_cell_angle_beta 90.000000
_cell_angle_gamma 90.000000
_cell_volume 3401.046993
_symmetry_space_group_name_H-M "C M C 21"
_symmetry_group_IT_number 36
_symmetry_cell_setting 'orthorhombic'
loop_
_space_group_symop_operation_xyz
x,y,z
-x,-y,1/2+z
x,-y,1/2+z
-x,y,z
1/2+x,1/2+y,z
1/2-x,1/2-y,1/2+z
1/2+x,1/2-y,1/2+z
1/2-x,1/2+y,z
loop_
_atom_site_type_symbol
_atom_site_label
_atom_site_fract_x
_atom_site_fract_y
_atom_site_fract_z
Si Si1 0.656308 0.793254 0.926780
Si Si2 0.662673 0.616460 0.337386
Si Si3 0.166228 0.587370 0.011657
Si Si4 0.170175 0.719601 0.712148
Si Si5 0.840539 0.374695 0.083411
Si Si6 0.334047 0.649428 0.158711
Si Si7 0.836753 0.307638 0.396126
Si Si8 0.330600 0.466791 0.986223
O O1 0.500000 0.776243 0.891909
O O2 0.743067 0.826028 0.854745
O O3 0.740446 0.734254 0.954705
O O4 0.639673 0.834613 0.004244
O O5 0.500000 0.634128 0.359077
O O6 0.679427 0.605402 0.238823
O O7 0.706669 0.560808 0.395319
O O8 0.232881 0.622927 0.088353
O O9 0.000000 0.572806 0.031595
O O10 0.178767 0.625597 0.927646
O O11 0.254403 0.529208 0.991694
O O12 0.229035 0.666601 0.654217
O O13 0.221406 0.784524 0.682244
O O14 0.224610 0.701776 0.803484
O O15 0.000000 0.718757 0.708254
O O16 0.000000 0.399292 0.108044
O O17 0.731373 0.427408 0.061635
O O18 0.500000 0.651072 0.128781
O O19 0.000000 0.286201 0.402086
O O20 0.500000 0.474256 0.999151
#
# Coordination Sequence:
#
# PCOD8174257 Si02
#       8
#     8   8   8   8   8   8   8   8
#     4  10  18  29  52  84 114 142 177 224 276 329
#     4   9  18  35  60  84 109 147 187 230 280 336
#     4  11  24  39  56  81 115 153 193 237 283 332
#     4   9  17  33  58  84 112 146 182 221 274 339
#     4   9  18  33  55  82 110 141 181 227 274 327
#     4  10  19  36  62  86 114 148 187 232 286 343
#     4  10  20  36  55  77 112 152 185 222 276 338
#     4  10  21  39  60  80 108 147 192 233 279 336
#
# _framework density 18.817734000000002
#
# number of rings (size 3 to 8) (size 9 to 14) (size 15 to 20)
#    0.000    2.250    1.250    1.875    0.000    3.500 
#    2.250    1.250    0.000    0.000    0.000    0.000 
#    0.000    0.000    0.000    0.000    0.000    0.000 
#
# Total GULP energy -396621.396396 kJ/mol
# GULP energy per Si atom -12394.418637 kJ/mol
# Density = 1.877490 g / cm^3
# Si number density = 18.817734 Si / 1000 Ang^3
#
#
#
# Elastic Constant Matrix: (Units=GPa)
#
#
# Indices 1 2 3 4 5 6 
#
# 1 104.7062 65.3341 38.1120 0.0000 0.0000 0.0000
# 2 65.3341 127.0098 48.9941 0.0000 0.0000 0.0000
# 3 38.1120 48.9941 76.4445 0.0000 0.0000 0.0000
# 4 0.0000 0.0000 0.0000 24.3093 0.0000 0.0000
# 5 0.0000 0.0000 0.0000 0.0000 21.3659 0.0000
# 6 0.0000 0.0000 0.0000 0.0000 0.0000 24.4197
#
#
#
# Elastic Compliance Matrix: (Units=1/GPa)
#
#
# Indices 1 2 3 4 5 6 
#
# 1 0.014662 -0.006273 -0.003289 0.000000 0.000000 0.000000
# 2 -0.006273 0.013143 -0.005296 0.000000 0.000000 0.000000
# 3 -0.003289 -0.005296 0.018116 0.000000 0.000000 0.000000
# 4 0.000000 0.000000 0.000000 0.041137 0.000000 0.000000
# 5 0.000000 0.000000 0.000000 0.000000 0.046804 0.000000
# 6 0.000000 0.000000 0.000000 0.000000 0.000000 0.040951
#
#
# Mechanical properties :
#
#
# Convention : Reuss Voigt Hill
#
# Bulk Modulus (GPa) = 61.71436 68.11563 64.91500
# Shear Modulus (GPa) = 23.81737 24.40034 24.10885
#
# Velocity S-wave (km/s) = 3.56151 3.60483 3.58324
# Velocity P-wave (km/s) = 7.05546 7.32138 7.18965
#
# Compressibility (1/GPa) = 0.01620368
#
# Stress axis : x y z
#
# Youngs Moduli (GPa) = 68.20224 76.08342 55.20112
#
# Poissons Ratio (x) = 0.47731 0.18157
# Poissons Ratio (y) = 0.42787 0.29235
# Poissons Ratio (z) = 0.22433 0.40294
#
# Static dielectric constant tensor:
#      x y z
#    x 3.740450 0.000000 0.000000 
#    y 0.000000 3.473380 0.000000 
#    z 0.000000 0.000000 3.603800 
# 
# 
# High freq. dielectric constant tensor:
#      x y z
#    x 1.724860 0.000000 0.000000 
#    y 0.000000 1.721460 0.000000 
#    z 0.000000 0.000000 1.726550 
# 
# From -- ./inp_files/13938.got.cif
#   From: 2010.03.12/outbox.cif.g09.slc.cpg/sg36_7_cif.got.tgz:13938.got - 2010.04.14 02:13:53.
