data_PCOD8174706
_publ_section_title
;
Structure prediction by ZEFSAII (Michael W. Deem and Ramdas Pophale) SiO2 
 PCOD8174706
Probable space group: C M C 21
;
_chemical_formula_sum "Si O2"
_cell_formula_units_Z 64
_cell_length_a 9.082642
_cell_length_b 27.064247
_cell_length_c 13.030209
_cell_angle_alpha 90.000000
_cell_angle_beta 90.000000
_cell_angle_gamma 90.000000
_cell_volume 3203.019086
_symmetry_space_group_name_H-M "C M C 21"
_symmetry_group_IT_number 36
_symmetry_cell_setting 'orthorhombic'
loop_
_space_group_symop_operation_xyz
x,y,z
-x,-y,1/2+z
x,-y,1/2+z
-x,y,z
1/2+x,1/2+y,z
1/2-x,1/2-y,1/2+z
1/2+x,1/2-y,1/2+z
1/2-x,1/2+y,z
loop_
_atom_site_type_symbol
_atom_site_label
_atom_site_fract_x
_atom_site_fract_y
_atom_site_fract_z
Si Si1 0.826258 0.587653 0.456570
Si Si2 0.673901 0.117565 0.051824
Si Si3 0.325948 0.227653 0.079553
Si Si4 0.662307 0.200127 0.446730
Si Si5 0.163391 0.227308 0.777796
Si Si6 0.173561 0.544825 0.235077
Si Si7 0.827902 0.124210 0.848504
Si Si8 0.826964 0.946885 0.162500
O O1 0.776703 0.644810 0.452197
O O2 0.780227 0.563512 0.348264
O O3 0.745239 0.561862 0.551339
O O4 0.000000 0.582692 0.473551
O O5 0.500000 0.117085 0.036494
O O6 0.737710 0.172387 0.073272
O O7 0.720653 0.084127 0.148132
O O8 0.745110 0.098568 0.944826
O O9 0.500000 0.224327 0.091267
O O10 0.252930 0.258756 0.173127
O O11 0.280871 0.260282 0.983835
O O12 0.500000 0.203614 0.499581
O O13 0.648692 0.219173 0.330951
O O14 0.235573 0.180721 0.837746
O O15 0.000000 0.206855 0.751922
O O16 0.262376 0.495548 0.213715
O O17 0.000000 0.534364 0.229828
O O18 0.790398 0.097258 0.741336
O O19 0.000000 0.121449 0.874430
O O20 0.000000 0.953111 0.145663
#
# Coordination Sequence:
#
# PCOD8174706 Si02
#       8
#     8   8   8   8   8   8   8   8
#     4  10  22  41  64  90 121 158 202 251 300 360
#     4  10  21  37  60  90 121 155 200 250 298 353
#     4  10  19  33  55  84 118 155 194 238 286 340
#     4  10  19  34  57  84 115 155 196 232 279 341
#     4   9  17  32  55  80 114 157 192 226 279 344
#     4  10  23  43  65  89 117 156 204 253 307 359
#     4  10  21  38  59  86 122 161 197 239 299 361
#     4  11  25  42  63  91 120 157 201 251 310 364
#
# _framework density 19.98115
#
# number of rings (size 3 to 8) (size 9 to 14) (size 15 to 20)
#    0.000    2.000    1.250    1.875    1.750    6.500 
#    0.000    1.250    0.000    3.000    0.000    0.000 
#    0.000    0.000    0.000    0.000    0.000    0.000 
#
# Total GULP energy -396573.697997 kJ/mol
# GULP energy per Si atom -12392.928062 kJ/mol
# Density = 1.993567 g / cm^3
# Si number density = 19.981150 Si / 1000 Ang^3
#
#
#
# Elastic Constant Matrix: (Units=GPa)
#
#
# Indices 1 2 3 4 5 6 
#
# 1 36.7774 32.7197 38.7528 0.0000 0.0000 0.0000
# 2 32.7197 122.0007 46.4932 0.0000 0.0000 0.0000
# 3 38.7528 46.4932 128.2940 0.0000 0.0000 0.0000
# 4 0.0000 0.0000 0.0000 33.6765 0.0000 0.0000
# 5 0.0000 0.0000 0.0000 0.0000 23.7370 0.0000
# 6 0.0000 0.0000 0.0000 0.0000 0.0000 26.7198
#
#
#
# Elastic Compliance Matrix: (Units=1/GPa)
#
#
# Indices 1 2 3 4 5 6 
#
# 1 0.045967 -0.008164 -0.010926 0.000000 0.000000 0.000000
# 2 -0.008164 0.010960 -0.001506 0.000000 0.000000 0.000000
# 3 -0.010926 -0.001506 0.011641 0.000000 0.000000 0.000000
# 4 0.000000 0.000000 0.000000 0.029694 0.000000 0.000000
# 5 0.000000 0.000000 0.000000 0.000000 0.042128 0.000000
# 6 0.000000 0.000000 0.000000 0.000000 0.000000 0.037425
#
#
# Mechanical properties :
#
#
# Convention : Reuss Voigt Hill
#
# Bulk Modulus (GPa) = 36.52902 58.11149 47.32026
# Shear Modulus (GPa) = 21.91694 28.10041 25.00867
#
# Velocity S-wave (km/s) = 3.31551 3.75420 3.54165
# Velocity P-wave (km/s) = 5.74267 6.92375 6.36068
#
# Compressibility (1/GPa) = 0.02737549
#
# Stress axis : x y z
#
# Youngs Moduli (GPa) = 21.75460 91.24015 85.90529
#
# Poissons Ratio (x) = 0.74490 0.93863
# Poissons Ratio (y) = 0.17761 0.12936
# Poissons Ratio (z) = 0.23770 0.13739
#
# Static dielectric constant tensor:
#      x y z
#    x 3.380580 0.000000 0.000000 
#    y 0.000000 3.772740 0.000000 
#    z 0.000000 0.000000 3.744160 
# 
# 
# High freq. dielectric constant tensor:
#      x y z
#    x 1.751890 0.000000 0.000000 
#    y 0.000000 1.787990 0.000000 
#    z 0.000000 0.000000 1.792210 
# 
# From -- ./inp_files/7055.got.cif
#   From: 2010.03.12/outbox.cif.g09.slc.cpg/sg36_4_cif.got.tgz:7055.got - 2010.04.14 02:13:53.
