data_PCOD8174918
_publ_section_title
;
Structure prediction by ZEFSAII (Michael W. Deem and Ramdas Pophale) SiO2 
 PCOD8174918
Probable space group: C M C 21
;
_chemical_formula_sum "Si O2"
_cell_formula_units_Z 64
_cell_length_a 8.939030
_cell_length_b 32.232211
_cell_length_c 10.895833
_cell_angle_alpha 90.000000
_cell_angle_beta 90.000000
_cell_angle_gamma 90.000000
_cell_volume 3139.358626
_symmetry_space_group_name_H-M "C M C 21"
_symmetry_group_IT_number 36
_symmetry_cell_setting 'orthorhombic'
loop_
_space_group_symop_operation_xyz
x,y,z
-x,-y,1/2+z
x,-y,1/2+z
-x,y,z
1/2+x,1/2+y,z
1/2-x,1/2-y,1/2+z
1/2+x,1/2-y,1/2+z
1/2-x,1/2+y,z
loop_
_atom_site_type_symbol
_atom_site_label
_atom_site_fract_x
_atom_site_fract_y
_atom_site_fract_z
Si Si1 0.332433 0.610585 0.264130
Si Si2 0.170018 0.735723 0.314863
Si Si3 0.822985 0.978592 0.847691
Si Si4 0.828054 0.671753 0.102751
Si Si5 0.327937 0.672455 0.853468
Si Si6 0.175254 0.378914 0.166020
Si Si7 0.678117 0.533870 0.620994
Si Si8 0.333480 0.676190 0.479576
O O1 0.500000 0.605149 0.208426
O O2 0.266442 0.566982 0.310431
O O3 0.218423 0.627992 0.163229
O O4 0.339063 0.641478 0.376662
O O5 0.201718 0.710062 0.192543
O O6 0.201614 0.783827 0.284124
O O7 0.275912 0.719605 0.424531
O O8 0.000000 0.729186 0.359188
O O9 0.000000 0.980452 0.842608
O O10 0.759522 0.009953 0.742580
O O11 0.772336 0.987751 0.990001
O O12 0.000000 0.668948 0.060918
O O13 0.717195 0.680294 0.992359
O O14 0.500000 0.658849 0.844534
O O15 0.227682 0.634767 0.801563
O O16 0.257981 0.420035 0.122090
O O17 0.000000 0.386895 0.161688
O O18 0.221624 0.339791 0.083297
O O19 0.500000 0.536901 0.624577
O O20 0.500000 0.683276 0.534873
#
# Coordination Sequence:
#
# PCOD8174918 Si02
#       8
#     8   8   8   8   8   8   8   8
#     4   9  17  34  59  87 114 152 199 242 292 361
#     4   9  21  39  59  87 120 154 195 245 303 357
#     4   9  18  34  61  92 123 156 206 259 309 368
#     4  10  21  38  57  85 121 154 193 251 307 361
#     4  11  24  41  60  85 118 161 205 249 303 368
#     4  12  25  40  59  87 122 162 203 252 309 365
#     4  10  20  39  63  91 122 161 207 261 315 378
#     4  10  19  35  62  88 116 152 198 245 288 352
#
# _framework density 20.386329
#
# number of rings (size 3 to 8) (size 9 to 14) (size 15 to 20)
#    0.000    2.000    1.250    2.250    1.750    3.000 
#    0.000    3.750    0.000    0.000    0.000    0.000 
#    0.000    0.000    0.000    0.000    0.000    0.000 
#
# Total GULP energy -396710.519389 kJ/mol
# GULP energy per Si atom -12397.203731 kJ/mol
# Density = 2.033993 g / cm^3
# Si number density = 20.386329 Si / 1000 Ang^3
#
#
#
# Elastic Constant Matrix: (Units=GPa)
#
#
# Indices 1 2 3 4 5 6 
#
# 1 58.4385 25.3763 33.3398 0.0000 0.0000 0.0000
# 2 25.3763 67.3048 43.0897 0.0000 0.0000 0.0000
# 3 33.3398 43.0897 110.3864 0.0000 0.0000 0.0000
# 4 0.0000 0.0000 0.0000 24.8099 0.0000 0.0000
# 5 0.0000 0.0000 0.0000 0.0000 29.2740 0.0000
# 6 0.0000 0.0000 0.0000 0.0000 0.0000 24.7169
#
#
#
# Elastic Compliance Matrix: (Units=1/GPa)
#
#
# Indices 1 2 3 4 5 6 
#
# 1 0.022055 -0.005400 -0.004553 0.000000 0.000000 0.000000
# 2 -0.005400 0.021130 -0.006617 0.000000 0.000000 0.000000
# 3 -0.004553 -0.006617 0.013017 0.000000 0.000000 0.000000
# 4 0.000000 0.000000 0.000000 0.040307 0.000000 0.000000
# 5 0.000000 0.000000 0.000000 0.000000 0.034160 0.000000
# 6 0.000000 0.000000 0.000000 0.000000 0.000000 0.040458
#
#
# Mechanical properties :
#
#
# Convention : Reuss Voigt Hill
#
# Bulk Modulus (GPa) = 43.36342 48.86012 46.11177
# Shear Modulus (GPa) = 23.58987 24.71509 24.15248
#
# Velocity S-wave (km/s) = 3.40537 3.48564 3.44574
# Velocity P-wave (km/s) = 6.06457 6.34182 6.20475
#
# Compressibility (1/GPa) = 0.02306091
#
# Stress axis : x y z
#
# Youngs Moduli (GPa) = 45.34193 47.32515 76.82084
#
# Poissons Ratio (x) = 0.25558 0.34977
# Poissons Ratio (y) = 0.24487 0.50834
# Poissons Ratio (z) = 0.20644 0.31316
#
# Static dielectric constant tensor:
#      x y z
#    x 3.565470 0.000000 0.000000 
#    y 0.000000 3.724480 0.000000 
#    z 0.000000 0.000000 3.881750 
# 
# 
# High freq. dielectric constant tensor:
#      x y z
#    x 1.777270 0.000000 0.000000 
#    y 0.000000 1.791440 0.000000 
#    z 0.000000 0.000000 1.801160 
# 
# From -- ./inp_files/7269.got.cif
#   From: 2010.03.12/outbox.cif.g09.slc.cpg/sg36_4_cif.got.tgz:7269.got - 2010.04.14 02:13:53.
