data_PCOD8174770
_publ_section_title
;
Structure prediction by ZEFSAII (Michael W. Deem and Ramdas Pophale) SiO2 
 PCOD8174770
Probable space group: C M C 21
;
_chemical_formula_sum "Si O2"
_cell_formula_units_Z 64
_cell_length_a 8.801390
_cell_length_b 29.219400
_cell_length_c 12.479459
_cell_angle_alpha 90.000000
_cell_angle_beta 90.000000
_cell_angle_gamma 90.000000
_cell_volume 3209.359131
_symmetry_space_group_name_H-M "C M C 21"
_symmetry_group_IT_number 36
_symmetry_cell_setting 'orthorhombic'
loop_
_space_group_symop_operation_xyz
x,y,z
-x,-y,1/2+z
x,-y,1/2+z
-x,y,z
1/2+x,1/2+y,z
1/2-x,1/2-y,1/2+z
1/2+x,1/2-y,1/2+z
1/2-x,1/2+y,z
loop_
_atom_site_type_symbol
_atom_site_label
_atom_site_fract_x
_atom_site_fract_y
_atom_site_fract_z
Si Si1 0.321398 0.917221 0.135240
Si Si2 0.322314 0.086038 0.257409
Si Si3 0.326042 0.568605 0.859524
Si Si4 0.324924 0.469973 0.935632
Si Si5 0.179801 0.683629 0.571898
Si Si6 0.172004 0.170136 0.356652
Si Si7 0.680053 0.627447 0.055145
Si Si8 0.171028 0.779040 0.646358
O O1 0.500000 0.922806 0.123146
O O2 0.273951 0.934414 0.252689
O O3 0.270178 0.864087 0.126397
O O4 0.249567 0.947628 0.040841
O O5 0.500000 0.077645 0.245529
O O6 0.249839 0.044246 0.322671
O O7 0.289287 0.130272 0.329223
O O8 0.251016 0.091593 0.139635
O O9 0.500000 0.572997 0.822072
O O10 0.304261 0.524668 0.936487
O O11 0.278796 0.611875 0.934393
O O12 0.500000 0.455288 0.935963
O O13 0.272867 0.692058 0.464977
O O14 0.239882 0.728074 0.636964
O O15 0.000000 0.683179 0.552077
O O16 0.181552 0.210460 0.271168
O O17 0.000000 0.150641 0.363893
O O18 0.500000 0.626574 0.076226
O O19 0.746281 0.678880 0.077773
O O20 0.000000 0.776069 0.603942
#
# Coordination Sequence:
#
# PCOD8174770 Si02
#       8
#     8   8   8   8   8   8   8   8
#     4  11  24  40  60  89 125 159 197 246 302 358
#     4  11  21  35  58  87 115 148 191 248 305 355
#     4  10  24  42  62  87 119 160 202 247 299 357
#     4  11  23  40  62  86 115 154 201 248 295 356
#     4  10  20  36  57  84 119 156 193 245 302 351
#     4  10  19  34  56  82 111 152 200 246 291 350
#     4   9  19  39  62  86 117 157 202 246 295 353
#     4   8  17  34  57  83 115 154 196 242 297 350
#
# _framework density 19.941676000000001
#
# number of rings (size 3 to 8) (size 9 to 14) (size 15 to 20)
#    0.000    2.000    1.250    3.000    1.750    3.000 
#    0.000    3.125    0.000    0.000    0.000    0.000 
#    0.000    0.000    0.000    0.000    0.000    0.000 
#
# Total GULP energy -396612.874147 kJ/mol
# GULP energy per Si atom -12394.152317 kJ/mol
# Density = 1.989629 g / cm^3
# Si number density = 19.941676 Si / 1000 Ang^3
#
#
#
# Elastic Constant Matrix: (Units=GPa)
#
#
# Indices 1 2 3 4 5 6 
#
# 1 73.2885 31.3936 36.6395 0.0000 0.0000 0.0000
# 2 31.3936 106.2300 47.2805 0.0000 0.0000 0.0000
# 3 36.6395 47.2805 103.9431 0.0000 0.0000 0.0000
# 4 0.0000 0.0000 0.0000 24.5407 0.0000 0.0000
# 5 0.0000 0.0000 0.0000 0.0000 33.4420 0.0000
# 6 0.0000 0.0000 0.0000 0.0000 0.0000 18.9519
#
#
#
# Elastic Compliance Matrix: (Units=1/GPa)
#
#
# Indices 1 2 3 4 5 6 
#
# 1 0.017297 -0.003007 -0.004729 0.000000 0.000000 0.000000
# 2 -0.003007 0.012326 -0.004547 0.000000 0.000000 0.000000
# 3 -0.004729 -0.004547 0.013356 0.000000 0.000000 0.000000
# 4 0.000000 0.000000 0.000000 0.040749 0.000000 0.000000
# 5 0.000000 0.000000 0.000000 0.000000 0.029903 0.000000
# 6 0.000000 0.000000 0.000000 0.000000 0.000000 0.052765
#
#
# Mechanical properties :
#
#
# Convention : Reuss Voigt Hill
#
# Bulk Modulus (GPa) = 54.30985 57.12097 55.71541
# Shear Modulus (GPa) = 25.36801 26.59679 25.98240
#
# Velocity S-wave (km/s) = 3.57053 3.65599 3.61351
# Velocity P-wave (km/s) = 6.65521 6.82113 6.73868
#
# Compressibility (1/GPa) = 0.01841287
#
# Stress axis : x y z
#
# Youngs Moduli (GPa) = 57.81323 81.13094 74.87308
#
# Poissons Ratio (x) = 0.24394 0.35411
# Poissons Ratio (y) = 0.17383 0.34043
# Poissons Ratio (z) = 0.27343 0.36888
#
# Static dielectric constant tensor:
#      x y z
#    x 3.477470 0.000000 0.000000 
#    y 0.000000 3.877710 0.000000 
#    z 0.000000 0.000000 3.562540 
# 
# 
# High freq. dielectric constant tensor:
#      x y z
#    x 1.763160 0.000000 0.000000 
#    y 0.000000 1.783380 0.000000 
#    z 0.000000 0.000000 1.776710 
# 
# From -- ./inp_files/7246.got.cif
#   From: 2010.03.12/outbox.cif.g09.slc.cpg/sg36_4_cif.got.tgz:7246.got - 2010.04.14 02:13:53.
