data_PCOD8174099
_publ_section_title
;
Structure prediction by ZEFSAII (Michael W. Deem and Ramdas Pophale) SiO2 
 PCOD8174099
Probable space group: C M M 2
;
_chemical_formula_sum "Si O2"
_cell_formula_units_Z 48
_cell_length_a 16.925148
_cell_length_b 10.281045
_cell_length_c 14.077922
_cell_angle_alpha 90.000000
_cell_angle_beta 90.000000
_cell_angle_gamma 90.000000
_cell_volume 2449.673983
_symmetry_space_group_name_H-M "C M M 2"
_symmetry_group_IT_number 35
_symmetry_cell_setting 'orthorhombic'
loop_
_space_group_symop_operation_xyz
x,y,z
-x,-y,z
-x,y,z
x,-y,z
1/2+x,1/2+y,z
1/2-x,1/2-y,z
1/2-x,1/2+y,z
1/2+x,1/2-y,z
loop_
_atom_site_type_symbol
_atom_site_label
_atom_site_fract_x
_atom_site_fract_y
_atom_site_fract_z
Si Si1 0.593626 0.856068 0.620500
Si Si2 0.591728 0.847818 0.410397
Si Si3 0.407883 0.262597 0.812035
Si Si4 0.140183 0.500000 0.912933
Si Si5 0.092950 0.000000 0.121360
Si Si6 0.342024 0.750627 0.223903
Si Si7 0.171913 0.000000 0.915837
Si Si8 0.410129 0.000000 0.125341
O O1 0.500000 0.870128 0.618605
O O2 0.621681 0.808685 0.516196
O O3 0.618405 0.752487 0.701375
O O4 0.629158 0.000000 0.642560
O O5 0.500000 0.814982 0.397471
O O6 0.640113 0.761368 0.335890
O O7 0.607360 0.000000 0.391565
O O8 0.500000 0.300248 0.821458
O O9 0.355311 0.372912 0.859412
O O10 0.391846 0.125715 0.860245
O O11 0.234203 0.500000 0.922238
O O12 0.099119 0.500000 0.013778
O O13 0.116408 0.875917 0.182570
O O14 0.137510 0.000000 0.021249
O O15 0.000000 0.000000 0.100530
O O16 0.250000 0.750000 0.206166
O O17 0.372136 0.872875 0.167262
O O18 0.500000 0.000000 0.156973
#
# Coordination Sequence:
#
# PCOD8174099 Si02
#       8
#     8   8   8   4   4   8   4   4
#     4   8  15  31  60  93 117 147 199 258 296 335
#     4   9  17  34  63  92 117 152 203 251 294 349
#     4  11  21  39  64  90 118 157 207 247 292 356
#     4  12  24  40  61  90 119 154 201 258 300 348
#     4  12  26  44  61  82 121 166 201 238 300 364
#     4  12  24  40  61  92 125 157 193 250 308 356
#     4  12  26  42  57  86 129 166 189 242 318 364
#     4  12  24  42  67  90 111 154 219 260 284 350
#
# _framework density 19.594445
#
# number of rings (size 3 to 8) (size 9 to 14) (size 15 to 20)
#    0.000    1.333    1.667    7.000    0.000    0.000 
#    0.000    2.500    0.000    2.000    0.000    0.000 
#    0.000    0.000    0.000    0.000    0.000    0.000 
#
# Total GULP energy -297605.685919 kJ/mol
# GULP energy per Si atom -12400.236913 kJ/mol
# Density = 1.954985 g / cm^3
# Si number density = 19.594445 Si / 1000 Ang^3
#
#
#
# Elastic Constant Matrix: (Units=GPa)
#
#
# Indices 1 2 3 4 5 6 
#
# 1 80.6988 11.4286 14.5216 0.0000 0.0000 0.0000
# 2 11.4286 108.7289 46.2216 0.0000 0.0000 0.0000
# 3 14.5216 46.2216 140.2393 0.0000 0.0000 0.0000
# 4 0.0000 0.0000 0.0000 37.9566 0.0000 0.0000
# 5 0.0000 0.0000 0.0000 0.0000 -30.4115 0.0000
# 6 0.0000 0.0000 0.0000 0.0000 0.0000 35.4904
#
#
#
# Elastic Compliance Matrix: (Units=1/GPa)
#
#
# Indices 1 2 3 4 5 6 
#
# 1 0.012703 -0.000902 -0.001018 0.000000 0.000000 0.000000
# 2 -0.000902 0.010760 -0.003453 0.000000 0.000000 0.000000
# 3 -0.001018 -0.003453 0.008374 0.000000 0.000000 0.000000
# 4 0.000000 0.000000 0.000000 0.026346 0.000000 0.000000
# 5 0.000000 0.000000 0.000000 0.000000 -0.032882 0.000000
# 6 0.000000 0.000000 0.000000 0.000000 0.000000 0.028177
#
#
# Mechanical properties :
#
#
# Convention : Reuss Voigt Hill
#
# Bulk Modulus (GPa) = 47.41544 52.66785 50.04165
# Shear Modulus (GPa) = 70.17188 25.77346 47.97267
#
# Velocity S-wave (km/s) = 5.99082 3.63070 4.95338
# Velocity P-wave (km/s) = 8.49141 6.67183 7.63601
#
# Compressibility (1/GPa) = 0.02109018
#
# Stress axis : x y z
#
# Youngs Moduli (GPa) = 78.72315 92.93755 119.41550
#
# Poissons Ratio (x) = 0.08387 0.12155
# Poissons Ratio (y) = 0.07105 0.41233
# Poissons Ratio (z) = 0.08013 0.32091
#
# Static dielectric constant tensor:
#      x y z
#    x 3.575060 0.000000 0.000000 
#    y 0.000000 3.471540 0.000000 
#    z 0.000000 0.000000 4.142520 
# 
# 
# High freq. dielectric constant tensor:
#      x y z
#    x 1.753790 0.000000 0.000000 
#    y 0.000000 1.756960 0.000000 
#    z 0.000000 0.000000 1.787530 
# 
# From -- ./inp_files/17164.got.cif
#   From: 2010.03.12/outbox.cif.g09.slc.cpg/sg35_9_cif.got.tgz:17164.got - 2010.04.14 02:02:04.
