data_PCOD8174498
_publ_section_title
;
Structure prediction by ZEFSAII (Michael W. Deem and Ramdas Pophale) SiO2 
 PCOD8174498
Probable space group: C M C 21
;
_chemical_formula_sum "Si O2"
_cell_formula_units_Z 64
_cell_length_a 9.089504
_cell_length_b 18.232357
_cell_length_c 20.312067
_cell_angle_alpha 90.000000
_cell_angle_beta 90.000000
_cell_angle_gamma 90.000000
_cell_volume 3366.178343
_symmetry_space_group_name_H-M "C M C 21"
_symmetry_group_IT_number 36
_symmetry_cell_setting 'orthorhombic'
loop_
_space_group_symop_operation_xyz
x,y,z
-x,-y,1/2+z
x,-y,1/2+z
-x,y,z
1/2+x,1/2+y,z
1/2-x,1/2-y,1/2+z
1/2+x,1/2-y,1/2+z
1/2-x,1/2+y,z
loop_
_atom_site_type_symbol
_atom_site_label
_atom_site_fract_x
_atom_site_fract_y
_atom_site_fract_z
Si Si1 0.335190 0.307476 0.089380
Si Si2 0.835167 0.277507 0.212842
Si Si3 0.173117 0.492644 0.491809
Si Si4 0.671336 0.584212 0.875179
Si Si5 0.170737 0.340209 0.963444
Si Si6 0.832859 0.551893 0.746975
Si Si7 0.833021 0.978427 0.121329
Si Si8 0.331108 0.248780 0.338428
O O1 0.500000 0.276912 0.084327
O O2 0.251785 0.261198 0.145511
O O3 0.333669 0.392337 0.108047
O O4 0.257049 0.295748 0.019532
O O5 0.832349 0.363283 0.228113
O O6 0.762152 0.233535 0.272937
O O7 0.000000 0.248441 0.203775
O O8 0.249949 0.435973 0.443029
O O9 0.206873 0.573973 0.465274
O O10 0.243824 0.480743 0.563669
O O11 0.000000 0.476932 0.496070
O O12 0.500000 0.562808 0.877451
O O13 0.747471 0.539942 0.815465
O O14 0.695092 0.670424 0.866649
O O15 0.220939 0.309672 0.892828
O O16 0.000000 0.324687 0.976293
O O17 0.749355 0.505867 0.690324
O O18 0.000000 0.522878 0.754155
O O19 0.000000 0.008481 0.124773
O O20 0.500000 0.237405 0.319002
#
# Coordination Sequence:
#
# PCOD8174498 Si02
#       8
#     8   8   8   8   8   8   8   8
#     4   9  16  26  43  67  93 120 152 191 231 272
#     4   9  16  26  43  67  93 120 152 191 231 272
#     4  10  19  31  48  70  96 125 156 191 232 277
#     4  10  19  31  48  70  96 125 156 191 232 277
#     4   9  18  32  49  69  94 124 156 191 231 274
#     4   9  16  27  44  67  93 120 153 192 232 273
#     4   9  16  27  44  67  93 120 153 192 232 273
#     4   9  18  32  49  69  94 124 156 191 231 274
#
# _framework density 19.012658999999999
#
# number of rings (size 3 to 8) (size 9 to 14) (size 15 to 20)
#    0.000    2.750    0.000    2.250    0.000    7.500 
#    0.000    0.000    0.000    1.500    0.000    7.000 
#    0.000    0.000    0.000    0.000    0.000    0.000 
#
# Total GULP energy -396815.756394 kJ/mol
# GULP energy per Si atom -12400.492387 kJ/mol
# Density = 1.896939 g / cm^3
# Si number density = 19.012659 Si / 1000 Ang^3
#
#
#
# Elastic Constant Matrix: (Units=GPa)
#
#
# Indices 1 2 3 4 5 6 
#
# 1 108.4091 5.7096 10.1283 0.0000 0.0000 0.0000
# 2 5.7096 8.3819 -3.0606 0.0000 0.0000 0.0000
# 3 10.1283 -3.0606 16.6686 0.0000 0.0000 0.0000
# 4 0.0000 0.0000 0.0000 24.3395 0.0000 0.0000
# 5 0.0000 0.0000 0.0000 0.0000 45.1325 0.0000
# 6 0.0000 0.0000 0.0000 0.0000 0.0000 12.8554
#
#
#
# Elastic Compliance Matrix: (Units=1/GPa)
#
#
# Indices 1 2 3 4 5 6 
#
# 1 0.010534 -0.010197 -0.008273 0.000000 0.000000 0.000000
# 2 -0.010197 0.137749 0.031489 0.000000 0.000000 0.000000
# 3 -0.008273 0.031489 0.070802 0.000000 0.000000 0.000000
# 4 0.000000 0.000000 0.000000 0.041085 0.000000 0.000000
# 5 0.000000 0.000000 0.000000 0.000000 0.022157 0.000000
# 6 0.000000 0.000000 0.000000 0.000000 0.000000 0.077788
#
#
# Mechanical properties :
#
#
# Convention : Reuss Voigt Hill
#
# Bulk Modulus (GPa) = 4.07958 17.66824 10.87391
# Shear Modulus (GPa) = 12.02542 24.51098 18.26820
#
# Velocity S-wave (km/s) = 2.51767 3.59443 3.10311
# Velocity P-wave (km/s) = 3.25606 5.15166 4.30938
#
# Compressibility (1/GPa) = 0.24512320
#
# Stress axis : x y z
#
# Youngs Moduli (GPa) = 94.92806 7.25957 14.12389
#
# Poissons Ratio (x) = 0.07402 0.11685
# Poissons Ratio (y) = 0.96796 -0.44475
# Poissons Ratio (z) = 0.78536 -0.22860
#
# Static dielectric constant tensor:
#      x y z
#    x 3.663770 0.000000 0.000000 
#    y 0.000000 2.898040 0.000000 
#    z 0.000000 0.000000 3.635570 
# 
# 
# High freq. dielectric constant tensor:
#      x y z
#    x 1.752540 0.000000 0.000000 
#    y 0.000000 1.674980 0.000000 
#    z 0.000000 0.000000 1.752110 
# 
# From -- ./inp_files/13769.got.cif
#   From: 2010.03.12/outbox.cif.g09.slc.cpg/sg36_7_cif.got.tgz:13769.got - 2010.04.14 02:13:53.
