data_PCOD8174712
_publ_section_title
;
Structure prediction by ZEFSAII (Michael W. Deem and Ramdas Pophale) SiO2 
 PCOD8174712
Probable space group: C M C 21
;
_chemical_formula_sum "Si O2"
_cell_formula_units_Z 64
_cell_length_a 8.870571
_cell_length_b 22.639054
_cell_length_c 16.252127
_cell_angle_alpha 90.000000
_cell_angle_beta 90.000000
_cell_angle_gamma 90.000000
_cell_volume 3263.773855
_symmetry_space_group_name_H-M "C M C 21"
_symmetry_group_IT_number 36
_symmetry_cell_setting 'orthorhombic'
loop_
_space_group_symop_operation_xyz
x,y,z
-x,-y,1/2+z
x,-y,1/2+z
-x,y,z
1/2+x,1/2+y,z
1/2-x,1/2-y,1/2+z
1/2+x,1/2-y,1/2+z
1/2-x,1/2+y,z
loop_
_atom_site_type_symbol
_atom_site_label
_atom_site_fract_x
_atom_site_fract_y
_atom_site_fract_z
Si Si1 0.679162 0.463520 0.506270
Si Si2 0.673746 0.331666 0.125216
Si Si3 0.675219 0.225060 0.471597
Si Si4 0.321267 0.536784 0.664380
Si Si5 0.169571 0.338495 0.516912
Si Si6 0.834167 0.712045 0.198434
Si Si7 0.177586 0.983685 0.834740
Si Si8 0.326580 0.347683 0.835394
O O1 0.500000 0.466693 0.506168
O O2 0.741977 0.500917 0.584729
O O3 0.730290 0.396554 0.514137
O O4 0.743435 0.488557 0.419339
O O5 0.500000 0.334691 0.095238
O O6 0.728466 0.395012 0.158116
O O7 0.692797 0.282956 0.197244
O O8 0.775379 0.313705 0.048871
O O9 0.500000 0.238804 0.477925
O O10 0.759605 0.287629 0.459804
O O11 0.711756 0.186448 0.392774
O O12 0.500000 0.530102 0.665772
O O13 0.253667 0.512473 0.751037
O O14 0.170667 0.311926 0.607028
O O15 0.000000 0.352782 0.487288
O O16 0.699413 0.679605 0.245427
O O17 0.000000 0.698997 0.236870
O O18 0.221318 0.915439 0.834308
O O19 0.000000 0.993226 0.833501
O O20 0.500000 0.339605 0.862461
#
# Coordination Sequence:
#
# PCOD8174712 Si02
#       8
#     8   8   8   8   8   8   8   8
#     4  10  19  33  56  82 108 143 188 231 272 325
#     4   9  18  35  57  80 110 146 183 223 273 329
#     4  11  22  36  56  80 107 140 183 232 278 328
#     4   9  17  32  55  81 111 147 185 226 272 326
#     4  10  21  38  57  79 110 144 179 221 278 338
#     4   9  19  34  53  79 109 141 179 226 277 328
#     4   9  19  33  52  81 111 144 187 229 272 332
#     4  11  21  35  56  80 110 145 184 228 274 326
#
# _framework density 19.609200999999999
#
# number of rings (size 3 to 8) (size 9 to 14) (size 15 to 20)
#    0.000    2.250    0.000    4.125    0.000    6.500 
#    0.000    5.625    0.000    3.000    0.000    0.000 
#    0.000    0.000    0.000    0.000    0.000    0.000 
#
# Total GULP energy -396728.499231 kJ/mol
# GULP energy per Si atom -12397.765601 kJ/mol
# Density = 1.956457 g / cm^3
# Si number density = 19.609201 Si / 1000 Ang^3
#
#
#
# Elastic Constant Matrix: (Units=GPa)
#
#
# Indices 1 2 3 4 5 6 
#
# 1 39.9823 17.6653 19.5996 0.0000 0.0000 0.0000
# 2 17.6653 152.6502 59.8507 0.0000 0.0000 0.0000
# 3 19.5996 59.8507 98.3312 0.0000 0.0000 0.0000
# 4 0.0000 0.0000 0.0000 26.0553 0.0000 0.0000
# 5 0.0000 0.0000 0.0000 0.0000 20.7701 0.0000
# 6 0.0000 0.0000 0.0000 0.0000 0.0000 25.7371
#
#
#
# Elastic Compliance Matrix: (Units=1/GPa)
#
#
# Indices 1 2 3 4 5 6 
#
# 1 0.027939 -0.001379 -0.004730 0.000000 0.000000 0.000000
# 2 -0.001379 0.008672 -0.005004 0.000000 0.000000 0.000000
# 3 -0.004730 -0.005004 0.014158 0.000000 0.000000 0.000000
# 4 0.000000 0.000000 0.000000 0.038380 0.000000 0.000000
# 5 0.000000 0.000000 0.000000 0.000000 0.048146 0.000000
# 6 0.000000 0.000000 0.000000 0.000000 0.000000 0.038854
#
#
# Mechanical properties :
#
#
# Convention : Reuss Voigt Hill
#
# Bulk Modulus (GPa) = 35.03262 53.91056 44.47159
# Shear Modulus (GPa) = 24.05133 27.43571 25.74352
#
# Velocity S-wave (km/s) = 3.50599 3.74454 3.62723
# Velocity P-wave (km/s) = 5.85606 6.80056 6.34591
#
# Compressibility (1/GPa) = 0.02854483
#
# Stress axis : x y z
#
# Youngs Moduli (GPa) = 35.79263 115.30931 70.63145
#
# Poissons Ratio (x) = 0.15899 0.33406
# Poissons Ratio (y) = 0.04935 0.35342
# Poissons Ratio (z) = 0.16928 0.57697
#
# Static dielectric constant tensor:
#      x y z
#    x 3.418850 0.000000 0.000000 
#    y 0.000000 3.797530 0.000000 
#    z 0.000000 0.000000 3.737120 
# 
# 
# High freq. dielectric constant tensor:
#      x y z
#    x 1.732590 0.000000 0.000000 
#    y 0.000000 1.778240 0.000000 
#    z 0.000000 0.000000 1.762890 
# 
# From -- ./inp_files/10981.got.cif
#   From: 2010.03.12/outbox.cif.g09.slc.cpg/sg36_6_cif.got.tgz:10981.got - 2010.04.14 02:13:53.
