data_PCOD8174557
_publ_section_title
;
Structure prediction by ZEFSAII (Michael W. Deem and Ramdas Pophale) SiO2 
 PCOD8174557
Probable space group: C M C 21
;
_chemical_formula_sum "Si O2"
_cell_formula_units_Z 64
_cell_length_a 27.202200
_cell_length_b 14.294570
_cell_length_c 8.887064
_cell_angle_alpha 90.000000
_cell_angle_beta 90.000000
_cell_angle_gamma 90.000000
_cell_volume 3455.679311
_symmetry_space_group_name_H-M "C M C 21"
_symmetry_group_IT_number 36
_symmetry_cell_setting 'orthorhombic'
loop_
_space_group_symop_operation_xyz
x,y,z
-x,-y,1/2+z
x,-y,1/2+z
-x,y,z
1/2+x,1/2+y,z
1/2-x,1/2-y,1/2+z
1/2+x,1/2-y,1/2+z
1/2-x,1/2+y,z
loop_
_atom_site_type_symbol
_atom_site_label
_atom_site_fract_x
_atom_site_fract_y
_atom_site_fract_z
Si Si1 0.336079 0.385585 0.121970
Si Si2 0.238804 0.298740 0.166842
Si Si3 0.628887 0.800417 0.465992
Si Si4 0.942389 0.383937 0.973962
Si Si5 0.730770 0.137911 0.985861
Si Si6 0.832926 0.930071 0.462758
Si Si7 0.634349 0.243924 0.622518
Si Si8 0.057040 0.426889 0.633823
O O1 0.276694 0.377066 0.108018
O O2 0.350846 0.407567 0.294399
O O3 0.360770 0.288967 0.071525
O O4 0.354329 0.470486 0.016536
O O5 0.238225 0.292161 0.346128
O O6 0.184425 0.316877 0.097565
O O7 0.257756 0.194786 0.135469
O O8 0.671968 0.881796 0.481165
O O9 0.619938 0.762262 0.298022
O O10 0.580351 0.849940 0.524813
O O11 0.926961 0.413482 0.805998
O O12 0.000000 0.357331 0.983222
O O13 0.909998 0.295007 0.021691
O O14 0.928669 0.468201 0.086016
O O15 0.772615 0.058108 0.971852
O O16 0.853998 0.850383 0.574033
O O17 0.000000 0.410780 0.610582
#
# Coordination Sequence:
#
# PCOD8174557 Si02
#       8
#     8   8   8   8   8   8   8   8
#     4  10  19  32  49  72 104 141 178 213 251 296
#     4   8  16  29  45  67  96 130 167 206 245 288
#     4  10  19  33  53  77 104 135 172 212 256 304
#     4  10  21  37  56  78 103 131 165 207 256 308
#     4   8  16  29  45  67  96 130 167 206 245 288
#     4  10  19  32  49  72 104 141 178 213 251 296
#     4  10  19  33  53  77 104 135 172 212 256 304
#     4  10  21  37  56  78 103 131 165 207 256 308
#
# _framework density 18.520237000000002
#
# number of rings (size 3 to 8) (size 9 to 14) (size 15 to 20)
#    0.000    2.500    0.000    2.250    0.000    4.500 
#    0.000    2.500    0.000    0.750    0.000    0.000 
#    0.000    0.000    0.000    0.000    0.000    0.000 
#
# Total GULP energy -396426.449110 kJ/mol
# GULP energy per Si atom -12388.326535 kJ/mol
# Density = 1.847808 g / cm^3
# Si number density = 18.520237 Si / 1000 Ang^3
#
#
#
# Elastic Constant Matrix: (Units=GPa)
#
#
# Indices 1 2 3 4 5 6 
#
# 1 50.4268 23.7095 19.3384 0.0000 0.0000 0.0000
# 2 23.7095 58.1882 10.8786 0.0000 0.0000 0.0000
# 3 19.3384 10.8786 69.1216 0.0000 0.0000 0.0000
# 4 0.0000 0.0000 0.0000 32.7457 0.0000 0.0000
# 5 0.0000 0.0000 0.0000 0.0000 27.5616 0.0000
# 6 0.0000 0.0000 0.0000 0.0000 0.0000 21.9916
#
#
#
# Elastic Compliance Matrix: (Units=1/GPa)
#
#
# Indices 1 2 3 4 5 6 
#
# 1 0.026699 -0.009770 -0.005932 0.000000 0.000000 0.000000
# 2 -0.009770 0.021282 -0.000616 0.000000 0.000000 0.000000
# 3 -0.005932 -0.000616 0.016224 0.000000 0.000000 0.000000
# 4 0.000000 0.000000 0.000000 0.030538 0.000000 0.000000
# 5 0.000000 0.000000 0.000000 0.000000 0.036282 0.000000
# 6 0.000000 0.000000 0.000000 0.000000 0.000000 0.045472
#
#
# Mechanical properties :
#
#
# Convention : Reuss Voigt Hill
#
# Bulk Modulus (GPa) = 31.67698 31.73218 31.70458
# Shear Modulus (GPa) = 22.76284 24.71379 23.73831
#
# Velocity S-wave (km/s) = 3.50963 3.65694 3.58404
# Velocity P-wave (km/s) = 5.79348 5.91624 5.85518
#
# Compressibility (1/GPa) = 0.03156867
#
# Stress axis : x y z
#
# Youngs Moduli (GPa) = 37.45424 46.98887 61.63764
#
# Poissons Ratio (x) = 0.45908 0.36564
# Poissons Ratio (y) = 0.36592 0.03797
# Poissons Ratio (z) = 0.22218 0.02895
#
# Static dielectric constant tensor:
#      x y z
#    x 3.339810 0.000000 0.000000 
#    y 0.000000 3.086950 0.000000 
#    z 0.000000 0.000000 3.555610 
# 
# 
# High freq. dielectric constant tensor:
#      x y z
#    x 1.698540 0.000000 0.000000 
#    y 0.000000 1.691420 0.000000 
#    z 0.000000 0.000000 1.736080 
# 
# From -- ./inp_files/5672.got.cif
#   From: 2010.03.12/outbox.cif.g09.slc.cpg/sg36_3_cif.got.tgz:5672.got - 2010.04.14 02:13:53.
