data_PCOD8174246
_publ_section_title
;
Structure prediction by ZEFSAII (Michael W. Deem and Ramdas Pophale) SiO2 
 PCOD8174246
Probable space group: C M C 21
;
_chemical_formula_sum "Si O2"
_cell_formula_units_Z 64
_cell_length_a 8.961719
_cell_length_b 20.955484
_cell_length_c 18.852790
_cell_angle_alpha 90.000000
_cell_angle_beta 90.000000
_cell_angle_gamma 90.000000
_cell_volume 3540.500403
_symmetry_space_group_name_H-M "C M C 21"
_symmetry_group_IT_number 36
_symmetry_cell_setting 'orthorhombic'
loop_
_space_group_symop_operation_xyz
x,y,z
-x,-y,1/2+z
x,-y,1/2+z
-x,y,z
1/2+x,1/2+y,z
1/2-x,1/2-y,1/2+z
1/2+x,1/2-y,1/2+z
1/2-x,1/2+y,z
loop_
_atom_site_type_symbol
_atom_site_label
_atom_site_fract_x
_atom_site_fract_y
_atom_site_fract_z
Si Si1 0.821977 0.865290 0.844770
Si Si2 0.676510 0.251106 0.940122
Si Si3 0.323200 0.756179 0.599964
Si Si4 0.324129 0.868358 0.348582
Si Si5 0.662831 0.494736 0.185058
Si Si6 0.821160 0.132150 0.184559
Si Si7 0.664419 0.495295 0.353132
Si Si8 0.321395 0.640804 0.698790
O O1 0.755061 0.810173 0.895312
O O2 0.766532 0.851661 0.764412
O O3 0.000000 0.865542 0.844799
O O4 0.768229 0.934941 0.873886
O O5 0.500000 0.257796 0.939155
O O6 0.725053 0.183893 0.906386
O O7 0.736076 0.254550 0.020361
O O8 0.500000 0.764633 0.602537
O O9 0.248506 0.819559 0.629375
O O10 0.269475 0.696279 0.646348
O O11 0.500000 0.870098 0.336827
O O12 0.271173 0.937470 0.377342
O O13 0.248716 0.846861 0.275384
O O14 0.500000 0.494547 0.149202
O O15 0.741747 0.561171 0.162480
O O16 0.646770 0.495271 0.269299
O O17 0.740964 0.426889 0.165978
O O18 0.000000 0.133474 0.180547
O O19 0.500000 0.485203 0.387489
O O20 0.500000 0.637482 0.707156
#
# Coordination Sequence:
#
# PCOD8174246 Si02
#       8
#     8   8   8   8   8   8   8   8
#     4   8  14  28  51  72  89 117 156 193 225 263
#     4   9  18  31  45  65  94 126 157 185 221 272
#     4  10  20  32  46  66  94 125 154 188 228 268
#     4  10  18  29  49  72  93 119 150 185 226 275
#     4   7  12  25  45  67  89 113 141 179 225 265
#     4   9  16  29  50  71  91 116 149 188 228 272
#     4   8  14  27  48  72  94 113 143 190 233 266
#     4   9  17  31  50  69  90 117 152 192 228 263
#
# _framework density 18.076540999999999
#
# number of rings (size 3 to 8) (size 9 to 14) (size 15 to 20)
#    0.000    3.250    0.000    3.375    0.000    1.500 
#    0.000    8.125    0.000    6.000    0.000    0.000 
#    0.000    0.000    0.000    0.000    0.000    0.000 
#
# Total GULP energy -396440.459083 kJ/mol
# GULP energy per Si atom -12388.764346 kJ/mol
# Density = 1.803540 g / cm^3
# Si number density = 18.076541 Si / 1000 Ang^3
#
#
#
# Elastic Constant Matrix: (Units=GPa)
#
#
# Indices 1 2 3 4 5 6 
#
# 1 25.6063 23.6898 15.9801 0.0000 0.0000 0.0000
# 2 23.6898 154.2800 54.0200 0.0000 0.0000 0.0000
# 3 15.9801 54.0200 80.4352 0.0000 0.0000 0.0000
# 4 0.0000 0.0000 0.0000 7.3160 0.0000 0.0000
# 5 0.0000 0.0000 0.0000 0.0000 16.6483 0.0000
# 6 0.0000 0.0000 0.0000 0.0000 0.0000 25.2701
#
#
#
# Elastic Compliance Matrix: (Units=1/GPa)
#
#
# Indices 1 2 3 4 5 6 
#
# 1 0.047599 -0.005227 -0.005946 0.000000 0.000000 0.000000
# 2 -0.005227 0.009049 -0.005039 0.000000 0.000000 0.000000
# 3 -0.005946 -0.005039 0.016998 0.000000 0.000000 0.000000
# 4 0.000000 0.000000 0.000000 0.136688 0.000000 0.000000
# 5 0.000000 0.000000 0.000000 0.000000 0.060066 0.000000
# 6 0.000000 0.000000 0.000000 0.000000 0.000000 0.039572
#
#
# Mechanical properties :
#
#
# Convention : Reuss Voigt Hill
#
# Bulk Modulus (GPa) = 24.25876 49.74460 37.00168
# Shear Modulus (GPa) = 14.03958 20.95563 17.49761
#
# Velocity S-wave (km/s) = 2.78991 3.40850 3.11460
# Velocity P-wave (km/s) = 4.88132 6.56271 5.78344
#
# Compressibility (1/GPa) = 0.04122223
#
# Stress axis : x y z
#
# Youngs Moduli (GPa) = 21.00865 110.51526 58.83200
#
# Poissons Ratio (x) = 0.57765 0.34983
# Poissons Ratio (y) = 0.10981 0.29643
# Poissons Ratio (z) = 0.12492 0.55683
#
# Static dielectric constant tensor:
#      x y z
#    x 2.917900 0.000000 0.000000 
#    y 0.000000 4.001150 0.000000 
#    z 0.000000 0.000000 3.157710 
# 
# 
# High freq. dielectric constant tensor:
#      x y z
#    x 1.652580 0.000000 0.000000 
#    y 0.000000 1.728700 0.000000 
#    z 0.000000 0.000000 1.665300 
# 
# From -- ./inp_files/15828.got.cif
#   From: 2010.03.12/outbox.cif.g09.slc.cpg/sg36_8_cif.got.tgz:15828.got - 2010.04.14 02:13:53.
