data_PCOD8174217
_publ_section_title
;
Structure prediction by ZEFSAII (Michael W. Deem and Ramdas Pophale) SiO2 
 PCOD8174217
Probable space group: C M C 21
;
_chemical_formula_sum "Si O2"
_cell_formula_units_Z 40
_cell_length_a 14.098349
_cell_length_b 5.197103
_cell_length_c 26.012084
_cell_angle_alpha 90.000000
_cell_angle_beta 90.000000
_cell_angle_gamma 90.000000
_cell_volume 1905.920271
_symmetry_space_group_name_H-M "C M C 21"
_symmetry_group_IT_number 36
_symmetry_cell_setting 'orthorhombic'
loop_
_space_group_symop_operation_xyz
x,y,z
-x,-y,1/2+z
x,-y,1/2+z
-x,y,z
1/2+x,1/2+y,z
1/2-x,1/2-y,1/2+z
1/2+x,1/2-y,1/2+z
1/2-x,1/2+y,z
loop_
_atom_site_type_symbol
_atom_site_label
_atom_site_fract_x
_atom_site_fract_y
_atom_site_fract_z
Si Si1 0.308064 0.044226 0.577710
Si Si2 0.605636 0.538389 0.230290
Si Si3 0.500000 0.985190 0.394662
Si Si4 0.891389 0.538179 0.182763
Si Si5 0.000000 0.015439 0.827983
Si Si6 0.187053 0.499493 0.961932
O O1 0.222989 0.839987 0.584946
O O2 0.385594 0.983690 0.621124
O O3 0.350274 0.005878 0.520753
O O4 0.500000 0.550652 0.205079
O O5 0.659828 0.294297 0.205060
O O6 0.594783 0.516580 0.292443
O O7 0.658851 0.798010 0.212052
O O8 0.500000 0.698431 0.371963
O O9 0.405900 0.023189 0.427744
O O10 0.500000 0.197873 0.350245
O O11 0.000000 0.552884 0.200529
O O12 0.257407 0.263051 0.950128
#
# Coordination Sequence:
#
# PCOD8174217 Si02
#       6
#     8   8   4   8   4   8
#     4  10  21  36  54  80 120 155 179 232 294 348
#     4   8  17  31  51  82 109 138 181 239 279 322
#     4  12  22  38  70  88 110 168 210 242 310 372
#     4  10  17  31  56  81 104 146 186 217 272 348
#     4  10  20  36  58  92 110 150 210 244 298 358
#     4  10  23  42  60  90 128 154 198 260 301 351
#
# _framework density 20.987235999999999
#
# number of rings (size 3 to 8) (size 9 to 14) (size 15 to 20)
#    0.600    1.600    0.000    3.600    1.400    0.000 
#    0.000    0.000    0.000   24.000    0.000    0.000 
#    0.000    0.000    0.000    0.000    0.000    0.000 
#
# Total GULP energy -247843.686253 kJ/mol
# GULP energy per Si atom -12392.184313 kJ/mol
# Density = 2.093947 g / cm^3
# Si number density = 20.987236 Si / 1000 Ang^3
#
#
#
# Elastic Constant Matrix: (Units=GPa)
#
#
# Indices 1 2 3 4 5 6 
#
# 1 48.0402 9.4557 30.0323 0.0000 0.0000 0.0000
# 2 9.4557 152.9289 28.9391 0.0000 0.0000 0.0000
# 3 30.0323 28.9391 106.8163 0.0000 0.0000 0.0000
# 4 0.0000 0.0000 0.0000 38.9436 0.0000 0.0000
# 5 0.0000 0.0000 0.0000 0.0000 13.3251 0.0000
# 6 0.0000 0.0000 0.0000 0.0000 0.0000 5.5895
#
#
#
# Elastic Compliance Matrix: (Units=1/GPa)
#
#
# Indices 1 2 3 4 5 6 
#
# 1 0.025263 -0.000230 -0.007041 0.000000 0.000000 0.000000
# 2 -0.000230 0.006894 -0.001803 0.000000 0.000000 0.000000
# 3 -0.007041 -0.001803 0.011830 0.000000 0.000000 0.000000
# 4 0.000000 0.000000 0.000000 0.025678 0.000000 0.000000
# 5 0.000000 0.000000 0.000000 0.000000 0.075046 0.000000
# 6 0.000000 0.000000 0.000000 0.000000 0.000000 0.178905
#
#
# Mechanical properties :
#
#
# Convention : Reuss Voigt Hill
#
# Bulk Modulus (GPa) = 38.69996 49.40440 44.05218
# Shear Modulus (GPa) = 14.27035 27.52889 20.89962
#
# Velocity S-wave (km/s) = 2.61042 3.62566 3.15909
# Velocity P-wave (km/s) = 5.25029 6.41238 5.86021
#
# Compressibility (1/GPa) = 0.02583982
#
# Stress axis : x y z
#
# Youngs Moduli (GPa) = 39.58434 145.04471 84.53138
#
# Poissons Ratio (x) = 0.03332 0.59515
# Poissons Ratio (y) = 0.00909 0.15243
# Poissons Ratio (z) = 0.27869 0.26156
#
# Static dielectric constant tensor:
#      x y z
#    x 3.219220 0.000000 0.000000 
#    y 0.000000 4.439680 0.000000 
#    z 0.000000 0.000000 3.744550 
# 
# 
# High freq. dielectric constant tensor:
#      x y z
#    x 1.780570 0.000000 0.000000 
#    y 0.000000 1.853090 0.000000 
#    z 0.000000 0.000000 1.820640 
# 
# From -- ./inp_files/17204.got.cif
#   From: 2010.03.12/outbox.cif.g09.slc.cpg/sg36_9_cif.got.tgz:17204.got - 2010.04.14 02:13:53.
