data_PCOD8174993
_publ_section_title
;
Structure prediction by ZEFSAII (Michael W. Deem and Ramdas Pophale) SiO2 
 PCOD8174993
Probable space group: C M C 21
;
_chemical_formula_sum "Si O2"
_cell_formula_units_Z 64
_cell_length_a 21.472411
_cell_length_b 16.845541
_cell_length_c 8.526733
_cell_angle_alpha 90.000000
_cell_angle_beta 90.000000
_cell_angle_gamma 90.000000
_cell_volume 3084.241939
_symmetry_space_group_name_H-M "C M C 21"
_symmetry_group_IT_number 36
_symmetry_cell_setting 'orthorhombic'
loop_
_space_group_symop_operation_xyz
x,y,z
-x,-y,1/2+z
x,-y,1/2+z
-x,y,z
1/2+x,1/2+y,z
1/2-x,1/2-y,1/2+z
1/2+x,1/2-y,1/2+z
1/2-x,1/2+y,z
loop_
_atom_site_type_symbol
_atom_site_label
_atom_site_fract_x
_atom_site_fract_y
_atom_site_fract_z
Si Si1 0.430792 0.039259 0.757940
Si Si2 0.926577 0.101292 0.038805
Si Si3 0.071220 0.355763 0.810942
Si Si4 0.069975 0.684056 0.973827
Si Si5 0.705640 0.586735 0.439632
Si Si6 0.164462 0.369174 0.059435
Si Si7 0.634042 0.534606 0.736264
Si Si8 0.350314 0.720382 0.241035
O O1 0.500000 0.050740 0.680648
O O2 0.424920 0.094608 0.910192
O O3 0.376383 0.062846 0.640092
O O4 0.421842 0.950310 0.812518
O O5 0.888691 0.176117 0.105148
O O6 0.000000 0.118997 0.041270
O O7 0.912641 0.026438 0.151292
O O8 0.905449 0.087206 0.858553
O O9 0.096079 0.318446 0.649555
O O10 0.000000 0.330385 0.847159
O O11 0.118866 0.323134 0.939287
O O12 0.102866 0.750075 0.872470
O O13 0.000000 0.713684 0.978851
O O14 0.778235 0.584648 0.482081
O O15 0.665647 0.588728 0.601151
O O16 0.688089 0.509941 0.335817
O O17 0.697428 0.663708 0.330764
O O18 0.186634 0.297226 0.173174
#
# Coordination Sequence:
#
# PCOD8174993 Si02
#       8
#     8   8   8   8   8   8   8   8
#     4   9  18  35  56  84 118 149 190 248 296 337
#     4  10  19  37  66  91 116 146 185 241 306 356
#     4  10  20  34  55  85 117 148 194 252 291 334
#     4   9  18  34  54  78 115 154 188 235 296 353
#     4  10  23  42  61  82 119 155 196 242 293 339
#     4  11  23  36  59  84 113 160 201 232 290 359
#     4   9  21  41  62  91 116 144 194 252 291 348
#     4  10  23  39  53  83 119 156 194 238 285 354
#
# _framework density 20.750643
#
# number of rings (size 3 to 8) (size 9 to 14) (size 15 to 20)
#    0.000    2.250    0.000    1.875    1.750    6.500 
#    0.000    3.125    0.000    0.000    0.000    0.000 
#    0.000    0.000    0.000    0.000    0.000    0.000 
#
# Total GULP energy -396684.373315 kJ/mol
# GULP energy per Si atom -12396.386666 kJ/mol
# Density = 2.070341 g / cm^3
# Si number density = 20.750643 Si / 1000 Ang^3
#
#
#
# Elastic Constant Matrix: (Units=GPa)
#
#
# Indices 1 2 3 4 5 6 
#
# 1 88.0008 12.0045 29.5337 0.0000 0.0000 0.0000
# 2 12.0045 49.0253 4.3030 0.0000 0.0000 0.0000
# 3 29.5337 4.3030 89.1582 0.0000 0.0000 0.0000
# 4 0.0000 0.0000 0.0000 23.7842 0.0000 0.0000
# 5 0.0000 0.0000 0.0000 0.0000 26.3466 0.0000
# 6 0.0000 0.0000 0.0000 0.0000 0.0000 14.3716
#
#
#
# Elastic Compliance Matrix: (Units=1/GPa)
#
#
# Indices 1 2 3 4 5 6 
#
# 1 0.013171 -0.002854 -0.004225 0.000000 0.000000 0.000000
# 2 -0.002854 0.021103 -0.000073 0.000000 0.000000 0.000000
# 3 -0.004225 -0.000073 0.012619 0.000000 0.000000 0.000000
# 4 0.000000 0.000000 0.000000 0.042045 0.000000 0.000000
# 5 0.000000 0.000000 0.000000 0.000000 0.037956 0.000000
# 6 0.000000 0.000000 0.000000 0.000000 0.000000 0.069581
#
#
# Mechanical properties :
#
#
# Convention : Reuss Voigt Hill
#
# Bulk Modulus (GPa) = 30.68593 35.31853 33.00223
# Shear Modulus (GPa) = 22.55890 24.92336 23.74113
#
# Velocity S-wave (km/s) = 3.30076 3.46943 3.38615
# Velocity P-wave (km/s) = 5.41726 5.75384 5.58809
#
# Compressibility (1/GPa) = 0.03258822
#
# Stress axis : x y z
#
# Youngs Moduli (GPa) = 75.92519 47.38679 79.24482
#
# Poissons Ratio (x) = 0.13525 0.33482
# Poissons Ratio (y) = 0.21671 0.00579
# Poissons Ratio (z) = 0.32079 0.00346
#
# Static dielectric constant tensor:
#      x y z
#    x 3.549600 0.000000 0.000000 
#    y 0.000000 3.640520 0.000000 
#    z 0.000000 0.000000 4.051670 
# 
# 
# High freq. dielectric constant tensor:
#      x y z
#    x 1.795290 0.000000 0.000000 
#    y 0.000000 1.802060 0.000000 
#    z 0.000000 0.000000 1.829370 
# 
# From -- ./inp_files/5328.got.cif
#   From: 2010.03.12/outbox.cif.g09.slc.cpg/sg36_3_cif.got.tgz:5328.got - 2010.04.14 02:13:53.
