data_PCOD8174965
_publ_section_title
;
Structure prediction by ZEFSAII (Michael W. Deem and Ramdas Pophale) SiO2 
 PCOD8174965
Probable space group: C M C 21
;
_chemical_formula_sum "Si O2"
_cell_formula_units_Z 64
_cell_length_a 8.469813
_cell_length_b 15.399653
_cell_length_c 23.699857
_cell_angle_alpha 90.000000
_cell_angle_beta 90.000000
_cell_angle_gamma 90.000000
_cell_volume 3091.224042
_symmetry_space_group_name_H-M "C M C 21"
_symmetry_group_IT_number 36
_symmetry_cell_setting 'orthorhombic'
loop_
_space_group_symop_operation_xyz
x,y,z
-x,-y,1/2+z
x,-y,1/2+z
-x,y,z
1/2+x,1/2+y,z
1/2-x,1/2-y,1/2+z
1/2+x,1/2-y,1/2+z
1/2-x,1/2+y,z
loop_
_atom_site_type_symbol
_atom_site_label
_atom_site_fract_x
_atom_site_fract_y
_atom_site_fract_z
Si Si1 0.682625 0.860677 0.334890
Si Si2 0.182816 0.155423 0.596709
Si Si3 0.685933 0.667070 0.332070
Si Si4 0.817916 0.496600 0.529803
Si Si5 0.684037 0.510152 0.407979
Si Si6 0.185030 0.091564 0.718997
Si Si7 0.313243 0.606828 0.213489
Si Si8 0.184613 0.835877 0.592963
O O1 0.500000 0.881137 0.347546
O O2 0.727453 0.763000 0.354562
O O3 0.793617 0.927100 0.367829
O O4 0.713592 0.864760 0.268170
O O5 0.229441 0.140326 0.661582
O O6 0.280487 0.237572 0.573315
O O7 0.000000 0.177421 0.590419
O O8 0.217001 0.070063 0.560625
O O9 0.500000 0.653672 0.326395
O O10 0.749841 0.595649 0.376001
O O11 0.759935 0.651536 0.269565
O O12 0.786548 0.498930 0.463479
O O13 0.772622 0.401476 0.551487
O O14 0.000000 0.514887 0.541875
O O15 0.500000 0.518615 0.423408
O O16 0.000000 0.097648 0.733238
O O17 0.240081 0.992702 0.712595
O O18 0.500000 0.614778 0.213586
O O19 0.248443 0.652108 0.156679
O O20 0.000000 0.856317 0.589078
#
# Coordination Sequence:
#
# PCOD8174965 Si02
#       8
#     8   8   8   8   8   8   8   8
#     4  11  22  37  60  94 126 156 201 258 309 365
#     4  11  23  41  64  94 129 167 209 258 313 374
#     4   9  19  36  61  88 119 158 197 240 300 364
#     4  12  26  44  64  90 124 162 211 268 318 375
#     4  11  23  43  66  85 115 164 211 254 312 378
#     4  10  19  36  62  90 124 165 204 245 304 375
#     4   9  16  33  61  90 121 159 201 244 301 370
#     4  11  22  40  66  95 126 165 208 257 315 377
#
# _framework density 20.703772000000001
#
# number of rings (size 3 to 8) (size 9 to 14) (size 15 to 20)
#    0.000    1.500    2.500    3.375    0.000    3.000 
#    0.000    6.250    0.000    0.000    0.000    0.000 
#    0.000    0.000    0.000    0.000    0.000    0.000 
#
# Total GULP energy -396916.996949 kJ/mol
# GULP energy per Si atom -12403.656155 kJ/mol
# Density = 2.065665 g / cm^3
# Si number density = 20.703772 Si / 1000 Ang^3
#
#
#
# Elastic Constant Matrix: (Units=GPa)
#
#
# Indices 1 2 3 4 5 6 
#
# 1 34.3537 18.2219 19.7080 0.0000 0.0000 0.0000
# 2 18.2219 127.3210 33.9876 0.0000 0.0000 0.0000
# 3 19.7080 33.9876 102.2450 0.0000 0.0000 0.0000
# 4 0.0000 0.0000 0.0000 10.9122 0.0000 0.0000
# 5 0.0000 0.0000 0.0000 0.0000 26.9168 0.0000
# 6 0.0000 0.0000 0.0000 0.0000 0.0000 27.7612
#
#
#
# Elastic Compliance Matrix: (Units=1/GPa)
#
#
# Indices 1 2 3 4 5 6 
#
# 1 0.034036 -0.003424 -0.005422 0.000000 0.000000 0.000000
# 2 -0.003424 0.008963 -0.002320 0.000000 0.000000 0.000000
# 3 -0.005422 -0.002320 0.011597 0.000000 0.000000 0.000000
# 4 0.000000 0.000000 0.000000 0.091641 0.000000 0.000000
# 5 0.000000 0.000000 0.000000 0.000000 0.037152 0.000000
# 6 0.000000 0.000000 0.000000 0.000000 0.000000 0.036022
#
#
# Mechanical properties :
#
#
# Convention : Reuss Voigt Hill
#
# Bulk Modulus (GPa) = 30.99394 45.30607 38.15001
# Shear Modulus (GPa) = 19.80234 25.91818 22.86026
#
# Velocity S-wave (km/s) = 3.09602 3.54200 3.32649
# Velocity P-wave (km/s) = 5.27098 6.21757 5.76374
#
# Compressibility (1/GPa) = 0.03226437
#
# Stress axis : x y z
#
# Youngs Moduli (GPa) = 29.38098 111.56537 86.23149
#
# Poissons Ratio (x) = 0.38196 0.46758
# Poissons Ratio (y) = 0.10059 0.20003
# Poissons Ratio (z) = 0.15932 0.25879
#
# Static dielectric constant tensor:
#      x y z
#    x 3.396400 0.000000 0.000000 
#    y 0.000000 3.821340 0.000000 
#    z 0.000000 0.000000 3.856340 
# 
# 
# High freq. dielectric constant tensor:
#      x y z
#    x 1.787410 0.000000 0.000000 
#    y 0.000000 1.824060 0.000000 
#    z 0.000000 0.000000 1.808680 
# 
# From -- ./inp_files/16591.got.cif
#   From: 2010.03.12/outbox.cif.g09.slc.cpg/sg36_9_cif.got.tgz:16591.got - 2010.04.14 02:13:53.
