data_PCOD8174626
_publ_section_title
;
Structure prediction by ZEFSAII (Michael W. Deem and Ramdas Pophale) SiO2 
 PCOD8174626
Probable space group: C M C 21
;
_chemical_formula_sum "Si O2"
_cell_formula_units_Z 48
_cell_length_a 8.771999
_cell_length_b 15.617364
_cell_length_c 18.726282
_cell_angle_alpha 90.000000
_cell_angle_beta 90.000000
_cell_angle_gamma 90.000000
_cell_volume 2565.416392
_symmetry_space_group_name_H-M "C M C 21"
_symmetry_group_IT_number 36
_symmetry_cell_setting 'orthorhombic'
loop_
_space_group_symop_operation_xyz
x,y,z
-x,-y,1/2+z
x,-y,1/2+z
-x,y,z
1/2+x,1/2+y,z
1/2-x,1/2-y,1/2+z
1/2+x,1/2-y,1/2+z
1/2-x,1/2+y,z
loop_
_atom_site_type_symbol
_atom_site_label
_atom_site_fract_x
_atom_site_fract_y
_atom_site_fract_z
Si Si1 0.680060 0.504264 0.982700
Si Si2 0.168650 0.906107 0.756068
Si Si3 0.320878 0.335818 0.393644
Si Si4 0.822150 0.645433 0.393132
Si Si5 0.178908 0.497548 0.637236
Si Si6 0.331477 0.404505 0.250631
O O1 0.500000 0.507763 0.993909
O O2 0.744665 0.591714 0.946729
O O3 0.721754 0.421325 0.936564
O O4 0.759857 0.495156 0.058192
O O5 0.274838 0.852801 0.809760
O O6 0.247149 0.914693 0.677488
O O7 0.000000 0.864016 0.748717
O O8 0.152545 0.001940 0.788030
O O9 0.500000 0.351511 0.385522
O O10 0.286258 0.240856 0.423290
O O11 0.255352 0.345576 0.312347
O O12 0.000000 0.622524 0.400194
O O13 0.224852 0.585199 0.680297
O O14 0.000000 0.486757 0.636223
O O15 0.500000 0.371776 0.226711
#
# Coordination Sequence:
#
# PCOD8174626 Si02
#       6
#     8   8   8   8   8   8
#     4  11  20  37  58  77 110 152 182 216 269 334
#     4   9  17  33  55  78 104 140 181 213 261 326
#     4   9  19  35  57  81 108 141 181 222 267 321
#     4  11  21  34  56  86 111 137 177 230 273 310
#     4  10  19  32  54  83 109 139 180 230 275 312
#     4   8  15  33  56  77 102 139 181 213 261 327
#
# _framework density 18.710412999999999
#
# number of rings (size 3 to 8) (size 9 to 14) (size 15 to 20)
#    1.000    1.333    1.667    2.500    0.000    0.000 
#    0.000    6.667    0.000    0.000    0.000    0.000 
#    0.000    0.000    0.000    0.000    0.000    0.000 
#
# Total GULP energy -297318.421484 kJ/mol
# GULP energy per Si atom -12388.267562 kJ/mol
# Density = 1.866783 g / cm^3
# Si number density = 18.710413 Si / 1000 Ang^3
#
#
#
# Elastic Constant Matrix: (Units=GPa)
#
#
# Indices 1 2 3 4 5 6 
#
# 1 88.7934 15.5401 29.1157 0.0000 0.0000 0.0000
# 2 15.5401 72.9276 26.7504 0.0000 0.0000 0.0000
# 3 29.1157 26.7504 106.8168 0.0000 0.0000 0.0000
# 4 0.0000 0.0000 0.0000 11.4499 0.0000 0.0000
# 5 0.0000 0.0000 0.0000 0.0000 28.3068 0.0000
# 6 0.0000 0.0000 0.0000 0.0000 0.0000 18.4758
#
#
#
# Elastic Compliance Matrix: (Units=1/GPa)
#
#
# Indices 1 2 3 4 5 6 
#
# 1 0.012527 -0.001560 -0.003024 0.000000 0.000000 0.000000
# 2 -0.001560 0.015294 -0.003405 0.000000 0.000000 0.000000
# 3 -0.003024 -0.003405 0.011039 0.000000 0.000000 0.000000
# 4 0.000000 0.000000 0.000000 0.087337 0.000000 0.000000
# 5 0.000000 0.000000 0.000000 0.000000 0.035327 0.000000
# 6 0.000000 0.000000 0.000000 0.000000 0.000000 0.054125
#
#
# Mechanical properties :
#
#
# Convention : Reuss Voigt Hill
#
# Bulk Modulus (GPa) = 43.70327 45.70558 44.70443
# Shear Modulus (GPa) = 20.89842 24.78860 22.84351
#
# Velocity S-wave (km/s) = 3.34569 3.64381 3.49793
# Velocity P-wave (km/s) = 6.19139 6.49492 6.34497
#
# Compressibility (1/GPa) = 0.02288158
#
# Stress axis : x y z
#
# Youngs Moduli (GPa) = 79.82982 65.38697 90.59049
#
# Poissons Ratio (x) = 0.10201 0.27392
# Poissons Ratio (y) = 0.12455 0.30844
# Poissons Ratio (z) = 0.24138 0.22263
#
# Static dielectric constant tensor:
#      x y z
#    x 3.271570 0.000000 0.000000 
#    y 0.000000 3.239370 0.000000 
#    z 0.000000 0.000000 3.358120 
# 
# 
# High freq. dielectric constant tensor:
#      x y z
#    x 1.718660 0.000000 0.000000 
#    y 0.000000 1.697920 0.000000 
#    z 0.000000 0.000000 1.719860 
# 
# From -- ./inp_files/15327.got.cif
#   From: 2010.03.12/outbox.cif.g09.slc.cpg/sg36_8_cif.got.tgz:15327.got - 2010.04.14 02:13:53.
