data_PCOD8174813
_publ_section_title
;
Structure prediction by ZEFSAII (Michael W. Deem and Ramdas Pophale) SiO2 
 PCOD8174813
Probable space group: C M C 21
;
_chemical_formula_sum "Si O2"
_cell_formula_units_Z 64
_cell_length_a 8.663505
_cell_length_b 22.633885
_cell_length_c 16.352027
_cell_angle_alpha 90.000000
_cell_angle_beta 90.000000
_cell_angle_gamma 90.000000
_cell_volume 3206.448957
_symmetry_space_group_name_H-M "C M C 21"
_symmetry_group_IT_number 36
_symmetry_cell_setting 'orthorhombic'
loop_
_space_group_symop_operation_xyz
x,y,z
-x,-y,1/2+z
x,-y,1/2+z
-x,y,z
1/2+x,1/2+y,z
1/2-x,1/2-y,1/2+z
1/2+x,1/2-y,1/2+z
1/2-x,1/2+y,z
loop_
_atom_site_type_symbol
_atom_site_label
_atom_site_fract_x
_atom_site_fract_y
_atom_site_fract_z
Si Si1 0.320135 0.588729 0.290110
Si Si2 0.820424 0.861636 0.218842
Si Si3 0.673256 0.214316 0.852867
Si Si4 0.318012 0.786320 0.086310
Si Si5 0.175560 0.323558 0.904475
Si Si6 0.681373 0.346603 0.624094
Si Si7 0.182098 0.537762 0.808787
Si Si8 0.675352 0.891595 0.466576
O O1 0.500000 0.572705 0.284743
O O2 0.286232 0.624415 0.373367
O O3 0.264687 0.626787 0.211271
O O4 0.218622 0.530385 0.297270
O O5 0.705058 0.825610 0.275699
O O6 0.779608 0.838248 0.129267
O O7 0.773228 0.929669 0.234787
O O8 0.000000 0.852397 0.238890
O O9 0.500000 0.240300 0.846208
O O10 0.796457 0.266745 0.847629
O O11 0.691562 0.175156 0.933989
O O12 0.500000 0.792422 0.103847
O O13 0.256821 0.720814 0.112328
O O14 0.277688 0.800316 0.993124
O O15 0.000000 0.345250 0.898498
O O16 0.500000 0.343942 0.619199
O O17 0.735063 0.391834 0.552692
O O18 0.240195 0.562332 0.898025
O O19 0.000000 0.549661 0.800807
O O20 0.500000 0.908683 0.485790
#
# Coordination Sequence:
#
# PCOD8174813 Si02
#       8
#     8   8   8   8   8   8   8   8
#     4  11  24  41  61  88 122 164 205 251 307 361
#     4  11  22  36  60  90 117 153 200 247 299 359
#     4  10  19  34  57  86 121 156 192 241 300 357
#     4  10  21  38  59  89 126 159 194 244 305 365
#     4  11  22  37  60  88 120 160 201 246 303 361
#     4  10  21  38  61  89 122 156 195 245 303 359
#     4  10  22  43  64  85 117 158 204 253 303 359
#     4   9  19  35  60  89 115 150 195 243 298 353
#
# _framework density 19.959776000000002
#
# number of rings (size 3 to 8) (size 9 to 14) (size 15 to 20)
#    0.000    1.750    1.250    4.125    0.000    6.000 
#    2.250    0.000    0.000    0.000    0.000    0.000 
#    0.000    0.000    0.000    0.000    0.000    0.000 
#
# Total GULP energy -396696.373474 kJ/mol
# GULP energy per Si atom -12396.761671 kJ/mol
# Density = 1.991435 g / cm^3
# Si number density = 19.959776 Si / 1000 Ang^3
#
#
#
# Elastic Constant Matrix: (Units=GPa)
#
#
# Indices 1 2 3 4 5 6 
#
# 1 52.2765 29.7151 38.3736 0.0000 0.0000 0.0000
# 2 29.7151 113.5252 54.9020 0.0000 0.0000 0.0000
# 3 38.3736 54.9020 85.2637 0.0000 0.0000 0.0000
# 4 0.0000 0.0000 0.0000 26.5968 0.0000 0.0000
# 5 0.0000 0.0000 0.0000 0.0000 30.3817 0.0000
# 6 0.0000 0.0000 0.0000 0.0000 0.0000 34.0661
#
#
#
# Elastic Compliance Matrix: (Units=1/GPa)
#
#
# Indices 1 2 3 4 5 6 
#
# 1 0.028830 -0.001846 -0.011787 0.000000 0.000000 0.000000
# 2 -0.001846 0.012910 -0.007482 0.000000 0.000000 0.000000
# 3 -0.011787 -0.007482 0.021851 0.000000 0.000000 0.000000
# 4 0.000000 0.000000 0.000000 0.037599 0.000000 0.000000
# 5 0.000000 0.000000 0.000000 0.000000 0.032915 0.000000
# 6 0.000000 0.000000 0.000000 0.000000 0.000000 0.029355
#
#
# Mechanical properties :
#
#
# Convention : Reuss Voigt Hill
#
# Bulk Modulus (GPa) = 46.81285 55.22740 51.02013
# Shear Modulus (GPa) = 23.49517 26.74722 25.12120
#
# Velocity S-wave (km/s) = 3.43465 3.66465 3.55151
# Velocity P-wave (km/s) = 6.26367 6.75541 6.51419
#
# Compressibility (1/GPa) = 0.02136165
#
# Stress axis : x y z
#
# Youngs Moduli (GPa) = 34.68558 77.45750 45.76503
#
# Poissons Ratio (x) = 0.14300 0.53941
# Poissons Ratio (y) = 0.06404 0.34242
# Poissons Ratio (z) = 0.40882 0.57955
#
# Static dielectric constant tensor:
#      x y z
#    x 3.447980 0.000000 0.000000 
#    y 0.000000 3.762090 0.000000 
#    z 0.000000 0.000000 3.797280 
# 
# 
# High freq. dielectric constant tensor:
#      x y z
#    x 1.774390 0.000000 0.000000 
#    y 0.000000 1.769360 0.000000 
#    z 0.000000 0.000000 1.777700 
# 
# From -- ./inp_files/14059.got.cif
#   From: 2010.03.12/outbox.cif.g09.slc.cpg/sg36_8_cif.got.tgz:14059.got - 2010.04.14 02:13:53.
