data_PCOD8174915
_publ_section_title
;
Structure prediction by ZEFSAII (Michael W. Deem and Ramdas Pophale) SiO2 
 PCOD8174915
Probable space group: C M C 21
;
_chemical_formula_sum "Si O2"
_cell_formula_units_Z 64
_cell_length_a 8.585245
_cell_length_b 15.302588
_cell_length_c 23.604778
_cell_angle_alpha 90.000000
_cell_angle_beta 90.000000
_cell_angle_gamma 90.000000
_cell_volume 3101.112341
_symmetry_space_group_name_H-M "C M C 21"
_symmetry_group_IT_number 36
_symmetry_cell_setting 'orthorhombic'
loop_
_space_group_symop_operation_xyz
x,y,z
-x,-y,1/2+z
x,-y,1/2+z
-x,y,z
1/2+x,1/2+y,z
1/2-x,1/2-y,1/2+z
1/2+x,1/2-y,1/2+z
1/2-x,1/2+y,z
loop_
_atom_site_type_symbol
_atom_site_label
_atom_site_fract_x
_atom_site_fract_y
_atom_site_fract_z
Si Si1 0.316378 0.149259 0.362310
Si Si2 0.183137 0.909174 0.473273
Si Si3 0.315545 0.656339 0.854265
Si Si4 0.316687 0.090025 0.484359
Si Si5 0.819021 0.097191 0.732075
Si Si6 0.819899 0.096250 0.248609
Si Si7 0.818256 0.746979 0.043748
Si Si8 0.317271 0.251554 0.665462
O O1 0.500000 0.153941 0.364092
O O2 0.244115 0.246247 0.356597
O O3 0.255175 0.106853 0.420512
O O4 0.265778 0.092158 0.308751
O O5 0.243564 0.898222 0.408536
O O6 0.220684 0.821298 0.506980
O O7 0.000000 0.926567 0.476260
O O8 0.271950 0.991159 0.501121
O O9 0.500000 0.662270 0.857382
O O10 0.260285 0.610999 0.796469
O O11 0.500000 0.104841 0.490810
O O12 0.230120 0.155106 0.526966
O O13 0.717449 0.155600 0.689936
O O14 0.000000 0.123651 0.725854
O O15 0.791213 0.995712 0.716490
O O16 0.757888 0.175194 0.209810
O O17 0.000000 0.109558 0.262202
O O18 0.780028 0.732301 0.109196
O O19 0.000000 0.732234 0.033130
O O20 0.500000 0.260961 0.652650
#
# Coordination Sequence:
#
# PCOD8174915 Si02
#       8
#     8   8   8   8   8   8   8   8
#     4  10  19  35  61  91 124 162 199 245 303 361
#     4  11  22  41  66  94 128 165 205 253 308 368
#     4   9  17  33  60  90 123 162 197 242 303 361
#     4  11  23  41  63  93 129 164 205 254 309 370
#     4  10  20  38  62  88 121 160 203 244 295 368
#     4  10  22  38  60  91 123 157 199 249 304 365
#     4  12  26  44  65  89 118 163 214 261 314 367
#     4  11  24  42  61  86 120 157 202 260 314 362
#
# _framework density 20.637756
#
# number of rings (size 3 to 8) (size 9 to 14) (size 15 to 20)
#    0.000    1.500    2.500    3.000    0.000    4.000 
#    0.000    5.000    0.000    0.000    0.000    0.000 
#    0.000    0.000    0.000    0.000    0.000    0.000 
#
# Total GULP energy -396931.360463 kJ/mol
# GULP energy per Si atom -12404.105014 kJ/mol
# Density = 2.059078 g / cm^3
# Si number density = 20.637756 Si / 1000 Ang^3
#
#
#
# Elastic Constant Matrix: (Units=GPa)
#
#
# Indices 1 2 3 4 5 6 
#
# 1 49.4574 15.3575 21.3345 0.0000 0.0000 0.0000
# 2 15.3575 94.2702 6.6121 0.0000 0.0000 0.0000
# 3 21.3345 6.6121 83.6800 0.0000 0.0000 0.0000
# 4 0.0000 0.0000 0.0000 17.5327 0.0000 0.0000
# 5 0.0000 0.0000 0.0000 0.0000 30.2934 0.0000
# 6 0.0000 0.0000 0.0000 0.0000 0.0000 32.0272
#
#
#
# Elastic Compliance Matrix: (Units=1/GPa)
#
#
# Indices 1 2 3 4 5 6 
#
# 1 0.023796 -0.003470 -0.005793 0.000000 0.000000 0.000000
# 2 -0.003470 0.011173 0.000002 0.000000 0.000000 0.000000
# 3 -0.005793 0.000002 0.013427 0.000000 0.000000 0.000000
# 4 0.000000 0.000000 0.000000 0.057036 0.000000 0.000000
# 5 0.000000 0.000000 0.000000 0.000000 0.033011 0.000000
# 6 0.000000 0.000000 0.000000 0.000000 0.000000 0.031223
#
#
# Mechanical properties :
#
#
# Convention : Reuss Voigt Hill
#
# Bulk Modulus (GPa) = 33.47409 34.89063 34.18236
# Shear Modulus (GPa) = 25.23394 28.24422 26.73908
#
# Velocity S-wave (km/s) = 3.50052 3.70343 3.60340
# Velocity P-wave (km/s) = 5.70905 5.93550 5.82337
#
# Compressibility (1/GPa) = 0.02987385
#
# Stress axis : x y z
#
# Youngs Moduli (GPa) = 42.02425 89.50136 74.47692
#
# Poissons Ratio (x) = 0.31059 0.43142
# Poissons Ratio (y) = 0.14583 -0.00014
# Poissons Ratio (z) = 0.24343 -0.00017
#
# Static dielectric constant tensor:
#      x y z
#    x 3.461860 0.000000 0.000000 
#    y 0.000000 3.829180 0.000000 
#    z 0.000000 0.000000 3.779420 
# 
# 
# High freq. dielectric constant tensor:
#      x y z
#    x 1.790100 0.000000 0.000000 
#    y 0.000000 1.820210 0.000000 
#    z 0.000000 0.000000 1.803320 
# 
# From -- ./inp_files/16629.got.cif
#   From: 2010.03.12/outbox.cif.g09.slc.cpg/sg36_9_cif.got.tgz:16629.got - 2010.04.14 02:13:53.
