data_PCOD8174856
_publ_section_title
;
Structure prediction by ZEFSAII (Michael W. Deem and Ramdas Pophale) SiO2 
 PCOD8174856
Probable space group: C M C 21
;
_chemical_formula_sum "Si O2"
_cell_formula_units_Z 48
_cell_length_a 8.911123
_cell_length_b 30.220660
_cell_length_c 9.378310
_cell_angle_alpha 90.000000
_cell_angle_beta 90.000000
_cell_angle_gamma 90.000000
_cell_volume 2525.579056
_symmetry_space_group_name_H-M "C M C 21"
_symmetry_group_IT_number 36
_symmetry_cell_setting 'orthorhombic'
loop_
_space_group_symop_operation_xyz
x,y,z
-x,-y,1/2+z
x,-y,1/2+z
-x,y,z
1/2+x,1/2+y,z
1/2-x,1/2-y,1/2+z
1/2+x,1/2-y,1/2+z
1/2-x,1/2+y,z
loop_
_atom_site_type_symbol
_atom_site_label
_atom_site_fract_x
_atom_site_fract_y
_atom_site_fract_z
Si Si1 0.676339 0.879650 0.065260
Si Si2 0.677741 0.536462 0.067844
Si Si3 0.678716 0.547247 0.745833
Si Si4 0.822500 0.116310 0.263849
Si Si5 0.330502 0.221021 0.548908
Si Si6 0.670804 0.206140 0.222789
O O1 0.500000 0.888111 0.054252
O O2 0.748065 0.907303 0.193199
O O3 0.748251 0.893903 0.915587
O O4 0.711309 0.828423 0.098886
O O5 0.500000 0.535445 0.068425
O O6 0.737634 0.492287 0.144996
O O7 0.734838 0.579211 0.153816
O O8 0.737129 0.538068 0.905976
O O9 0.500000 0.552006 0.741430
O O10 0.774456 0.163427 0.199578
O O11 0.000000 0.114927 0.284394
O O12 0.500000 0.232725 0.595641
O O13 0.311034 0.225197 0.380374
O O14 0.215678 0.255358 0.615536
O O15 0.500000 0.191815 0.193462
#
# Coordination Sequence:
#
# PCOD8174856 Si02
#       6
#     8   8   8   8   8   8
#     4  10  21  37  54  78 110 142 180 224 267 315
#     4   9  19  34  56  83 107 136 180 225 263 319
#     4  10  19  35  57  80 106 139 179 221 267 318
#     4  10  19  35  58  81 107 142 180 220 269 321
#     4   9  20  37  54  75 106 141 178 219 263 318
#     4  10  21  36  55  81 110 140 179 225 269 317
#
# _framework density 19.005541999999998
#
# number of rings (size 3 to 8) (size 9 to 14) (size 15 to 20)
#    0.000    2.333    0.000    3.500    0.000    8.000 
#    0.000   10.833    0.000    0.000    0.000    0.000 
#    0.000    0.000    0.000    0.000    0.000    0.000 
#
# Total GULP energy -297661.912692 kJ/mol
# GULP energy per Si atom -12402.579695 kJ/mol
# Density = 1.896228 g / cm^3
# Si number density = 19.005542 Si / 1000 Ang^3
#
#
#
# Elastic Constant Matrix: (Units=GPa)
#
#
# Indices 1 2 3 4 5 6 
#
# 1 54.8744 18.4065 20.5803 0.0000 0.0000 0.0000
# 2 18.4065 72.0214 32.3151 0.0000 0.0000 0.0000
# 3 20.5803 32.3151 73.5407 0.0000 0.0000 0.0000
# 4 0.0000 0.0000 0.0000 39.3087 0.0000 0.0000
# 5 0.0000 0.0000 0.0000 0.0000 24.1304 0.0000
# 6 0.0000 0.0000 0.0000 0.0000 0.0000 28.2582
#
#
#
# Elastic Compliance Matrix: (Units=1/GPa)
#
#
# Indices 1 2 3 4 5 6 
#
# 1 0.021009 -0.003402 -0.004384 0.000000 0.000000 0.000000
# 2 -0.003402 0.017845 -0.006890 0.000000 0.000000 0.000000
# 3 -0.004384 -0.006890 0.017852 0.000000 0.000000 0.000000
# 4 0.000000 0.000000 0.000000 0.025440 0.000000 0.000000
# 5 0.000000 0.000000 0.000000 0.000000 0.041441 0.000000
# 6 0.000000 0.000000 0.000000 0.000000 0.000000 0.035388
#
#
# Mechanical properties :
#
#
# Convention : Reuss Voigt Hill
#
# Bulk Modulus (GPa) = 36.55683 38.11560 37.33621
# Shear Modulus (GPa) = 25.32337 26.94844 26.13591
#
# Velocity S-wave (km/s) = 3.65419 3.76962 3.71236
# Velocity P-wave (km/s) = 6.08940 6.24862 6.16952
#
# Compressibility (1/GPa) = 0.02735467
#
# Stress axis : x y z
#
# Youngs Moduli (GPa) = 47.59879 56.03656 56.01520
#
# Poissons Ratio (x) = 0.19064 0.24560
# Poissons Ratio (y) = 0.16193 0.38592
# Poissons Ratio (z) = 0.20869 0.38607
#
# Static dielectric constant tensor:
#      x y z
#    x 3.325610 0.000000 0.000000 
#    y 0.000000 3.558100 0.000000 
#    z 0.000000 0.000000 3.532590 
# 
# 
# High freq. dielectric constant tensor:
#      x y z
#    x 1.725840 0.000000 0.000000 
#    y 0.000000 1.748010 0.000000 
#    z 0.000000 0.000000 1.739460 
# 
# From -- ./inp_files/2666.got.cif
#   From: 2010.03.12/outbox.cif.g09.slc.cpg/sg36_2_cif.got.tgz:2666.got - 2010.04.14 02:13:53.
