data_PCOD8174510
_publ_section_title
;
Structure prediction by ZEFSAII (Michael W. Deem and Ramdas Pophale) SiO2 
 PCOD8174510
Probable space group: C M C 21
;
_chemical_formula_sum "Si O2"
_cell_formula_units_Z 64
_cell_length_a 8.919721
_cell_length_b 28.063867
_cell_length_c 14.253286
_cell_angle_alpha 90.000000
_cell_angle_beta 90.000000
_cell_angle_gamma 90.000000
_cell_volume 3567.909117
_symmetry_space_group_name_H-M "C M C 21"
_symmetry_group_IT_number 36
_symmetry_cell_setting 'orthorhombic'
loop_
_space_group_symop_operation_xyz
x,y,z
-x,-y,1/2+z
x,-y,1/2+z
-x,y,z
1/2+x,1/2+y,z
1/2-x,1/2-y,1/2+z
1/2+x,1/2-y,1/2+z
1/2-x,1/2+y,z
loop_
_atom_site_type_symbol
_atom_site_label
_atom_site_fract_x
_atom_site_fract_y
_atom_site_fract_z
Si Si1 0.329208 0.045811 0.062550
Si Si2 0.677297 0.879468 0.206104
Si Si3 0.674084 0.872601 0.419229
Si Si4 0.674084 0.872601 0.705870
Si Si5 0.177886 0.805045 0.562550
Si Si6 0.677298 0.879468 0.918996
Si Si7 0.676260 0.447078 0.062550
Si Si8 0.676298 0.801305 0.062550
O O1 0.500000 0.026820 0.062550
O O2 0.297918 0.077238 0.154849
O O3 0.213923 0.002723 0.062550
O O4 0.297918 0.077238 0.970251
O O5 0.500000 0.887601 0.198351
O O6 0.731719 0.877109 0.313071
O O7 0.755884 0.924000 0.156390
O O8 0.726948 0.830521 0.154958
O O9 0.500000 0.858451 0.424052
O O10 0.765657 0.830752 0.468830
O O11 0.500000 0.858451 0.701048
O O12 0.765657 0.830752 0.656270
O O13 0.731720 0.877108 0.812029
O O14 0.246300 0.751482 0.562550
O O15 0.000000 0.805347 0.562550
O O16 0.500000 0.887601 0.926748
O O17 0.755882 0.924001 0.968709
O O18 0.726952 0.830521 0.970142
O O19 0.500000 0.439721 0.062549
O O20 0.500000 0.795653 0.062548
#
# Coordination Sequence:
#
# PCOD8174510 Si02
#       8
#     8   8   8   8   8   8   8   8
#     4   9  18  34  52  72  99 130 168 208 249 296
#     4   9  18  36  57  73  97 134 173 210 246 289
#     4   9  19  35  55  76  97 130 176 214 242 287
#     4   9  19  35  55  76  97 130 176 214 242 287
#     4  10  19  31  49  75 108 138 162 200 256 305
#     4   9  18  36  57  73  97 134 173 210 246 289
#     4  11  22  34  50  76 105 130 162 204 255 308
#     4   8  16  31  51  75 102 134 168 202 248 301
#
# _framework density 17.937677000000001
#
# number of rings (size 3 to 8) (size 9 to 14) (size 15 to 20)
#    0.000    2.750    0.000    3.000    0.000    5.000 
#    0.000   10.000    0.000    0.000    0.000    0.000 
#    0.000    0.000    0.000    0.000    0.000    0.000 
#
# Total GULP energy -396811.065783 kJ/mol
# GULP energy per Si atom -12400.345806 kJ/mol
# Density = 1.789685 g / cm^3
# Si number density = 17.937677 Si / 1000 Ang^3
#
#
#
# Elastic Constant Matrix: (Units=GPa)
#
#
# Indices 1 2 3 4 5 6 
#
# 1 56.6605 42.2600 41.8059 0.0000 0.0000 0.0000
# 2 42.2600 133.1517 71.9561 0.0000 0.0000 0.0000
# 3 41.8059 71.9561 183.8540 0.0000 0.0000 0.0000
# 4 0.0000 0.0000 0.0000 11.6009 0.0000 0.0000
# 5 0.0000 0.0000 0.0000 0.0000 20.4729 0.0000
# 6 0.0000 0.0000 0.0000 0.0000 0.0000 25.2421
#
#
#
# Elastic Compliance Matrix: (Units=1/GPa)
#
#
# Indices 1 2 3 4 5 6 
#
# 1 0.024530 -0.006051 -0.003210 0.000000 0.000000 0.000000
# 2 -0.006051 0.011017 -0.002936 0.000000 0.000000 0.000000
# 3 -0.003210 -0.002936 0.007318 0.000000 0.000000 0.000000
# 4 0.000000 0.000000 0.000000 0.086200 0.000000 0.000000
# 5 0.000000 0.000000 0.000000 0.000000 0.048845 0.000000
# 6 0.000000 0.000000 0.000000 0.000000 0.000000 0.039616
#
#
# Mechanical properties :
#
#
# Convention : Reuss Voigt Hill
#
# Bulk Modulus (GPa) = 54.13493 76.19002 65.16247
# Shear Modulus (GPa) = 20.15497 25.97281 23.06389
#
# Velocity S-wave (km/s) = 3.35567 3.80932 3.58967
# Velocity P-wave (km/s) = 6.72748 7.86860 7.32031
#
# Compressibility (1/GPa) = 0.01847236
#
# Stress axis : x y z
#
# Youngs Moduli (GPa) = 40.76602 90.76603 136.64907
#
# Poissons Ratio (x) = 0.54922 0.43860
# Poissons Ratio (y) = 0.24667 0.40120
# Poissons Ratio (z) = 0.13084 0.26649
#
# Static dielectric constant tensor:
#      x y z
#    x 3.090660 0.000000 0.000000 
#    y 0.000000 3.377280 0.000000 
#    z 0.000000 0.000000 3.533920 
# 
# 
# High freq. dielectric constant tensor:
#      x y z
#    x 1.675720 0.000000 0.000000 
#    y 0.000000 1.695430 0.000000 
#    z 0.000000 0.000000 1.700330 
# 
# From -- ./inp_files/11210.got.cif
#   From: 2010.03.12/outbox.cif.g09.slc.cpg/sg36_6_cif.got.tgz:11210.got - 2010.04.14 02:13:53.
