data_PCOD8174941
_publ_section_title
;
Structure prediction by ZEFSAII (Michael W. Deem and Ramdas Pophale) SiO2 
 PCOD8174941
Probable space group: C M C 21
;
_chemical_formula_sum "Si O2"
_cell_formula_units_Z 64
_cell_length_a 8.763942
_cell_length_b 30.951710
_cell_length_c 12.061316
_cell_angle_alpha 90.000000
_cell_angle_beta 90.000000
_cell_angle_gamma 90.000000
_cell_volume 3271.740411
_symmetry_space_group_name_H-M "C M C 21"
_symmetry_group_IT_number 36
_symmetry_cell_setting 'orthorhombic'
loop_
_space_group_symop_operation_xyz
x,y,z
-x,-y,1/2+z
x,-y,1/2+z
-x,y,z
1/2+x,1/2+y,z
1/2-x,1/2-y,1/2+z
1/2+x,1/2-y,1/2+z
1/2-x,1/2+y,z
loop_
_atom_site_type_symbol
_atom_site_label
_atom_site_fract_x
_atom_site_fract_y
_atom_site_fract_z
Si Si1 0.818660 0.876219 0.307650
Si Si2 0.819429 0.551807 0.961205
Si Si3 0.818762 0.198208 0.971012
Si Si4 0.325753 0.085064 0.202243
Si Si5 0.817660 0.374683 0.063556
Si Si6 0.175248 0.456702 0.927457
Si Si7 0.319528 0.206839 0.421703
Si Si8 0.822312 0.827857 0.710667
O O1 0.764331 0.919092 0.370610
O O2 0.759692 0.833876 0.374504
O O3 0.746608 0.874731 0.186717
O O4 0.000000 0.877005 0.298212
O O5 0.751771 0.503181 0.954932
O O6 0.000000 0.553307 0.937834
O O7 0.776635 0.567265 0.083705
O O8 0.754588 0.246698 0.959057
O O9 0.000000 0.198048 0.969674
O O10 0.757121 0.181132 0.088255
O O11 0.500000 0.102215 0.201405
O O12 0.305550 0.048616 0.295384
O O13 0.212715 0.122771 0.239103
O O14 0.000000 0.374579 0.066681
O O15 0.753341 0.416836 0.997704
O O16 0.756992 0.331616 0.000451
O O17 0.000000 0.458466 0.962726
O O18 0.500000 0.206371 0.424426
O O19 0.264982 0.202383 0.296106
O O20 0.000000 0.817983 0.719993
#
# Coordination Sequence:
#
# PCOD8174941 Si02
#       8
#     8   8   8   8   8   8   8   8
#     4  11  23  40  57  80 120 157 185 228 289 346
#     4  10  21  36  61  88 111 146 195 240 279 333
#     4   9  21  39  58  81 115 154 185 229 288 337
#     4  10  19  36  60  85 112 148 192 236 282 335
#     4  10  21  38  61  84 112 149 191 239 284 332
#     4   9  19  36  59  87 114 144 187 242 288 322
#     4  10  21  40  62  84 112 150 194 238 283 331
#     4  11  21  37  60  85 116 150 187 234 287 340
#
# _framework density 19.561453
#
# number of rings (size 3 to 8) (size 9 to 14) (size 15 to 20)
#    0.000    2.000    2.500    0.750    3.500    0.500 
#    0.000    3.125    0.000    0.000    0.000    0.000 
#    0.000    0.000    0.000    0.000    0.000    0.000 
#
# Total GULP energy -396767.162517 kJ/mol
# GULP energy per Si atom -12398.973829 kJ/mol
# Density = 1.951693 g / cm^3
# Si number density = 19.561453 Si / 1000 Ang^3
#
#
#
# Elastic Constant Matrix: (Units=GPa)
#
#
# Indices 1 2 3 4 5 6 
#
# 1 9.2283 22.1293 15.8842 0.0000 0.0000 0.0000
# 2 22.1293 151.1230 51.6002 0.0000 0.0000 0.0000
# 3 15.8842 51.6002 133.9234 0.0000 0.0000 0.0000
# 4 0.0000 0.0000 0.0000 31.1540 0.0000 0.0000
# 5 0.0000 0.0000 0.0000 0.0000 27.4510 0.0000
# 6 0.0000 0.0000 0.0000 0.0000 0.0000 13.3377
#
#
#
# Elastic Compliance Matrix: (Units=1/GPa)
#
#
# Indices 1 2 3 4 5 6 
#
# 1 0.185478 -0.022625 -0.013282 0.000000 0.000000 0.000000
# 2 -0.022625 0.010379 -0.001316 0.000000 0.000000 0.000000
# 3 -0.013282 -0.001316 0.009549 0.000000 0.000000 0.000000
# 4 0.000000 0.000000 0.000000 0.032099 0.000000 0.000000
# 5 0.000000 0.000000 0.000000 0.000000 0.036428 0.000000
# 6 0.000000 0.000000 0.000000 0.000000 0.000000 0.074975
#
#
# Mechanical properties :
#
#
# Convention : Reuss Voigt Hill
#
# Bulk Modulus (GPa) = 7.63579 52.61133 30.12356
# Shear Modulus (GPa) = 10.70645 28.03263 19.36954
#
# Velocity S-wave (km/s) = 2.34203 3.78968 3.15014
# Velocity P-wave (km/s) = 3.35044 6.78990 5.35388
#
# Compressibility (1/GPa) = 0.13096223
#
# Stress axis : x y z
#
# Youngs Moduli (GPa) = 5.39146 96.34459 104.72133
#
# Poissons Ratio (x) = 2.17981 1.39086
# Poissons Ratio (y) = 0.12198 0.13778
# Poissons Ratio (z) = 0.07161 0.12676
#
# Static dielectric constant tensor:
#      x y z
#    x 3.206800 0.000000 0.000000 
#    y 0.000000 3.935340 0.000000 
#    z 0.000000 0.000000 3.685000 
# 
# 
# High freq. dielectric constant tensor:
#      x y z
#    x 1.725530 0.000000 0.000000 
#    y 0.000000 1.773490 0.000000 
#    z 0.000000 0.000000 1.776310 
# 
# From -- ./inp_files/7098.got.cif
#   From: 2010.03.12/outbox.cif.g09.slc.cpg/sg36_4_cif.got.tgz:7098.got - 2010.04.14 02:13:53.
