data_PCOD8174110
_publ_section_title
;
Structure prediction by ZEFSAII (Michael W. Deem and Ramdas Pophale) SiO2 
 PCOD8174110
Probable space group: C M M 2
;
_chemical_formula_sum "Si O2"
_cell_formula_units_Z 56
_cell_length_a 8.678071
_cell_length_b 21.580230
_cell_length_c 14.526043
_cell_angle_alpha 90.000000
_cell_angle_beta 90.000000
_cell_angle_gamma 90.000000
_cell_volume 2720.361335
_symmetry_space_group_name_H-M "C M M 2"
_symmetry_group_IT_number 35
_symmetry_cell_setting 'orthorhombic'
loop_
_space_group_symop_operation_xyz
x,y,z
-x,-y,z
-x,y,z
x,-y,z
1/2+x,1/2+y,z
1/2-x,1/2-y,z
1/2-x,1/2+y,z
1/2+x,1/2-y,z
loop_
_atom_site_type_symbol
_atom_site_label
_atom_site_fract_x
_atom_site_fract_y
_atom_site_fract_z
Si Si1 0.677111 0.500000 0.144331
Si Si2 0.325734 0.103846 0.030150
Si Si3 0.181653 0.126374 0.362143
Si Si4 0.182787 0.929461 0.644187
Si Si5 0.182028 0.314951 0.531409
Si Si6 0.681388 0.000000 0.341581
Si Si7 0.675494 0.815158 0.194289
Si Si8 0.176133 0.071713 0.853042
O O1 0.500000 0.500000 0.177884
O O2 0.708111 0.558616 0.080467
O O3 0.787192 0.500000 0.232561
O O4 0.500000 0.077841 0.033985
O O5 0.314417 0.168308 0.086071
O O6 0.275833 0.113077 0.924013
O O7 0.260908 0.178073 0.426272
O O8 0.241653 0.058742 0.391723
O O9 0.230985 0.135711 0.256120
O O10 0.000000 0.130337 0.374046
O O11 0.262165 0.876061 0.585107
O O12 0.234162 0.917173 0.749475
O O13 0.000000 0.923648 0.633777
O O14 0.233381 0.000000 0.615975
O O15 0.250000 0.250000 0.571120
O O16 0.000000 0.310892 0.536851
O O17 0.500000 0.000000 0.359065
O O18 0.500000 0.814783 0.228852
O O19 0.750000 0.750000 0.212356
O O20 0.000000 0.092460 0.862038
O O21 0.196468 0.000000 0.880264
#
# Coordination Sequence:
#
# PCOD8174110 Si02
#       8
#     4   8   8   8   8   4   8   8
#     4  12  22  34  56  85 118 159 200 240 296 354
#     4  11  22  35  56  86 122 159 200 253 300 352
#     4  12  25  42  65  91 123 164 205 249 310 376
#     4   9  20  41  67  96 130 165 206 259 320 384
#     4  12  26  45  68  94 126 165 213 264 317 382
#     4  12  24  40  60  91 128 161 204 256 308 362
#     4  11  24  41  59  82 118 161 209 259 305 359
#     4   9  18  34  59  90 123 159 199 245 303 373
#
# _framework density 20.5855
#
# number of rings (size 3 to 8) (size 9 to 14) (size 15 to 20)
#    0.000    1.143    2.143    6.000    1.000    2.571 
#    0.000    2.143    0.000    1.714    0.000    0.000 
#    0.000    0.000    0.000    0.000    0.000    0.000 
#
# Total GULP energy -347214.487789 kJ/mol
# GULP energy per Si atom -12400.517421 kJ/mol
# Density = 2.053865 g / cm^3
# Si number density = 20.585500 Si / 1000 Ang^3
#
#
#
# Elastic Constant Matrix: (Units=GPa)
#
#
# Indices 1 2 3 4 5 6 
#
# 1 125.6139 55.2177 39.1091 0.0000 0.0000 0.0000
# 2 55.2177 117.4534 39.2931 0.0000 0.0000 0.0000
# 3 39.1091 39.2931 91.3757 0.0000 0.0000 0.0000
# 4 0.0000 0.0000 0.0000 26.3680 0.0000 0.0000
# 5 0.0000 0.0000 0.0000 0.0000 36.6174 0.0000
# 6 0.0000 0.0000 0.0000 0.0000 0.0000 30.2203
#
#
#
# Elastic Compliance Matrix: (Units=1/GPa)
#
#
# Indices 1 2 3 4 5 6 
#
# 1 0.010614 -0.004053 -0.002800 0.000000 0.000000 0.000000
# 2 -0.004053 0.011493 -0.003207 0.000000 0.000000 0.000000
# 3 -0.002800 -0.003207 0.013521 0.000000 0.000000 0.000000
# 4 0.000000 0.000000 0.000000 0.037925 0.000000 0.000000
# 5 0.000000 0.000000 0.000000 0.000000 0.027309 0.000000
# 6 0.000000 0.000000 0.000000 0.000000 0.000000 0.033090
#
#
# Mechanical properties :
#
#
# Convention : Reuss Voigt Hill
#
# Bulk Modulus (GPa) = 64.48564 66.85363 65.66964
# Shear Modulus (GPa) = 31.39855 32.02935 31.71395
#
# Velocity S-wave (km/s) = 3.90971 3.94879 3.92930
# Velocity P-wave (km/s) = 7.19548 7.30323 7.24956
#
# Compressibility (1/GPa) = 0.01550733
#
# Stress axis : x y z
#
# Youngs Moduli (GPa) = 94.21106 87.01302 73.95712
#
# Poissons Ratio (x) = 0.35270 0.20708
# Poissons Ratio (y) = 0.38188 0.23719
# Poissons Ratio (z) = 0.26379 0.27906
#
# Static dielectric constant tensor:
#      x y z
#    x 3.662610 0.000000 0.000000 
#    y 0.000000 3.698770 0.000000 
#    z 0.000000 0.000000 3.788450 
# 
# 
# High freq. dielectric constant tensor:
#      x y z
#    x 1.809900 0.000000 0.000000 
#    y 0.000000 1.793230 0.000000 
#    z 0.000000 0.000000 1.805250 
# 
# From -- ./inp_files/15713.got.cif
#   From: 2010.03.12/outbox.cif.g09.slc.cpg/sg35_8_cif.got.tgz:15713.got - 2010.04.14 02:02:04.
