data_PCOD8174623
_publ_section_title
;
Structure prediction by ZEFSAII (Michael W. Deem and Ramdas Pophale) SiO2 
 PCOD8174623
Probable space group: C M C 21
;
_chemical_formula_sum "Si O2"
_cell_formula_units_Z 64
_cell_length_a 9.142372
_cell_length_b 15.566534
_cell_length_c 23.678981
_cell_angle_alpha 90.000000
_cell_angle_beta 90.000000
_cell_angle_gamma 90.000000
_cell_volume 3369.875237
_symmetry_space_group_name_H-M "C M C 21"
_symmetry_group_IT_number 36
_symmetry_cell_setting 'orthorhombic'
loop_
_space_group_symop_operation_xyz
x,y,z
-x,-y,1/2+z
x,-y,1/2+z
-x,y,z
1/2+x,1/2+y,z
1/2-x,1/2-y,1/2+z
1/2+x,1/2-y,1/2+z
1/2-x,1/2+y,z
loop_
_atom_site_type_symbol
_atom_site_label
_atom_site_fract_x
_atom_site_fract_y
_atom_site_fract_z
Si Si1 0.325632 0.869497 0.232140
Si Si2 0.834616 0.543057 0.034653
Si Si3 0.673624 0.875671 0.359443
Si Si4 0.828913 0.207076 0.162548
Si Si5 0.831854 0.453815 0.921861
Si Si6 0.329685 0.286441 0.533298
Si Si7 0.169617 0.468578 0.662615
Si Si8 0.826549 0.786135 0.931690
O O1 0.500000 0.870113 0.229944
O O2 0.264921 0.871226 0.295845
O O3 0.267933 0.782956 0.202221
O O4 0.265481 0.953400 0.199554
O O5 0.721000 0.617277 0.019331
O O6 0.804771 0.506316 0.097080
O O7 0.000000 0.581013 0.030348
O O8 0.814992 0.467515 0.989289
O O9 0.500000 0.874156 0.359272
O O10 0.730663 0.793528 0.394187
O O11 0.728828 0.962943 0.388791
O O12 0.794496 0.234632 0.098353
O O13 0.750205 0.118963 0.179440
O O14 0.000000 0.191540 0.171290
O O15 0.733960 0.373114 0.903288
O O16 0.000000 0.435628 0.905641
O O17 0.500000 0.277003 0.519402
O O18 0.240111 0.220727 0.494446
O O19 0.000000 0.454208 0.675857
O O20 0.000000 0.790123 0.935156
#
# Coordination Sequence:
#
# PCOD8174623 Si02
#       8
#     8   8   8   8   8   8   8   8
#     4   9  18  34  57  79 101 142 186 215 255 323
#     4   9  17  32  54  78 111 143 172 214 269 322
#     4   9  19  37  56  75 106 143 181 220 264 320
#     4   9  19  34  54  80 110 140 175 218 266 317
#     4  10  20  35  55  79 107 141 178 219 268 321
#     4  10  19  32  54  81 112 143 177 221 269 319
#     4   9  18  32  54  80 106 137 175 216 260 315
#     4  11  22  36  54  80 109 143 182 223 271 321
#
# _framework density 18.991802
#
# number of rings (size 3 to 8) (size 9 to 14) (size 15 to 20)
#    0.000    2.500    1.250    0.750    1.750    2.000 
#    0.000    0.625    0.000    3.000    0.000    0.000 
#    0.000    0.000    0.000    0.000    0.000    0.000 
#
# Total GULP energy -396809.769239 kJ/mol
# GULP energy per Si atom -12400.305289 kJ/mol
# Density = 1.894858 g / cm^3
# Si number density = 18.991802 Si / 1000 Ang^3
#
#
#
# Elastic Constant Matrix: (Units=GPa)
#
#
# Indices 1 2 3 4 5 6 
#
# 1 50.2368 45.2479 31.7752 0.0000 0.0000 0.0000
# 2 45.2479 159.8552 77.0520 0.0000 0.0000 0.0000
# 3 31.7752 77.0520 117.1151 0.0000 0.0000 0.0000
# 4 0.0000 0.0000 0.0000 26.1991 0.0000 0.0000
# 5 0.0000 0.0000 0.0000 0.0000 16.1262 0.0000
# 6 0.0000 0.0000 0.0000 0.0000 0.0000 33.2408
#
#
#
# Elastic Compliance Matrix: (Units=1/GPa)
#
#
# Indices 1 2 3 4 5 6 
#
# 1 0.027634 -0.006162 -0.003443 0.000000 0.000000 0.000000
# 2 -0.006162 0.010535 -0.005259 0.000000 0.000000 0.000000
# 3 -0.003443 -0.005259 0.012933 0.000000 0.000000 0.000000
# 4 0.000000 0.000000 0.000000 0.038169 0.000000 0.000000
# 5 0.000000 0.000000 0.000000 0.000000 0.062011 0.000000
# 6 0.000000 0.000000 0.000000 0.000000 0.000000 0.030084
#
#
# Mechanical properties :
#
#
# Convention : Reuss Voigt Hill
#
# Bulk Modulus (GPa) = 46.78943 70.59524 58.69233
# Shear Modulus (GPa) = 22.91280 26.65537 24.78409
#
# Velocity S-wave (km/s) = 3.47718 3.75042 3.61638
# Velocity P-wave (km/s) = 6.38836 7.48374 6.95764
#
# Compressibility (1/GPa) = 0.02137235
#
# Stress axis : x y z
#
# Youngs Moduli (GPa) = 36.18743 94.92269 77.32200
#
# Poissons Ratio (x) = 0.58493 0.26624
# Poissons Ratio (y) = 0.22299 0.40665
# Poissons Ratio (z) = 0.12460 0.49921
#
# Static dielectric constant tensor:
#      x y z
#    x 3.198150 0.000000 0.000000 
#    y 0.000000 3.481100 0.000000 
#    z 0.000000 0.000000 3.624030 
# 
# 
# High freq. dielectric constant tensor:
#      x y z
#    x 1.706180 0.000000 0.000000 
#    y 0.000000 1.740770 0.000000 
#    z 0.000000 0.000000 1.738070 
# 
# From -- ./inp_files/16617.got.cif
#   From: 2010.03.12/outbox.cif.g09.slc.cpg/sg36_9_cif.got.tgz:16617.got - 2010.04.14 02:13:53.
