data_PCOD8174676
_publ_section_title
;
Structure prediction by ZEFSAII (Michael W. Deem and Ramdas Pophale) SiO2 
 PCOD8174676
Probable space group: C M C 21
;
_chemical_formula_sum "Si O2"
_cell_formula_units_Z 64
_cell_length_a 8.776577
_cell_length_b 14.171243
_cell_length_c 28.150113
_cell_angle_alpha 90.000000
_cell_angle_beta 90.000000
_cell_angle_gamma 90.000000
_cell_volume 3501.170456
_symmetry_space_group_name_H-M "C M C 21"
_symmetry_group_IT_number 36
_symmetry_cell_setting 'orthorhombic'
loop_
_space_group_symop_operation_xyz
x,y,z
-x,-y,1/2+z
x,-y,1/2+z
-x,y,z
1/2+x,1/2+y,z
1/2-x,1/2-y,1/2+z
1/2+x,1/2-y,1/2+z
1/2-x,1/2+y,z
loop_
_atom_site_type_symbol
_atom_site_label
_atom_site_fract_x
_atom_site_fract_y
_atom_site_fract_z
Si Si1 0.821548 0.006127 0.870540
Si Si2 0.177909 0.647022 0.550415
Si Si3 0.179302 0.852532 0.798011
Si Si4 0.173622 0.498714 0.970236
Si Si5 0.323231 0.849433 0.549114
Si Si6 0.820959 0.006460 0.725282
Si Si7 0.179516 0.999063 0.616246
Si Si8 0.680643 0.142952 0.798479
O O1 0.785416 0.999864 0.925870
O O2 0.737973 0.094573 0.846734
O O3 0.000000 0.020771 0.863026
O O4 0.765449 0.910573 0.844399
O O5 0.212994 0.593454 0.501228
O O6 0.227394 0.754437 0.545149
O O7 0.270883 0.597595 0.592701
O O8 0.000000 0.640046 0.562874
O O9 0.251364 0.748502 0.797981
O O10 0.000000 0.841251 0.799579
O O11 0.228598 0.908687 0.750488
O O12 0.000000 0.495289 0.952281
O O13 0.202966 0.592527 0.000867
O O14 0.500000 0.825571 0.556862
O O15 0.265686 0.910533 0.593416
O O16 0.737284 0.092743 0.750771
O O17 0.000000 0.023531 0.730933
O O18 0.770371 0.002497 0.670894
O O19 0.000000 0.984452 0.610043
O O20 0.500000 0.143039 0.798717
#
# Coordination Sequence:
#
# PCOD8174676 Si02
#       8
#     8   8   8   8   8   8   8   8
#     4  10  20  35  54  75 103 138 174 215 262 315
#     4  10  21  37  56  79 109 142 179 224 269 320
#     4   8  17  34  52  72 101 135 169 206 254 308
#     4   9  20  37  54  76 106 137 173 219 266 316
#     4  10  21  37  56  79 109 142 179 224 269 320
#     4   9  19  36  54  76 106 137 172 215 262 314
#     4  10  20  35  56  80 109 144 179 221 272 323
#     4  10  19  33  54  77 103 137 175 216 260 308
#
# _framework density 18.279601
#
# number of rings (size 3 to 8) (size 9 to 14) (size 15 to 20)
#    0.000    2.500    0.000    3.375    0.000    6.000 
#    0.000   11.250    0.000    0.000    0.000    0.000 
#    0.000    0.000    0.000    0.000    0.000    0.000 
#
# Total GULP energy -396833.386324 kJ/mol
# GULP energy per Si atom -12401.043323 kJ/mol
# Density = 1.823800 g / cm^3
# Si number density = 18.279601 Si / 1000 Ang^3
#
#
#
# Elastic Constant Matrix: (Units=GPa)
#
#
# Indices 1 2 3 4 5 6 
#
# 1 48.3777 24.5601 37.9252 0.0000 0.0000 0.0000
# 2 24.5601 144.8886 56.4201 0.0000 0.0000 0.0000
# 3 37.9252 56.4201 136.5266 0.0000 0.0000 0.0000
# 4 0.0000 0.0000 0.0000 11.1670 0.0000 0.0000
# 5 0.0000 0.0000 0.0000 0.0000 32.0229 0.0000
# 6 0.0000 0.0000 0.0000 0.0000 0.0000 29.3906
#
#
#
# Elastic Compliance Matrix: (Units=1/GPa)
#
#
# Indices 1 2 3 4 5 6 
#
# 1 0.026887 -0.001966 -0.006657 0.000000 0.000000 0.000000
# 2 -0.001966 0.008369 -0.002913 0.000000 0.000000 0.000000
# 3 -0.006657 -0.002913 0.010377 0.000000 0.000000 0.000000
# 4 0.000000 0.000000 0.000000 0.089550 0.000000 0.000000
# 5 0.000000 0.000000 0.000000 0.000000 0.031228 0.000000
# 6 0.000000 0.000000 0.000000 0.000000 0.000000 0.034024
#
#
# Mechanical properties :
#
#
# Convention : Reuss Voigt Hill
#
# Bulk Modulus (GPa) = 44.31829 63.06708 53.69268
# Shear Modulus (GPa) = 21.64259 28.57527 25.10893
#
# Velocity S-wave (km/s) = 3.44463 3.95806 3.71024
# Velocity P-wave (km/s) = 6.33387 7.44746 6.91312
#
# Compressibility (1/GPa) = 0.02256405
#
# Stress axis : x y z
#
# Youngs Moduli (GPa) = 37.19295 119.48560 96.36403
#
# Poissons Ratio (x) = 0.23485 0.64145
# Poissons Ratio (y) = 0.07310 0.28067
# Poissons Ratio (z) = 0.24758 0.34802
#
# Static dielectric constant tensor:
#      x y z
#    x 3.290220 0.000000 0.000000 
#    y 0.000000 3.562930 0.000000 
#    z 0.000000 0.000000 3.350380 
# 
# 
# High freq. dielectric constant tensor:
#      x y z
#    x 1.706900 0.000000 0.000000 
#    y 0.000000 1.713910 0.000000 
#    z 0.000000 0.000000 1.709210 
# 
# From -- ./inp_files/17338.got.cif
#   From: 2010.03.12/outbox.cif.g09.slc.cpg/sg36_9_cif.got.tgz:17338.got - 2010.04.14 02:13:53.
