data_PCOD8174076
_publ_section_title
;
Structure prediction by ZEFSAII (Michael W. Deem and Ramdas Pophale) SiO2 
 PCOD8174076
Probable space group: C M M 2
;
_chemical_formula_sum "Si O2"
_cell_formula_units_Z 48
_cell_length_a 10.135602
_cell_length_b 24.737748
_cell_length_c 9.867175
_cell_angle_alpha 90.000000
_cell_angle_beta 90.000000
_cell_angle_gamma 90.000000
_cell_volume 2474.016207
_symmetry_space_group_name_H-M "C M M 2"
_symmetry_group_IT_number 35
_symmetry_cell_setting 'orthorhombic'
loop_
_space_group_symop_operation_xyz
x,y,z
-x,-y,z
-x,y,z
x,-y,z
1/2+x,1/2+y,z
1/2-x,1/2-y,z
1/2-x,1/2+y,z
1/2+x,1/2-y,z
loop_
_atom_site_type_symbol
_atom_site_label
_atom_site_fract_x
_atom_site_fract_y
_atom_site_fract_z
Si Si1 0.774376 0.371791 0.894200
Si Si2 0.848593 0.439352 0.649387
Si Si3 0.765365 0.625897 0.407646
Si Si4 0.000000 0.702119 0.804206
Si Si5 0.000000 0.170286 0.785837
Si Si6 0.500000 0.802796 0.486849
Si Si7 0.500000 0.324279 0.469537
Si Si8 0.343916 0.062413 0.147916
O O1 0.833863 0.418999 0.801767
O O2 0.869173 0.319575 0.879595
O O3 0.626889 0.356040 0.854904
O O4 0.773483 0.396695 0.044161
O O5 0.796165 0.500000 0.644655
O O6 0.758735 0.404098 0.551301
O O7 0.000000 0.435575 0.600645
O O8 0.624198 0.653274 0.386471
O O9 0.798117 0.581388 0.295512
O O10 0.872547 0.673399 0.412697
O O11 0.000000 0.766176 0.814321
O O12 0.000000 0.682415 0.647193
O O13 0.000000 0.157682 0.626274
O O14 0.500000 0.739733 0.462470
O O15 0.500000 0.067808 0.132400
O O16 0.299825 0.000000 0.127133
#
# Coordination Sequence:
#
# PCOD8174076 Si02
#       8
#     8   8   8   4   4   4   4   8
#     4  12  21  41  62  95 124 165 208 257 312 368
#     4  11  20  35  62  90 115 154 217 267 300 356
#     4  12  21  41  62  95 124 165 208 257 312 368
#     4  11  20  39  66  95 123 167 215 261 306 361
#     4  11  24  39  64  95 133 165 203 257 322 371
#     4  11  20  39  66  95 123 167 215 261 306 361
#     4  11  24  39  64  95 133 165 203 257 322 371
#     4  11  24  43  68  92 123 166 211 261 314 368
#
# _framework density 19.401651999999999
#
# number of rings (size 3 to 8) (size 9 to 14) (size 15 to 20)
#    0.000    0.667    6.667    2.000    0.000    6.000 
#    0.000   10.000    0.000    0.000    0.000    0.000 
#    0.000    0.000    0.000    0.000    0.000    0.000 
#
# Total GULP energy -297707.105713 kJ/mol
# GULP energy per Si atom -12404.462738 kJ/mol
# Density = 1.935749 g / cm^3
# Si number density = 19.401652 Si / 1000 Ang^3
#
#
#
# Elastic Constant Matrix: (Units=GPa)
#
#
# Indices 1 2 3 4 5 6 
#
# 1 132.4114 46.5324 17.4618 0.0000 0.0000 0.0000
# 2 46.5324 100.5174 24.7303 0.0000 0.0000 0.0000
# 3 17.4618 24.7303 64.0975 0.0000 0.0000 0.0000
# 4 0.0000 0.0000 0.0000 28.2631 0.0000 0.0000
# 5 0.0000 0.0000 0.0000 0.0000 19.5767 0.0000
# 6 0.0000 0.0000 0.0000 0.0000 0.0000 99.8784
#
#
#
# Elastic Compliance Matrix: (Units=1/GPa)
#
#
# Indices 1 2 3 4 5 6 
#
# 1 0.009071 -0.003968 -0.000940 0.000000 0.000000 0.000000
# 2 -0.003968 0.012728 -0.003830 0.000000 0.000000 0.000000
# 3 -0.000940 -0.003830 0.017335 0.000000 0.000000 0.000000
# 4 0.000000 0.000000 0.000000 0.035382 0.000000 0.000000
# 5 0.000000 0.000000 0.000000 0.000000 0.051081 0.000000
# 6 0.000000 0.000000 0.000000 0.000000 0.000000 0.010012
#
#
# Mechanical properties :
#
#
# Convention : Reuss Voigt Hill
#
# Bulk Modulus (GPa) = 46.17267 52.71948 49.44607
# Shear Modulus (GPa) = 31.19099 43.43042 37.31071
#
# Velocity S-wave (km/s) = 4.01390 4.73640 4.39004
# Velocity P-wave (km/s) = 6.73289 7.55930 7.15803
#
# Compressibility (1/GPa) = 0.02165783
#
# Stress axis : x y z
#
# Youngs Moduli (GPa) = 110.24689 78.56999 57.68691
#
# Poissons Ratio (x) = 0.31174 0.05424
# Poissons Ratio (y) = 0.43743 0.22092
# Poissons Ratio (z) = 0.10366 0.30090
#
# Static dielectric constant tensor:
#      x y z
#    x 3.497230 0.000000 0.000000 
#    y 0.000000 3.624470 0.000000 
#    z 0.000000 0.000000 3.420970 
# 
# 
# High freq. dielectric constant tensor:
#      x y z
#    x 1.750110 0.000000 0.000000 
#    y 0.000000 1.769680 0.000000 
#    z 0.000000 0.000000 1.743940 
# 
# From -- ./inp_files/5451.got.cif
#   From: 2010.03.12/outbox.cif.g09.slc.cpg/sg35_3_cif.got.tgz:5451.got - 2010.04.14 02:02:04.
