data_PCOD8174183
_publ_section_title
;
Structure prediction by ZEFSAII (Michael W. Deem and Ramdas Pophale) SiO2 
 PCOD8174183
Probable space group: C M C 21
;
_chemical_formula_sum "Si O2"
_cell_formula_units_Z 64
_cell_length_a 16.325839
_cell_length_b 11.543123
_cell_length_c 17.813622
_cell_angle_alpha 90.000000
_cell_angle_beta 90.000000
_cell_angle_gamma 90.000000
_cell_volume 3356.997866
_symmetry_space_group_name_H-M "C M C 21"
_symmetry_group_IT_number 36
_symmetry_cell_setting 'orthorhombic'
loop_
_space_group_symop_operation_xyz
x,y,z
-x,-y,1/2+z
x,-y,1/2+z
-x,y,z
1/2+x,1/2+y,z
1/2-x,1/2-y,1/2+z
1/2+x,1/2-y,1/2+z
1/2-x,1/2+y,z
loop_
_atom_site_type_symbol
_atom_site_label
_atom_site_fract_x
_atom_site_fract_y
_atom_site_fract_z
Si Si1 0.175085 0.944337 0.893490
Si Si2 0.908407 0.660909 0.542796
Si Si3 0.691924 0.383411 0.518841
Si Si4 0.631453 0.051180 0.389679
Si Si5 0.407199 0.167143 0.235351
Si Si6 0.795434 0.500059 0.142995
Si Si7 0.316197 0.192606 0.898652
Si Si8 0.804946 0.118416 0.773115
O O1 0.272449 0.924159 0.895381
O O2 0.135669 0.815730 0.896772
O O3 0.151372 0.011030 0.816679
O O4 0.149135 0.020217 0.965434
O O5 0.877110 0.792229 0.541199
O O6 0.913359 0.609160 0.459408
O O7 0.849862 0.585803 0.594472
O O8 0.000000 0.661016 0.576541
O O9 0.724090 0.443569 0.593855
O O10 0.767561 0.320595 0.477059
O O11 0.593232 0.102891 0.314892
O O12 0.618137 0.911428 0.390299
O O13 0.500000 0.172063 0.205507
O O14 0.352254 0.100842 0.175262
O O15 0.374825 0.298338 0.241268
O O16 0.753432 0.427500 0.208322
O O17 0.250610 0.190259 0.831207
#
# Coordination Sequence:
#
# PCOD8174183 Si02
#       8
#     8   8   8   8   8   8   8   8
#     4  10  17  34  60  85 108 143 199 239 269 327
#     4  12  23  37  57  88 117 146 184 241 293 329
#     4  10  20  35  60  83 113 149 195 230 277 338
#     4  10  18  34  55  82 114 142 180 238 283 336
#     4  12  23  37  57  88 117 146 184 241 293 329
#     4  12  21  38  57  86 114 156 194 226 275 346
#     4  10  16  34  59  85 111 137 199 237 271 321
#     4  10  20  35  60  83 113 149 195 230 277 338
#
# _framework density 19.064653
#
# number of rings (size 3 to 8) (size 9 to 14) (size 15 to 20)
#    0.000    1.500    7.500    2.250    0.000    0.000 
#    0.000    0.625    0.000    3.000    0.000    0.000 
#    0.000    0.000    0.000    0.000    0.000    0.000 
#
# Total GULP energy -396806.965108 kJ/mol
# GULP energy per Si atom -12400.217660 kJ/mol
# Density = 1.902126 g / cm^3
# Si number density = 19.064653 Si / 1000 Ang^3
#
#
#
# Elastic Constant Matrix: (Units=GPa)
#
#
# Indices 1 2 3 4 5 6 
#
# 1 61.7186 29.7385 7.7410 0.0000 0.0000 0.0000
# 2 29.7385 130.1907 8.0660 0.0000 0.0000 0.0000
# 3 7.7410 8.0660 61.3816 0.0000 0.0000 0.0000
# 4 0.0000 0.0000 0.0000 -15.8207 0.0000 0.0000
# 5 0.0000 0.0000 0.0000 0.0000 -0.9110 0.0000
# 6 0.0000 0.0000 0.0000 0.0000 0.0000 16.7859
#
#
#
# Elastic Compliance Matrix: (Units=1/GPa)
#
#
# Indices 1 2 3 4 5 6 
#
# 1 0.018398 -0.004092 -0.001782 0.000000 0.000000 0.000000
# 2 -0.004092 0.008654 -0.000621 0.000000 0.000000 0.000000
# 3 -0.001782 -0.000621 0.016598 0.000000 0.000000 0.000000
# 4 0.000000 0.000000 0.000000 -0.063208 0.000000 0.000000
# 5 0.000000 0.000000 0.000000 0.000000 -1.097712 0.000000
# 6 0.000000 0.000000 0.000000 0.000000 0.000000 0.059574
#
#
# Mechanical properties :
#
#
# Convention : Reuss Voigt Hill
#
# Bulk Modulus (GPa) = 32.61724 38.26465 35.44095
# Shear Modulus (GPa) = -4.83332 13.86053 4.51360
#
# Velocity S-wave (km/s) = -1.59397 2.69927 1.54035
# Velocity P-wave (km/s) = 3.70921 5.46162 4.66838
#
# Compressibility (1/GPa) = 0.03065863
#
# Stress axis : x y z
#
# Youngs Moduli (GPa) = 54.35411 115.55019 60.24841
#
# Poissons Ratio (x) = 0.47284 0.10739
# Poissons Ratio (y) = 0.22242 0.03742
# Poissons Ratio (z) = 0.09689 0.07178
#
# Static dielectric constant tensor:
#      x y z
#    x 3.100070 0.000000 0.000000 
#    y 0.000000 3.905490 0.000000 
#    z 0.000000 0.000000 3.628710 
# 
# 
# High freq. dielectric constant tensor:
#      x y z
#    x 1.695260 0.000000 0.000000 
#    y 0.000000 1.759030 0.000000 
#    z 0.000000 0.000000 1.744030 
# 
# From -- ./inp_files/14935.got.cif
#   From: 2010.03.12/outbox.cif.g09.slc.cpg/sg36_8_cif.got.tgz:14935.got - 2010.04.14 02:13:53.
