data_PCOD8174818
_publ_section_title
;
Structure prediction by ZEFSAII (Michael W. Deem and Ramdas Pophale) SiO2 
 PCOD8174818
Probable space group: C M C 21
;
_chemical_formula_sum "Si O2"
_cell_formula_units_Z 64
_cell_length_a 8.431446
_cell_length_b 20.677071
_cell_length_c 17.864918
_cell_angle_alpha 90.000000
_cell_angle_beta 90.000000
_cell_angle_gamma 90.000000
_cell_volume 3114.527064
_symmetry_space_group_name_H-M "C M C 21"
_symmetry_group_IT_number 36
_symmetry_cell_setting 'orthorhombic'
loop_
_space_group_symop_operation_xyz
x,y,z
-x,-y,1/2+z
x,-y,1/2+z
-x,y,z
1/2+x,1/2+y,z
1/2-x,1/2-y,1/2+z
1/2+x,1/2-y,1/2+z
1/2-x,1/2+y,z
loop_
_atom_site_type_symbol
_atom_site_label
_atom_site_fract_x
_atom_site_fract_y
_atom_site_fract_z
Si Si1 0.814794 0.119564 0.768140
Si Si2 0.688969 0.490136 0.686282
Si Si3 0.688795 0.374790 0.942862
Si Si4 0.185208 0.741158 0.688815
Si Si5 0.313838 0.503407 0.019007
Si Si6 0.686665 0.247206 0.027596
Si Si7 0.188804 0.133016 0.275494
Si Si8 0.183758 0.622891 0.931671
O O1 0.783336 0.177715 0.710711
O O2 0.720635 0.131349 0.844463
O O3 0.000000 0.114599 0.786436
O O4 0.752191 0.054108 0.729240
O O5 0.500000 0.488932 0.683955
O O6 0.759212 0.488458 0.602009
O O7 0.757331 0.427516 0.728816
O O8 0.500000 0.376805 0.939199
O O9 0.757839 0.370901 0.859111
O O10 0.759151 0.438939 0.981762
O O11 0.746417 0.312739 0.988755
O O12 0.216874 0.760915 0.603675
O O13 0.247349 0.800195 0.739465
O O14 0.000000 0.728066 0.701763
O O15 0.500000 0.494070 0.026151
O O16 0.281151 0.564290 0.966663
O O17 0.500000 0.249220 0.044633
O O18 0.732788 0.188566 0.973227
O O19 0.000000 0.130031 0.275024
O O20 0.000000 0.607909 0.942731
#
# Coordination Sequence:
#
# PCOD8174818 Si02
#       8
#     8   8   8   8   8   8   8   8
#     4  11  22  38  61  85 112 149 192 234 278 335
#     4   9  18  33  56  84 109 141 189 234 268 319
#     4   9  17  32  55  78 102 140 188 228 262 315
#     4  11  22  36  57  84 113 143 180 233 290 336
#     4  10  19  34  58  84 109 140 183 231 276 327
#     4  10  21  38  58  79 108 148 191 230 272 331
#     4   9  17  31  52  78 107 140 180 225 272 322
#     4  11  23  38  57  84 118 151 185 231 286 337
#
# _framework density 20.548867000000001
#
# number of rings (size 3 to 8) (size 9 to 14) (size 15 to 20)
#    0.000    2.000    0.000    4.125    0.000    8.000 
#    0.000    3.125    0.000   10.500    0.000    0.000 
#    0.000    0.000    0.000    0.000    0.000    0.000 
#
# Total GULP energy -396921.379931 kJ/mol
# GULP energy per Si atom -12403.793123 kJ/mol
# Density = 2.050210 g / cm^3
# Si number density = 20.548867 Si / 1000 Ang^3
#
#
#
# Elastic Constant Matrix: (Units=GPa)
#
#
# Indices 1 2 3 4 5 6 
#
# 1 16.8270 15.2026 10.8967 0.0000 0.0000 0.0000
# 2 15.2026 133.8585 30.9371 0.0000 0.0000 0.0000
# 3 10.8967 30.9371 127.0806 0.0000 0.0000 0.0000
# 4 0.0000 0.0000 0.0000 47.7635 0.0000 0.0000
# 5 0.0000 0.0000 0.0000 0.0000 25.7414 0.0000
# 6 0.0000 0.0000 0.0000 0.0000 0.0000 22.5812
#
#
#
# Elastic Compliance Matrix: (Units=1/GPa)
#
#
# Indices 1 2 3 4 5 6 
#
# 1 0.068279 -0.006783 -0.004203 0.000000 0.000000 0.000000
# 2 -0.006783 0.008590 -0.001510 0.000000 0.000000 0.000000
# 3 -0.004203 -0.001510 0.008597 0.000000 0.000000 0.000000
# 4 0.000000 0.000000 0.000000 0.020936 0.000000 0.000000
# 5 0.000000 0.000000 0.000000 0.000000 0.038848 0.000000
# 6 0.000000 0.000000 0.000000 0.000000 0.000000 0.044285
#
#
# Mechanical properties :
#
#
# Convention : Reuss Voigt Hill
#
# Bulk Modulus (GPa) = 16.53616 43.53766 30.03691
# Shear Modulus (GPa) = 21.30520 33.93252 27.61886
#
# Velocity S-wave (km/s) = 3.22344 4.06804 3.67012
# Velocity P-wave (km/s) = 4.68175 6.58017 5.71040
#
# Compressibility (1/GPa) = 0.06047355
#
# Stress axis : x y z
#
# Youngs Moduli (GPa) = 14.64584 116.41680 116.32055
#
# Poissons Ratio (x) = 0.78967 0.48894
# Poissons Ratio (y) = 0.09934 0.17559
# Poissons Ratio (z) = 0.06156 0.17573
#
# Static dielectric constant tensor:
#      x y z
#    x 3.207790 0.000000 0.000000 
#    y 0.000000 3.905960 0.000000 
#    z 0.000000 0.000000 3.911380 
# 
# 
# High freq. dielectric constant tensor:
#      x y z
#    x 1.758590 0.000000 0.000000 
#    y 0.000000 1.821620 0.000000 
#    z 0.000000 0.000000 1.821970 
# 
# From -- ./inp_files/13780.got.cif
#   From: 2010.03.12/outbox.cif.g09.slc.cpg/sg36_7_cif.got.tgz:13780.got - 2010.04.14 02:13:53.
