data_PCOD8174624
_publ_section_title
;
Structure prediction by ZEFSAII (Michael W. Deem and Ramdas Pophale) SiO2 
 PCOD8174624
Probable space group: C M C 21
;
_chemical_formula_sum "Si O2"
_cell_formula_units_Z 64
_cell_length_a 9.036544
_cell_length_b 19.898270
_cell_length_c 19.777466
_cell_angle_alpha 90.000000
_cell_angle_beta 90.000000
_cell_angle_gamma 90.000000
_cell_volume 3556.217655
_symmetry_space_group_name_H-M "C M C 21"
_symmetry_group_IT_number 36
_symmetry_cell_setting 'orthorhombic'
loop_
_space_group_symop_operation_xyz
x,y,z
-x,-y,1/2+z
x,-y,1/2+z
-x,y,z
1/2+x,1/2+y,z
1/2-x,1/2-y,1/2+z
1/2+x,1/2-y,1/2+z
1/2-x,1/2+y,z
loop_
_atom_site_type_symbol
_atom_site_label
_atom_site_fract_x
_atom_site_fract_y
_atom_site_fract_z
Si Si1 0.328687 0.301518 0.911600
Si Si2 0.326651 0.523883 0.894613
Si Si3 0.175045 0.810314 0.237185
Si Si4 0.671583 0.584349 0.508414
Si Si5 0.670686 0.018689 0.258755
Si Si6 0.673550 0.088091 0.646685
Si Si7 0.174799 0.655258 0.875789
Si Si8 0.330730 0.166336 0.278469
O O1 0.500000 0.308971 0.895472
O O2 0.284045 0.223022 0.917102
O O3 0.252468 0.337837 0.849134
O O4 0.289455 0.340928 0.980434
O O5 0.500000 0.537869 0.890241
O O6 0.271591 0.499662 0.821904
O O7 0.243497 0.592617 0.916162
O O8 0.287841 0.469021 0.950757
O O9 0.240832 0.844955 0.170501
O O10 0.252495 0.844008 0.301740
O O11 0.217360 0.730990 0.233897
O O12 0.000000 0.822472 0.240843
O O13 0.500000 0.579308 0.529350
O O14 0.773565 0.568890 0.572129
O O15 0.500000 0.006128 0.279007
O O16 0.716041 0.974370 0.194516
O O17 0.697299 0.096901 0.238209
O O18 0.500000 0.102726 0.646599
O O19 0.000000 0.646309 0.867119
O O20 0.500000 0.175421 0.298566
#
# Coordination Sequence:
#
# PCOD8174624 Si02
#       8
#     8   8   8   8   8   8   8   8
#     4   9  18  34  54  78 107 140 178 222 271 323
#     4  11  21  34  56  83 111 145 185 229 280 330
#     4  10  19  33  54  80 110 142 178 223 274 326
#     4  10  22  39  56  78 109 147 188 229 278 336
#     4  10  20  35  55  81 112 143 183 231 276 327
#     4  11  23  37  55  80 110 149 189 228 278 335
#     4  10  19  32  54  82 111 139 176 226 274 324
#     4   9  18  32  54  82 108 137 175 224 275 319
#
# _framework density 17.996649000000001
#
# number of rings (size 3 to 8) (size 9 to 14) (size 15 to 20)
#    0.000    2.000    2.500    1.500    0.000    3.000 
#    0.000    1.250    0.000    6.000    0.000    0.000 
#    0.000    0.000    0.000    0.000    0.000    0.000 
#
# Total GULP energy -396792.789985 kJ/mol
# GULP energy per Si atom -12399.774687 kJ/mol
# Density = 1.795569 g / cm^3
# Si number density = 17.996649 Si / 1000 Ang^3
#
#
#
# Elastic Constant Matrix: (Units=GPa)
#
#
# Indices 1 2 3 4 5 6 
#
# 1 77.8351 48.5590 48.5607 0.0000 0.0000 0.0000
# 2 48.5590 129.1787 54.6905 0.0000 0.0000 0.0000
# 3 48.5607 54.6905 96.6700 0.0000 0.0000 0.0000
# 4 0.0000 0.0000 0.0000 22.4817 0.0000 0.0000
# 5 0.0000 0.0000 0.0000 0.0000 30.1420 0.0000
# 6 0.0000 0.0000 0.0000 0.0000 0.0000 27.1229
#
#
#
# Elastic Compliance Matrix: (Units=1/GPa)
#
#
# Indices 1 2 3 4 5 6 
#
# 1 0.020443 -0.004388 -0.007787 0.000000 0.000000 0.000000
# 2 -0.004388 0.011121 -0.004088 0.000000 0.000000 0.000000
# 3 -0.007787 -0.004088 0.016569 0.000000 0.000000 0.000000
# 4 0.000000 0.000000 0.000000 0.044481 0.000000 0.000000
# 5 0.000000 0.000000 0.000000 0.000000 0.033176 0.000000
# 6 0.000000 0.000000 0.000000 0.000000 0.000000 0.036869
#
#
# Mechanical properties :
#
#
# Convention : Reuss Voigt Hill
#
# Bulk Modulus (GPa) = 64.06849 67.47827 65.77338
# Shear Modulus (GPa) = 24.95169 26.07423 25.51296
#
# Velocity S-wave (km/s) = 3.72756 3.81049 3.76925
# Velocity P-wave (km/s) = 7.36232 7.54560 7.45453
#
# Compressibility (1/GPa) = 0.01560830
#
# Stress axis : x y z
#
# Youngs Moduli (GPa) = 48.91544 89.91805 60.35511
#
# Poissons Ratio (x) = 0.39456 0.46998
# Poissons Ratio (y) = 0.21464 0.24670
# Poissons Ratio (z) = 0.38090 0.36754
#
# Static dielectric constant tensor:
#      x y z
#    x 3.364750 0.000000 0.000000 
#    y 0.000000 3.833980 0.000000 
#    z 0.000000 0.000000 3.044370 
# 
# 
# High freq. dielectric constant tensor:
#      x y z
#    x 1.704020 0.000000 0.000000 
#    y 0.000000 1.716340 0.000000 
#    z 0.000000 0.000000 1.661220 
# 
# From -- ./inp_files/13850.got.cif
#   From: 2010.03.12/outbox.cif.g09.slc.cpg/sg36_7_cif.got.tgz:13850.got - 2010.04.14 02:13:53.
