data_PCOD8174168
_publ_section_title
;
Structure prediction by ZEFSAII (Michael W. Deem and Ramdas Pophale) SiO2 
 PCOD8174168
Probable space group: C M M 2
;
_chemical_formula_sum "Si O2"
_cell_formula_units_Z 20
_cell_length_a 9.000000
_cell_length_b 15.000000
_cell_length_c 15.000000
_cell_angle_alpha 90.000000
_cell_angle_beta 90.000000
_cell_angle_gamma 90.000000
_cell_volume 2025.000000
_symmetry_space_group_name_H-M "C M M 2"
_symmetry_group_IT_number 35
_symmetry_cell_setting 'orthorhombic'
loop_
_space_group_symop_operation_xyz
x,y,z
-x,-y,z
-x,y,z
x,-y,z
1/2+x,1/2+y,z
1/2-x,1/2-y,z
1/2-x,1/2+y,z
1/2+x,1/2-y,z
loop_
_atom_site_type_symbol
_atom_site_label
_atom_site_fract_x
_atom_site_fract_y
_atom_site_fract_z
Si Si1 0.672876 0.152774 0.462310
Si Si2 0.163557 0.667932 0.857090
Si Si3 0.171991 0.000000 0.146244
Si Si4 0.666516 0.165070 0.068105
Si Si5 0.177190 0.500000 0.755197
Si Si6 0.664830 0.000000 0.321287
Si Si7 0.675465 0.500000 0.570865
O O1 0.500000 0.167321 0.488369
O O2 0.750000 0.250000 0.450581
O O3 0.753927 0.092439 0.535922
O O4 0.685243 0.092371 0.374192
O O5 0.250000 0.750000 0.816297
O O6 0.231770 0.579994 0.816608
O O7 0.000000 0.679261 0.819826
O O8 0.167019 0.665251 0.962628
O O9 0.241254 0.083218 0.099527
O O10 0.204764 0.000000 0.250396
O O11 0.000000 0.000000 0.128442
O O12 0.500000 0.162093 0.106537
O O13 0.750000 0.250000 0.108085
O O14 0.286308 0.500000 0.673225
O O15 0.000000 0.500000 0.732022
O O16 0.500000 0.000000 0.278085
O O17 0.500000 0.500000 0.551715
#
# Coordination Sequence:
#
# PCOD8174168 Si02
#       7
#     8   8   4   8   4   4   4
#     4  10  21  40  65  88 112 145 182 224 277 333
#     4   9  19  35  56  79 106 144 187 232 280 329
#     4  12  24  36  55  84 116 151 188 229 278 329
#     4  10  20  37  58  81 111 148 191 236 282 331
#     4  10  20  36  55  78 112 149 184 227 280 331
#     4   9  21  40  59  83 115 147 183 228 275 328
#     4  11  23  38  57  85 117 149 187 228 273 328
#
# _framework density 9.8765429999999999
#
# number of rings (size 3 to 8) (size 9 to 14) (size 15 to 20)
#    0.000    2.000    0.000    4.200    0.000    7.200 
#    0.000    5.000    0.000    0.000    0.000    0.000 
#    0.000    0.000    0.000    0.000    0.000    0.000 
#
# Total GULP energy -247829.120596 kJ/mol
# GULP energy per Si atom -12391.456030 kJ/mol
# Density = 0.985406 g / cm^3
# Si number density = 9.876543 Si / 1000 Ang^3
#
#
#
# Elastic Constant Matrix: (Units=GPa)
#
#
# Indices 1 2 3 4 5 6 
#
# 1 123.6543 64.9972 -73.4180 0.0000 0.0000 0.0000
# 2 64.9972 177.0699 -58.9647 0.0000 0.0000 0.0000
# 3 -73.4180 -58.9647 -378.8583 0.0000 0.0000 0.0000
# 4 0.0000 0.0000 0.0000 17.9375 0.0000 0.0000
# 5 0.0000 0.0000 0.0000 0.0000 25.3811 0.0000
# 6 0.0000 0.0000 0.0000 0.0000 0.0000 40.9907
#
#
#
# Elastic Compliance Matrix: (Units=1/GPa)
#
#
# Indices 1 2 3 4 5 6 
#
# 1 0.009388 -0.003852 -0.001220 0.000000 0.000000 0.000000
# 2 -0.003852 0.006950 -0.000335 0.000000 0.000000 0.000000
# 3 -0.001220 -0.000335 -0.002351 0.000000 0.000000 0.000000
# 4 0.000000 0.000000 0.000000 0.055749 0.000000 0.000000
# 5 0.000000 0.000000 0.000000 0.000000 0.039399 0.000000
# 6 0.000000 0.000000 0.000000 0.000000 0.000000 0.024396
#
#
# Mechanical properties :
#
#
# Convention : Reuss Voigt Hill
#
# Bulk Modulus (GPa) = 315.19337 -23.65613 145.76862
# Shear Modulus (GPa) = 34.38732 16.14527 25.26630
#
# Velocity S-wave (km/s) = 4.17689 2.86204 3.58034
# Velocity P-wave (km/s) = 13.53421 1.03933 9.54187
#
# Compressibility (1/GPa) = 0.00317266
#
# Stress axis : x y z
#
# Youngs Moduli (GPa) = 106.52236 143.88754 -425.35380
#
# Poissons Ratio (x) = 0.55427 -0.51880
# Poissons Ratio (y) = 0.41034 -0.14257
# Poissons Ratio (z) = 0.12992 0.04823
#
# Static dielectric constant tensor:
#      x y z
#    x 3.805190 0.000000 0.000000 
#    y 0.000000 3.795540 0.000000 
#    z 0.000000 0.000000 3.699040 
# 
# 
# High freq. dielectric constant tensor:
#      x y z
#    x 1.772950 0.000000 0.000000 
#    y 0.000000 1.782810 0.000000 
#    z 0.000000 0.000000 1.745280 
# 
# From -- ./inp_files/14828.got.cif
#   From: 2010.03.12/outbox.ucp.g09.slc.cvg/sg35_8_cif.got.tgz:14828.got - 2010.05.04 21:11:10.
