data_PCOD8174537
_publ_section_title
;
Structure prediction by ZEFSAII (Michael W. Deem and Ramdas Pophale) SiO2 
 PCOD8174537
Probable space group: C M C 21
;
_chemical_formula_sum "Si O2"
_cell_formula_units_Z 64
_cell_length_a 8.960919
_cell_length_b 22.592974
_cell_length_c 16.669434
_cell_angle_alpha 90.000000
_cell_angle_beta 90.000000
_cell_angle_gamma 90.000000
_cell_volume 3374.790424
_symmetry_space_group_name_H-M "C M C 21"
_symmetry_group_IT_number 36
_symmetry_cell_setting 'orthorhombic'
loop_
_space_group_symop_operation_xyz
x,y,z
-x,-y,1/2+z
x,-y,1/2+z
-x,y,z
1/2+x,1/2+y,z
1/2-x,1/2-y,1/2+z
1/2+x,1/2-y,1/2+z
1/2-x,1/2+y,z
loop_
_atom_site_type_symbol
_atom_site_label
_atom_site_fract_x
_atom_site_fract_y
_atom_site_fract_z
Si Si1 0.666870 0.537043 0.375000
Si Si2 0.825741 0.429582 0.321846
Si Si3 0.677147 0.101431 0.115088
Si Si4 0.172531 0.469495 0.154546
Si Si5 0.829748 0.717373 0.409580
Si Si6 0.322927 0.838074 0.448644
Si Si7 0.327246 0.353104 0.768147
Si Si8 0.833349 0.602498 0.501819
O O1 0.500000 0.511134 0.376942
O O2 0.788730 0.485740 0.376489
O O3 0.689952 0.580016 0.299517
O O4 0.698007 0.573079 0.454931
O O5 0.749435 0.443720 0.235467
O O6 0.764533 0.372163 0.368635
O O7 0.000000 0.421633 0.311999
O O8 0.500000 0.104284 0.125192
O O9 0.749688 0.145465 0.181041
O O10 0.736814 0.033202 0.124720
O O11 0.726890 0.125659 0.027949
O O12 0.195215 0.415434 0.093277
O O13 0.000000 0.481005 0.173174
O O14 0.750343 0.774314 0.445593
O O15 0.751267 0.692762 0.328978
O O16 0.821977 0.672223 0.484720
O O17 0.000000 0.731487 0.386307
O O18 0.500000 0.831058 0.448272
O O19 0.500000 0.334224 0.760352
O O20 0.000000 0.580462 0.475415
#
# Coordination Sequence:
#
# PCOD8174537 Si02
#       8
#     8   8   8   8   8   8   8   8
#     4  10  19  31  51  81 113 142 175 223 282 334
#     4  10  19  34  57  80 110 151 186 223 275 337
#     4  10  19  34  57  84 114 147 186 234 287 342
#     4   9  17  32  57  86 111 138 183 232 274 332
#     4  10  21  38  59  80 110 150 195 236 281 337
#     4  10  22  38  56  82 116 153 193 235 285 337
#     4  10  20  35  57  83 111 144 187 235 282 334
#     4   9  18  34  56  80 105 141 187 230 270 329
#
# _framework density 18.96414
#
# number of rings (size 3 to 8) (size 9 to 14) (size 15 to 20)
#    0.000    2.250    1.250    1.875    0.000    4.500 
#    2.250    2.500    0.000    0.000    0.000    0.000 
#    0.000    0.000    0.000    0.000    0.000    0.000 
#
# Total GULP energy -396558.248232 kJ/mol
# GULP energy per Si atom -12392.445257 kJ/mol
# Density = 1.892098 g / cm^3
# Si number density = 18.964140 Si / 1000 Ang^3
#
#
#
# Elastic Constant Matrix: (Units=GPa)
#
#
# Indices 1 2 3 4 5 6 
#
# 1 33.5836 28.9275 42.9321 0.0000 0.0000 0.0000
# 2 28.9275 110.1282 77.0717 0.0000 0.0000 0.0000
# 3 42.9321 77.0717 125.4808 0.0000 0.0000 0.0000
# 4 0.0000 0.0000 0.0000 27.7196 0.0000 0.0000
# 5 0.0000 0.0000 0.0000 0.0000 21.4845 0.0000
# 6 0.0000 0.0000 0.0000 0.0000 0.0000 28.8441
#
#
#
# Elastic Compliance Matrix: (Units=1/GPa)
#
#
# Indices 1 2 3 4 5 6 
#
# 1 0.053218 -0.002168 -0.016876 0.000000 0.000000 0.000000
# 2 -0.002168 0.016014 -0.009094 0.000000 0.000000 0.000000
# 3 -0.016876 -0.009094 0.019329 0.000000 0.000000 0.000000
# 4 0.000000 0.000000 0.000000 0.036076 0.000000 0.000000
# 5 0.000000 0.000000 0.000000 0.000000 0.046545 0.000000
# 6 0.000000 0.000000 0.000000 0.000000 0.000000 0.034669
#
#
# Mechanical properties :
#
#
# Convention : Reuss Voigt Hill
#
# Bulk Modulus (GPa) = 30.97507 63.00610 46.99059
# Shear Modulus (GPa) = 18.32231 23.62706 20.97469
#
# Velocity S-wave (km/s) = 3.11168 3.53353 3.32929
# Velocity P-wave (km/s) = 5.41101 7.06709 6.29376
#
# Compressibility (1/GPa) = 0.03228403
#
# Stress axis : x y z
#
# Youngs Moduli (GPa) = 18.79055 62.44356 51.73485
#
# Poissons Ratio (x) = 0.13539 0.87310
# Poissons Ratio (y) = 0.04074 0.47050
# Poissons Ratio (z) = 0.31712 0.56789
#
# Static dielectric constant tensor:
#      x y z
#    x 3.311080 0.000000 0.000000 
#    y 0.000000 3.392840 0.000000 
#    z 0.000000 0.000000 3.607350 
# 
# 
# High freq. dielectric constant tensor:
#      x y z
#    x 1.719510 0.000000 0.000000 
#    y 0.000000 1.725000 0.000000 
#    z 0.000000 0.000000 1.739360 
# 
# From -- ./inp_files/10986.got.cif
#   From: 2010.03.12/outbox.cif.g09.slc.cpg/sg36_6_cif.got.tgz:10986.got - 2010.04.14 02:13:53.
