data_PCOD8174301
_publ_section_title
;
Structure prediction by ZEFSAII (Michael W. Deem and Ramdas Pophale) SiO2 
 PCOD8174301
Probable space group: C M C 21
;
_chemical_formula_sum "Si O2"
_cell_formula_units_Z 64
_cell_length_a 8.967990
_cell_length_b 20.763074
_cell_length_c 19.120514
_cell_angle_alpha 90.000000
_cell_angle_beta 90.000000
_cell_angle_gamma 90.000000
_cell_volume 3560.297833
_symmetry_space_group_name_H-M "C M C 21"
_symmetry_group_IT_number 36
_symmetry_cell_setting 'orthorhombic'
loop_
_space_group_symop_operation_xyz
x,y,z
-x,-y,1/2+z
x,-y,1/2+z
-x,y,z
1/2+x,1/2+y,z
1/2-x,1/2-y,1/2+z
1/2+x,1/2-y,1/2+z
1/2-x,1/2+y,z
loop_
_atom_site_type_symbol
_atom_site_label
_atom_site_fract_x
_atom_site_fract_y
_atom_site_fract_z
Si Si1 0.825427 0.557565 0.725170
Si Si2 0.676638 0.816551 0.150281
Si Si3 0.328258 0.627126 0.361748
Si Si4 0.672887 0.683595 0.216221
Si Si5 0.174045 0.504684 0.870732
Si Si6 0.323007 0.065136 0.142854
Si Si7 0.174654 0.011605 0.012633
Si Si8 0.672044 0.362464 0.017556
O O1 0.755573 0.622719 0.693076
O O2 0.792556 0.554113 0.807691
O O3 0.757335 0.494915 0.687054
O O4 0.000000 0.557410 0.710470
O O5 0.500000 0.818869 0.148733
O O6 0.731627 0.752576 0.189849
O O7 0.734068 0.818337 0.070459
O O8 0.500000 0.602820 0.363956
O O9 0.302711 0.679069 0.300221
O O10 0.223360 0.566370 0.346420
O O11 0.289434 0.658087 0.437517
O O12 0.500000 0.673321 0.197409
O O13 0.768098 0.630674 0.176658
O O14 0.000000 0.502557 0.889956
O O15 0.269078 0.530076 0.935643
O O16 0.500000 0.066012 0.140669
O O17 0.259633 0.058965 0.064903
O O18 0.000000 0.024346 0.017595
O O19 0.215488 0.937291 0.028242
O O20 0.500000 0.350731 0.034462
#
# Coordination Sequence:
#
# PCOD8174301 Si02
#       8
#     8   8   8   8   8   8   8   8
#     4   9  18  32  52  79 107 136 176 220 265 316
#     4  10  20  36  55  77 108 145 181 219 267 325
#     4   9  18  33  51  75 106 140 180 220 268 327
#     4  10  21  36  55  78 108 146 181 221 271 323
#     4  10  18  31  52  80 108 138 178 227 275 319
#     4  11  20  34  56  81 108 140 178 224 269 317
#     4  10  20  34  52  80 112 142 178 224 273 326
#     4   9  18  32  51  76 105 137 176 223 266 313
#
# _framework density 17.976025
#
# number of rings (size 3 to 8) (size 9 to 14) (size 15 to 20)
#    0.000    2.250    2.500    1.875    0.000    2.500 
#    0.000    2.500    0.000    3.000    0.000    0.000 
#    0.000    0.000    0.000    0.000    0.000    0.000 
#
# Total GULP energy -396793.827339 kJ/mol
# GULP energy per Si atom -12399.807104 kJ/mol
# Density = 1.793511 g / cm^3
# Si number density = 17.976025 Si / 1000 Ang^3
#
#
#
# Elastic Constant Matrix: (Units=GPa)
#
#
# Indices 1 2 3 4 5 6 
#
# 1 51.0227 37.0687 36.8173 0.0000 0.0000 0.0000
# 2 37.0687 108.9446 74.0555 0.0000 0.0000 0.0000
# 3 36.8173 74.0555 135.9063 0.0000 0.0000 0.0000
# 4 0.0000 0.0000 0.0000 29.1281 0.0000 0.0000
# 5 0.0000 0.0000 0.0000 0.0000 30.4586 0.0000
# 6 0.0000 0.0000 0.0000 0.0000 0.0000 22.3132
#
#
#
# Elastic Compliance Matrix: (Units=1/GPa)
#
#
# Indices 1 2 3 4 5 6 
#
# 1 0.027150 -0.006732 -0.003687 0.000000 0.000000 0.000000
# 2 -0.006732 0.016248 -0.007030 0.000000 0.000000 0.000000
# 3 -0.003687 -0.007030 0.012187 0.000000 0.000000 0.000000
# 4 0.000000 0.000000 0.000000 0.034331 0.000000 0.000000
# 5 0.000000 0.000000 0.000000 0.000000 0.032831 0.000000
# 6 0.000000 0.000000 0.000000 0.000000 0.000000 0.044817
#
#
# Mechanical properties :
#
#
# Convention : Reuss Voigt Hill
#
# Bulk Modulus (GPa) = 48.33591 65.75071 57.04331
# Shear Modulus (GPa) = 23.88249 26.24212 25.06231
#
# Velocity S-wave (km/s) = 3.64892 3.82493 3.73796
# Velocity P-wave (km/s) = 6.68583 7.49420 7.10153
#
# Compressibility (1/GPa) = 0.02068855
#
# Stress axis : x y z
#
# Youngs Moduli (GPa) = 36.83204 61.54557 82.05161
#
# Poissons Ratio (x) = 0.41431 0.30252
# Poissons Ratio (y) = 0.24794 0.57682
# Poissons Ratio (z) = 0.13580 0.43266
#
# Static dielectric constant tensor:
#      x y z
#    x 3.186690 0.000000 0.000000 
#    y 0.000000 3.204790 0.000000 
#    z 0.000000 0.000000 3.503210 
# 
# 
# High freq. dielectric constant tensor:
#      x y z
#    x 1.687040 0.000000 0.000000 
#    y 0.000000 1.663880 0.000000 
#    z 0.000000 0.000000 1.711880 
# 
# From -- ./inp_files/13916.got.cif
#   From: 2010.03.12/outbox.cif.g09.slc.cpg/sg36_7_cif.got.tgz:13916.got - 2010.04.14 02:13:53.
