data_PCOD8174688
_publ_section_title
;
Structure prediction by ZEFSAII (Michael W. Deem and Ramdas Pophale) SiO2 
 PCOD8174688
Probable space group: C M C 21
;
_chemical_formula_sum "Si O2"
_cell_formula_units_Z 64
_cell_length_a 8.892509
_cell_length_b 20.016403
_cell_length_c 19.061931
_cell_angle_alpha 90.000000
_cell_angle_beta 90.000000
_cell_angle_gamma 90.000000
_cell_volume 3392.948306
_symmetry_space_group_name_H-M "C M C 21"
_symmetry_group_IT_number 36
_symmetry_cell_setting 'orthorhombic'
loop_
_space_group_symop_operation_xyz
x,y,z
-x,-y,1/2+z
x,-y,1/2+z
-x,y,z
1/2+x,1/2+y,z
1/2-x,1/2-y,1/2+z
1/2+x,1/2-y,1/2+z
1/2-x,1/2+y,z
loop_
_atom_site_type_symbol
_atom_site_label
_atom_site_fract_x
_atom_site_fract_y
_atom_site_fract_z
Si Si1 0.175081 0.860690 0.866300
Si Si2 0.324637 0.514547 0.871056
Si Si3 0.826350 0.488605 0.230256
Si Si4 0.174397 0.443388 0.505757
Si Si5 0.824677 0.642912 0.223581
Si Si6 0.822371 0.823797 0.584735
Si Si7 0.672310 0.921250 0.085353
Si Si8 0.824075 0.199461 0.514191
O O1 0.219604 0.937197 0.881615
O O2 0.266667 0.833049 0.799633
O O3 0.000000 0.855312 0.848294
O O4 0.219450 0.817464 0.934027
O O5 0.500000 0.527392 0.882430
O O6 0.276221 0.537862 0.793629
O O7 0.233043 0.559392 0.926189
O O8 0.786753 0.565004 0.211505
O O9 0.789061 0.442360 0.164391
O O10 0.000000 0.483677 0.252687
O O11 0.267798 0.393509 0.553526
O O12 0.203018 0.517391 0.533954
O O13 0.000000 0.422964 0.509382
O O14 0.742001 0.685226 0.163248
O O15 0.000000 0.657945 0.218085
O O16 0.766466 0.764935 0.534752
O O17 0.000000 0.822487 0.588468
O O18 0.500000 0.897391 0.079219
O O19 0.781378 0.861260 0.065117
O O20 0.000000 0.213247 0.521878
#
# Coordination Sequence:
#
# PCOD8174688 Si02
#       8
#     8   8   8   8   8   8   8   8
#     4   9  19  35  56  85 117 151 190 236 287 344
#     4  10  19  33  54  87 120 150 191 239 292 345
#     4   9  18  34  55  84 117 152 191 236 289 345
#     4  11  21  37  60  86 116 152 192 238 289 343
#     4  10  19  35  59  86 115 151 193 237 288 347
#     4  12  25  40  59  85 119 156 197 243 292 346
#     4  10  20  36  59  86 116 148 191 237 285 342
#     4  11  23  40  60  85 120 156 195 238 290 348
#
# _framework density 18.862651
#
# number of rings (size 3 to 8) (size 9 to 14) (size 15 to 20)
#    0.000    1.750    2.500    2.625    0.000    3.000 
#    0.000    1.250    0.000    7.500    0.000    0.000 
#    0.000    0.000    0.000    0.000    0.000    0.000 
#
# Total GULP energy -396947.885152 kJ/mol
# GULP energy per Si atom -12404.621411 kJ/mol
# Density = 1.881972 g / cm^3
# Si number density = 18.862651 Si / 1000 Ang^3
#
#
#
# Elastic Constant Matrix: (Units=GPa)
#
#
# Indices 1 2 3 4 5 6 
#
# 1 96.7166 26.4632 59.5177 0.0000 0.0000 0.0000
# 2 26.4632 23.9136 30.8760 0.0000 0.0000 0.0000
# 3 59.5177 30.8760 129.4383 0.0000 0.0000 0.0000
# 4 0.0000 0.0000 0.0000 25.8519 0.0000 0.0000
# 5 0.0000 0.0000 0.0000 0.0000 37.3237 0.0000
# 6 0.0000 0.0000 0.0000 0.0000 0.0000 30.1287
#
#
#
# Elastic Compliance Matrix: (Units=1/GPa)
#
#
# Indices 1 2 3 4 5 6 
#
# 1 0.016595 -0.012301 -0.004697 0.000000 0.000000 0.000000
# 2 -0.012301 0.069546 -0.010933 0.000000 0.000000 0.000000
# 3 -0.004697 -0.010933 0.012493 0.000000 0.000000 0.000000
# 4 0.000000 0.000000 0.000000 0.038682 0.000000 0.000000
# 5 0.000000 0.000000 0.000000 0.000000 0.026793 0.000000
# 6 0.000000 0.000000 0.000000 0.000000 0.000000 0.033191
#
#
# Mechanical properties :
#
#
# Convention : Reuss Voigt Hill
#
# Bulk Modulus (GPa) = 23.37913 53.75360 38.56636
# Shear Modulus (GPa) = 18.69726 27.54163 23.11944
#
# Velocity S-wave (km/s) = 3.15180 3.82529 3.50476
# Velocity P-wave (km/s) = 5.06620 6.93323 6.07191
#
# Compressibility (1/GPa) = 0.04277319
#
# Stress axis : x y z
#
# Youngs Moduli (GPa) = 60.25777 14.37902 80.04308
#
# Poissons Ratio (x) = 0.17687 0.37593
# Poissons Ratio (y) = 0.74121 0.87513
# Poissons Ratio (z) = 0.28301 0.15721
#
# Static dielectric constant tensor:
#      x y z
#    x 3.471160 0.000000 0.000000 
#    y 0.000000 3.184120 0.000000 
#    z 0.000000 0.000000 3.612150 
# 
# 
# High freq. dielectric constant tensor:
#      x y z
#    x 1.739730 0.000000 0.000000 
#    y 0.000000 1.700650 0.000000 
#    z 0.000000 0.000000 1.748450 
# 
# From -- ./inp_files/13870.got.cif
#   From: 2010.03.12/outbox.cif.g09.slc.cpg/sg36_7_cif.got.tgz:13870.got - 2010.04.14 02:13:53.
