data_PCOD8174906
_publ_section_title
;
Structure prediction by ZEFSAII (Michael W. Deem and Ramdas Pophale) SiO2 
 PCOD8174906
Probable space group: C M C 21
;
_chemical_formula_sum "Si O2"
_cell_formula_units_Z 64
_cell_length_a 8.830614
_cell_length_b 22.595825
_cell_length_c 16.504504
_cell_angle_alpha 90.000000
_cell_angle_beta 90.000000
_cell_angle_gamma 90.000000
_cell_volume 3293.226347
_symmetry_space_group_name_H-M "C M C 21"
_symmetry_group_IT_number 36
_symmetry_cell_setting 'orthorhombic'
loop_
_space_group_symop_operation_xyz
x,y,z
-x,-y,1/2+z
x,-y,1/2+z
-x,y,z
1/2+x,1/2+y,z
1/2-x,1/2-y,1/2+z
1/2+x,1/2-y,1/2+z
1/2-x,1/2+y,z
loop_
_atom_site_type_symbol
_atom_site_label
_atom_site_fract_x
_atom_site_fract_y
_atom_site_fract_z
Si Si1 0.330671 0.574500 0.580490
Si Si2 0.835271 0.048824 0.011140
Si Si3 0.321484 0.842179 0.957854
Si Si4 0.821376 0.600051 0.287542
Si Si5 0.819312 0.531791 0.742728
Si Si6 0.174025 0.611827 0.882265
Si Si7 0.319148 0.782893 0.488560
Si Si8 0.325395 0.648144 0.133086
O O1 0.500000 0.598074 0.601392
O O2 0.341875 0.520997 0.518244
O O3 0.231327 0.625086 0.539334
O O4 0.247362 0.547557 0.656959
O O5 0.803408 0.082627 0.095601
O O6 0.000000 0.071185 0.978235
O O7 0.699112 0.062018 0.950355
O O8 0.500000 0.832285 0.961733
O O9 0.273416 0.878045 0.877191
O O10 0.237503 0.779947 0.958863
O O11 0.763107 0.532562 0.274351
O O12 0.748752 0.645038 0.222101
O O13 0.000000 0.603441 0.276206
O O14 0.755123 0.584710 0.800399
O O15 0.000000 0.531848 0.739334
O O16 0.000000 0.622063 0.866286
O O17 0.243139 0.672744 0.917712
O O18 0.500000 0.784406 0.495105
O O19 0.253243 0.802392 0.575956
O O20 0.500000 0.666310 0.142748
#
# Coordination Sequence:
#
# PCOD8174906 Si02
#       8
#     8   8   8   8   8   8   8   8
#     4  11  22  37  56  84 120 156 192 239 294 351
#     4   9  18  32  53  83 116 147 185 231 287 345
#     4  11  24  42  61  85 117 159 204 248 298 352
#     4  10  21  37  60  89 120 154 199 248 297 354
#     4  10  20  36  58  87 120 153 192 240 295 356
#     4   9  19  35  58  85 112 148 192 236 287 345
#     4  10  21  40  62  85 115 153 201 249 296 351
#     4  10  19  35  60  88 118 154 195 241 292 348
#
# _framework density 19.43383
#
# number of rings (size 3 to 8) (size 9 to 14) (size 15 to 20)
#    0.000    2.000    1.250    2.250    0.000    4.500 
#    2.250    0.000    0.000    0.000    0.000    0.000 
#    0.000    0.000    0.000    0.000    0.000    0.000 
#
# Total GULP energy -396606.611173 kJ/mol
# GULP energy per Si atom -12393.956599 kJ/mol
# Density = 1.938960 g / cm^3
# Si number density = 19.433830 Si / 1000 Ang^3
#
#
#
# Elastic Constant Matrix: (Units=GPa)
#
#
# Indices 1 2 3 4 5 6 
#
# 1 46.6848 40.3793 35.8333 0.0000 0.0000 0.0000
# 2 40.3793 108.8872 61.5509 0.0000 0.0000 0.0000
# 3 35.8333 61.5509 95.3980 0.0000 0.0000 0.0000
# 4 0.0000 0.0000 0.0000 29.5562 0.0000 0.0000
# 5 0.0000 0.0000 0.0000 0.0000 22.9549 0.0000
# 6 0.0000 0.0000 0.0000 0.0000 0.0000 28.5586
#
#
#
# Elastic Compliance Matrix: (Units=1/GPa)
#
#
# Indices 1 2 3 4 5 6 
#
# 1 0.034580 -0.008628 -0.007422 0.000000 0.000000 0.000000
# 2 -0.008628 0.016609 -0.007475 0.000000 0.000000 0.000000
# 3 -0.007422 -0.007475 0.018093 0.000000 0.000000 0.000000
# 4 0.000000 0.000000 0.000000 0.033834 0.000000 0.000000
# 5 0.000000 0.000000 0.000000 0.000000 0.043564 0.000000
# 6 0.000000 0.000000 0.000000 0.000000 0.000000 0.035016
#
#
# Mechanical properties :
#
#
# Convention : Reuss Voigt Hill
#
# Bulk Modulus (GPa) = 44.98135 58.49968 51.74052
# Shear Modulus (GPa) = 21.17242 23.76103 22.46673
#
# Velocity S-wave (km/s) = 3.30428 3.50045 3.40378
# Velocity P-wave (km/s) = 6.14442 6.81945 6.49071
#
# Compressibility (1/GPa) = 0.02223144
#
# Stress axis : x y z
#
# Youngs Moduli (GPa) = 28.91869 60.20856 55.26894
#
# Poissons Ratio (x) = 0.51947 0.41021
# Poissons Ratio (y) = 0.24951 0.41315
# Poissons Ratio (z) = 0.21464 0.45008
#
# Static dielectric constant tensor:
#      x y z
#    x 3.606220 0.000000 0.000000 
#    y 0.000000 3.592560 0.000000 
#    z 0.000000 0.000000 3.563530 
# 
# 
# High freq. dielectric constant tensor:
#      x y z
#    x 1.756070 0.000000 0.000000 
#    y 0.000000 1.749440 0.000000 
#    z 0.000000 0.000000 1.753540 
# 
# From -- ./inp_files/10874.got.cif
#   From: 2010.03.12/outbox.cif.g09.slc.cpg/sg36_6_cif.got.tgz:10874.got - 2010.04.14 02:13:53.
