data_PCOD8174907
_publ_section_title
;
Structure prediction by ZEFSAII (Michael W. Deem and Ramdas Pophale) SiO2 
 PCOD8174907
Probable space group: C M C 21
;
_chemical_formula_sum "Si O2"
_cell_formula_units_Z 64
_cell_length_a 8.842948
_cell_length_b 15.412374
_cell_length_c 23.607400
_cell_angle_alpha 90.000000
_cell_angle_beta 90.000000
_cell_angle_gamma 90.000000
_cell_volume 3217.471947
_symmetry_space_group_name_H-M "C M C 21"
_symmetry_group_IT_number 36
_symmetry_cell_setting 'orthorhombic'
loop_
_space_group_symop_operation_xyz
x,y,z
-x,-y,1/2+z
x,-y,1/2+z
-x,y,z
1/2+x,1/2+y,z
1/2-x,1/2-y,1/2+z
1/2+x,1/2-y,1/2+z
1/2-x,1/2+y,z
loop_
_atom_site_type_symbol
_atom_site_label
_atom_site_fract_x
_atom_site_fract_y
_atom_site_fract_z
Si Si1 0.675366 0.043290 0.519920
Si Si2 0.678807 0.638364 0.214782
Si Si3 0.825458 0.713822 0.901931
Si Si4 0.675771 0.120634 0.095199
Si Si5 0.175306 0.034418 0.915749
Si Si6 0.820542 0.786494 0.285848
Si Si7 0.675232 0.481513 0.288831
Si Si8 0.826236 0.214163 0.521711
O O1 0.500000 0.040725 0.503854
O O2 0.722486 0.136382 0.545750
O O3 0.715229 0.969984 0.565431
O O4 0.774547 0.033153 0.463262
O O5 0.500000 0.645044 0.222719
O O6 0.719673 0.627394 0.149698
O O7 0.752070 0.726841 0.237195
O O8 0.747997 0.555839 0.249199
O O9 0.775747 0.619528 0.923100
O O10 0.730415 0.746524 0.847937
O O11 0.000000 0.710911 0.884171
O O12 0.798935 0.778137 0.954370
O O13 0.500000 0.125425 0.112487
O O14 0.721408 0.197454 0.052698
O O15 0.203569 0.992049 0.854116
O O16 0.000000 0.059755 0.922662
O O17 0.758470 0.885069 0.276723
O O18 0.000000 0.783032 0.283007
O O19 0.500000 0.477275 0.274378
O O20 0.000000 0.192543 0.535025
#
# Coordination Sequence:
#
# PCOD8174907 Si02
#       8
#     8   8   8   8   8   8   8   8
#     4  11  23  39  60  90 122 155 202 254 302 357
#     4  11  23  40  63  89 116 157 207 251 294 358
#     4  10  19  36  60  88 124 162 198 248 305 360
#     4  10  23  45  62  81 121 163 198 248 306 358
#     4  10  19  35  60  88 122 162 199 242 304 368
#     4  10  21  39  60  88 121 160 199 245 304 363
#     4   8  19  38  58  83 119 157 193 237 295 357
#     4  10  22  40  61  85 119 162 200 241 308 367
#
# _framework density 19.891393999999998
#
# number of rings (size 3 to 8) (size 9 to 14) (size 15 to 20)
#    0.000    2.000    1.250    2.625    1.750    3.500 
#    0.000   10.625    0.000    0.000    0.000    0.000 
#    0.000    0.000    0.000    0.000    0.000    0.000 
#
# Total GULP energy -396853.280682 kJ/mol
# GULP energy per Si atom -12401.665021 kJ/mol
# Density = 1.984612 g / cm^3
# Si number density = 19.891394 Si / 1000 Ang^3
#
#
#
# Elastic Constant Matrix: (Units=GPa)
#
#
# Indices 1 2 3 4 5 6 
#
# 1 61.8383 29.4357 36.4556 0.0000 0.0000 0.0000
# 2 29.4357 89.5740 33.2822 0.0000 0.0000 0.0000
# 3 36.4556 33.2822 91.3680 0.0000 0.0000 0.0000
# 4 0.0000 0.0000 0.0000 22.6096 0.0000 0.0000
# 5 0.0000 0.0000 0.0000 0.0000 35.3114 0.0000
# 6 0.0000 0.0000 0.0000 0.0000 0.0000 31.8373
#
#
#
# Elastic Compliance Matrix: (Units=1/GPa)
#
#
# Indices 1 2 3 4 5 6 
#
# 1 0.022767 -0.004749 -0.007354 0.000000 0.000000 0.000000
# 2 -0.004749 0.013902 -0.003169 0.000000 0.000000 0.000000
# 3 -0.007354 -0.003169 0.015033 0.000000 0.000000 0.000000
# 4 0.000000 0.000000 0.000000 0.044229 0.000000 0.000000
# 5 0.000000 0.000000 0.000000 0.000000 0.028319 0.000000
# 6 0.000000 0.000000 0.000000 0.000000 0.000000 0.031410
#
#
# Mechanical properties :
#
#
# Convention : Reuss Voigt Hill
#
# Bulk Modulus (GPa) = 47.26362 49.01415 48.13889
# Shear Modulus (GPa) = 25.87202 27.52544 26.69873
#
# Velocity S-wave (km/s) = 3.61038 3.72396 3.66761
# Velocity P-wave (km/s) = 6.41812 6.57152 6.49527
#
# Compressibility (1/GPa) = 0.02115792
#
# Stress axis : x y z
#
# Youngs Moduli (GPa) = 43.92244 71.93115 66.51838
#
# Poissons Ratio (x) = 0.34162 0.48919
# Poissons Ratio (y) = 0.20860 0.21081
# Poissons Ratio (z) = 0.32301 0.22796
#
# Static dielectric constant tensor:
#      x y z
#    x 3.474080 0.000000 0.000000 
#    y 0.000000 3.773490 0.000000 
#    z 0.000000 0.000000 3.535250 
# 
# 
# High freq. dielectric constant tensor:
#      x y z
#    x 1.767120 0.000000 0.000000 
#    y 0.000000 1.782750 0.000000 
#    z 0.000000 0.000000 1.770120 
# 
# From -- ./inp_files/16696.got.cif
#   From: 2010.03.12/outbox.cif.g09.slc.cpg/sg36_9_cif.got.tgz:16696.got - 2010.04.14 02:13:53.
