data_PCOD8174746
_publ_section_title
;
Structure prediction by ZEFSAII (Michael W. Deem and Ramdas Pophale) SiO2 
 PCOD8174746
Probable space group: C M C 21
;
_chemical_formula_sum "Si O2"
_cell_formula_units_Z 52
_cell_length_a 7.846816
_cell_length_b 23.255552
_cell_length_c 14.252993
_cell_angle_alpha 90.000000
_cell_angle_beta 90.000000
_cell_angle_gamma 90.000000
_cell_volume 2600.915203
_symmetry_space_group_name_H-M "C M C 21"
_symmetry_group_IT_number 36
_symmetry_cell_setting 'orthorhombic'
loop_
_space_group_symop_operation_xyz
x,y,z
-x,-y,1/2+z
x,-y,1/2+z
-x,y,z
1/2+x,1/2+y,z
1/2-x,1/2-y,1/2+z
1/2+x,1/2-y,1/2+z
1/2-x,1/2+y,z
loop_
_atom_site_type_symbol
_atom_site_label
_atom_site_fract_x
_atom_site_fract_y
_atom_site_fract_z
Si Si1 0.319448 0.147469 0.757510
Si Si2 0.801111 0.792596 0.939612
Si Si3 0.801028 0.674041 0.045518
Si Si4 0.000000 0.913410 0.510717
Si Si5 0.306664 0.229957 0.238232
Si Si6 0.000000 0.083766 0.808355
Si Si7 0.500000 0.529411 0.602325
Si Si8 0.814607 0.400604 0.055373
O O1 0.500000 0.138489 0.812297
O O2 0.310499 0.214353 0.732822
O O3 0.324336 0.110532 0.664667
O O4 0.162094 0.125859 0.817867
O O5 0.718855 0.801419 0.837448
O O6 0.000000 0.803782 0.933729
O O7 0.761695 0.729411 0.980429
O O8 0.721102 0.840702 0.005062
O O9 0.672792 0.623618 0.017171
O O10 0.757572 0.687573 0.153913
O O11 0.000000 0.655409 0.034828
O O12 0.000000 0.947851 0.409636
O O13 0.000000 0.960660 0.593522
O O14 0.500000 0.250651 0.224433
O O15 0.000000 0.044577 0.714546
O O16 0.336343 0.553212 0.544879
O O17 0.000000 0.424743 0.021164
#
# Coordination Sequence:
#
# PCOD8174746 Si02
#       8
#     8   8   8   4   8   4   4   8
#     4  10  19  33  59  90 125 160 204 255 304 370
#     4  11  21  35  59  95 131 161 205 255 314 383
#     4  10  25  41  59  93 134 167 203 259 316 374
#     4  12  26  44  68  90 124 180 212 256 320 386
#     4  11  21  34  54  88 132 171 194 245 318 384
#     4  10  22  42  66  90 120 166 219 266 309 360
#     4  10  24  46  64  92 120 164 221 270 307 360
#     4  10  20  37  64  90 118 156 206 266 314 363
#
# _framework density 19.992963
#
# number of rings (size 3 to 8) (size 9 to 14) (size 15 to 20)
#    0.000    1.538    3.077    1.846    4.308    2.462 
#    2.769    0.000    0.000    0.000    0.000    0.000 
#    0.000    0.000    0.000    0.000    0.000    0.000 
#
# Total GULP energy -322221.774853 kJ/mol
# GULP energy per Si atom -12393.145187 kJ/mol
# Density = 1.994746 g / cm^3
# Si number density = 19.992963 Si / 1000 Ang^3
#
#
#
# Elastic Constant Matrix: (Units=GPa)
#
#
# Indices 1 2 3 4 5 6 
#
# 1 128.3851 48.1381 43.1726 0.0000 0.0000 0.0000
# 2 48.1381 72.1777 47.2489 0.0000 0.0000 0.0000
# 3 43.1726 47.2489 78.7588 0.0000 0.0000 0.0000
# 4 0.0000 0.0000 0.0000 20.2452 0.0000 0.0000
# 5 0.0000 0.0000 0.0000 0.0000 13.0916 0.0000
# 6 0.0000 0.0000 0.0000 0.0000 0.0000 202.2773
#
#
#
# Elastic Compliance Matrix: (Units=1/GPa)
#
#
# Indices 1 2 3 4 5 6 
#
# 1 0.010702 -0.005430 -0.002609 0.000000 0.000000 0.000000
# 2 -0.005430 0.025569 -0.012363 0.000000 0.000000 0.000000
# 3 -0.002609 -0.012363 0.021544 0.000000 0.000000 0.000000
# 4 0.000000 0.000000 0.000000 0.049394 0.000000 0.000000
# 5 0.000000 0.000000 0.000000 0.000000 0.076385 0.000000
# 6 0.000000 0.000000 0.000000 0.000000 0.000000 0.004944
#
#
# Mechanical properties :
#
#
# Convention : Reuss Voigt Hill
#
# Bulk Modulus (GPa) = 58.78356 61.82677 60.30517
# Shear Modulus (GPa) = 21.27542 56.50695 38.89118
#
# Velocity S-wave (km/s) = 3.26566 5.32210 4.41528
# Velocity P-wave (km/s) = 6.60949 8.29203 7.49810
#
# Compressibility (1/GPa) = 0.01701156
#
# Stress axis : x y z
#
# Youngs Moduli (GPa) = 93.43712 39.10967 46.41650
#
# Poissons Ratio (x) = 0.21236 0.12111
# Poissons Ratio (y) = 0.50735 0.57385
# Poissons Ratio (z) = 0.24380 0.48351
#
# Static dielectric constant tensor:
#      x y z
#    x 2.800300 0.000000 0.000000 
#    y 0.000000 3.183410 0.000000 
#    z 0.000000 0.000000 3.784110 
# 
# 
# High freq. dielectric constant tensor:
#      x y z
#    x 1.806400 0.000000 0.000000 
#    y 0.000000 1.732620 0.000000 
#    z 0.000000 0.000000 1.785010 
# 
# From -- ./inp_files/10616.got.cif
#   From: 2010.03.12/outbox.cif.g09.slc.cpg/sg36_6_cif.got.tgz:10616.got - 2010.04.14 02:13:53.
