data_PCOD8174352
_publ_section_title
;
Structure prediction by ZEFSAII (Michael W. Deem and Ramdas Pophale) SiO2 
 PCOD8174352
Probable space group: C M C 21
;
_chemical_formula_sum "Si O2"
_cell_formula_units_Z 64
_cell_length_a 8.508065
_cell_length_b 20.868071
_cell_length_c 18.607829
_cell_angle_alpha 90.000000
_cell_angle_beta 90.000000
_cell_angle_gamma 90.000000
_cell_volume 3303.762438
_symmetry_space_group_name_H-M "C M C 21"
_symmetry_group_IT_number 36
_symmetry_cell_setting 'orthorhombic'
loop_
_space_group_symop_operation_xyz
x,y,z
-x,-y,1/2+z
x,-y,1/2+z
-x,y,z
1/2+x,1/2+y,z
1/2-x,1/2-y,1/2+z
1/2+x,1/2-y,1/2+z
1/2-x,1/2+y,z
loop_
_atom_site_type_symbol
_atom_site_label
_atom_site_fract_x
_atom_site_fract_y
_atom_site_fract_z
Si Si1 0.315523 0.621914 0.272970
Si Si2 0.813227 0.999372 0.188034
Si Si3 0.318143 0.388455 0.290309
Si Si4 0.319958 0.259221 0.943456
Si Si5 0.679730 0.752211 0.791820
Si Si6 0.316047 0.498514 0.025653
Si Si7 0.818517 0.387448 0.930077
Si Si8 0.315513 0.882811 0.447435
O O1 0.500000 0.629392 0.262444
O O2 0.248809 0.563894 0.224998
O O3 0.230126 0.686891 0.243209
O O4 0.278956 0.607752 0.356402
O O5 0.749193 0.938582 0.232979
O O6 0.751290 0.994749 0.106857
O O7 0.000000 0.999286 0.188606
O O8 0.500000 0.403067 0.307946
O O9 0.299669 0.317303 0.254793
O O10 0.223320 0.394395 0.364038
O O11 0.500000 0.272443 0.962765
O O12 0.298764 0.255606 0.858099
O O13 0.220612 0.320365 0.971991
O O14 0.267361 0.189373 0.973304
O O15 0.500000 0.760772 0.818248
O O16 0.500000 0.483321 0.021173
O O17 0.222300 0.446775 0.980023
O O18 0.283827 0.569395 0.996290
O O19 0.000000 0.389778 0.910104
O O20 0.500000 0.894479 0.458347
#
# Coordination Sequence:
#
# PCOD8174352 Si02
#       8
#     8   8   8   8   8   8   8   8
#     4  10  18  32  55  79 103 133 169 209 255 307
#     4   9  20  36  53  73  98 134 178 215 248 300
#     4   9  17  33  56  78 101 133 173 212 254 305
#     4   9  17  31  52  77 105 135 167 208 257 306
#     4   9  16  27  48  78 106 130 161 207 257 303
#     4  11  22  37  54  72 102 143 180 213 256 306
#     4  11  21  34  54  81 108 133 170 216 258 305
#     4  10  20  34  54  82 109 133 170 216 259 306
#
# _framework density 19.371853000000002
#
# number of rings (size 3 to 8) (size 9 to 14) (size 15 to 20)
#    0.000    2.250    0.000    5.250    0.000    3.000 
#    0.000    5.625    0.000    4.500    0.000    0.000 
#    0.000    0.000    0.000    0.000    0.000    0.000 
#
# Total GULP energy -396626.497023 kJ/mol
# GULP energy per Si atom -12394.578032 kJ/mol
# Density = 1.932776 g / cm^3
# Si number density = 19.371853 Si / 1000 Ang^3
#
#
#
# Elastic Constant Matrix: (Units=GPa)
#
#
# Indices 1 2 3 4 5 6 
#
# 1 43.5747 20.5108 7.0027 0.0000 0.0000 0.0000
# 2 20.5108 139.5378 34.3469 0.0000 0.0000 0.0000
# 3 7.0027 34.3469 60.6019 0.0000 0.0000 0.0000
# 4 0.0000 0.0000 0.0000 4.1770 0.0000 0.0000
# 5 0.0000 0.0000 0.0000 0.0000 12.9149 0.0000
# 6 0.0000 0.0000 0.0000 0.0000 0.0000 34.0594
#
#
#
# Elastic Compliance Matrix: (Units=1/GPa)
#
#
# Indices 1 2 3 4 5 6 
#
# 1 0.024700 -0.003403 -0.000926 0.000000 0.000000 0.000000
# 2 -0.003403 0.008797 -0.004593 0.000000 0.000000 0.000000
# 3 -0.000926 -0.004593 0.019211 0.000000 0.000000 0.000000
# 4 0.000000 0.000000 0.000000 0.239406 0.000000 0.000000
# 5 0.000000 0.000000 0.000000 0.000000 0.077430 0.000000
# 6 0.000000 0.000000 0.000000 0.000000 0.000000 0.029360
#
#
# Mechanical properties :
#
#
# Convention : Reuss Voigt Hill
#
# Bulk Modulus (GPa) = 28.68148 40.82614 34.75381
# Shear Modulus (GPa) = 11.67221 22.35387 17.01304
#
# Velocity S-wave (km/s) = 2.45732 3.40065 2.96672
# Velocity P-wave (km/s) = 4.78426 6.04483 5.45110
#
# Compressibility (1/GPa) = 0.03486571
#
# Stress axis : x y z
#
# Youngs Moduli (GPa) = 40.48662 113.67278 52.05335
#
# Poissons Ratio (x) = 0.38680 0.04818
# Poissons Ratio (y) = 0.13777 0.23907
# Poissons Ratio (z) = 0.03747 0.52207
#
# Static dielectric constant tensor:
#      x y z
#    x 3.385930 0.000000 0.000000 
#    y 0.000000 4.225100 0.000000 
#    z 0.000000 0.000000 3.195070 
# 
# 
# High freq. dielectric constant tensor:
#      x y z
#    x 1.748130 0.000000 0.000000 
#    y 0.000000 1.784070 0.000000 
#    z 0.000000 0.000000 1.702550 
# 
# From -- ./inp_files/13812.got.cif
#   From: 2010.03.12/outbox.cif.g09.slc.cpg/sg36_7_cif.got.tgz:13812.got - 2010.04.14 02:13:53.
