data_PCOD8174547
_publ_section_title
;
Structure prediction by ZEFSAII (Michael W. Deem and Ramdas Pophale) SiO2 
 PCOD8174547
Probable space group: C M C 21
;
_chemical_formula_sum "Si O2"
_cell_formula_units_Z 64
_cell_length_a 9.047271
_cell_length_b 20.563890
_cell_length_c 18.967514
_cell_angle_alpha 90.000000
_cell_angle_beta 90.000000
_cell_angle_gamma 90.000000
_cell_volume 3528.850702
_symmetry_space_group_name_H-M "C M C 21"
_symmetry_group_IT_number 36
_symmetry_cell_setting 'orthorhombic'
loop_
_space_group_symop_operation_xyz
x,y,z
-x,-y,1/2+z
x,-y,1/2+z
-x,y,z
1/2+x,1/2+y,z
1/2-x,1/2-y,1/2+z
1/2+x,1/2-y,1/2+z
1/2-x,1/2+y,z
loop_
_atom_site_type_symbol
_atom_site_label
_atom_site_fract_x
_atom_site_fract_y
_atom_site_fract_z
Si Si1 0.174124 0.616918 0.859950
Si Si2 0.670620 0.684801 0.481199
Si Si3 0.326014 0.432367 0.490317
Si Si4 0.326194 0.438352 0.070928
Si Si5 0.831819 0.683344 0.064410
Si Si6 0.672976 0.885126 0.200047
Si Si7 0.171121 0.747259 0.360886
Si Si8 0.331639 0.747761 0.701649
O O1 0.245525 0.565925 0.914350
O O2 0.214110 0.595426 0.780442
O O3 0.239453 0.687417 0.878110
O O4 0.000000 0.620780 0.872082
O O5 0.500000 0.676651 0.460204
O O6 0.727414 0.622192 0.523748
O O7 0.698770 0.747700 0.528539
O O8 0.765981 0.689817 0.409705
O O9 0.500000 0.431144 0.477361
O O10 0.275664 0.496034 0.532539
O O11 0.280200 0.369763 0.535456
O O12 0.500000 0.436074 0.083476
O O13 0.249725 0.435967 0.147501
O O14 0.801005 0.693154 0.147823
O O15 0.000000 0.660234 0.050453
O O16 0.500000 0.887876 0.187295
O O17 0.726267 0.812318 0.184101
O O18 0.195881 0.725410 0.280183
O O19 0.000000 0.760201 0.377580
O O20 0.500000 0.722472 0.692428
#
# Coordination Sequence:
#
# PCOD8174547 Si02
#       8
#     8   8   8   8   8   8   8   8
#     4  10  20  35  54  79 111 144 178 218 271 326
#     4  10  19  34  56  78 106 143 178 215 271 326
#     4  11  23  37  56  82 110 144 186 226 265 317
#     4  10  22  40  57  77 109 148 184 220 269 326
#     4  10  19  34  57  79 107 143 177 218 273 325
#     4  10  20  33  55  84 108 137 180 227 269 316
#     4  10  19  31  53  83 110 137 180 229 269 315
#     4   9  18  34  54  78 109 146 179 217 273 327
#
# _framework density 18.136216000000001
#
# number of rings (size 3 to 8) (size 9 to 14) (size 15 to 20)
#    0.000    2.000    2.500    1.500    0.000    4.000 
#    0.000    1.250    0.000    6.000    0.000    0.000 
#    0.000    0.000    0.000    0.000    0.000    0.000 
#
# Total GULP energy -396876.398030 kJ/mol
# GULP energy per Si atom -12402.387438 kJ/mol
# Density = 1.809494 g / cm^3
# Si number density = 18.136216 Si / 1000 Ang^3
#
#
#
# Elastic Constant Matrix: (Units=GPa)
#
#
# Indices 1 2 3 4 5 6 
#
# 1 73.2989 39.1746 55.9924 0.0000 0.0000 0.0000
# 2 39.1746 87.4411 56.3393 0.0000 0.0000 0.0000
# 3 55.9924 56.3393 140.0179 0.0000 0.0000 0.0000
# 4 0.0000 0.0000 0.0000 29.3067 0.0000 0.0000
# 5 0.0000 0.0000 0.0000 0.0000 33.8971 0.0000
# 6 0.0000 0.0000 0.0000 0.0000 0.0000 23.7261
#
#
#
# Elastic Compliance Matrix: (Units=1/GPa)
#
#
# Indices 1 2 3 4 5 6 
#
# 1 0.021445 -0.005511 -0.006358 0.000000 0.000000 0.000000
# 2 -0.005511 0.016855 -0.004578 0.000000 0.000000 0.000000
# 3 -0.006358 -0.004578 0.011527 0.000000 0.000000 0.000000
# 4 0.000000 0.000000 0.000000 0.034122 0.000000 0.000000
# 5 0.000000 0.000000 0.000000 0.000000 0.029501 0.000000
# 6 0.000000 0.000000 0.000000 0.000000 0.000000 0.042148
#
#
# Mechanical properties :
#
#
# Convention : Reuss Voigt Hill
#
# Bulk Modulus (GPa) = 59.05985 67.08561 63.07273
# Shear Modulus (GPa) = 25.75506 27.33607 26.54557
#
# Velocity S-wave (km/s) = 3.77250 3.88656 3.82995
# Velocity P-wave (km/s) = 7.18407 7.56377 7.37637
#
# Compressibility (1/GPa) = 0.01693198
#
# Stress axis : x y z
#
# Youngs Moduli (GPa) = 46.63051 59.32954 86.75461
#
# Poissons Ratio (x) = 0.32696 0.55162
# Poissons Ratio (y) = 0.25698 0.39718
# Poissons Ratio (z) = 0.29649 0.27162
#
# Static dielectric constant tensor:
#      x y z
#    x 3.342500 0.000000 0.000000 
#    y 0.000000 3.096760 0.000000 
#    z 0.000000 0.000000 3.681330 
# 
# 
# High freq. dielectric constant tensor:
#      x y z
#    x 1.706270 0.000000 0.000000 
#    y 0.000000 1.666880 0.000000 
#    z 0.000000 0.000000 1.720970 
# 
# From -- ./inp_files/15653.got.cif
#   From: 2010.03.12/outbox.cif.g09.slc.cpg/sg36_8_cif.got.tgz:15653.got - 2010.04.14 02:13:53.
