data_PCOD8174154
_publ_section_title
;
Structure prediction by ZEFSAII (Michael W. Deem and Ramdas Pophale) SiO2 
 PCOD8174154
Probable space group: C M M 2
;
_chemical_formula_sum "Si O2"
_cell_formula_units_Z 64
_cell_length_a 9.242171
_cell_length_b 20.037769
_cell_length_c 20.469401
_cell_angle_alpha 90.000000
_cell_angle_beta 90.000000
_cell_angle_gamma 90.000000
_cell_volume 3790.779290
_symmetry_space_group_name_H-M "C M M 2"
_symmetry_group_IT_number 35
_symmetry_cell_setting 'orthorhombic'
loop_
_space_group_symop_operation_xyz
x,y,z
-x,-y,z
-x,y,z
x,-y,z
1/2+x,1/2+y,z
1/2-x,1/2-y,z
1/2-x,1/2+y,z
1/2+x,1/2-y,z
loop_
_atom_site_type_symbol
_atom_site_label
_atom_site_fract_x
_atom_site_fract_y
_atom_site_fract_z
Si Si1 0.829721 0.683333 0.985920
Si Si2 0.337108 0.420391 0.352893
Si Si3 0.836194 0.579592 0.478450
Si Si4 0.672212 0.925999 0.086475
Si Si5 0.668633 0.923437 0.731193
Si Si6 0.163341 0.920652 0.603386
Si Si7 0.661116 0.079374 0.230270
Si Si8 0.168335 0.316080 0.836972
O O1 0.750000 0.750000 0.008846
O O2 0.789719 0.665774 0.911268
O O3 0.000000 0.693771 0.995175
O O4 0.769409 0.623652 0.030963
O O5 0.500000 0.392745 0.358590
O O6 0.337366 0.500000 0.352629
O O7 0.244384 0.393565 0.413947
O O8 0.267114 0.392238 0.286052
O O9 0.836957 0.500000 0.479279
O O10 0.751317 0.607791 0.541473
O O11 0.000000 0.607099 0.479143
O O12 0.500000 0.929566 0.085196
O O13 0.720654 0.900177 0.158450
O O14 0.735529 0.000000 0.072418
O O15 0.500000 0.916157 0.714056
O O16 0.758304 0.896810 0.669331
O O17 0.714034 0.879051 0.793136
O O18 0.707209 0.000000 0.748154
O O19 0.000000 0.892393 0.601896
O O20 0.162049 0.000000 0.600330
O O21 0.500000 0.108508 0.242170
O O22 0.653591 0.000000 0.233968
O O23 0.250000 0.250000 0.812716
O O24 0.000000 0.300513 0.830412
#
# Coordination Sequence:
#
# PCOD8174154 Si02
#       8
#     8   8   8   8   8   8   8   8
#     4   9  17  30  47  66  88 114 144 179 220 263
#     4   9  15  21  30  47  73 105 139 173 209 251
#     4   9  15  22  33  49  72 106 144 177 209 248
#     4   8  14  25  43  65  86 111 146 185 220 257
#     4   9  17  29  44  63  87 114 145 181 220 261
#     4   9  16  25  37  55  80 109 140 175 216 259
#     4   8  13  22  35  51  73 102 136 173 212 252
#     4   9  18  31  47  66  88 115 145 179 219 262
#
# _framework density 16.883071000000001
#
# number of rings (size 3 to 8) (size 9 to 14) (size 15 to 20)
#    0.000    3.250    0.000    1.875    0.000    5.500 
#    0.000    3.125    0.000    1.125    0.000    3.500 
#    0.000    1.000    0.000    6.250    0.000   11.500 
#
# Total GULP energy -396680.574176 kJ/mol
# GULP energy per Si atom -12396.267943 kJ/mol
# Density = 1.684464 g / cm^3
# Si number density = 16.883071 Si / 1000 Ang^3
#
#
#
# Elastic Constant Matrix: (Units=GPa)
#
#
# Indices 1 2 3 4 5 6 
#
# 1 89.7712 30.0516 64.4326 0.0000 0.0000 0.0000
# 2 30.0516 52.6135 58.1788 0.0000 0.0000 0.0000
# 3 64.4326 58.1788 149.0378 0.0000 0.0000 0.0000
# 4 0.0000 0.0000 0.0000 3.0061 0.0000 0.0000
# 5 0.0000 0.0000 0.0000 0.0000 21.9678 0.0000
# 6 0.0000 0.0000 0.0000 0.0000 0.0000 14.5147
#
#
#
# Elastic Compliance Matrix: (Units=1/GPa)
#
#
# Indices 1 2 3 4 5 6 
#
# 1 0.016363 -0.002681 -0.006028 0.000000 0.000000 0.000000
# 2 -0.002681 0.033881 -0.012067 0.000000 0.000000 0.000000
# 3 -0.006028 -0.012067 0.014026 0.000000 0.000000 0.000000
# 4 0.000000 0.000000 0.000000 0.332661 0.000000 0.000000
# 5 0.000000 0.000000 0.000000 0.000000 0.045521 0.000000
# 6 0.000000 0.000000 0.000000 0.000000 0.000000 0.068896
#
#
# Mechanical properties :
#
#
# Convention : Reuss Voigt Hill
#
# Bulk Modulus (GPa) = 44.01542 66.30538 55.16040
# Shear Modulus (GPa) = 8.92105 17.14835 13.03470
#
# Velocity S-wave (km/s) = 2.30119 3.19048 2.78161
# Velocity P-wave (km/s) = 5.76090 7.27535 6.56197
#
# Compressibility (1/GPa) = 0.02271931
#
# Stress axis : x y z
#
# Youngs Moduli (GPa) = 61.11266 29.51496 71.29609
#
# Poissons Ratio (x) = 0.07913 0.42974
# Poissons Ratio (y) = 0.16385 0.86032
# Poissons Ratio (z) = 0.36836 0.35615
#
# Static dielectric constant tensor:
#      x y z
#    x 3.182320 0.000000 0.000000 
#    y 0.000000 2.717140 0.000000 
#    z 0.000000 0.000000 3.436160 
# 
# 
# High freq. dielectric constant tensor:
#      x y z
#    x 1.644240 0.000000 0.000000 
#    y 0.000000 1.584420 0.000000 
#    z 0.000000 0.000000 1.665330 
# 
# From -- ./inp_files/18469.got.cif
#   From: 2010.03.12/outbox.cif.g09.slc.cpg/sg35_10_cif.got.tgz:18469.got - 2010.04.14 02:02:04.
