data_PCOD8174720
_publ_section_title
;
Structure prediction by ZEFSAII (Michael W. Deem and Ramdas Pophale) SiO2 
 PCOD8174720
Probable space group: C M C 21
;
_chemical_formula_sum "Si O2"
_cell_formula_units_Z 64
_cell_length_a 8.520328
_cell_length_b 22.965457
_cell_length_c 16.403222
_cell_angle_alpha 90.000000
_cell_angle_beta 90.000000
_cell_angle_gamma 90.000000
_cell_volume 3209.671371
_symmetry_space_group_name_H-M "C M C 21"
_symmetry_group_IT_number 36
_symmetry_cell_setting 'orthorhombic'
loop_
_space_group_symop_operation_xyz
x,y,z
-x,-y,1/2+z
x,-y,1/2+z
-x,y,z
1/2+x,1/2+y,z
1/2-x,1/2-y,1/2+z
1/2+x,1/2-y,1/2+z
1/2-x,1/2+y,z
loop_
_atom_site_type_symbol
_atom_site_label
_atom_site_fract_x
_atom_site_fract_y
_atom_site_fract_z
Si Si1 0.315791 0.843601 0.222410
Si Si2 0.677915 0.604118 0.567196
Si Si3 0.325645 0.299537 0.940800
Si Si4 0.318536 0.690255 0.001765
Si Si5 0.684907 0.901843 0.393355
Si Si6 0.686582 0.966445 0.919052
Si Si7 0.177123 0.632470 0.309033
Si Si8 0.812570 0.281527 0.674989
O O1 0.500000 0.831966 0.220496
O O2 0.272932 0.890295 0.151683
O O3 0.263168 0.872500 0.308057
O O4 0.229057 0.781871 0.210987
O O5 0.500000 0.586120 0.587250
O O6 0.684594 0.668585 0.528007
O O7 0.746713 0.555291 0.506054
O O8 0.500000 0.308447 0.902845
O O9 0.188230 0.323650 0.884635
O O10 0.293013 0.231668 0.948722
O O11 0.500000 0.703754 0.986513
O O12 0.280314 0.702335 0.094729
O O13 0.274157 0.626265 0.970481
O O14 0.500000 0.896767 0.406504
O O15 0.739530 0.968739 0.397376
O O16 0.500000 0.959388 0.923889
O O17 0.754985 0.927504 0.842969
O O18 0.252813 0.666298 0.233059
O O19 0.000000 0.619183 0.285387
O O20 0.000000 0.283892 0.662489
#
# Coordination Sequence:
#
# PCOD8174720 Si02
#       8
#     8   8   8   8   8   8   8   8
#     4  11  22  37  60  90 120 155 201 248 298 357
#     4  10  20  35  59  88 119 155 194 243 294 347
#     4  10  19  33  56  84 116 150 187 233 291 350
#     4  12  24  37  57  83 118 157 195 241 296 356
#     4  10  23  42  62  86 119 159 203 249 297 351
#     4   9  19  40  64  85 114 154 202 246 288 349
#     4   9  19  35  59  87 114 148 192 238 288 346
#     4  11  22  37  57  87 122 154 192 242 302 358
#
# _framework density 19.939734999999999
#
# number of rings (size 3 to 8) (size 9 to 14) (size 15 to 20)
#    0.000    1.750    1.250    3.375    0.000    5.500 
#    2.250    0.000    0.000    0.000    0.000    0.000 
#    0.000    0.000    0.000    0.000    0.000    0.000 
#
# Total GULP energy -396584.311165 kJ/mol
# GULP energy per Si atom -12393.259724 kJ/mol
# Density = 1.989435 g / cm^3
# Si number density = 19.939735 Si / 1000 Ang^3
#
#
#
# Elastic Constant Matrix: (Units=GPa)
#
#
# Indices 1 2 3 4 5 6 
#
# 1 57.0135 27.4317 19.6391 0.0000 0.0000 0.0000
# 2 27.4317 139.5002 66.8954 0.0000 0.0000 0.0000
# 3 19.6391 66.8954 70.8525 0.0000 0.0000 0.0000
# 4 0.0000 0.0000 0.0000 28.4040 0.0000 0.0000
# 5 0.0000 0.0000 0.0000 0.0000 27.8226 0.0000
# 6 0.0000 0.0000 0.0000 0.0000 0.0000 24.9312
#
#
#
# Elastic Compliance Matrix: (Units=1/GPa)
#
#
# Indices 1 2 3 4 5 6 
#
# 1 0.019788 -0.002304 -0.003309 0.000000 0.000000 0.000000
# 2 -0.002304 0.013367 -0.011982 0.000000 0.000000 0.000000
# 3 -0.003309 -0.011982 0.026344 0.000000 0.000000 0.000000
# 4 0.000000 0.000000 0.000000 0.035206 0.000000 0.000000
# 5 0.000000 0.000000 0.000000 0.000000 0.035942 0.000000
# 6 0.000000 0.000000 0.000000 0.000000 0.000000 0.040110
#
#
# Mechanical properties :
#
#
# Convention : Reuss Voigt Hill
#
# Bulk Modulus (GPa) = 41.13840 55.03318 48.08579
# Shear Modulus (GPa) = 23.35869 26.45823 24.90846
#
# Velocity S-wave (km/s) = 3.42638 3.64663 3.53822
# Velocity P-wave (km/s) = 6.02740 6.73723 6.39217
#
# Compressibility (1/GPa) = 0.02430819
#
# Stress axis : x y z
#
# Youngs Moduli (GPa) = 50.53478 74.80849 37.95910
#
# Poissons Ratio (x) = 0.17238 0.12562
# Poissons Ratio (y) = 0.11644 0.45483
# Poissons Ratio (z) = 0.16724 0.89637
#
# Static dielectric constant tensor:
#      x y z
#    x 3.512230 0.000000 0.000000 
#    y 0.000000 3.723910 0.000000 
#    z 0.000000 0.000000 3.690610 
# 
# 
# High freq. dielectric constant tensor:
#      x y z
#    x 1.773060 0.000000 0.000000 
#    y 0.000000 1.772830 0.000000 
#    z 0.000000 0.000000 1.776990 
# 
# From -- ./inp_files/11042.got.cif
#   From: 2010.03.12/outbox.cif.g09.slc.cpg/sg36_6_cif.got.tgz:11042.got - 2010.04.14 02:13:53.
