data_PCOD8174392
_publ_section_title
;
Structure prediction by ZEFSAII (Michael W. Deem and Ramdas Pophale) SiO2 
 PCOD8174392
Probable space group: C M C 21
;
_chemical_formula_sum "Si O2"
_cell_formula_units_Z 64
_cell_length_a 8.490686
_cell_length_b 20.670912
_cell_length_c 19.282037
_cell_angle_alpha 90.000000
_cell_angle_beta 90.000000
_cell_angle_gamma 90.000000
_cell_volume 3384.194616
_symmetry_space_group_name_H-M "C M C 21"
_symmetry_group_IT_number 36
_symmetry_cell_setting 'orthorhombic'
loop_
_space_group_symop_operation_xyz
x,y,z
-x,-y,1/2+z
x,-y,1/2+z
-x,y,z
1/2+x,1/2+y,z
1/2-x,1/2-y,1/2+z
1/2+x,1/2-y,1/2+z
1/2-x,1/2+y,z
loop_
_atom_site_type_symbol
_atom_site_label
_atom_site_fract_x
_atom_site_fract_y
_atom_site_fract_z
Si Si1 0.814454 0.682360 0.908190
Si Si2 0.813537 0.994397 0.044974
Si Si3 0.315497 0.865378 0.693610
Si Si4 0.682827 0.052336 0.832197
Si Si5 0.812547 0.809648 0.827802
Si Si6 0.184763 0.992763 0.198439
Si Si7 0.185604 0.139994 0.047971
Si Si8 0.684047 0.432507 0.909403
O O1 0.759913 0.618998 0.866224
O O2 0.757241 0.743578 0.863862
O O3 0.000000 0.683804 0.919420
O O4 0.733869 0.685217 0.983701
O O5 0.762809 0.970624 0.121223
O O6 0.000000 0.996156 0.038849
O O7 0.752159 0.067378 0.031775
O O8 0.742562 0.946773 0.986020
O O9 0.500000 0.879309 0.696304
O O10 0.266382 0.813606 0.752134
O O11 0.267849 0.835865 0.618861
O O12 0.223201 0.931729 0.709218
O O13 0.500000 0.039820 0.846618
O O14 0.718056 0.053501 0.750013
O O15 0.785386 0.993987 0.861517
O O16 0.744000 0.868027 0.875482
O O17 0.000000 0.812959 0.819392
O O18 0.000000 0.983016 0.210599
O O19 0.000000 0.142094 0.059941
O O20 0.500000 0.421589 0.916727
#
# Coordination Sequence:
#
# PCOD8174392 Si02
#       8
#     8   8   8   8   8   8   8   8
#     4  10  22  38  54  80 117 153 189 230 279 330
#     4   8  16  30  51  80 105 131 176 230 274 322
#     4  11  21  34  55  83 113 143 185 234 279 329
#     4  11  21  33  52  80 112 143 182 232 281 325
#     4  10  21  37  57  80 113 154 189 225 277 337
#     4  10  19  33  53  79 111 145 184 228 279 339
#     4  10  19  34  57  82 109 144 188 230 277 336
#     4  10  18  33  57  80 104 139 185 231 276 330
#
# _framework density 18.911441
#
# number of rings (size 3 to 8) (size 9 to 14) (size 15 to 20)
#    0.000    2.000    2.500    3.000    0.000    1.000 
#    0.000    1.875    0.000    1.500    0.000    0.000 
#    0.000    0.000    0.000    0.000    0.000    0.000 
#
# Total GULP energy -396785.430076 kJ/mol
# GULP energy per Si atom -12399.544690 kJ/mol
# Density = 1.886840 g / cm^3
# Si number density = 18.911441 Si / 1000 Ang^3
#
#
#
# Elastic Constant Matrix: (Units=GPa)
#
#
# Indices 1 2 3 4 5 6 
#
# 1 33.3113 13.0416 20.4406 0.0000 0.0000 0.0000
# 2 13.0416 93.5079 58.3810 0.0000 0.0000 0.0000
# 3 20.4406 58.3810 162.3867 0.0000 0.0000 0.0000
# 4 0.0000 0.0000 0.0000 30.6726 0.0000 0.0000
# 5 0.0000 0.0000 0.0000 0.0000 29.8166 0.0000
# 6 0.0000 0.0000 0.0000 0.0000 0.0000 17.5144
#
#
#
# Elastic Compliance Matrix: (Units=1/GPa)
#
#
# Indices 1 2 3 4 5 6 
#
# 1 0.033013 -0.002592 -0.003224 0.000000 0.000000 0.000000
# 2 -0.002592 0.013993 -0.004705 0.000000 0.000000 0.000000
# 3 -0.003224 -0.004705 0.008255 0.000000 0.000000 0.000000
# 4 0.000000 0.000000 0.000000 0.032602 0.000000 0.000000
# 5 0.000000 0.000000 0.000000 0.000000 0.033538 0.000000
# 6 0.000000 0.000000 0.000000 0.000000 0.000000 0.057096
#
#
# Mechanical properties :
#
#
# Convention : Reuss Voigt Hill
#
# Bulk Modulus (GPa) = 29.22166 52.54805 40.88486
# Shear Modulus (GPa) = 23.70293 28.75690 26.22992
#
# Velocity S-wave (km/s) = 3.54413 3.90373 3.72827
# Velocity P-wave (km/s) = 5.67743 6.94014 6.34030
#
# Compressibility (1/GPa) = 0.03422119
#
# Stress axis : x y z
#
# Youngs Moduli (GPa) = 30.29144 71.46453 121.13434
#
# Poissons Ratio (x) = 0.18520 0.39051
# Poissons Ratio (y) = 0.07850 0.56988
# Poissons Ratio (z) = 0.09765 0.33621
#
# Static dielectric constant tensor:
#      x y z
#    x 3.216550 0.000000 0.000000 
#    y 0.000000 3.324510 0.000000 
#    z 0.000000 0.000000 3.915170 
# 
# 
# High freq. dielectric constant tensor:
#      x y z
#    x 1.720890 0.000000 0.000000 
#    y 0.000000 1.698460 0.000000 
#    z 0.000000 0.000000 1.756150 
# 
# From -- ./inp_files/15619.got.cif
#   From: 2010.03.12/outbox.cif.g09.slc.cpg/sg36_8_cif.got.tgz:15619.got - 2010.04.14 02:13:53.
