data_PCOD8174578
_publ_section_title
;
Structure prediction by ZEFSAII (Michael W. Deem and Ramdas Pophale) SiO2 
 PCOD8174578
Probable space group: C M C 21
;
_chemical_formula_sum "Si O2"
_cell_formula_units_Z 64
_cell_length_a 8.982998
_cell_length_b 19.999275
_cell_length_c 19.871168
_cell_angle_alpha 90.000000
_cell_angle_beta 90.000000
_cell_angle_gamma 90.000000
_cell_volume 3569.923834
_symmetry_space_group_name_H-M "C M C 21"
_symmetry_group_IT_number 36
_symmetry_cell_setting 'orthorhombic'
loop_
_space_group_symop_operation_xyz
x,y,z
-x,-y,1/2+z
x,-y,1/2+z
-x,y,z
1/2+x,1/2+y,z
1/2-x,1/2-y,1/2+z
1/2+x,1/2-y,1/2+z
1/2-x,1/2+y,z
loop_
_atom_site_type_symbol
_atom_site_label
_atom_site_fract_x
_atom_site_fract_y
_atom_site_fract_z
Si Si1 0.670684 0.556882 0.765030
Si Si2 0.823156 0.724630 0.598143
Si Si3 0.324931 0.411734 0.112143
Si Si4 0.674534 0.731700 0.243954
Si Si5 0.823785 0.662993 0.849594
Si Si6 0.327274 0.828984 0.501653
Si Si7 0.328274 0.044525 0.087957
Si Si8 0.327753 0.414647 0.720375
O O1 0.500000 0.573924 0.779660
O O2 0.716531 0.582322 0.690904
O O3 0.769197 0.591941 0.821527
O O4 0.701278 0.477195 0.769760
O O5 0.754015 0.652733 0.580509
O O6 0.761420 0.747421 0.671169
O O7 0.771414 0.777728 0.543383
O O8 0.000000 0.719817 0.596611
O O9 0.500000 0.406785 0.100383
O O10 0.264772 0.477284 0.073658
O O11 0.500000 0.744080 0.242879
O O12 0.743912 0.777656 0.302831
O O13 0.711809 0.654009 0.259179
O O14 0.000000 0.661973 0.848188
O O15 0.768060 0.674221 0.925273
O O16 0.500000 0.808076 0.507897
O O17 0.303766 0.904863 0.526332
O O18 0.500000 0.024922 0.096930
O O19 0.273783 0.081817 0.154845
O O20 0.500000 0.415113 0.696122
#
# Coordination Sequence:
#
# PCOD8174578 Si02
#       8
#     8   8   8   8   8   8   8   8
#     4   9  18  31  50  76 105 134 170 222 270 313
#     4  11  20  33  57  84 109 142 183 227 270 323
#     4  10  20  34  54  80 110 138 172 225 278 323
#     4   9  17  31  54  80 104 138 181 221 262 316
#     4  10  20  36  55  75 107 147 183 218 268 331
#     4  10  22  37  53  77 112 151 183 224 276 324
#     4  10  19  32  51  77 106 139 180 221 265 319
#     4   9  17  32  52  77 105 133 172 222 271 313
#
# _framework density 17.927553
#
# number of rings (size 3 to 8) (size 9 to 14) (size 15 to 20)
#    0.000    2.250    2.500    1.875    0.000    3.000 
#    0.000    1.875    0.000    1.500    0.000    0.000 
#    0.000    0.000    0.000    0.000    0.000    0.000 
#
# Total GULP energy -396808.253645 kJ/mol
# GULP energy per Si atom -12400.257926 kJ/mol
# Density = 1.788675 g / cm^3
# Si number density = 17.927553 Si / 1000 Ang^3
#
#
#
# Elastic Constant Matrix: (Units=GPa)
#
#
# Indices 1 2 3 4 5 6 
#
# 1 63.0486 45.5958 38.7320 0.0000 0.0000 0.0000
# 2 45.5958 141.3612 62.8130 0.0000 0.0000 0.0000
# 3 38.7320 62.8130 110.3325 0.0000 0.0000 0.0000
# 4 0.0000 0.0000 0.0000 25.6521 0.0000 0.0000
# 5 0.0000 0.0000 0.0000 0.0000 22.0254 0.0000
# 6 0.0000 0.0000 0.0000 0.0000 0.0000 29.4179
#
#
#
# Elastic Compliance Matrix: (Units=1/GPa)
#
#
# Indices 1 2 3 4 5 6 
#
# 1 0.022623 -0.005044 -0.005070 0.000000 0.000000 0.000000
# 2 -0.005044 0.010594 -0.004261 0.000000 0.000000 0.000000
# 3 -0.005070 -0.004261 0.013269 0.000000 0.000000 0.000000
# 4 0.000000 0.000000 0.000000 0.038983 0.000000 0.000000
# 5 0.000000 0.000000 0.000000 0.000000 0.045402 0.000000
# 6 0.000000 0.000000 0.000000 0.000000 0.000000 0.033993
#
#
# Mechanical properties :
#
#
# Convention : Reuss Voigt Hill
#
# Bulk Modulus (GPa) = 56.38061 67.66932 62.02496
# Shear Modulus (GPa) = 25.05924 26.59251 25.82587
#
# Velocity S-wave (km/s) = 3.74278 3.85558 3.79960
# Velocity P-wave (km/s) = 7.08486 7.59267 7.34316
#
# Compressibility (1/GPa) = 0.01773659
#
# Stress axis : x y z
#
# Youngs Moduli (GPa) = 44.20195 94.39072 75.36372
#
# Poissons Ratio (x) = 0.47613 0.38211
# Poissons Ratio (y) = 0.22297 0.32110
# Poissons Ratio (z) = 0.22411 0.40216
#
# Static dielectric constant tensor:
#      x y z
#    x 3.185140 0.000000 0.000000 
#    y 0.000000 3.504560 0.000000 
#    z 0.000000 0.000000 3.190560 
# 
# 
# High freq. dielectric constant tensor:
#      x y z
#    x 1.685080 0.000000 0.000000 
#    y 0.000000 1.709710 0.000000 
#    z 0.000000 0.000000 1.662470 
# 
# From -- ./inp_files/13845.got.cif
#   From: 2010.03.12/outbox.cif.g09.slc.cpg/sg36_7_cif.got.tgz:13845.got - 2010.04.14 02:13:53.
