data_PCOD8174048
_publ_section_title
;
Structure prediction by ZEFSAII (Michael W. Deem and Ramdas Pophale) SiO2 
 PCOD8174048
Probable space group: C M M 2
;
_chemical_formula_sum "Si O2"
_cell_formula_units_Z 48
_cell_length_a 14.965553
_cell_length_b 8.702456
_cell_length_c 19.011531
_cell_angle_alpha 90.000000
_cell_angle_beta 90.000000
_cell_angle_gamma 90.000000
_cell_volume 2476.006027
_symmetry_space_group_name_H-M "C M M 2"
_symmetry_group_IT_number 35
_symmetry_cell_setting 'orthorhombic'
loop_
_space_group_symop_operation_xyz
x,y,z
-x,-y,z
-x,y,z
x,-y,z
1/2+x,1/2+y,z
1/2-x,1/2-y,z
1/2-x,1/2+y,z
1/2+x,1/2-y,z
loop_
_atom_site_type_symbol
_atom_site_label
_atom_site_fract_x
_atom_site_fract_y
_atom_site_fract_z
Si Si1 0.150203 0.818146 0.292030
Si Si2 0.840023 0.318806 0.934573
Si Si3 0.841996 0.319094 0.645206
Si Si4 0.500000 0.319165 0.187321
Si Si5 0.605042 0.323014 0.788647
Si Si6 0.500000 0.178406 0.035806
Si Si7 0.500000 0.682258 0.556507
Si Si8 0.500000 0.682196 0.398202
O O1 0.250000 0.750000 0.292272
O O2 0.091560 0.760055 0.224780
O O3 0.091432 0.763089 0.359499
O O4 0.161704 0.000000 0.291367
O O5 0.835665 0.500000 0.921650
O O6 0.750000 0.250000 0.967733
O O7 0.854878 0.234635 0.861160
O O8 0.915047 0.274046 0.990195
O O9 0.844884 0.500000 0.635428
O O10 0.750000 0.250000 0.617352
O O11 0.854519 0.278807 0.726834
O O12 0.914750 0.241789 0.596823
O O13 0.500000 0.500000 0.195163
O O14 0.500000 0.272826 0.106833
O O15 0.500000 0.299703 0.790218
O O16 0.631800 0.500000 0.776404
O O17 0.500000 0.000000 0.055093
O O18 0.500000 0.500000 0.557735
O O19 0.500000 0.747962 0.477186
O O20 0.500000 0.500000 0.397978
#
# Coordination Sequence:
#
# PCOD8174048 Si02
#       8
#     8   8   8   4   8   4   4   4
#     4   9  18  36  60  88 116 150 189 229 277 332
#     4  11  23  40  59  83 114 150 193 241 293 347
#     4  12  25  41  61  85 117 156 198 246 296 351
#     4   9  20  37  58  82 116 153 188 227 278 340
#     4  11  22  38  62  87 113 148 194 245 296 351
#     4  10  23  40  58  81 116 152 189 236 284 338
#     4  11  22  40  62  87 120 156 194 241 294 350
#     4   8  18  37  60  84 118 155 187 228 282 340
#
# _framework density 19.386061000000002
#
# number of rings (size 3 to 8) (size 9 to 14) (size 15 to 20)
#    0.000    1.667    1.667    4.250    0.000    4.000 
#    0.000    7.917    0.000    0.000    0.000    0.000 
#    0.000    0.000    0.000    0.000    0.000    0.000 
#
# Total GULP energy -297593.009664 kJ/mol
# GULP energy per Si atom -12399.708736 kJ/mol
# Density = 1.934194 g / cm^3
# Si number density = 19.386061 Si / 1000 Ang^3
#
#
#
# Elastic Constant Matrix: (Units=GPa)
#
#
# Indices 1 2 3 4 5 6 
#
# 1 177.1657 46.9787 66.9679 0.0000 0.0000 0.0000
# 2 46.9787 59.0057 18.4750 0.0000 0.0000 0.0000
# 3 66.9679 18.4750 120.4357 0.0000 0.0000 0.0000
# 4 0.0000 0.0000 0.0000 40.7957 0.0000 0.0000
# 5 0.0000 0.0000 0.0000 0.0000 40.2158 0.0000
# 6 0.0000 0.0000 0.0000 0.0000 0.0000 30.6394
#
#
#
# Elastic Compliance Matrix: (Units=1/GPa)
#
#
# Indices 1 2 3 4 5 6 
#
# 1 0.008625 -0.005636 -0.003931 0.000000 0.000000 0.000000
# 2 -0.005636 0.021485 -0.000162 0.000000 0.000000 0.000000
# 3 -0.003931 -0.000162 0.010514 0.000000 0.000000 0.000000
# 4 0.000000 0.000000 0.000000 0.024512 0.000000 0.000000
# 5 0.000000 0.000000 0.000000 0.000000 0.024866 0.000000
# 6 0.000000 0.000000 0.000000 0.000000 0.000000 0.032638
#
#
# Mechanical properties :
#
#
# Convention : Reuss Voigt Hill
#
# Bulk Modulus (GPa) = 47.24606 69.05003 58.14805
# Shear Modulus (GPa) = 33.52232 37.27587 35.39909
#
# Velocity S-wave (km/s) = 4.16287 4.38975 4.27782
# Velocity P-wave (km/s) = 6.89421 7.83511 7.37967
#
# Compressibility (1/GPa) = 0.02116579
#
# Stress axis : x y z
#
# Youngs Moduli (GPa) = 115.94274 46.54308 95.11106
#
# Poissons Ratio (x) = 0.26232 0.37391
# Poissons Ratio (y) = 0.65346 0.01541
# Poissons Ratio (z) = 0.45581 0.00754
#
# Static dielectric constant tensor:
#      x y z
#    x 3.820160 0.000000 0.000000 
#    y 0.000000 3.428140 0.000000 
#    z 0.000000 0.000000 3.650560 
# 
# 
# High freq. dielectric constant tensor:
#      x y z
#    x 1.774700 0.000000 0.000000 
#    y 0.000000 1.750110 0.000000 
#    z 0.000000 0.000000 1.753270 
# 
# From -- ./inp_files/17980.got.cif
#   From: 2010.03.12/outbox.cif.g09.slc.cpg/sg35_9_cif.got.tgz:17980.got - 2010.04.14 02:02:04.
