data_PCOD8174051
_publ_section_title
;
Structure prediction by ZEFSAII (Michael W. Deem and Ramdas Pophale) SiO2 
 PCOD8174051
Probable space group: C M M 2
;
_chemical_formula_sum "Si O2"
_cell_formula_units_Z 56
_cell_length_a 8.910575
_cell_length_b 21.495095
_cell_length_c 14.708325
_cell_angle_alpha 90.000000
_cell_angle_beta 90.000000
_cell_angle_gamma 90.000000
_cell_volume 2817.139263
_symmetry_space_group_name_H-M "C M M 2"
_symmetry_group_IT_number 35
_symmetry_cell_setting 'orthorhombic'
loop_
_space_group_symop_operation_xyz
x,y,z
-x,-y,z
-x,y,z
x,-y,z
1/2+x,1/2+y,z
1/2-x,1/2-y,z
1/2-x,1/2+y,z
1/2+x,1/2-y,z
loop_
_atom_site_type_symbol
_atom_site_label
_atom_site_fract_x
_atom_site_fract_y
_atom_site_fract_z
Si Si1 0.169619 0.383173 0.476520
Si Si2 0.673554 0.500000 0.512749
Si Si3 0.177341 0.072485 0.191544
Si Si4 0.173722 0.315219 0.299966
Si Si5 0.677736 0.383584 0.801659
Si Si6 0.822795 0.068388 0.988907
Si Si7 0.327172 0.810221 0.655672
Si Si8 0.678026 0.000000 0.705016
O O1 0.285569 0.438849 0.453917
O O2 0.198627 0.325797 0.407945
O O3 0.195108 0.363751 0.581047
O O4 0.000000 0.407427 0.463042
O O5 0.500000 0.500000 0.539411
O O6 0.779622 0.500000 0.599874
O O7 0.260243 0.122959 0.253182
O O8 0.000000 0.081192 0.203563
O O9 0.220320 0.000000 0.214179
O O10 0.231310 0.089302 0.088674
O O11 0.250000 0.250000 0.270690
O O12 0.000000 0.309585 0.273660
O O13 0.500000 0.387105 0.788999
O O14 0.724122 0.383619 0.908756
O O15 0.743614 0.323486 0.751282
O O16 0.754117 0.440878 0.753055
O O17 0.000000 0.062446 0.991980
O O18 0.756218 0.000000 0.965457
O O19 0.500000 0.797927 0.676624
O O20 0.250000 0.750000 0.612713
O O21 0.500000 0.000000 0.714180
#
# Coordination Sequence:
#
# PCOD8174051 Si02
#       8
#     8   4   8   8   8   8   8   4
#     4  10  23  41  60  83 119 156 189 242 303 351
#     4  12  24  36  58  89 118 155 200 241 286 348
#     4   9  19  38  64  92 123 157 195 247 306 363
#     4  11  24  42  64  89 119 159 203 250 302 362
#     4  11  20  34  58  86 114 149 195 240 283 343
#     4   8  15  31  57  87 117 149 188 237 295 349
#     4  11  23  39  57  78 111 155 198 242 292 347
#     4  12  22  34  52  81 120 155 186 229 284 334
#
# _framework density 19.878322000000001
#
# number of rings (size 3 to 8) (size 9 to 14) (size 15 to 20)
#    0.000    1.714    2.143    3.857    1.000    2.000 
#    0.000    2.143    0.000    0.000    0.000    0.000 
#    0.000    0.000    0.000    0.000    0.000    0.000 
#
# Total GULP energy -347045.867631 kJ/mol
# GULP energy per Si atom -12394.495273 kJ/mol
# Density = 1.983308 g / cm^3
# Si number density = 19.878322 Si / 1000 Ang^3
#
#
#
# Elastic Constant Matrix: (Units=GPa)
#
#
# Indices 1 2 3 4 5 6 
#
# 1 110.3996 57.3791 40.1393 0.0000 0.0000 0.0000
# 2 57.3791 107.9572 35.7769 0.0000 0.0000 0.0000
# 3 40.1393 35.7769 92.9303 0.0000 0.0000 0.0000
# 4 0.0000 0.0000 0.0000 -80.5675 0.0000 0.0000
# 5 0.0000 0.0000 0.0000 0.0000 21.3239 0.0000
# 6 0.0000 0.0000 0.0000 0.0000 0.0000 34.6621
#
#
#
# Elastic Compliance Matrix: (Units=1/GPa)
#
#
# Indices 1 2 3 4 5 6 
#
# 1 0.013441 -0.005983 -0.003502 0.000000 0.000000 0.000000
# 2 -0.005983 0.013281 -0.002529 0.000000 0.000000 0.000000
# 3 -0.003502 -0.002529 0.013247 0.000000 0.000000 0.000000
# 4 0.000000 0.000000 0.000000 -0.012412 0.000000 0.000000
# 5 0.000000 0.000000 0.000000 0.000000 0.046896 0.000000
# 6 0.000000 0.000000 0.000000 0.000000 0.000000 0.028850
#
#
# Mechanical properties :
#
#
# Convention : Reuss Voigt Hill
#
# Bulk Modulus (GPa) = 62.73174 64.20863 63.47018
# Shear Modulus (GPa) = 37.69473 6.94982 22.32227
#
# Velocity S-wave (km/s) = 4.35935 1.87184 3.35467
# Velocity P-wave (km/s) = 7.54751 6.08627 6.85593
#
# Compressibility (1/GPa) = 0.01594089
#
# Stress axis : x y z
#
# Youngs Moduli (GPa) = 74.39887 75.29530 75.48937
#
# Poissons Ratio (x) = 0.45052 0.26437
# Poissons Ratio (y) = 0.44515 0.19089
# Poissons Ratio (z) = 0.26055 0.19040
#
# Static dielectric constant tensor:
#      x y z
#    x 3.477930 0.000000 0.000000 
#    y 0.000000 15.379380 0.000000 
#    z 0.000000 0.000000 3.861590 
# 
# 
# High freq. dielectric constant tensor:
#      x y z
#    x 1.765850 0.000000 0.000000 
#    y 0.000000 1.767210 0.000000 
#    z 0.000000 0.000000 1.776800 
# 
# From -- ./inp_files/15801.got.cif
#   From: 2010.03.12/outbox.cif.g09.slc.cpg/sg35_8_cif.got.tgz:15801.got - 2010.04.14 02:02:04.
