data_PCOD8174652
_publ_section_title
;
Structure prediction by ZEFSAII (Michael W. Deem and Ramdas Pophale) SiO2 
 PCOD8174652
Probable space group: C M C 21
;
_chemical_formula_sum "Si O2"
_cell_formula_units_Z 64
_cell_length_a 8.851227
_cell_length_b 28.909122
_cell_length_c 14.153408
_cell_angle_alpha 90.000000
_cell_angle_beta 90.000000
_cell_angle_gamma 90.000000
_cell_volume 3621.591040
_symmetry_space_group_name_H-M "C M C 21"
_symmetry_group_IT_number 36
_symmetry_cell_setting 'orthorhombic'
loop_
_space_group_symop_operation_xyz
x,y,z
-x,-y,1/2+z
x,-y,1/2+z
-x,y,z
1/2+x,1/2+y,z
1/2-x,1/2-y,1/2+z
1/2+x,1/2-y,1/2+z
1/2-x,1/2+y,z
loop_
_atom_site_type_symbol
_atom_site_label
_atom_site_fract_x
_atom_site_fract_y
_atom_site_fract_z
Si Si1 0.670309 0.004345 0.060850
Si Si2 0.679793 0.260993 0.585245
Si Si3 0.678781 0.927236 0.401022
Si Si4 0.322703 0.681833 0.465950
Si Si5 0.677824 0.449136 0.206957
Si Si6 0.329684 0.096784 0.545348
Si Si7 0.176819 0.243591 0.295972
Si Si8 0.821041 0.677722 0.933490
O O1 0.500000 0.015927 0.094157
O O2 0.773939 0.997409 0.154606
O O3 0.671343 0.955420 0.002703
O O4 0.732693 0.044889 0.994002
O O5 0.500000 0.262883 0.581774
O O6 0.736434 0.213022 0.541823
O O7 0.746044 0.263023 0.692034
O O8 0.745394 0.305236 0.530437
O O9 0.500000 0.931979 0.386048
O O10 0.762739 0.949954 0.313051
O O11 0.730130 0.874397 0.413107
O O12 0.500000 0.685453 0.485774
O O13 0.266055 0.629401 0.476182
O O14 0.283464 0.699040 0.360255
O O15 0.500000 0.443414 0.205701
O O16 0.753754 0.405905 0.150210
O O17 0.500000 0.115982 0.555921
O O18 0.238324 0.289956 0.347641
O O19 0.000000 0.249560 0.284241
O O20 0.000000 0.682083 0.946096
#
# Coordination Sequence:
#
# PCOD8174652 Si02
#       8
#     8   8   8   8   8   8   8   8
#     4   8  18  35  53  75 105 139 177 218 265 320
#     4  10  19  33  52  74 105 143 178 217 265 322
#     4  10  19  35  59  80 105 144 182 223 271 321
#     4  10  19  33  52  76 103 135 175 221 267 315
#     4  10  20  33  52  81 109 135 172 219 269 316
#     4   9  18  34  53  75 102 133 171 214 260 316
#     4   8  17  32  49  71 102 139 174 209 264 321
#     4   9  19  35  54  78 105 138 179 223 269 315
#
# _framework density 17.671790999999999
#
# number of rings (size 3 to 8) (size 9 to 14) (size 15 to 20)
#    0.750    2.000    0.000    2.625    1.750    1.000 
#    0.000    7.500    0.000    4.500    0.000    0.000 
#    0.000    0.000    0.000    0.000    0.000    0.000 
#
# Total GULP energy -396585.185686 kJ/mol
# GULP energy per Si atom -12393.287053 kJ/mol
# Density = 1.763157 g / cm^3
# Si number density = 17.671791 Si / 1000 Ang^3
#
#
#
# Elastic Constant Matrix: (Units=GPa)
#
#
# Indices 1 2 3 4 5 6 
#
# 1 64.1147 25.6513 39.1660 0.0000 0.0000 0.0000
# 2 25.6513 70.5309 43.8304 0.0000 0.0000 0.0000
# 3 39.1660 43.8304 128.9387 0.0000 0.0000 0.0000
# 4 0.0000 0.0000 0.0000 22.6398 0.0000 0.0000
# 5 0.0000 0.0000 0.0000 0.0000 26.2958 0.0000
# 6 0.0000 0.0000 0.0000 0.0000 0.0000 24.7158
#
#
#
# Elastic Compliance Matrix: (Units=1/GPa)
#
#
# Indices 1 2 3 4 5 6 
#
# 1 0.020210 -0.004482 -0.004615 0.000000 0.000000 0.000000
# 2 -0.004482 0.018969 -0.005087 0.000000 0.000000 0.000000
# 3 -0.004615 -0.005087 0.010887 0.000000 0.000000 0.000000
# 4 0.000000 0.000000 0.000000 0.044170 0.000000 0.000000
# 5 0.000000 0.000000 0.000000 0.000000 0.038029 0.000000
# 6 0.000000 0.000000 0.000000 0.000000 0.000000 0.040460
#
#
# Mechanical properties :
#
#
# Convention : Reuss Voigt Hill
#
# Bulk Modulus (GPa) = 46.08812 53.43107 49.75960
# Shear Modulus (GPa) = 24.00097 25.05940 24.53019
#
# Velocity S-wave (km/s) = 3.68931 3.76978 3.72976
# Velocity P-wave (km/s) = 6.65467 7.01778 6.83863
#
# Compressibility (1/GPa) = 0.02169756
#
# Stress axis : x y z
#
# Youngs Moduli (GPa) = 49.48163 52.71652 91.85503
#
# Poissons Ratio (x) = 0.23627 0.42393
# Poissons Ratio (y) = 0.22177 0.46726
# Poissons Ratio (z) = 0.22837 0.26816
#
# Static dielectric constant tensor:
#      x y z
#    x 3.137900 0.000000 0.000000 
#    y 0.000000 3.213910 0.000000 
#    z 0.000000 0.000000 3.297450 
# 
# 
# High freq. dielectric constant tensor:
#      x y z
#    x 1.676160 0.000000 0.000000 
#    y 0.000000 1.670550 0.000000 
#    z 0.000000 0.000000 1.673010 
# 
# From -- ./inp_files/11200.got.cif
#   From: 2010.03.12/outbox.cif.g09.slc.cpg/sg36_6_cif.got.tgz:11200.got - 2010.04.14 02:13:53.
