data_PCOD8174384
_publ_section_title
;
Structure prediction by ZEFSAII (Michael W. Deem and Ramdas Pophale) SiO2 
 PCOD8174384
Probable space group: C M C 21
;
_chemical_formula_sum "Si O2"
_cell_formula_units_Z 64
_cell_length_a 9.037743
_cell_length_b 20.709051
_cell_length_c 19.244911
_cell_angle_alpha 90.000000
_cell_angle_beta 90.000000
_cell_angle_gamma 90.000000
_cell_volume 3601.936831
_symmetry_space_group_name_H-M "C M C 21"
_symmetry_group_IT_number 36
_symmetry_cell_setting 'orthorhombic'
loop_
_space_group_symop_operation_xyz
x,y,z
-x,-y,1/2+z
x,-y,1/2+z
-x,y,z
1/2+x,1/2+y,z
1/2-x,1/2-y,1/2+z
1/2+x,1/2-y,1/2+z
1/2-x,1/2+y,z
loop_
_atom_site_type_symbol
_atom_site_label
_atom_site_fract_x
_atom_site_fract_y
_atom_site_fract_z
Si Si1 0.673371 0.064812 0.977060
Si Si2 0.174028 0.306481 0.398328
Si Si3 0.175537 0.182978 0.485272
Si Si4 0.171482 0.753865 0.120026
Si Si5 0.173107 0.943167 0.910899
Si Si6 0.326205 0.385123 0.765151
Si Si7 0.175098 0.390961 0.626235
Si Si8 0.327279 0.251708 0.274523
O O1 0.500000 0.055173 0.968342
O O2 0.724190 0.131685 0.942233
O O3 0.753024 0.007933 0.937190
O O4 0.715630 0.065802 0.059075
O O5 0.226646 0.242808 0.438524
O O6 0.259647 0.305670 0.325119
O O7 0.000000 0.306845 0.384150
O O8 0.238906 0.196535 0.563191
O O9 0.241945 0.116694 0.454797
O O10 0.000000 0.177211 0.483507
O O11 0.235878 0.681516 0.112495
O O12 0.199306 0.780324 0.197285
O O13 0.000000 0.747568 0.101502
O O14 0.205917 0.933313 0.829170
O O15 0.000000 0.949066 0.924668
O O16 0.500000 0.374205 0.754786
O O17 0.256613 0.417126 0.695536
O O18 0.253974 0.316514 0.783325
O O19 0.000000 0.390576 0.640769
O O20 0.500000 0.240716 0.288928
#
# Coordination Sequence:
#
# PCOD8174384 Si02
#       8
#     8   8   8   8   8   8   8   8
#     4  10  21  36  56  79 107 144 180 220 268 320
#     4  10  18  33  56  77 101 137 178 214 259 316
#     4   9  15  30  54  75  97 131 175 214 253 311
#     4   8  14  27  50  76 100 129 170 212 257 311
#     4  10  21  35  53  77 107 142 178 220 263 313
#     4  10  19  33  53  78 106 141 181 219 264 320
#     4   9  17  32  54  79 103 133 175 223 271 318
#     4  10  19  30  50  81 111 137 171 222 271 313
#
# _framework density 17.768218999999998
#
# number of rings (size 3 to 8) (size 9 to 14) (size 15 to 20)
#    0.000    2.500    2.500    1.500    0.000    2.000 
#    0.000    1.250    0.000    8.250    0.000    0.000 
#    0.000    0.000    0.000    0.000    0.000    0.000 
#
# Total GULP energy -396660.281368 kJ/mol
# GULP energy per Si atom -12395.633793 kJ/mol
# Density = 1.772778 g / cm^3
# Si number density = 17.768219 Si / 1000 Ang^3
#
#
#
# Elastic Constant Matrix: (Units=GPa)
#
#
# Indices 1 2 3 4 5 6 
#
# 1 52.6208 37.8032 55.8696 0.0000 0.0000 0.0000
# 2 37.8032 88.8363 60.8451 0.0000 0.0000 0.0000
# 3 55.8696 60.8451 150.7799 0.0000 0.0000 0.0000
# 4 0.0000 0.0000 0.0000 29.4620 0.0000 0.0000
# 5 0.0000 0.0000 0.0000 0.0000 29.8157 0.0000
# 6 0.0000 0.0000 0.0000 0.0000 0.0000 24.2158
#
#
#
# Elastic Compliance Matrix: (Units=1/GPa)
#
#
# Indices 1 2 3 4 5 6 
#
# 1 0.035339 -0.008388 -0.009710 0.000000 0.000000 0.000000
# 2 -0.008388 0.017547 -0.003973 0.000000 0.000000 0.000000
# 3 -0.009710 -0.003973 0.011833 0.000000 0.000000 0.000000
# 4 0.000000 0.000000 0.000000 0.033942 0.000000 0.000000
# 5 0.000000 0.000000 0.000000 0.000000 0.033539 0.000000
# 6 0.000000 0.000000 0.000000 0.000000 0.000000 0.041295
#
#
# Mechanical properties :
#
#
# Convention : Reuss Voigt Hill
#
# Bulk Modulus (GPa) = 48.59438 66.80810 57.70124
# Shear Modulus (GPa) = 22.27215 25.87997 24.07606
#
# Velocity S-wave (km/s) = 3.54430 3.82059 3.68504
# Velocity P-wave (km/s) = 6.64513 7.55936 7.11694
#
# Compressibility (1/GPa) = 0.02057851
#
# Stress axis : x y z
#
# Youngs Moduli (GPa) = 28.29753 56.98968 84.50844
#
# Poissons Ratio (x) = 0.47802 0.82054
# Poissons Ratio (y) = 0.23735 0.33574
# Poissons Ratio (z) = 0.27476 0.22641
#
# Static dielectric constant tensor:
#      x y z
#    x 3.041580 0.000000 0.000000 
#    y 0.000000 3.129380 0.000000 
#    z 0.000000 0.000000 3.661730 
# 
# 
# High freq. dielectric constant tensor:
#      x y z
#    x 1.661610 0.000000 0.000000 
#    y 0.000000 1.657940 0.000000 
#    z 0.000000 0.000000 1.707350 
# 
# From -- ./inp_files/15655.got.cif
#   From: 2010.03.12/outbox.cif.g09.slc.cpg/sg36_8_cif.got.tgz:15655.got - 2010.04.14 02:13:53.
