data_PCOD8174893
_publ_section_title
;
Structure prediction by ZEFSAII (Michael W. Deem and Ramdas Pophale) SiO2 
 PCOD8174893
Probable space group: C M C 21
;
_chemical_formula_sum "Si O2"
_cell_formula_units_Z 64
_cell_length_a 8.990102
_cell_length_b 24.235480
_cell_length_c 14.324102
_cell_angle_alpha 90.000000
_cell_angle_beta 90.000000
_cell_angle_gamma 90.000000
_cell_volume 3120.927282
_symmetry_space_group_name_H-M "C M C 21"
_symmetry_group_IT_number 36
_symmetry_cell_setting 'orthorhombic'
loop_
_space_group_symop_operation_xyz
x,y,z
-x,-y,1/2+z
x,-y,1/2+z
-x,y,z
1/2+x,1/2+y,z
1/2-x,1/2-y,1/2+z
1/2+x,1/2-y,1/2+z
1/2-x,1/2+y,z
loop_
_atom_site_type_symbol
_atom_site_label
_atom_site_fract_x
_atom_site_fract_y
_atom_site_fract_z
Si Si1 0.175401 0.939957 0.456800
Si Si2 0.174294 0.707652 0.738465
Si Si3 0.333602 0.720221 0.548929
Si Si4 0.168876 0.656358 0.051334
Si Si5 0.668789 0.816741 0.754018
Si Si6 0.173738 0.466384 0.069162
Si Si7 0.323858 0.917049 0.269642
Si Si8 0.832748 0.634752 0.441880
O O1 0.219973 0.878864 0.488806
O O2 0.246090 0.950554 0.354116
O O3 0.000000 0.946520 0.448698
O O4 0.236132 0.979880 0.538262
O O5 0.215937 0.709731 0.630182
O O6 0.250533 0.760369 0.788505
O O7 0.224457 0.647432 0.776481
O O8 0.000000 0.714321 0.750912
O O9 0.500000 0.706066 0.583639
O O10 0.327306 0.782192 0.509234
O O11 0.287544 0.680597 0.465984
O O12 0.231949 0.658576 0.157488
O O13 0.000000 0.632346 0.046620
O O14 0.500000 0.798284 0.733398
O O15 0.676748 0.866251 0.829257
O O16 0.226550 0.443319 0.170076
O O17 0.000000 0.480827 0.072208
O O18 0.211361 0.422789 0.987735
O O19 0.500000 0.922885 0.280689
O O20 0.000000 0.651119 0.474098
#
# Coordination Sequence:
#
# PCOD8174893 Si02
#       8
#     8   8   8   8   8   8   8   8
#     4  12  27  42  62  94 125 159 205 262 318 361
#     4  10  19  35  59  88 122 159 207 251 297 362
#     4  10  20  34  57  88 123 160 199 248 307 359
#     4   9  20  40  59  83 123 168 209 246 298 370
#     4   9  20  36  58  91 128 164 202 250 309 365
#     4  10  22  44  68  89 119 164 212 255 302 365
#     4  10  22  42  66  90 119 161 209 251 299 372
#     4  10  20  37  61  91 123 159 205 249 300 366
#
# _framework density 20.506724999999999
#
# number of rings (size 3 to 8) (size 9 to 14) (size 15 to 20)
#    0.000    2.000    1.250    2.625    1.750    6.000 
#    0.000    2.500    0.000    0.000    0.000    0.000 
#    0.000    0.000    0.000    0.000    0.000    0.000 
#
# Total GULP energy -396671.744935 kJ/mol
# GULP energy per Si atom -12395.992029 kJ/mol
# Density = 2.046005 g / cm^3
# Si number density = 20.506725 Si / 1000 Ang^3
#
#
#
# Elastic Constant Matrix: (Units=GPa)
#
#
# Indices 1 2 3 4 5 6 
#
# 1 63.9688 34.5273 27.9731 0.0000 0.0000 0.0000
# 2 34.5273 68.3642 29.9933 0.0000 0.0000 0.0000
# 3 27.9731 29.9933 73.3958 0.0000 0.0000 0.0000
# 4 0.0000 0.0000 0.0000 33.2776 0.0000 0.0000
# 5 0.0000 0.0000 0.0000 0.0000 27.0485 0.0000
# 6 0.0000 0.0000 0.0000 0.0000 0.0000 32.6796
#
#
#
# Elastic Compliance Matrix: (Units=1/GPa)
#
#
# Indices 1 2 3 4 5 6 
#
# 1 0.022831 -0.009398 -0.004861 0.000000 0.000000 0.000000
# 2 -0.009398 0.021692 -0.005282 0.000000 0.000000 0.000000
# 3 -0.004861 -0.005282 0.017636 0.000000 0.000000 0.000000
# 4 0.000000 0.000000 0.000000 0.030050 0.000000 0.000000
# 5 0.000000 0.000000 0.000000 0.000000 0.036971 0.000000
# 6 0.000000 0.000000 0.000000 0.000000 0.000000 0.030600
#
#
# Mechanical properties :
#
#
# Convention : Reuss Voigt Hill
#
# Bulk Modulus (GPa) = 43.33574 43.41291 43.37433
# Shear Modulus (GPa) = 24.20670 26.15016 25.17843
#
# Velocity S-wave (km/s) = 3.43946 3.57487 3.50782
# Velocity P-wave (km/s) = 6.07878 6.18511 6.13217
#
# Compressibility (1/GPa) = 0.02307564
#
# Stress axis : x y z
#
# Youngs Moduli (GPa) = 43.80022 46.10079 56.70209
#
# Poissons Ratio (x) = 0.43326 0.27562
# Poissons Ratio (y) = 0.41164 0.29952
# Poissons Ratio (z) = 0.21291 0.24352
#
# Static dielectric constant tensor:
#      x y z
#    x 3.579060 0.000000 0.000000 
#    y 0.000000 3.649780 0.000000 
#    z 0.000000 0.000000 3.749790 
# 
# 
# High freq. dielectric constant tensor:
#      x y z
#    x 1.787090 0.000000 0.000000 
#    y 0.000000 1.791230 0.000000 
#    z 0.000000 0.000000 1.807530 
# 
# From -- ./inp_files/10895.got.cif
#   From: 2010.03.12/outbox.cif.g09.slc.cpg/sg36_6_cif.got.tgz:10895.got - 2010.04.14 02:13:53.
