data_PCOD8174750
_publ_section_title
;
Structure prediction by ZEFSAII (Michael W. Deem and Ramdas Pophale) SiO2 
 PCOD8174750
Probable space group: C M C 21
;
_chemical_formula_sum "Si O2"
_cell_formula_units_Z 64
_cell_length_a 8.762400
_cell_length_b 28.594133
_cell_length_c 14.199955
_cell_angle_alpha 90.000000
_cell_angle_beta 90.000000
_cell_angle_gamma 90.000000
_cell_volume 3557.844605
_symmetry_space_group_name_H-M "C M C 21"
_symmetry_group_IT_number 36
_symmetry_cell_setting 'orthorhombic'
loop_
_space_group_symop_operation_xyz
x,y,z
-x,-y,1/2+z
x,-y,1/2+z
-x,y,z
1/2+x,1/2+y,z
1/2-x,1/2-y,1/2+z
1/2+x,1/2-y,1/2+z
1/2-x,1/2+y,z
loop_
_atom_site_type_symbol
_atom_site_label
_atom_site_fract_x
_atom_site_fract_y
_atom_site_fract_z
Si Si1 0.181222 0.053794 0.027840
Si Si2 0.819579 0.875543 0.180210
Si Si3 0.679691 0.877888 0.383371
Si Si4 0.320309 0.877888 0.672309
Si Si5 0.320145 0.801452 0.527840
Si Si6 0.819579 0.875543 0.875470
Si Si7 0.680458 0.448704 0.027840
Si Si8 0.819322 0.802055 0.027840
O O1 0.240073 0.078331 0.122432
O O2 0.000000 0.054213 0.027840
O O3 0.247063 0.000963 0.027840
O O4 0.240073 0.078331 0.933248
O O5 0.727410 0.875007 0.276092
O O6 0.767143 0.921249 0.121676
O O7 0.768747 0.829707 0.121579
O O8 0.000000 0.875862 0.200389
O O9 0.500000 0.885099 0.393182
O O10 0.731799 0.830048 0.435212
O O11 0.500000 0.885099 0.662498
O O12 0.268201 0.830048 0.620468
O O13 0.272590 0.875007 0.779588
O O14 0.500000 0.795154 0.527840
O O15 0.244344 0.749794 0.527840
O O16 0.000000 0.875862 0.855291
O O17 0.767143 0.921249 0.934004
O O18 0.768747 0.829707 0.934101
O O19 0.500000 0.449478 0.027840
O O20 0.000000 0.799413 0.027840
#
# Coordination Sequence:
#
# PCOD8174750 Si02
#       8
#     8   8   8   8   8   8   8   8
#     4  10  19  34  54  71  91 124 167 204 236 279
#     4   9  17  32  53  74  95 122 162 203 238 281
#     4  10  20  33  48  71 104 132 155 191 242 290
#     4  10  20  33  48  71 104 132 155 191 242 290
#     4   8  16  31  48  67  97 132 159 192 240 283
#     4   9  17  32  53  74  95 122 162 203 238 281
#     4   8  17  33  52  73  95 122 159 207 247 273
#     4   8  15  30  52  73  93 124 165 203 235 275
#
# _framework density 17.988420000000001
#
# number of rings (size 3 to 8) (size 9 to 14) (size 15 to 20)
#    0.000    3.000    0.000    3.375    0.000    2.000 
#    0.000   10.000    0.000    7.500    0.000    0.000 
#    0.000    0.000    0.000    0.000    0.000    0.000 
#
# Total GULP energy -396681.926085 kJ/mol
# GULP energy per Si atom -12396.310190 kJ/mol
# Density = 1.794748 g / cm^3
# Si number density = 17.988420 Si / 1000 Ang^3
#
#
#
# Elastic Constant Matrix: (Units=GPa)
#
#
# Indices 1 2 3 4 5 6 
#
# 1 42.6702 30.3802 28.7094 0.0000 0.0000 0.0000
# 2 30.3802 187.5818 82.2018 0.0000 0.0000 0.0000
# 3 28.7094 82.2018 157.7460 0.0000 0.0000 0.0000
# 4 0.0000 0.0000 0.0000 10.1427 0.0000 0.0000
# 5 0.0000 0.0000 0.0000 0.0000 26.5627 0.0000
# 6 0.0000 0.0000 0.0000 0.0000 0.0000 18.1495
#
#
#
# Elastic Compliance Matrix: (Units=1/GPa)
#
#
# Indices 1 2 3 4 5 6 
#
# 1 0.027931 -0.002975 -0.003533 0.000000 0.000000 0.000000
# 2 -0.002975 0.007226 -0.003224 0.000000 0.000000 0.000000
# 3 -0.003533 -0.003224 0.008662 0.000000 0.000000 0.000000
# 4 0.000000 0.000000 0.000000 0.098593 0.000000 0.000000
# 5 0.000000 0.000000 0.000000 0.000000 0.037647 0.000000
# 6 0.000000 0.000000 0.000000 0.000000 0.000000 0.055098
#
#
# Mechanical properties :
#
#
# Convention : Reuss Voigt Hill
#
# Bulk Modulus (GPa) = 41.05989 74.50897 57.78443
# Shear Modulus (GPa) = 19.03027 27.41808 23.22418
#
# Velocity S-wave (km/s) = 3.25609 3.90834 3.59703
# Velocity P-wave (km/s) = 6.08371 7.86621 7.03167
#
# Compressibility (1/GPa) = 0.02435467
#
# Stress axis : x y z
#
# Youngs Moduli (GPa) = 35.80249 138.39655 115.44432
#
# Poissons Ratio (x) = 0.41179 0.40785
# Poissons Ratio (y) = 0.10653 0.37216
# Poissons Ratio (z) = 0.12649 0.44616
#
# Static dielectric constant tensor:
#      x y z
#    x 2.967580 0.000000 0.000000 
#    y 0.000000 3.957930 0.000000 
#    z 0.000000 0.000000 3.300620 
# 
# 
# High freq. dielectric constant tensor:
#      x y z
#    x 1.665500 0.000000 0.000000 
#    y 0.000000 1.704710 0.000000 
#    z 0.000000 0.000000 1.700560 
# 
# From -- ./inp_files/11211.got.cif
#   From: 2010.03.12/outbox.cif.g09.slc.cpg/sg36_6_cif.got.tgz:11211.got - 2010.04.14 02:13:53.
