data_PCOD8174305
_publ_section_title
;
Structure prediction by ZEFSAII (Michael W. Deem and Ramdas Pophale) SiO2 
 PCOD8174305
Probable space group: C M C 21
;
_chemical_formula_sum "Si O2"
_cell_formula_units_Z 64
_cell_length_a 9.128850
_cell_length_b 20.581091
_cell_length_c 19.365380
_cell_angle_alpha 90.000000
_cell_angle_beta 90.000000
_cell_angle_gamma 90.000000
_cell_volume 3638.400372
_symmetry_space_group_name_H-M "C M C 21"
_symmetry_group_IT_number 36
_symmetry_cell_setting 'orthorhombic'
loop_
_space_group_symop_operation_xyz
x,y,z
-x,-y,1/2+z
x,-y,1/2+z
-x,y,z
1/2+x,1/2+y,z
1/2-x,1/2-y,1/2+z
1/2+x,1/2-y,1/2+z
1/2-x,1/2+y,z
loop_
_atom_site_type_symbol
_atom_site_label
_atom_site_fract_x
_atom_site_fract_y
_atom_site_fract_z
Si Si1 0.828219 0.559247 0.946370
Si Si2 0.328808 0.191502 0.868539
Si Si3 0.671759 0.109094 0.243122
Si Si4 0.170968 0.239803 0.742481
Si Si5 0.326769 0.113121 0.089050
Si Si6 0.326010 0.314728 0.952305
Si Si7 0.825883 0.757286 0.090186
Si Si8 0.674437 0.559030 0.373559
O O1 0.789889 0.626448 0.908997
O O2 0.731924 0.505141 0.910009
O O3 0.000000 0.542383 0.939992
O O4 0.778154 0.565184 0.026932
O O5 0.500000 0.198569 0.857078
O O6 0.254249 0.191660 0.793758
O O7 0.265567 0.252903 0.910487
O O8 0.500000 0.096846 0.254913
O O9 0.711527 0.184677 0.254713
O O10 0.719422 0.087569 0.165239
O O11 0.762393 0.064931 0.296260
O O12 0.222295 0.218329 0.665767
O O13 0.000000 0.228974 0.752752
O O14 0.500000 0.120247 0.087015
O O15 0.260814 0.185161 0.076272
O O16 0.500000 0.315231 0.949893
O O17 0.265262 0.380734 0.919083
O O18 0.269623 0.307303 0.031471
O O19 0.000000 0.751921 0.087268
O O20 0.500000 0.557078 0.369448
#
# Coordination Sequence:
#
# PCOD8174305 Si02
#       8
#     8   8   8   8   8   8   8   8
#     4  10  20  35  55  76 100 135 176 216 254 300
#     4  10  18  31  53  76  99 130 167 206 251 304
#     4   9  17  31  52  77 102 131 170 211 253 305
#     4   9  17  28  49  79 106 130 162 212 258 295
#     4   8  14  28  52  77  97 124 168 216 254 295
#     4   9  16  29  50  74  98 127 166 205 245 298
#     4   8  13  26  49  76 100 126 167 209 249 300
#     4  11  22  34  50  75 108 141 170 209 256 305
#
# _framework density 17.590147999999999
#
# number of rings (size 3 to 8) (size 9 to 14) (size 15 to 20)
#    0.000    2.750    2.500    1.875    0.000    0.500 
#    0.000    1.875    0.000    6.000    0.000    0.000 
#    0.000    0.000    0.000    0.000    0.000    0.000 
#
# Total GULP energy -396608.205110 kJ/mol
# GULP energy per Si atom -12394.006410 kJ/mol
# Density = 1.755011 g / cm^3
# Si number density = 17.590148 Si / 1000 Ang^3
#
#
#
# Elastic Constant Matrix: (Units=GPa)
#
#
# Indices 1 2 3 4 5 6 
#
# 1 35.8838 36.8799 43.8726 0.0000 0.0000 0.0000
# 2 36.8799 78.4726 61.5561 0.0000 0.0000 0.0000
# 3 43.8726 61.5561 170.4878 0.0000 0.0000 0.0000
# 4 0.0000 0.0000 0.0000 28.8287 0.0000 0.0000
# 5 0.0000 0.0000 0.0000 0.0000 23.0092 0.0000
# 6 0.0000 0.0000 0.0000 0.0000 0.0000 20.6212
#
#
#
# Elastic Compliance Matrix: (Units=1/GPa)
#
#
# Indices 1 2 3 4 5 6 
#
# 1 0.059794 -0.022366 -0.007312 0.000000 0.000000 0.000000
# 2 -0.022366 0.026145 -0.003684 0.000000 0.000000 0.000000
# 3 -0.007312 -0.003684 0.009077 0.000000 0.000000 0.000000
# 4 0.000000 0.000000 0.000000 0.034688 0.000000 0.000000
# 5 0.000000 0.000000 0.000000 0.000000 0.043461 0.000000
# 6 0.000000 0.000000 0.000000 0.000000 0.000000 0.048494
#
#
# Mechanical properties :
#
#
# Convention : Reuss Voigt Hill
#
# Bulk Modulus (GPa) = 35.34537 63.27348 49.30942
# Shear Modulus (GPa) = 16.78906 23.99418 20.39162
#
# Velocity S-wave (km/s) = 3.09278 3.69734 3.40849
# Velocity P-wave (km/s) = 5.73508 7.36723 6.60179
#
# Compressibility (1/GPa) = 0.02829225
#
# Stress axis : x y z
#
# Youngs Moduli (GPa) = 16.72406 38.24877 110.16503
#
# Poissons Ratio (x) = 0.85547 0.80550
# Poissons Ratio (y) = 0.37405 0.40587
# Poissons Ratio (z) = 0.12228 0.14092
#
# Static dielectric constant tensor:
#      x y z
#    x 2.832310 0.000000 0.000000 
#    y 0.000000 3.122130 0.000000 
#    z 0.000000 0.000000 3.691370 
# 
# 
# High freq. dielectric constant tensor:
#      x y z
#    x 1.638870 0.000000 0.000000 
#    y 0.000000 1.653480 0.000000 
#    z 0.000000 0.000000 1.701130 
# 
# From -- ./inp_files/14082.got.cif
#   From: 2010.03.12/outbox.cif.g09.slc.cpg/sg36_8_cif.got.tgz:14082.got - 2010.04.14 02:13:53.
