data_PCOD8174322
_publ_section_title
;
Structure prediction by ZEFSAII (Michael W. Deem and Ramdas Pophale) SiO2 
 PCOD8174322
Probable space group: C M C 21
;
_chemical_formula_sum "Si O2"
_cell_formula_units_Z 64
_cell_length_a 8.809813
_cell_length_b 23.633132
_cell_length_c 14.464587
_cell_angle_alpha 90.000000
_cell_angle_beta 90.000000
_cell_angle_gamma 90.000000
_cell_volume 3011.577256
_symmetry_space_group_name_H-M "C M C 21"
_symmetry_group_IT_number 36
_symmetry_cell_setting 'orthorhombic'
loop_
_space_group_symop_operation_xyz
x,y,z
-x,-y,1/2+z
x,-y,1/2+z
-x,y,z
1/2+x,1/2+y,z
1/2-x,1/2-y,1/2+z
1/2+x,1/2-y,1/2+z
1/2-x,1/2+y,z
loop_
_atom_site_type_symbol
_atom_site_label
_atom_site_fract_x
_atom_site_fract_y
_atom_site_fract_z
Si Si1 0.820488 0.435105 0.593380
Si Si2 0.672763 0.909601 0.894922
Si Si3 0.321718 0.356840 0.729673
Si Si4 0.329937 0.793080 0.998434
Si Si5 0.178261 0.962490 0.208200
Si Si6 0.322366 0.245526 0.829824
Si Si7 0.320707 0.843730 0.184765
Si Si8 0.321639 0.479361 0.420909
O O1 0.767806 0.375566 0.638051
O O2 0.763722 0.488386 0.653389
O O3 0.746229 0.433423 0.491444
O O4 0.000000 0.437241 0.585224
O O5 0.500000 0.920011 0.861488
O O6 0.783594 0.903692 0.807069
O O7 0.682730 0.856295 0.960875
O O8 0.737432 0.962780 0.951040
O O9 0.500000 0.356104 0.708922
O O10 0.257557 0.296787 0.766536
O O11 0.500000 0.769666 0.995369
O O12 0.236434 0.749114 0.935248
O O13 0.274165 0.798327 0.104530
O O14 0.228671 0.901192 0.171290
O O15 0.221649 0.963611 0.316326
O O16 0.000000 0.970613 0.191863
O O17 0.500000 0.253733 0.834000
O O18 0.277786 0.186011 0.782477
O O19 0.500000 0.856816 0.177815
O O20 0.500000 0.485475 0.435870
#
# Coordination Sequence:
#
# PCOD8174322 Si02
#       8
#     8   8   8   8   8   8   8   8
#     4  12  24  38  60  88 120 158 200 246 297 359
#     4  10  18  31  55  85 114 149 196 245 294 346
#     4  10  19  35  57  81 113 152 194 242 297 351
#     4   9  19  35  58  87 116 151 199 247 294 351
#     4  11  24  41  62  90 123 160 199 245 302 361
#     4   9  20  38  61  86 116 154 197 247 298 350
#     4  10  21  40  62  87 121 160 200 245 300 358
#     4  11  23  38  57  84 121 160 197 239 298 364
#
# _framework density 21.251321999999998
#
# number of rings (size 3 to 8) (size 9 to 14) (size 15 to 20)
#    0.000    1.750    1.250    3.375    0.000    4.500 
#    2.250    0.000    0.000    0.000    0.000    0.000 
#    0.000    0.000    0.000    0.000    0.000    0.000 
#
# Total GULP energy -396776.656665 kJ/mol
# GULP energy per Si atom -12399.270521 kJ/mol
# Density = 2.120295 g / cm^3
# Si number density = 21.251322 Si / 1000 Ang^3
#
#
#
# Elastic Constant Matrix: (Units=GPa)
#
#
# Indices 1 2 3 4 5 6 
#
# 1 81.2929 12.4460 25.7312 0.0000 0.0000 0.0000
# 2 12.4460 33.7082 -2.7902 0.0000 0.0000 0.0000
# 3 25.7312 -2.7902 82.9558 0.0000 0.0000 0.0000
# 4 0.0000 0.0000 0.0000 26.1712 0.0000 0.0000
# 5 0.0000 0.0000 0.0000 0.0000 34.3455 0.0000
# 6 0.0000 0.0000 0.0000 0.0000 0.0000 21.5172
#
#
#
# Elastic Compliance Matrix: (Units=1/GPa)
#
#
# Indices 1 2 3 4 5 6 
#
# 1 0.014697 -0.005820 -0.004755 0.000000 0.000000 0.000000
# 2 -0.005820 0.032054 0.002883 0.000000 0.000000 0.000000
# 3 -0.004755 0.002883 0.013626 0.000000 0.000000 0.000000
# 4 0.000000 0.000000 0.000000 0.038210 0.000000 0.000000
# 5 0.000000 0.000000 0.000000 0.000000 0.029116 0.000000
# 6 0.000000 0.000000 0.000000 0.000000 0.000000 0.046474
#
#
# Mechanical properties :
#
#
# Convention : Reuss Voigt Hill
#
# Bulk Modulus (GPa) = 22.22470 29.85901 26.04186
# Shear Modulus (GPa) = 24.44286 27.24477 25.84382
#
# Velocity S-wave (km/s) = 3.39511 3.58443 3.49105
# Velocity P-wave (km/s) = 5.08427 5.58675 5.34142
#
# Compressibility (1/GPa) = 0.04499499
#
# Stress axis : x y z
#
# Youngs Moduli (GPa) = 68.04023 31.19734 73.38723
#
# Poissons Ratio (x) = 0.18157 0.34892
# Poissons Ratio (y) = 0.39601 -0.21161
# Poissons Ratio (z) = 0.32350 -0.08995
#
# Static dielectric constant tensor:
#      x y z
#    x 3.744430 0.000000 0.000000 
#    y 0.000000 3.703150 0.000000 
#    z 0.000000 0.000000 4.077940 
# 
# 
# High freq. dielectric constant tensor:
#      x y z
#    x 1.827530 0.000000 0.000000 
#    y 0.000000 1.818490 0.000000 
#    z 0.000000 0.000000 1.840460 
# 
# From -- ./inp_files/10871.got.cif
#   From: 2010.03.12/outbox.cif.g09.slc.cpg/sg36_6_cif.got.tgz:10871.got - 2010.04.14 02:13:53.
