data_PCOD8174210
_publ_section_title
;
Structure prediction by ZEFSAII (Michael W. Deem and Ramdas Pophale) SiO2 
 PCOD8174210
Probable space group: C M C 21
;
_chemical_formula_sum "Si O2"
_cell_formula_units_Z 56
_cell_length_a 27.382497
_cell_length_b 5.466470
_cell_length_c 16.049718
_cell_angle_alpha 90.000000
_cell_angle_beta 90.000000
_cell_angle_gamma 90.000000
_cell_volume 2402.411643
_symmetry_space_group_name_H-M "C M C 21"
_symmetry_group_IT_number 36
_symmetry_cell_setting 'orthorhombic'
loop_
_space_group_symop_operation_xyz
x,y,z
-x,-y,1/2+z
x,-y,1/2+z
-x,y,z
1/2+x,1/2+y,z
1/2-x,1/2-y,1/2+z
1/2+x,1/2-y,1/2+z
1/2-x,1/2+y,z
loop_
_atom_site_type_symbol
_atom_site_label
_atom_site_fract_x
_atom_site_fract_y
_atom_site_fract_z
Si Si1 0.944269 0.508637 0.220230
Si Si2 0.555550 0.504088 0.120876
Si Si3 0.270979 0.220684 0.578815
Si Si4 0.861776 0.845951 0.505181
Si Si5 0.733055 0.928525 0.760142
Si Si6 0.287082 0.334110 0.920212
Si Si7 0.859242 0.546258 0.341939
O O1 0.937755 0.257654 0.169936
O O2 0.910302 0.476479 0.300381
O O3 0.000000 0.535489 0.250808
O O4 0.929439 0.757140 0.170556
O O5 0.500000 0.475253 0.090023
O O6 0.589355 0.530981 0.040079
O O7 0.250211 0.470517 0.622957
O O8 0.330367 0.185327 0.573370
O O9 0.252659 0.292039 0.482486
O O10 0.874803 0.707464 0.420493
O O11 0.822513 0.052341 0.488702
O O12 0.764591 0.704413 0.717724
O O13 0.757707 0.003251 0.851816
O O14 0.677442 0.827733 0.773339
O O15 0.326336 0.180945 0.867553
#
# Coordination Sequence:
#
# PCOD8174210 Si02
#       7
#     8   8   8   8   8   8   8
#     4  10  25  47  64  82 120 168 201 244 316 374
#     4  10  25  47  64  82 120 168 201 244 316 374
#     4  10  17  30  50  87 121 157 182 231 292 363
#     4  11  20  34  65  94 118 153 210 253 293 350
#     4  10  17  30  50  87 121 157 182 231 292 363
#     4  10  18  32  53  98 123 158 182 246 300 362
#     4  11  20  34  65  94 118 153 210 253 293 350
#
# _framework density 23.309911
#
# number of rings (size 3 to 8) (size 9 to 14) (size 15 to 20)
#    0.000    1.714    4.286    1.714    4.000    0.571 
#    0.000    0.714    0.000   20.571    0.000    0.000 
#    0.000    0.000    0.000    0.000    0.000    0.000 
#
# Total GULP energy -346919.469649 kJ/mol
# GULP energy per Si atom -12389.981059 kJ/mol
# Density = 2.325686 g / cm^3
# Si number density = 23.309911 Si / 1000 Ang^3
#
#
#
# Elastic Constant Matrix: (Units=GPa)
#
#
# Indices 1 2 3 4 5 6 
#
# 1 142.9922 39.0947 50.3416 0.0000 0.0000 0.0000
# 2 39.0947 128.6462 51.4633 0.0000 0.0000 0.0000
# 3 50.3416 51.4633 82.2859 0.0000 0.0000 0.0000
# 4 0.0000 0.0000 0.0000 37.2708 0.0000 0.0000
# 5 0.0000 0.0000 0.0000 0.0000 42.2340 0.0000
# 6 0.0000 0.0000 0.0000 0.0000 0.0000 -43.3903
#
#
#
# Elastic Compliance Matrix: (Units=1/GPa)
#
#
# Indices 1 2 3 4 5 6 
#
# 1 0.008961 -0.000707 -0.005040 0.000000 0.000000 0.000000
# 2 -0.000707 0.010423 -0.006086 0.000000 0.000000 0.000000
# 3 -0.005040 -0.006086 0.019043 0.000000 0.000000 0.000000
# 4 0.000000 0.000000 0.000000 0.026831 0.000000 0.000000
# 5 0.000000 0.000000 0.000000 0.000000 0.023678 0.000000
# 6 0.000000 0.000000 0.000000 0.000000 0.000000 -0.023047
#
#
# Mechanical properties :
#
#
# Convention : Reuss Voigt Hill
#
# Bulk Modulus (GPa) = 67.75036 70.63592 69.19314
# Shear Modulus (GPa) = 52.92430 21.42456 37.17443
#
# Velocity S-wave (km/s) = 4.77011 3.03498 3.99782
# Velocity P-wave (km/s) = 7.71147 6.53072 7.14552
#
# Compressibility (1/GPa) = 0.01476007
#
# Stress axis : x y z
#
# Youngs Moduli (GPa) = 111.59338 95.94380 52.51376
#
# Poissons Ratio (x) = 0.06783 0.26468
# Poissons Ratio (y) = 0.07889 0.31960
# Poissons Ratio (z) = 0.56245 0.58392
#
# Static dielectric constant tensor:
#      x y z
#    x 4.232410 0.000000 0.000000 
#    y 0.000000 4.507180 0.000000 
#    z 0.000000 0.000000 4.538200 
# 
# 
# High freq. dielectric constant tensor:
#      x y z
#    x 1.909940 0.000000 0.000000 
#    y 0.000000 1.952350 0.000000 
#    z 0.000000 0.000000 1.951140 
# 
# From -- ./inp_files/16328.got.cif
#   From: 2010.03.12/outbox.cif.g09.slc.cpg/sg36_9_cif.got.tgz:16328.got - 2010.04.14 02:13:53.
