data_PCOD8174976
_publ_section_title
;
Structure prediction by ZEFSAII (Michael W. Deem and Ramdas Pophale) SiO2 
 PCOD8174976
Probable space group: C M C 21
;
_chemical_formula_sum "Si O2"
_cell_formula_units_Z 64
_cell_length_a 8.969470
_cell_length_b 19.678409
_cell_length_c 18.875698
_cell_angle_alpha 90.000000
_cell_angle_beta 90.000000
_cell_angle_gamma 90.000000
_cell_volume 3331.653172
_symmetry_space_group_name_H-M "C M C 21"
_symmetry_group_IT_number 36
_symmetry_cell_setting 'orthorhombic'
loop_
_space_group_symop_operation_xyz
x,y,z
-x,-y,1/2+z
x,-y,1/2+z
-x,y,z
1/2+x,1/2+y,z
1/2-x,1/2-y,1/2+z
1/2+x,1/2-y,1/2+z
1/2-x,1/2+y,z
loop_
_atom_site_type_symbol
_atom_site_label
_atom_site_fract_x
_atom_site_fract_y
_atom_site_fract_z
Si Si1 0.822537 0.273348 0.334870
Si Si2 0.170768 0.076525 0.464163
Si Si3 0.323999 0.623433 0.311257
Si Si4 0.176137 0.304040 0.492841
Si Si5 0.176323 0.018768 0.196338
Si Si6 0.176075 0.623154 0.716403
Si Si7 0.170668 0.938495 0.540170
Si Si8 0.824859 0.319541 0.065322
O O1 0.758219 0.199926 0.310700
O O2 0.763525 0.289525 0.413665
O O3 0.764235 0.330615 0.281000
O O4 0.000000 0.271550 0.334462
O O5 0.222287 0.085577 0.383449
O O6 0.276717 0.121100 0.512816
O O7 0.000000 0.101199 0.475233
O O8 0.188312 0.997781 0.482782
O O9 0.500000 0.627843 0.304747
O O10 0.261729 0.580198 0.245174
O O11 0.222283 0.378797 0.516106
O O12 0.245738 0.250904 0.547355
O O13 0.000000 0.297169 0.495790
O O14 0.224681 0.033865 0.116107
O O15 0.000000 0.010518 0.203107
O O16 0.248469 0.949640 0.223495
O O17 0.224207 0.659992 0.644140
O O18 0.000000 0.612815 0.719727
O O19 0.000000 0.912765 0.544551
O O20 0.000000 0.308453 0.059442
#
# Coordination Sequence:
#
# PCOD8174976 Si02
#       8
#     8   8   8   8   8   8   8   8
#     4   9  19  37  59  82 110 149 192 231 278 339
#     4  10  19  37  61  83 112 152 192 233 282 338
#     4   9  18  34  59  83 109 149 194 230 275 337
#     4  11  23  39  61  84 113 154 195 237 289 345
#     4  10  21  37  60  85 113 153 192 231 280 341
#     4  10  22  38  59  84 115 151 187 234 286 339
#     4  10  22  37  57  87 119 148 189 242 288 334
#     4  11  22  37  60  86 113 148 191 240 288 335
#
# _framework density 19.209682999999998
#
# number of rings (size 3 to 8) (size 9 to 14) (size 15 to 20)
#    0.000    2.000    2.500    0.750    3.500    1.500 
#    0.000    1.250    0.000    0.000    0.000    0.000 
#    0.000    0.000    0.000    0.000    0.000    0.000 
#
# Total GULP energy -396886.174642 kJ/mol
# GULP energy per Si atom -12402.692958 kJ/mol
# Density = 1.916596 g / cm^3
# Si number density = 19.209683 Si / 1000 Ang^3
#
#
#
# Elastic Constant Matrix: (Units=GPa)
#
#
# Indices 1 2 3 4 5 6 
#
# 1 26.1621 27.2121 15.4310 0.0000 0.0000 0.0000
# 2 27.2121 149.1654 62.2106 0.0000 0.0000 0.0000
# 3 15.4310 62.2106 101.2698 0.0000 0.0000 0.0000
# 4 0.0000 0.0000 0.0000 41.1347 0.0000 0.0000
# 5 0.0000 0.0000 0.0000 0.0000 17.6473 0.0000
# 6 0.0000 0.0000 0.0000 0.0000 0.0000 34.3706
#
#
#
# Elastic Compliance Matrix: (Units=1/GPa)
#
#
# Indices 1 2 3 4 5 6 
#
# 1 0.047672 -0.007619 -0.002583 0.000000 0.000000 0.000000
# 2 -0.007619 0.010231 -0.005124 0.000000 0.000000 0.000000
# 3 -0.002583 -0.005124 0.013416 0.000000 0.000000 0.000000
# 4 0.000000 0.000000 0.000000 0.024310 0.000000 0.000000
# 5 0.000000 0.000000 0.000000 0.000000 0.056666 0.000000
# 6 0.000000 0.000000 0.000000 0.000000 0.000000 0.029095
#
#
# Mechanical properties :
#
#
# Convention : Reuss Voigt Hill
#
# Bulk Modulus (GPa) = 24.59080 54.03385 39.31232
# Shear Modulus (GPa) = 22.16324 30.08008 26.12166
#
# Velocity S-wave (km/s) = 3.40038 3.96141 3.69157
# Velocity P-wave (km/s) = 5.31468 7.00808 6.21929
#
# Compressibility (1/GPa) = 0.04066562
#
# Stress axis : x y z
#
# Youngs Moduli (GPa) = 20.97658 97.74282 74.53825
#
# Poissons Ratio (x) = 0.74474 0.19257
# Poissons Ratio (y) = 0.15983 0.38193
# Poissons Ratio (z) = 0.05419 0.50083
#
# Static dielectric constant tensor:
#      x y z
#    x 3.210680 0.000000 0.000000 
#    y 0.000000 3.629960 0.000000 
#    z 0.000000 0.000000 3.822760 
# 
# 
# High freq. dielectric constant tensor:
#      x y z
#    x 1.715220 0.000000 0.000000 
#    y 0.000000 1.760780 0.000000 
#    z 0.000000 0.000000 1.759140 
# 
# From -- ./inp_files/13949.got.cif
#   From: 2010.03.12/outbox.cif.g09.slc.cpg/sg36_7_cif.got.tgz:13949.got - 2010.04.14 02:13:53.
