data_PCOD8174860
_publ_section_title
;
Structure prediction by ZEFSAII (Michael W. Deem and Ramdas Pophale) SiO2 
 PCOD8174860
Probable space group: C M C 21
;
_chemical_formula_sum "Si O2"
_cell_formula_units_Z 64
_cell_length_a 8.737280
_cell_length_b 29.207855
_cell_length_c 12.494845
_cell_angle_alpha 90.000000
_cell_angle_beta 90.000000
_cell_angle_gamma 90.000000
_cell_volume 3188.649550
_symmetry_space_group_name_H-M "C M C 21"
_symmetry_group_IT_number 36
_symmetry_cell_setting 'orthorhombic'
loop_
_space_group_symop_operation_xyz
x,y,z
-x,-y,1/2+z
x,-y,1/2+z
-x,y,z
1/2+x,1/2+y,z
1/2-x,1/2-y,1/2+z
1/2+x,1/2-y,1/2+z
1/2-x,1/2+y,z
loop_
_atom_site_type_symbol
_atom_site_label
_atom_site_fract_x
_atom_site_fract_y
_atom_site_fract_z
Si Si1 0.677365 0.563414 0.907780
Si Si2 0.325494 0.721096 0.182733
Si Si3 0.322005 0.182510 0.615169
Si Si4 0.324476 0.026668 0.483419
Si Si5 0.321235 0.625385 0.098066
Si Si6 0.318823 0.587013 0.671941
Si Si7 0.675699 0.093640 0.297111
Si Si8 0.672436 0.322772 0.900037
O O1 0.500000 0.550484 0.903348
O O2 0.760380 0.524179 0.975435
O O3 0.742225 0.569027 0.787320
O O4 0.703704 0.610485 0.974862
O O5 0.500000 0.725089 0.144733
O O6 0.247494 0.770004 0.158329
O O7 0.255313 0.677097 0.118835
O O8 0.310479 0.715809 0.309942
O O9 0.500000 0.176709 0.643669
O O10 0.232660 0.139408 0.662221
O O11 0.300186 0.185698 0.488388
O O12 0.500000 0.025099 0.518222
O O13 0.242262 0.056309 0.574911
O O14 0.304079 0.047205 0.364134
O O15 0.500000 0.623792 0.130034
O O16 0.229035 0.589134 0.173525
O O17 0.500000 0.585348 0.668948
O O18 0.500000 0.110668 0.303244
O O19 0.794941 0.128671 0.347733
O O20 0.500000 0.323248 0.947780
#
# Coordination Sequence:
#
# PCOD8174860 Si02
#       8
#     8   8   8   8   8   8   8   8
#     4  10  24  42  62  89 121 160 205 248 300 360
#     4   8  18  35  57  84 116 157 200 243 300 358
#     4  11  21  36  59  88 122 158 198 252 308 357
#     4  11  24  40  61  88 121 156 197 248 304 359
#     4   9  19  39  62  85 118 159 201 249 299 354
#     4  11  24  42  63  90 124 160 203 248 297 364
#     4  10  20  35  57  86 114 147 193 248 301 354
#     4  10  19  35  57  82 112 153 201 248 297 354
#
# _framework density 20.071193999999998
#
# number of rings (size 3 to 8) (size 9 to 14) (size 15 to 20)
#    0.000    2.000    1.250    2.625    1.750    4.000 
#    0.000    7.500    0.000    0.000    0.000    0.000 
#    0.000    0.000    0.000    0.000    0.000    0.000 
#
# Total GULP energy -396646.378534 kJ/mol
# GULP energy per Si atom -12395.199329 kJ/mol
# Density = 2.002551 g / cm^3
# Si number density = 20.071194 Si / 1000 Ang^3
#
#
#
# Elastic Constant Matrix: (Units=GPa)
#
#
# Indices 1 2 3 4 5 6 
#
# 1 60.5480 32.3322 33.2197 0.0000 0.0000 0.0000
# 2 32.3322 120.5979 52.5657 0.0000 0.0000 0.0000
# 3 33.2197 52.5657 106.9325 0.0000 0.0000 0.0000
# 4 0.0000 0.0000 0.0000 18.0084 0.0000 0.0000
# 5 0.0000 0.0000 0.0000 0.0000 21.0379 0.0000
# 6 0.0000 0.0000 0.0000 0.0000 0.0000 25.9882
#
#
#
# Elastic Compliance Matrix: (Units=1/GPa)
#
#
# Indices 1 2 3 4 5 6 
#
# 1 0.021041 -0.003553 -0.004790 0.000000 0.000000 0.000000
# 2 -0.003553 0.011153 -0.004379 0.000000 0.000000 0.000000
# 3 -0.004790 -0.004379 0.012992 0.000000 0.000000 0.000000
# 4 0.000000 0.000000 0.000000 0.055530 0.000000 0.000000
# 5 0.000000 0.000000 0.000000 0.000000 0.047533 0.000000
# 6 0.000000 0.000000 0.000000 0.000000 0.000000 0.038479
#
#
# Mechanical properties :
#
#
# Convention : Reuss Voigt Hill
#
# Bulk Modulus (GPa) = 50.65183 58.25706 54.45444
# Shear Modulus (GPa) = 22.85672 24.33762 23.59717
#
# Velocity S-wave (km/s) = 3.37825 3.48597 3.43253
# Velocity P-wave (km/s) = 6.36456 6.72985 6.54975
#
# Compressibility (1/GPa) = 0.01974262
#
# Stress axis : x y z
#
# Youngs Moduli (GPa) = 47.52561 89.65965 76.96879
#
# Poissons Ratio (x) = 0.31859 0.36868
# Poissons Ratio (y) = 0.16887 0.33703
# Poissons Ratio (z) = 0.22765 0.39260
#
# Static dielectric constant tensor:
#      x y z
#    x 3.539410 0.000000 0.000000 
#    y 0.000000 3.706100 0.000000 
#    z 0.000000 0.000000 3.950800 
# 
# 
# High freq. dielectric constant tensor:
#      x y z
#    x 1.772770 0.000000 0.000000 
#    y 0.000000 1.780110 0.000000 
#    z 0.000000 0.000000 1.786470 
# 
# From -- ./inp_files/7135.got.cif
#   From: 2010.03.12/outbox.cif.g09.slc.cpg/sg36_4_cif.got.tgz:7135.got - 2010.04.14 02:13:53.
