data_PCOD8174513
_publ_section_title
;
Structure prediction by ZEFSAII (Michael W. Deem and Ramdas Pophale) SiO2 
 PCOD8174513
Probable space group: C M C 21
;
_chemical_formula_sum "Si O2"
_cell_formula_units_Z 40
_cell_length_a 12.639935
_cell_length_b 20.771150
_cell_length_c 8.754174
_cell_angle_alpha 90.000000
_cell_angle_beta 90.000000
_cell_angle_gamma 90.000000
_cell_volume 2298.373243
_symmetry_space_group_name_H-M "C M C 21"
_symmetry_group_IT_number 36
_symmetry_cell_setting 'orthorhombic'
loop_
_space_group_symop_operation_xyz
x,y,z
-x,-y,1/2+z
x,-y,1/2+z
-x,y,z
1/2+x,1/2+y,z
1/2-x,1/2-y,1/2+z
1/2+x,1/2-y,1/2+z
1/2-x,1/2+y,z
loop_
_atom_site_type_symbol
_atom_site_label
_atom_site_fract_x
_atom_site_fract_y
_atom_site_fract_z
Si Si1 0.000000 0.576590 0.647341
Si Si2 0.334445 0.165699 0.499838
Si Si3 0.883986 0.796881 0.643397
Si Si4 0.384417 0.286011 0.992058
Si Si5 0.164969 0.346393 0.647791
Si Si6 0.500000 0.938263 0.504135
O O1 0.894363 0.616496 0.609298
O O2 0.000000 0.511559 0.553117
O O3 0.000000 0.561739 0.823805
O O4 0.374719 0.238343 0.525060
O O5 0.208307 0.163873 0.538171
O O6 0.359350 0.146454 0.326564
O O7 0.870088 0.767690 0.813661
O O8 0.791650 0.849504 0.614036
O O9 0.000000 0.829432 0.623624
O O10 0.500000 0.318090 0.019788
O O11 0.379317 0.221391 0.089991
O O12 0.106568 0.404372 0.563564
#
# Coordination Sequence:
#
# PCOD8174513 Si02
#       6
#     4   8   8   8   8   4
#     4  12  24  38  54  72 100 136 175 216 259 304
#     4  10  19  31  49  76 105 134 171 209 252 302
#     4   9  17  30  50  76 107 138 165 204 253 302
#     4   9  17  30  50  76 107 138 165 204 253 302
#     4  10  19  31  49  76 105 134 171 209 252 302
#     4  12  24  38  54  72 100 136 175 216 259 304
#
# _framework density 17.403614000000001
#
# number of rings (size 3 to 8) (size 9 to 14) (size 15 to 20)
#    0.000    2.000    2.000    3.000    0.000    1.600 
#    0.000    0.000    0.000    1.200    0.000    0.000 
#    0.000    0.000    0.000    0.000    0.000    0.000 
#
# Total GULP energy -247922.754221 kJ/mol
# GULP energy per Si atom -12396.137711 kJ/mol
# Density = 1.736400 g / cm^3
# Si number density = 17.403614 Si / 1000 Ang^3
#
#
#
# Elastic Constant Matrix: (Units=GPa)
#
#
# Indices 1 2 3 4 5 6 
#
# 1 165.9365 32.5547 18.8844 0.0000 0.0000 0.0000
# 2 32.5547 46.9960 -4.1011 0.0000 0.0000 0.0000
# 3 18.8844 -4.1011 39.1338 0.0000 0.0000 0.0000
# 4 0.0000 0.0000 0.0000 26.4370 0.0000 0.0000
# 5 0.0000 0.0000 0.0000 0.0000 20.4674 0.0000
# 6 0.0000 0.0000 0.0000 0.0000 0.0000 13.6388
#
#
#
# Elastic Compliance Matrix: (Units=1/GPa)
#
#
# Indices 1 2 3 4 5 6 
#
# 1 0.007621 -0.005652 -0.004270 0.000000 0.000000 0.000000
# 2 -0.005652 0.025666 0.005417 0.000000 0.000000 0.000000
# 3 -0.004270 0.005417 0.028182 0.000000 0.000000 0.000000
# 4 0.000000 0.000000 0.000000 0.037826 0.000000 0.000000
# 5 0.000000 0.000000 0.000000 0.000000 0.048858 0.000000
# 6 0.000000 0.000000 0.000000 0.000000 0.000000 0.073320
#
#
# Mechanical properties :
#
#
# Convention : Reuss Voigt Hill
#
# Bulk Modulus (GPa) = 19.06231 38.52694 28.79463
# Shear Modulus (GPa) = 20.16380 25.75719 22.96050
#
# Velocity S-wave (km/s) = 3.40751 3.85124 3.63615
# Velocity P-wave (km/s) = 5.14377 6.47776 5.84892
#
# Compressibility (1/GPa) = 0.05245954
#
# Stress axis : x y z
#
# Youngs Moduli (GPa) = 131.21315 38.96161 35.48418
#
# Poissons Ratio (x) = 0.22021 0.15152
# Poissons Ratio (y) = 0.74161 -0.19222
# Poissons Ratio (z) = 0.56028 -0.21106
#
# Static dielectric constant tensor:
#      x y z
#    x 3.800100 0.000000 0.000000 
#    y 0.000000 2.793080 0.000000 
#    z 0.000000 0.000000 3.337810 
# 
# 
# High freq. dielectric constant tensor:
#      x y z
#    x 1.696360 0.000000 0.000000 
#    y 0.000000 1.612110 0.000000 
#    z 0.000000 0.000000 1.684380 
# 
# From -- ./inp_files/3901.got.cif
#   From: 2010.03.12/outbox.cif.g09.slc.cpg/sg36_2_cif.got.tgz:3901.got - 2010.04.14 02:13:53.
