data_PCOD8174697
_publ_section_title
;
Structure prediction by ZEFSAII (Michael W. Deem and Ramdas Pophale) SiO2 
 PCOD8174697
Probable space group: C M C 21
;
_chemical_formula_sum "Si O2"
_cell_formula_units_Z 56
_cell_length_a 13.627617
_cell_length_b 12.705673
_cell_length_c 14.850868
_cell_angle_alpha 90.000000
_cell_angle_beta 90.000000
_cell_angle_gamma 90.000000
_cell_volume 2571.398766
_symmetry_space_group_name_H-M "C M C 21"
_symmetry_group_IT_number 36
_symmetry_cell_setting 'orthorhombic'
loop_
_space_group_symop_operation_xyz
x,y,z
-x,-y,1/2+z
x,-y,1/2+z
-x,y,z
1/2+x,1/2+y,z
1/2-x,1/2-y,1/2+z
1/2+x,1/2-y,1/2+z
1/2-x,1/2+y,z
loop_
_atom_site_type_symbol
_atom_site_label
_atom_site_fract_x
_atom_site_fract_y
_atom_site_fract_z
Si Si1 0.111986 0.616420 0.921530
Si Si2 0.691870 0.339670 0.885900
Si Si3 0.607485 0.188973 0.623618
Si Si4 0.390137 0.257523 0.427776
Si Si5 0.209262 0.880365 0.694433
Si Si6 0.300014 0.538776 0.006296
Si Si7 0.609484 0.006010 0.239830
O O1 0.121888 0.741691 0.907875
O O2 0.141425 0.554794 0.830470
O O3 0.000000 0.592033 0.950154
O O4 0.186423 0.575746 0.997917
O O5 0.803710 0.295476 0.868824
O O6 0.656188 0.395216 0.792173
O O7 0.682972 0.422080 0.967993
O O8 0.500000 0.230266 0.656759
O O9 0.611688 0.186256 0.516789
O O10 0.693481 0.261223 0.662951
O O11 0.624283 0.071613 0.656149
O O12 0.500000 0.250188 0.383753
O O13 0.368044 0.379301 0.451410
O O14 0.172137 0.957730 0.613517
O O15 0.323595 0.895199 0.716503
O O16 0.500000 0.049003 0.249184
#
# Coordination Sequence:
#
# PCOD8174697 Si02
#       7
#     8   8   8   8   8   8   8
#     4  10  21  38  58  80 112 147 187 233 279 338
#     4  11  21  36  58  83 111 151 191 229 285 334
#     4   9  18  36  59  81 108 149 191 227 274 337
#     4   9  20  37  56  81 114 146 185 233 280 334
#     4  11  21  34  60  84 116 146 189 239 281 334
#     4  10  22  38  56  86 113 149 189 236 285 329
#     4  10  19  33  55  81 106 142 186 225 274 332
#
# _framework density 21.778030000000001
#
# number of rings (size 3 to 8) (size 9 to 14) (size 15 to 20)
#    0.000    2.000    2.857    0.857    0.000    2.286 
#    0.000    0.000    0.000    0.857    0.000    0.000 
#    0.000    0.000    0.000    0.000    0.000    0.000 
#
# Total GULP energy -346956.806162 kJ/mol
# GULP energy per Si atom -12391.314506 kJ/mol
# Density = 2.172846 g / cm^3
# Si number density = 21.778030 Si / 1000 Ang^3
#
#
#
# Elastic Constant Matrix: (Units=GPa)
#
#
# Indices 1 2 3 4 5 6 
#
# 1 69.0977 30.3400 10.5312 0.0000 0.0000 0.0000
# 2 30.3400 65.8160 32.8094 0.0000 0.0000 0.0000
# 3 10.5312 32.8094 65.7803 0.0000 0.0000 0.0000
# 4 0.0000 0.0000 0.0000 27.4505 0.0000 0.0000
# 5 0.0000 0.0000 0.0000 0.0000 20.2133 0.0000
# 6 0.0000 0.0000 0.0000 0.0000 0.0000 28.8104
#
#
#
# Elastic Compliance Matrix: (Units=1/GPa)
#
#
# Indices 1 2 3 4 5 6 
#
# 1 0.018287 -0.009277 0.001699 0.000000 0.000000 0.000000
# 2 -0.009277 0.024928 -0.010948 0.000000 0.000000 0.000000
# 3 0.001699 -0.010948 0.020391 0.000000 0.000000 0.000000
# 4 0.000000 0.000000 0.000000 0.036429 0.000000 0.000000
# 5 0.000000 0.000000 0.000000 0.000000 0.049472 0.000000
# 6 0.000000 0.000000 0.000000 0.000000 0.000000 0.034710
#
#
# Mechanical properties :
#
#
# Convention : Reuss Voigt Hill
#
# Bulk Modulus (GPa) = 37.65913 38.67278 38.16596
# Shear Modulus (GPa) = 21.72783 23.76241 22.74512
#
# Velocity S-wave (km/s) = 3.16206 3.30679 3.23523
# Velocity P-wave (km/s) = 5.53726 5.69000 5.61415
#
# Compressibility (1/GPa) = 0.02655399
#
# Stress axis : x y z
#
# Youngs Moduli (GPa) = 54.68461 40.11534 49.04188
#
# Poissons Ratio (x) = 0.37215 -0.08335
# Poissons Ratio (y) = 0.50731 0.53692
# Poissons Ratio (z) = -0.09294 0.43919
#
# Static dielectric constant tensor:
#      x y z
#    x 4.000600 0.000000 0.000000 
#    y 0.000000 3.749210 0.000000 
#    z 0.000000 0.000000 4.050320 
# 
# 
# High freq. dielectric constant tensor:
#      x y z
#    x 1.840440 0.000000 0.000000 
#    y 0.000000 1.844000 0.000000 
#    z 0.000000 0.000000 1.854790 
# 
# From -- ./inp_files/12133.got.cif
#   From: 2010.03.12/outbox.cif.g09.slc.cpg/sg36_7_cif.got.tgz:12133.got - 2010.04.14 02:13:53.
