data_PCOD8174700
_publ_section_title
;
Structure prediction by ZEFSAII (Michael W. Deem and Ramdas Pophale) SiO2 
 PCOD8174700
Probable space group: C M C 21
;
_chemical_formula_sum "Si O2"
_cell_formula_units_Z 48
_cell_length_a 27.072169
_cell_length_b 17.325283
_cell_length_c 5.048183
_cell_angle_alpha 90.000000
_cell_angle_beta 90.000000
_cell_angle_gamma 90.000000
_cell_volume 2367.764363
_symmetry_space_group_name_H-M "C M C 21"
_symmetry_group_IT_number 36
_symmetry_cell_setting 'orthorhombic'
loop_
_space_group_symop_operation_xyz
x,y,z
-x,-y,1/2+z
x,-y,1/2+z
-x,y,z
1/2+x,1/2+y,z
1/2-x,1/2-y,1/2+z
1/2+x,1/2-y,1/2+z
1/2-x,1/2+y,z
loop_
_atom_site_type_symbol
_atom_site_label
_atom_site_fract_x
_atom_site_fract_y
_atom_site_fract_z
Si Si1 0.692459 0.047440 0.580380
Si Si2 0.885888 0.341210 0.869549
Si Si3 0.445058 0.841631 0.365648
Si Si4 0.114112 0.158790 0.833185
Si Si5 0.945058 0.158369 0.337084
Si Si6 0.307541 0.547440 0.622353
O O1 0.665784 0.123576 0.468849
O O2 0.750000 0.067333 0.601367
O O3 0.677766 0.978668 0.376304
O O4 0.926787 0.369618 0.080039
O O5 0.877905 0.250000 0.851367
O O6 0.906491 0.371390 0.588135
O O7 0.500000 0.874264 0.422959
O O8 0.446690 0.750000 0.351366
O O9 0.093509 0.128610 0.114598
O O10 0.073213 0.130382 0.622694
O O11 0.165784 0.123576 0.733884
O O12 0.000000 0.125735 0.279775
O O13 0.322234 0.521332 0.326429
#
# Coordination Sequence:
#
# PCOD8174700 Si02
#       6
#     8   8   8   8   8   8
#     4  10  21  38  57  76 104 144 180 212 265 329
#     4  10  19  33  55  82 106 134 178 225 262 302
#     4   9  17  30  51  79 109 139 172 213 263 317
#     4  10  19  33  55  82 106 134 178 225 262 302
#     4   9  17  30  51  79 109 139 172 213 263 317
#     4  10  21  38  57  76 104 144 180 212 265 329
#
# _framework density 20.272286000000001
#
# number of rings (size 3 to 8) (size 9 to 14) (size 15 to 20)
#    0.000    2.333    0.000    3.000    0.000    4.000 
#    0.000   10.000    0.000   20.000    0.000    0.000 
#    0.000    0.000    0.000    0.000    0.000    0.000 
#
# Total GULP energy -297380.752586 kJ/mol
# GULP energy per Si atom -12390.864691 kJ/mol
# Density = 2.022615 g / cm^3
# Si number density = 20.272286 Si / 1000 Ang^3
#
#
#
# Elastic Constant Matrix: (Units=GPa)
#
#
# Indices 1 2 3 4 5 6 
#
# 1 115.6721 47.2430 51.8017 0.0000 0.0000 0.0000
# 2 47.2430 40.6824 26.2918 0.0000 0.0000 0.0000
# 3 51.8017 26.2918 131.0710 0.0000 0.0000 0.0000
# 4 0.0000 0.0000 0.0000 27.8747 0.0000 0.0000
# 5 0.0000 0.0000 0.0000 0.0000 40.0468 0.0000
# 6 0.0000 0.0000 0.0000 0.0000 0.0000 17.8953
#
#
#
# Elastic Compliance Matrix: (Units=1/GPa)
#
#
# Indices 1 2 3 4 5 6 
#
# 1 0.017592 -0.018309 -0.003280 0.000000 0.000000 0.000000
# 2 -0.018309 0.047297 -0.002251 0.000000 0.000000 0.000000
# 3 -0.003280 -0.002251 0.009377 0.000000 0.000000 0.000000
# 4 0.000000 0.000000 0.000000 0.035875 0.000000 0.000000
# 5 0.000000 0.000000 0.000000 0.000000 0.024971 0.000000
# 6 0.000000 0.000000 0.000000 0.000000 0.000000 0.055881
#
#
# Mechanical properties :
#
#
# Convention : Reuss Voigt Hill
#
# Bulk Modulus (GPa) = 37.61419 59.78873 48.70146
# Shear Modulus (GPa) = 20.19915 27.96931 24.08423
#
# Velocity S-wave (km/s) = 3.15999 3.71844 3.45053
# Velocity P-wave (km/s) = 5.64879 6.92767 6.32066
#
# Compressibility (1/GPa) = 0.02658571
#
# Stress axis : x y z
#
# Youngs Moduli (GPa) = 56.84465 21.14286 106.63976
#
# Poissons Ratio (x) = 0.38710 0.34977
# Poissons Ratio (y) = 1.04077 0.24009
# Poissons Ratio (z) = 0.18645 0.04760
#
# Static dielectric constant tensor:
#      x y z
#    x 3.701790 0.000000 0.000000 
#    y 0.000000 3.226250 0.000000 
#    z 0.000000 0.000000 4.141730 
# 
# 
# High freq. dielectric constant tensor:
#      x y z
#    x 1.792660 0.000000 0.000000 
#    y 0.000000 1.742210 0.000000 
#    z 0.000000 0.000000 1.817490 
# 
# From -- ./inp_files/1572.got.cif
#   From: 2010.03.12/outbox.cif.g09.slc.cpg/sg36_1_cif.got.tgz:1572.got - 2010.04.14 02:13:53.
