data_PCOD8174341
_publ_section_title
;
Structure prediction by ZEFSAII (Michael W. Deem and Ramdas Pophale) SiO2 
 PCOD8174341
Probable space group: C M C 21
;
_chemical_formula_sum "Si O2"
_cell_formula_units_Z 56
_cell_length_a 18.508736
_cell_length_b 18.536997
_cell_length_c 8.809688
_cell_angle_alpha 90.000000
_cell_angle_beta 90.000000
_cell_angle_gamma 90.000000
_cell_volume 3022.572094
_symmetry_space_group_name_H-M "C M C 21"
_symmetry_group_IT_number 36
_symmetry_cell_setting 'orthorhombic'
loop_
_space_group_symop_operation_xyz
x,y,z
-x,-y,1/2+z
x,-y,1/2+z
-x,y,z
1/2+x,1/2+y,z
1/2-x,1/2-y,1/2+z
1/2+x,1/2-y,1/2+z
1/2-x,1/2+y,z
loop_
_atom_site_type_symbol
_atom_site_label
_atom_site_fract_x
_atom_site_fract_y
_atom_site_fract_z
Si Si1 0.419682 0.192033 0.755870
Si Si2 0.358755 0.412025 0.060524
Si Si3 0.684078 0.747226 0.836401
Si Si4 0.917075 0.249227 0.581051
Si Si5 0.081613 0.831010 0.551354
Si Si6 0.219387 0.340790 0.119289
Si Si7 0.583375 0.465177 0.754611
O O1 0.500000 0.160372 0.726455
O O2 0.411634 0.270273 0.679925
O O3 0.360774 0.137812 0.679981
O O4 0.405668 0.201150 0.934160
O O5 0.367432 0.451506 0.900520
O O6 0.389541 0.331604 0.050519
O O7 0.273030 0.408706 0.102013
O O8 0.399863 0.455476 0.191930
O O9 0.629291 0.785103 0.716752
O O10 0.751421 0.715227 0.744919
O O11 0.638564 0.683298 0.917405
O O12 0.714593 0.804773 0.953769
O O13 0.000000 0.246879 0.629768
O O14 0.101663 0.907548 0.624305
O O15 0.000000 0.832722 0.485301
O O16 0.500000 0.459748 0.805305
#
# Coordination Sequence:
#
# PCOD8174341 Si02
#       7
#     8   8   8   8   8   8   8
#     4   9  17  34  57  78 103 135 170 219 281 329
#     4  11  23  35  50  73 110 149 185 218 258 302
#     4  10  20  30  50  72 106 139 179 217 269 319
#     4  10  18  32  52  78 108 140 176 217 266 322
#     4   9  18  32  51  74 104 142 179 215 257 310
#     4  10  21  35  49  75 105 141 179 224 272 319
#     4  11  22  36  52  74 106 148 190 218 246 299
#
# _framework density 18.527266999999998
#
# number of rings (size 3 to 8) (size 9 to 14) (size 15 to 20)
#    0.000    2.000    1.429    3.429    6.000    0.571 
#    0.000    0.000    0.000    0.000    0.000    1.000 
#    0.000    0.000    0.000    0.000    0.000    0.000 
#
# Total GULP energy -347154.529955 kJ/mol
# GULP energy per Si atom -12398.376070 kJ/mol
# Density = 1.848510 g / cm^3
# Si number density = 18.527267 Si / 1000 Ang^3
#
#
#
# Elastic Constant Matrix: (Units=GPa)
#
#
# Indices 1 2 3 4 5 6 
#
# 1 122.3847 18.0356 48.1879 0.0000 0.0000 0.0000
# 2 18.0356 26.2874 9.6467 0.0000 0.0000 0.0000
# 3 48.1879 9.6467 98.3907 0.0000 0.0000 0.0000
# 4 0.0000 0.0000 0.0000 20.6204 0.0000 0.0000
# 5 0.0000 0.0000 0.0000 0.0000 43.0689 0.0000
# 6 0.0000 0.0000 0.0000 0.0000 0.0000 27.0765
#
#
#
# Elastic Compliance Matrix: (Units=1/GPa)
#
#
# Indices 1 2 3 4 5 6 
#
# 1 0.010894 -0.005722 -0.004774 0.000000 0.000000 0.000000
# 2 -0.005722 0.042467 -0.001361 0.000000 0.000000 0.000000
# 3 -0.004774 -0.001361 0.012635 0.000000 0.000000 0.000000
# 4 0.000000 0.000000 0.000000 0.048496 0.000000 0.000000
# 5 0.000000 0.000000 0.000000 0.000000 0.023219 0.000000
# 6 0.000000 0.000000 0.000000 0.000000 0.000000 0.036932
#
#
# Mechanical properties :
#
#
# Convention : Reuss Voigt Hill
#
# Bulk Modulus (GPa) = 23.65162 44.31147 33.98155
# Shear Modulus (GPa) = 23.53473 29.56600 26.55036
#
# Velocity S-wave (km/s) = 3.56796 3.99909 3.78966
# Velocity P-wave (km/s) = 5.45594 6.72997 6.12617
#
# Compressibility (1/GPa) = 0.04228040
#
# Stress axis : x y z
#
# Youngs Moduli (GPa) = 91.79236 23.54790 79.14296
#
# Poissons Ratio (x) = 0.13475 0.37787
# Poissons Ratio (y) = 0.52527 0.10772
# Poissons Ratio (z) = 0.43826 0.03205
#
# Static dielectric constant tensor:
#      x y z
#    x 3.802810 0.000000 0.000000 
#    y 0.000000 2.885860 0.000000 
#    z 0.000000 0.000000 3.616560 
# 
# 
# High freq. dielectric constant tensor:
#      x y z
#    x 1.731070 0.000000 0.000000 
#    y 0.000000 1.649420 0.000000 
#    z 0.000000 0.000000 1.740530 
# 
# From -- ./inp_files/4873.got.cif
#   From: 2010.03.12/outbox.cif.g09.slc.cpg/sg36_3_cif.got.tgz:4873.got - 2010.04.14 02:13:53.
