data_PCOD8174161
_publ_section_title
;
Structure prediction by ZEFSAII (Michael W. Deem and Ramdas Pophale) SiO2 
 PCOD8174161
Probable space group: C M M 2
;
_chemical_formula_sum "Si O2"
_cell_formula_units_Z 40
_cell_length_a 9.336158
_cell_length_b 28.487469
_cell_length_c 9.987336
_cell_angle_alpha 90.000000
_cell_angle_beta 90.000000
_cell_angle_gamma 90.000000
_cell_volume 2656.266954
_symmetry_space_group_name_H-M "C M M 2"
_symmetry_group_IT_number 35
_symmetry_cell_setting 'orthorhombic'
loop_
_space_group_symop_operation_xyz
x,y,z
-x,-y,z
-x,y,z
x,-y,z
1/2+x,1/2+y,z
1/2-x,1/2-y,z
1/2-x,1/2+y,z
1/2+x,1/2-y,z
loop_
_atom_site_type_symbol
_atom_site_label
_atom_site_fract_x
_atom_site_fract_y
_atom_site_fract_z
Si Si1 0.668207 0.945571 0.960360
Si Si2 0.832737 0.203522 0.614091
Si Si3 0.167263 0.796478 0.306629
Si Si4 0.839144 0.124554 0.107218
Si Si5 0.660856 0.624554 0.813502
O O1 0.500000 0.936573 0.960359
O O2 0.737705 0.921626 0.826763
O O3 0.707503 0.000000 0.960361
O O4 0.737703 0.921626 0.093957
O O5 0.750000 0.250000 0.659097
O O6 0.799441 0.190956 0.460360
O O7 0.776221 0.160395 0.704043
O O8 0.000000 0.212410 0.639044
O O9 0.250000 0.750000 0.261623
O O10 0.223778 0.839605 0.216678
O O11 0.000000 0.787590 0.281676
O O12 0.000000 0.108782 0.148580
O O13 0.842287 0.149573 0.960360
O O14 0.500000 0.608782 0.772140
#
# Coordination Sequence:
#
# PCOD8174161 Si02
#       5
#     8   8   8   8   8
#     4   9  17  29  46  67  86 105 136 179 222 257
#     4   9  17  29  44  63  89 118 145 173 206 246
#     4   9  17  29  44  63  89 118 145 173 206 246
#     4   8  16  29  44  64  86 112 143 174 209 249
#     4   8  16  29  44  64  86 112 143 174 209 249
#
# _framework density 15.058728
#
# number of rings (size 3 to 8) (size 9 to 14) (size 15 to 20)
#    1.200    2.200    0.000    0.000    0.000    4.000 
#    0.000    0.000    0.000    1.200    0.000    8.400 
#    0.000    0.000    0.000    0.000    0.000    0.000 
#
# Total GULP energy -247771.889389 kJ/mol
# GULP energy per Si atom -12388.594469 kJ/mol
# Density = 1.502445 g / cm^3
# Si number density = 15.058728 Si / 1000 Ang^3
#
#
#
# Elastic Constant Matrix: (Units=GPa)
#
#
# Indices 1 2 3 4 5 6 
#
# 1 63.9457 66.9922 32.1307 0.0000 0.0000 0.0000
# 2 66.9922 140.1783 61.5294 0.0000 0.0000 0.0000
# 3 32.1307 61.5294 58.2259 0.0000 0.0000 0.0000
# 4 0.0000 0.0000 0.0000 11.9145 0.0000 0.0000
# 5 0.0000 0.0000 0.0000 0.0000 15.6551 0.0000
# 6 0.0000 0.0000 0.0000 0.0000 0.0000 29.3285
#
#
#
# Elastic Compliance Matrix: (Units=1/GPa)
#
#
# Indices 1 2 3 4 5 6 
#
# 1 0.031554 -0.013871 -0.002755 0.000000 0.000000 0.000000
# 2 -0.013871 0.019403 -0.012849 0.000000 0.000000 0.000000
# 3 -0.002755 -0.012849 0.032273 0.000000 0.000000 0.000000
# 4 0.000000 0.000000 0.000000 0.083931 0.000000 0.000000
# 5 0.000000 0.000000 0.000000 0.000000 0.063877 0.000000
# 6 0.000000 0.000000 0.000000 0.000000 0.000000 0.034097
#
#
# Mechanical properties :
#
#
# Convention : Reuss Voigt Hill
#
# Bulk Modulus (GPa) = 41.18585 64.85049 53.01817
# Shear Modulus (GPa) = 15.05222 18.15946 16.60584
#
# Velocity S-wave (km/s) = 3.16502 3.47639 3.32435
# Velocity P-wave (km/s) = 6.38483 7.69885 7.07242
#
# Compressibility (1/GPa) = 0.02428019
#
# Stress axis : x y z
#
# Youngs Moduli (GPa) = 31.69177 51.53922 30.98580
#
# Poissons Ratio (x) = 0.71489 0.08536
# Poissons Ratio (y) = 0.43959 0.39814
# Poissons Ratio (z) = 0.08730 0.66224
#
# Static dielectric constant tensor:
#      x y z
#    x 2.858480 0.000000 0.000000 
#    y 0.000000 2.744530 0.000000 
#    z 0.000000 0.000000 2.797330 
# 
# 
# High freq. dielectric constant tensor:
#      x y z
#    x 1.577870 0.000000 0.000000 
#    y 0.000000 1.557990 0.000000 
#    z 0.000000 0.000000 1.558160 
# 
# From -- ./inp_files/10120.got.cif
#   From: 2010.03.12/outbox.cif.g09.slc.cpg/sg35_6_cif.got.tgz:10120.got - 2010.04.14 02:02:04.
