data_PCOD8174477
_publ_section_title
;
Structure prediction by ZEFSAII (Michael W. Deem and Ramdas Pophale) SiO2 
 PCOD8174477
Probable space group: C M C 21
;
_chemical_formula_sum "Si O2"
_cell_formula_units_Z 64
_cell_length_a 8.640964
_cell_length_b 28.693228
_cell_length_c 14.366480
_cell_angle_alpha 90.000000
_cell_angle_beta 90.000000
_cell_angle_gamma 90.000000
_cell_volume 3561.984109
_symmetry_space_group_name_H-M "C M C 21"
_symmetry_group_IT_number 36
_symmetry_cell_setting 'orthorhombic'
loop_
_space_group_symop_operation_xyz
x,y,z
-x,-y,1/2+z
x,-y,1/2+z
-x,y,z
1/2+x,1/2+y,z
1/2-x,1/2-y,1/2+z
1/2+x,1/2-y,1/2+z
1/2-x,1/2+y,z
loop_
_atom_site_type_symbol
_atom_site_label
_atom_site_fract_x
_atom_site_fract_y
_atom_site_fract_z
Si Si1 0.182790 0.051844 0.031830
Si Si2 0.816058 0.874672 0.178723
Si Si3 0.183973 0.872600 0.387531
Si Si4 0.183970 0.872597 0.676131
Si Si5 0.683558 0.803686 0.531826
Si Si6 0.816058 0.874671 0.884940
Si Si7 0.684433 0.448352 0.031831
Si Si8 0.816107 0.801149 0.031833
O O1 0.236194 0.080140 0.123491
O O2 0.000000 0.046684 0.031809
O O3 0.257763 0.000254 0.031831
O O4 0.236239 0.080146 0.940184
O O5 0.748401 0.874665 0.283073
O O6 0.758534 0.920815 0.123941
O O7 0.757890 0.828645 0.123915
O O8 0.000000 0.875062 0.183195
O O9 0.255263 0.828061 0.438673
O O10 0.000000 0.867278 0.389892
O O11 0.255306 0.828067 0.624984
O O12 0.251594 0.874663 0.780590
O O13 0.000000 0.867260 0.673765
O O14 0.500000 0.804516 0.531808
O O15 0.750021 0.751046 0.531835
O O16 0.000000 0.875065 0.880469
O O17 0.758531 0.920814 0.939722
O O18 0.757896 0.828644 0.939748
O O19 0.500000 0.450586 0.031831
O O20 0.000000 0.800466 0.031835
#
# Coordination Sequence:
#
# PCOD8174477 Si02
#       8
#     8   8   8   8   8   8   8   8
#     4   8  14  23  36  60  91 114 135 168 206 245
#     4   8  14  25  41  61  87 115 139 169 210 251
#     4   9  17  29  44  64  89 112 137 173 213 248
#     4   9  17  29  44  64  89 112 137 173 213 248
#     4  10  19  30  44  61  83 112 145 178 210 249
#     4   8  14  25  41  61  87 115 139 169 210 251
#     4   8  13  22  38  63  91 114 137 167 207 251
#     4   8  15  27  41  60  85 112 143 175 207 247
#
# _framework density 17.967514000000001
#
# number of rings (size 3 to 8) (size 9 to 14) (size 15 to 20)
#    0.000    3.500    0.000    2.625    0.000    2.000 
#    0.000    5.000    0.000    1.500    0.000   16.625 
#    0.000    0.000    0.000    0.000    0.000    0.000 
#
# Total GULP energy -396574.568001 kJ/mol
# GULP energy per Si atom -12392.955250 kJ/mol
# Density = 1.792662 g / cm^3
# Si number density = 17.967514 Si / 1000 Ang^3
#
#
#
# Elastic Constant Matrix: (Units=GPa)
#
#
# Indices 1 2 3 4 5 6 
#
# 1 13.4017 13.8515 12.6014 0.0000 0.0000 0.0000
# 2 13.8515 197.6622 102.4185 0.0000 0.0000 0.0000
# 3 12.6014 102.4185 200.3903 0.0000 0.0000 0.0000
# 4 0.0000 0.0000 0.0000 13.5186 0.0000 0.0000
# 5 0.0000 0.0000 0.0000 0.0000 11.1533 0.0000
# 6 0.0000 0.0000 0.0000 0.0000 0.0000 16.8170
#
#
#
# Elastic Compliance Matrix: (Units=1/GPa)
#
#
# Indices 1 2 3 4 5 6 
#
# 1 0.081758 -0.004170 -0.003010 0.000000 0.000000 0.000000
# 2 -0.004170 0.007094 -0.003364 0.000000 0.000000 0.000000
# 3 -0.003010 -0.003364 0.006899 0.000000 0.000000 0.000000
# 4 0.000000 0.000000 0.000000 0.073972 0.000000 0.000000
# 5 0.000000 0.000000 0.000000 0.000000 0.089660 0.000000
# 6 0.000000 0.000000 0.000000 0.000000 0.000000 0.059464
#
#
# Mechanical properties :
#
#
# Convention : Reuss Voigt Hill
#
# Bulk Modulus (GPa) = 13.39340 74.35522 43.87431
# Shear Modulus (GPa) = 13.70536 27.13662 20.42099
#
# Velocity S-wave (km/s) = 2.76485 3.89049 3.37493
# Velocity P-wave (km/s) = 4.20273 7.85202 6.29751
#
# Compressibility (1/GPa) = 0.07466366
#
# Stress axis : x y z
#
# Youngs Moduli (GPa) = 12.23128 140.96088 144.95538
#
# Poissons Ratio (x) = 0.58774 0.43635
# Poissons Ratio (y) = 0.05100 0.48757
# Poissons Ratio (z) = 0.03682 0.47414
#
# Static dielectric constant tensor:
#      x y z
#    x 2.684820 0.000000 0.000000 
#    y 0.000000 3.674220 0.000000 
#    z 0.000000 0.000000 3.656010 
# 
# 
# High freq. dielectric constant tensor:
#      x y z
#    x 1.631100 0.000000 0.000000 
#    y 0.000000 1.702100 0.000000 
#    z 0.000000 0.000000 1.702470 
# 
# From -- ./inp_files/11213.got.cif
#   From: 2010.03.12/outbox.cif.g09.slc.cpg/sg36_6_cif.got.tgz:11213.got - 2010.04.14 02:13:53.
