data_PCOD8174665
_publ_section_title
;
Structure prediction by ZEFSAII (Michael W. Deem and Ramdas Pophale) SiO2 
 PCOD8174665
Probable space group: C M C 21
;
_chemical_formula_sum "Si O2"
_cell_formula_units_Z 48
_cell_length_a 8.635144
_cell_length_b 18.335359
_cell_length_c 16.666951
_cell_angle_alpha 90.000000
_cell_angle_beta 90.000000
_cell_angle_gamma 90.000000
_cell_volume 2638.852772
_symmetry_space_group_name_H-M "C M C 21"
_symmetry_group_IT_number 36
_symmetry_cell_setting 'orthorhombic'
loop_
_space_group_symop_operation_xyz
x,y,z
-x,-y,1/2+z
x,-y,1/2+z
-x,y,z
1/2+x,1/2+y,z
1/2-x,1/2-y,1/2+z
1/2+x,1/2-y,1/2+z
1/2-x,1/2+y,z
loop_
_atom_site_type_symbol
_atom_site_label
_atom_site_fract_x
_atom_site_fract_y
_atom_site_fract_z
Si Si1 0.181199 0.414379 0.727700
Si Si2 0.322164 0.540949 0.806767
Si Si3 0.322697 0.961761 0.950644
Si Si4 0.678293 0.096095 0.048158
Si Si5 0.680834 0.665426 0.379255
Si Si6 0.181254 0.821277 0.401229
O O1 0.221477 0.500918 0.737956
O O2 0.233870 0.389567 0.638868
O O3 0.268763 0.364358 0.792023
O O4 0.000000 0.402976 0.738880
O O5 0.500000 0.536988 0.780757
O O6 0.296099 0.495489 0.887340
O O7 0.273817 0.624038 0.827755
O O8 0.500000 0.966208 0.919707
O O9 0.269349 0.877011 0.952782
O O10 0.303651 0.008465 0.031960
O O11 0.500000 0.119026 0.036245
O O12 0.779427 0.143919 0.987533
O O13 0.500000 0.654579 0.390215
O O14 0.720267 0.749811 0.386073
O O15 0.000000 0.803372 0.399778
#
# Coordination Sequence:
#
# PCOD8174665 Si02
#       6
#     8   8   8   8   8   8
#     4  10  19  33  53  76 103 132 165 207 254 301
#     4   9  17  30  49  73  97 124 163 203 241 291
#     4   9  16  30  51  72  96 127 163 201 244 295
#     4   9  19  34  53  77 102 130 165 208 255 303
#     4  11  21  33  51  75 103 136 173 209 249 300
#     4  10  20  34  53  75 101 135 171 210 255 302
#
# _framework density 18.189722
#
# number of rings (size 3 to 8) (size 9 to 14) (size 15 to 20)
#    0.000    2.333    0.000    5.500    0.000    4.000 
#    0.000    1.667    0.000    4.000    0.000    0.000 
#    0.000    0.000    0.000    0.000    0.000    0.000 
#
# Total GULP energy -297367.383735 kJ/mol
# GULP energy per Si atom -12390.307656 kJ/mol
# Density = 1.814832 g / cm^3
# Si number density = 18.189722 Si / 1000 Ang^3
#
#
#
# Elastic Constant Matrix: (Units=GPa)
#
#
# Indices 1 2 3 4 5 6 
#
# 1 67.5979 33.6059 29.0908 0.0000 0.0000 0.0000
# 2 33.6059 110.7447 33.2260 0.0000 0.0000 0.0000
# 3 29.0908 33.2260 76.6302 0.0000 0.0000 0.0000
# 4 0.0000 0.0000 0.0000 19.2577 0.0000 0.0000
# 5 0.0000 0.0000 0.0000 0.0000 20.6365 0.0000
# 6 0.0000 0.0000 0.0000 0.0000 0.0000 32.6250
#
#
#
# Elastic Compliance Matrix: (Units=1/GPa)
#
#
# Indices 1 2 3 4 5 6 
#
# 1 0.019238 -0.004192 -0.005486 0.000000 0.000000 0.000000
# 2 -0.004192 0.011294 -0.003305 0.000000 0.000000 0.000000
# 3 -0.005486 -0.003305 0.016565 0.000000 0.000000 0.000000
# 4 0.000000 0.000000 0.000000 0.051927 0.000000 0.000000
# 5 0.000000 0.000000 0.000000 0.000000 0.048458 0.000000
# 6 0.000000 0.000000 0.000000 0.000000 0.000000 0.030651
#
#
# Mechanical properties :
#
#
# Convention : Reuss Voigt Hill
#
# Bulk Modulus (GPa) = 47.32403 49.64647 48.48525
# Shear Modulus (GPa) = 23.68060 25.10718 24.39389
#
# Velocity S-wave (km/s) = 3.61205 3.71926 3.66605
# Velocity P-wave (km/s) = 6.59313 6.76734 6.68080
#
# Compressibility (1/GPa) = 0.02113091
#
# Stress axis : x y z
#
# Youngs Moduli (GPa) = 51.97995 88.54603 60.36691
#
# Poissons Ratio (x) = 0.37119 0.33115
# Poissons Ratio (y) = 0.21790 0.19953
# Poissons Ratio (z) = 0.28515 0.29268
#
# Static dielectric constant tensor:
#      x y z
#    x 3.354090 0.000000 0.000000 
#    y 0.000000 3.642870 0.000000 
#    z 0.000000 0.000000 3.259240 
# 
# 
# High freq. dielectric constant tensor:
#      x y z
#    x 1.715970 0.000000 0.000000 
#    y 0.000000 1.701690 0.000000 
#    z 0.000000 0.000000 1.675420 
# 
# From -- ./inp_files/13555.got.cif
#   From: 2010.03.12/outbox.cif.g09.slc.cpg/sg36_7_cif.got.tgz:13555.got - 2010.04.14 02:13:53.
