data_PCOD8174942
_publ_section_title
;
Structure prediction by ZEFSAII (Michael W. Deem and Ramdas Pophale) SiO2 
 PCOD8174942
Probable space group: C M C 21
;
_chemical_formula_sum "Si O2"
_cell_formula_units_Z 48
_cell_length_a 8.488385
_cell_length_b 30.701417
_cell_length_c 8.907552
_cell_angle_alpha 90.000000
_cell_angle_beta 90.000000
_cell_angle_gamma 90.000000
_cell_volume 2321.356575
_symmetry_space_group_name_H-M "C M C 21"
_symmetry_group_IT_number 36
_symmetry_cell_setting 'orthorhombic'
loop_
_space_group_symop_operation_xyz
x,y,z
-x,-y,1/2+z
x,-y,1/2+z
-x,y,z
1/2+x,1/2+y,z
1/2-x,1/2-y,1/2+z
1/2+x,1/2-y,1/2+z
1/2-x,1/2+y,z
loop_
_atom_site_type_symbol
_atom_site_label
_atom_site_fract_x
_atom_site_fract_y
_atom_site_fract_z
Si Si1 0.812395 0.952832 0.382730
Si Si2 0.818073 0.710206 0.867792
Si Si3 0.816680 0.130495 0.698853
Si Si4 0.183705 0.707398 0.214833
Si Si5 0.815204 0.962213 0.716844
Si Si6 0.182161 0.380669 0.876344
O O1 0.754745 0.908472 0.304713
O O2 0.741602 0.954589 0.551475
O O3 0.000000 0.954287 0.389152
O O4 0.744304 0.993725 0.289035
O O5 0.709021 0.675995 0.781931
O O6 0.787532 0.758073 0.804578
O O7 0.000000 0.697472 0.845367
O O8 0.770654 0.709887 0.041313
O O9 0.716650 0.130457 0.547898
O O10 0.000000 0.124884 0.659571
O O11 0.232049 0.659993 0.273982
O O12 0.000000 0.717174 0.243014
O O13 0.781675 0.922142 0.826017
O O14 0.000000 0.968155 0.701240
O O15 0.000000 0.391745 0.855256
#
# Coordination Sequence:
#
# PCOD8174942 Si02
#       6
#     8   8   8   8   8   8
#     4   9  19  35  59  87 114 148 192 238 281 339
#     4  11  23  39  60  86 115 147 187 237 287 336
#     4  11  22  38  60  86 116 152 193 235 283 339
#     4  10  23  41  59  82 115 153 191 232 282 343
#     4  10  19  36  60  85 113 148 191 236 285 339
#     4  11  23  39  58  84 117 152 192 238 286 336
#
# _framework density 20.677564
#
# number of rings (size 3 to 8) (size 9 to 14) (size 15 to 20)
#    0.000    1.667    0.000    4.500    0.000    8.000 
#    0.000    5.000    0.000    0.000    0.000    0.000 
#    0.000    0.000    0.000    0.000    0.000    0.000 
#
# Total GULP energy -297748.946638 kJ/mol
# GULP energy per Si atom -12406.206110 kJ/mol
# Density = 2.063050 g / cm^3
# Si number density = 20.677564 Si / 1000 Ang^3
#
#
#
# Elastic Constant Matrix: (Units=GPa)
#
#
# Indices 1 2 3 4 5 6 
#
# 1 20.5559 15.4533 14.9006 0.0000 0.0000 0.0000
# 2 15.4533 84.9389 12.0556 0.0000 0.0000 0.0000
# 3 14.9006 12.0556 109.9018 0.0000 0.0000 0.0000
# 4 0.0000 0.0000 0.0000 44.1620 0.0000 0.0000
# 5 0.0000 0.0000 0.0000 0.0000 23.7503 0.0000
# 6 0.0000 0.0000 0.0000 0.0000 0.0000 23.4157
#
#
#
# Elastic Compliance Matrix: (Units=1/GPa)
#
#
# Indices 1 2 3 4 5 6 
#
# 1 0.061531 -0.010169 -0.007227 0.000000 0.000000 0.000000
# 2 -0.010169 0.013640 -0.000118 0.000000 0.000000 0.000000
# 3 -0.007227 -0.000118 0.010092 0.000000 0.000000 0.000000
# 4 0.000000 0.000000 0.000000 0.022644 0.000000 0.000000
# 5 0.000000 0.000000 0.000000 0.000000 0.042105 0.000000
# 6 0.000000 0.000000 0.000000 0.000000 0.000000 0.042706
#
#
# Mechanical properties :
#
#
# Convention : Reuss Voigt Hill
#
# Bulk Modulus (GPa) = 19.90600 33.35730 26.63165
# Shear Modulus (GPa) = 20.45070 29.79806 25.12438
#
# Velocity S-wave (km/s) = 3.14829 3.80028 3.48955
# Velocity P-wave (km/s) = 4.78157 5.95175 5.39846
#
# Compressibility (1/GPa) = 0.05023612
#
# Stress axis : x y z
#
# Youngs Moduli (GPa) = 16.25189 73.31416 99.09066
#
# Poissons Ratio (x) = 0.74553 0.71613
# Poissons Ratio (y) = 0.16526 0.01164
# Poissons Ratio (z) = 0.11745 0.00862
#
# Static dielectric constant tensor:
#      x y z
#    x 3.399170 0.000000 0.000000 
#    y 0.000000 3.810000 0.000000 
#    z 0.000000 0.000000 3.956640 
# 
# 
# High freq. dielectric constant tensor:
#      x y z
#    x 1.784270 0.000000 0.000000 
#    y 0.000000 1.823480 0.000000 
#    z 0.000000 0.000000 1.827120 
# 
# From -- ./inp_files/2696.got.cif
#   From: 2010.03.12/outbox.cif.g09.slc.cpg/sg36_2_cif.got.tgz:2696.got - 2010.04.14 02:13:53.
