data_PCOD8174201
_publ_section_title
;
Structure prediction by ZEFSAII (Michael W. Deem and Ramdas Pophale) SiO2 
 PCOD8174201
Probable space group: C M C 21
;
_chemical_formula_sum "Si O2"
_cell_formula_units_Z 56
_cell_length_a 24.385194
_cell_length_b 29.517658
_cell_length_c 5.332508
_cell_angle_alpha 90.000000
_cell_angle_beta 90.000000
_cell_angle_gamma 90.000000
_cell_volume 3838.306286
_symmetry_space_group_name_H-M "C M C 21"
_symmetry_group_IT_number 36
_symmetry_cell_setting 'orthorhombic'
loop_
_space_group_symop_operation_xyz
x,y,z
-x,-y,1/2+z
x,-y,1/2+z
-x,y,z
1/2+x,1/2+y,z
1/2-x,1/2-y,1/2+z
1/2+x,1/2-y,1/2+z
1/2-x,1/2+y,z
loop_
_atom_site_type_symbol
_atom_site_label
_atom_site_fract_x
_atom_site_fract_y
_atom_site_fract_z
Si Si1 0.500000 0.554636 0.153720
Si Si2 0.319153 0.383991 0.636084
Si Si3 0.594240 0.316160 0.134571
Si Si4 0.500000 0.387789 0.153787
Si Si5 0.120646 0.787090 0.634548
Si Si6 0.381797 0.524565 0.132435
Si Si7 0.724210 0.230915 0.609000
Si Si8 0.284497 0.357260 0.136164
O O1 0.500000 0.577050 0.427554
O O2 0.447564 0.522244 0.129605
O O3 0.500000 0.590575 0.928189
O O4 0.347318 0.334939 0.635337
O O5 0.364526 0.423044 0.635558
O O6 0.281477 0.388180 0.386526
O O7 0.281629 0.388274 0.885989
O O8 0.555375 0.359326 0.128170
O O9 0.582789 0.286323 0.384758
O O10 0.657941 0.330314 0.135609
O O11 0.583591 0.285560 0.886370
O O12 0.160547 0.743796 0.633117
O O13 0.358891 0.499592 0.381285
O O14 0.743541 0.244147 0.331179
O O15 0.733337 0.177251 0.639047
#
# Coordination Sequence:
#
# PCOD8174201 Si02
#       8
#     4   8   8   4   8   8   8   8
#     4  12  22  37  50  60  72  90 132 186 242 270
#     4  10  18  30  43  57  76 100 122 150 197 248
#     4  10  18  28  39  58  81 101 130 155 191 235
#     4  12  22  33  50  64  76 106 138 176 216 272
#     4  10  18  29  44  63  82 102 121 154 193 255
#     4  12  24  37  48  60  75  98 134 181 228 271
#     4  12  16  27  43  69  87 104 120 141 190 254
#     4  10  17  28  44  63  83 101 120 152 192 256
#
# _framework density 14.589769
#
# number of rings (size 3 to 8) (size 9 to 14) (size 15 to 20)
#    0.000    1.143    5.714    6.429    0.000    0.000 
#    0.000    0.000    0.000    0.000    0.000    0.000 
#    0.000    0.000    0.000    0.000    0.000    0.000 
#
# Total GULP energy -347008.469670 kJ/mol
# GULP energy per Si atom -12393.159631 kJ/mol
# Density = 1.455656 g / cm^3
# Si number density = 14.589769 Si / 1000 Ang^3
#
#
#
# Elastic Constant Matrix: (Units=GPa)
#
#
# Indices 1 2 3 4 5 6 
#
# 1 15.7434 21.5466 12.6110 0.0000 0.0000 0.0000
# 2 21.5466 43.2695 21.5604 0.0000 0.0000 0.0000
# 3 12.6110 21.5604 146.7391 0.0000 0.0000 0.0000
# 4 0.0000 0.0000 0.0000 23.6571 0.0000 0.0000
# 5 0.0000 0.0000 0.0000 0.0000 11.8282 0.0000
# 6 0.0000 0.0000 0.0000 0.0000 0.0000 27.1149
#
#
#
# Elastic Compliance Matrix: (Units=1/GPa)
#
#
# Indices 1 2 3 4 5 6 
#
# 1 0.200477 -0.098453 -0.002764 0.000000 0.000000 0.000000
# 2 -0.098453 0.073286 -0.002307 0.000000 0.000000 0.000000
# 3 -0.002764 -0.002307 0.007391 0.000000 0.000000 0.000000
# 4 0.000000 0.000000 0.000000 0.042271 0.000000 0.000000
# 5 0.000000 0.000000 0.000000 0.000000 0.084544 0.000000
# 6 0.000000 0.000000 0.000000 0.000000 0.000000 0.036880
#
#
# Mechanical properties :
#
#
# Convention : Reuss Voigt Hill
#
# Bulk Modulus (GPa) = 13.49387 35.24311 24.36849
# Shear Modulus (GPa) = 7.38991 22.52229 14.95610
#
# Velocity S-wave (km/s) = 2.25303 3.93326 3.20521
# Velocity P-wave (km/s) = 4.00464 6.69596 5.51693
#
# Compressibility (1/GPa) = 0.07410774
#
# Stress axis : x y z
#
# Youngs Moduli (GPa) = 4.98811 13.64510 135.29496
#
# Poissons Ratio (x) = 1.34340 0.37390
# Poissons Ratio (y) = 0.49109 0.31209
# Poissons Ratio (z) = 0.01379 0.03148
#
# Static dielectric constant tensor:
#      x y z
#    x 2.513360 0.000000 0.000000 
#    y 0.000000 2.612380 0.000000 
#    z 0.000000 0.000000 4.703500 
# 
# 
# High freq. dielectric constant tensor:
#      x y z
#    x 1.494710 0.000000 0.000000 
#    y 0.000000 1.516950 0.000000 
#    z 0.000000 0.000000 1.607460 
# 
# From -- ./inp_files/1657.got.cif
#   From: 2010.03.12/outbox.cif.g09.slc.cpg/sg36_1_cif.got.tgz:1657.got - 2010.04.14 02:13:53.
