data_PCOD8174503
_publ_section_title
;
Structure prediction by ZEFSAII (Michael W. Deem and Ramdas Pophale) SiO2 
 PCOD8174503
Probable space group: C M C 21
;
_chemical_formula_sum "Si O2"
_cell_formula_units_Z 48
_cell_length_a 9.224460
_cell_length_b 38.547682
_cell_length_c 7.626574
_cell_angle_alpha 90.000000
_cell_angle_beta 90.000000
_cell_angle_gamma 90.000000
_cell_volume 2711.869009
_symmetry_space_group_name_H-M "C M C 21"
_symmetry_group_IT_number 36
_symmetry_cell_setting 'orthorhombic'
loop_
_space_group_symop_operation_xyz
x,y,z
-x,-y,1/2+z
x,-y,1/2+z
-x,y,z
1/2+x,1/2+y,z
1/2-x,1/2-y,1/2+z
1/2+x,1/2-y,1/2+z
1/2-x,1/2+y,z
loop_
_atom_site_type_symbol
_atom_site_label
_atom_site_fract_x
_atom_site_fract_y
_atom_site_fract_z
Si Si1 0.827486 0.037623 0.039260
Si Si2 0.671748 0.664333 0.343831
Si Si3 0.330556 0.715183 0.644211
Si Si4 0.826856 0.086831 0.343971
Si Si5 0.330582 0.284853 0.543214
Si Si6 0.827488 0.962371 0.148706
O O1 0.768609 0.066853 0.171900
O O2 0.000000 0.036438 0.046805
O O3 0.765967 0.999996 0.093963
O O4 0.773282 0.046999 0.843986
O O5 0.500000 0.661564 0.344247
O O6 0.725282 0.684466 0.517739
O O7 0.738451 0.625675 0.343956
O O8 0.724902 0.684360 0.169461
O O9 0.500000 0.722002 0.615621
O O10 0.295917 0.704283 0.843693
O O11 0.250136 0.750052 0.593955
O O12 0.768634 0.066866 0.516089
O O13 0.000000 0.087637 0.343918
O O14 0.500000 0.277957 0.571662
O O15 0.000000 0.963558 0.141166
#
# Coordination Sequence:
#
# PCOD8174503 Si02
#       6
#     8   8   8   8   8   8
#     4   9  14  20  31  46  65  93 132 173 210 251
#     4   9  18  30  41  59  86 109 141 191 231 263
#     4  10  19  31  49  69  89 117 153 188 226 273
#     4   9  16  24  34  49  72 101 131 175 225 253
#     4  10  19  31  49  69  89 117 153 188 226 273
#     4   9  14  20  31  46  65  93 132 173 210 251
#
# _framework density 17.699968999999999
#
# number of rings (size 3 to 8) (size 9 to 14) (size 15 to 20)
#    0.000    2.667    3.333    0.000    0.000    1.333 
#    0.000    6.667    0.000    0.000    0.000    0.000 
#    0.000    0.000    0.000    0.000    0.000    6.667 
#
# Total GULP energy -297512.719416 kJ/mol
# GULP energy per Si atom -12396.363309 kJ/mol
# Density = 1.765968 g / cm^3
# Si number density = 17.699969 Si / 1000 Ang^3
#
#
#
# Elastic Constant Matrix: (Units=GPa)
#
#
# Indices 1 2 3 4 5 6 
#
# 1 8.7369 14.4016 15.6689 0.0000 0.0000 0.0000
# 2 14.4016 186.8035 107.0956 0.0000 0.0000 0.0000
# 3 15.6689 107.0956 199.3454 0.0000 0.0000 0.0000
# 4 0.0000 0.0000 0.0000 35.9876 0.0000 0.0000
# 5 0.0000 0.0000 0.0000 0.0000 9.6874 0.0000
# 6 0.0000 0.0000 0.0000 0.0000 0.0000 12.0287
#
#
#
# Elastic Compliance Matrix: (Units=1/GPa)
#
#
# Indices 1 2 3 4 5 6 
#
# 1 0.138344 -0.006404 -0.007434 0.000000 0.000000 0.000000
# 2 -0.006404 0.008032 -0.003812 0.000000 0.000000 0.000000
# 3 -0.007434 -0.003812 0.007649 0.000000 0.000000 0.000000
# 4 0.000000 0.000000 0.000000 0.027787 0.000000 0.000000
# 5 0.000000 0.000000 0.000000 0.000000 0.103226 0.000000
# 6 0.000000 0.000000 0.000000 0.000000 0.000000 0.083135
#
#
# Mechanical properties :
#
#
# Convention : Reuss Voigt Hill
#
# Bulk Modulus (GPa) = 8.42272 74.35755 41.39014
# Shear Modulus (GPa) = 11.28545 28.72205 20.00375
#
# Velocity S-wave (km/s) = 2.52781 4.03267 3.36543
# Velocity P-wave (km/s) = 3.64537 7.98651 6.20778
#
# Compressibility (1/GPa) = 0.11872650
#
# Stress axis : x y z
#
# Youngs Moduli (GPa) = 7.22833 124.49734 130.74267
#
# Poissons Ratio (x) = 0.79726 0.97191
# Poissons Ratio (y) = 0.04629 0.49838
# Poissons Ratio (z) = 0.05373 0.47457
#
# Static dielectric constant tensor:
#      x y z
#    x 2.588300 0.000000 0.000000 
#    y 0.000000 3.607380 0.000000 
#    z 0.000000 0.000000 3.837440 
# 
# 
# High freq. dielectric constant tensor:
#      x y z
#    x 1.599550 0.000000 0.000000 
#    y 0.000000 1.687150 0.000000 
#    z 0.000000 0.000000 1.707980 
# 
# From -- ./inp_files/3503.got.cif
#   From: 2010.03.12/outbox.cif.g09.slc.cpg/sg36_2_cif.got.tgz:3503.got - 2010.04.14 02:13:53.
