data_PCOD8174766
_publ_section_title
;
Structure prediction by ZEFSAII (Michael W. Deem and Ramdas Pophale) SiO2 
 PCOD8174766
Probable space group: C M C 21
;
_chemical_formula_sum "Si O2"
_cell_formula_units_Z 56
_cell_length_a 17.547493
_cell_length_b 17.958921
_cell_length_c 8.694292
_cell_angle_alpha 90.000000
_cell_angle_beta 90.000000
_cell_angle_gamma 90.000000
_cell_volume 2739.867368
_symmetry_space_group_name_H-M "C M C 21"
_symmetry_group_IT_number 36
_symmetry_cell_setting 'orthorhombic'
loop_
_space_group_symop_operation_xyz
x,y,z
-x,-y,1/2+z
x,-y,1/2+z
-x,y,z
1/2+x,1/2+y,z
1/2-x,1/2-y,1/2+z
1/2+x,1/2-y,1/2+z
1/2-x,1/2+y,z
loop_
_atom_site_type_symbol
_atom_site_label
_atom_site_fract_x
_atom_site_fract_y
_atom_site_fract_z
Si Si1 0.835421 0.397009 0.371680
Si Si2 0.663316 0.952898 0.035211
Si Si3 0.000000 0.468234 0.081053
Si Si4 0.000000 0.600491 0.892305
Si Si5 0.086519 0.926913 0.897320
Si Si6 0.782490 0.196031 0.039256
Si Si7 0.414608 0.416040 0.536717
Si Si8 0.265956 0.658943 0.392336
O O1 0.830858 0.458799 0.505845
O O2 0.811160 0.432724 0.208809
O O3 0.919870 0.356386 0.368715
O O4 0.779895 0.331831 0.418541
O O5 0.575108 0.928349 0.011952
O O6 0.715863 0.915139 0.907215
O O7 0.000000 0.465550 0.265313
O O8 0.000000 0.557061 0.053139
O O9 0.087174 0.932847 0.715535
O O10 0.147154 0.862341 0.946322
O O11 0.000000 0.907976 0.956629
O O12 0.113991 0.007784 0.957135
O O13 0.861561 0.154776 0.995850
O O14 0.762688 0.184900 0.216810
O O15 0.778729 0.284014 0.005449
O O16 0.500000 0.395992 0.480581
#
# Coordination Sequence:
#
# PCOD8174766 Si02
#       8
#     8   8   4   4   8   8   8   8
#     4  10  19  34  56  81 109 143 184 227 272 324
#     4  10  19  34  56  81 109 143 184 227 272 324
#     4   8  16  30  50  76 104 136 173 214 259 310
#     4   8  16  30  50  76 104 136 173 214 259 310
#     4   9  19  37  61  86 110 142 185 233 282 334
#     4  11  23  38  55  79 113 149 186 229 282 340
#     4   9  19  37  61  86 110 142 185 233 282 334
#     4  11  23  38  55  79 113 149 186 229 282 340
#
# _framework density 20.438945
#
# number of rings (size 3 to 8) (size 9 to 14) (size 15 to 20)
#    0.000    2.286    0.000    2.571    0.000    5.714 
#    2.571    0.000    0.000    0.000    0.000    0.000 
#    0.000    0.000    0.000    0.000    0.000    0.000 
#
# Total GULP energy -346900.176832 kJ/mol
# GULP energy per Si atom -12389.292030 kJ/mol
# Density = 2.039242 g / cm^3
# Si number density = 20.438945 Si / 1000 Ang^3
#
#
#
# Elastic Constant Matrix: (Units=GPa)
#
#
# Indices 1 2 3 4 5 6 
#
# 1 89.8629 39.3513 27.3290 0.0000 0.0000 0.0000
# 2 39.3513 69.2749 11.8902 0.0000 0.0000 0.0000
# 3 27.3290 11.8902 46.9775 0.0000 0.0000 0.0000
# 4 0.0000 0.0000 0.0000 33.4396 0.0000 0.0000
# 5 0.0000 0.0000 0.0000 0.0000 28.6317 0.0000
# 6 0.0000 0.0000 0.0000 0.0000 0.0000 28.2799
#
#
#
# Elastic Compliance Matrix: (Units=1/GPa)
#
#
# Indices 1 2 3 4 5 6 
#
# 1 0.017215 -0.008426 -0.007882 0.000000 0.000000 0.000000
# 2 -0.008426 0.019215 0.000038 0.000000 0.000000 0.000000
# 3 -0.007882 0.000038 0.025862 0.000000 0.000000 0.000000
# 4 0.000000 0.000000 0.000000 0.029905 0.000000 0.000000
# 5 0.000000 0.000000 0.000000 0.000000 0.034926 0.000000
# 6 0.000000 0.000000 0.000000 0.000000 0.000000 0.035361
#
#
# Mechanical properties :
#
#
# Convention : Reuss Voigt Hill
#
# Bulk Modulus (GPa) = 33.61005 40.36184 36.98595
# Shear Modulus (GPa) = 24.39725 26.57323 25.48524
#
# Velocity S-wave (km/s) = 3.45869 3.60964 3.53497
# Velocity P-wave (km/s) = 5.69473 6.09615 5.89885
#
# Compressibility (1/GPa) = 0.02975300
#
# Stress axis : x y z
#
# Youngs Moduli (GPa) = 58.08906 52.04264 38.66614
#
# Poissons Ratio (x) = 0.43851 0.30477
# Poissons Ratio (y) = 0.48946 -0.00149
# Poissons Ratio (z) = 0.45786 -0.00200
#
# Static dielectric constant tensor:
#      x y z
#    x 4.221720 0.000000 0.000000 
#    y 0.000000 3.486790 0.000000 
#    z 0.000000 0.000000 3.591520 
# 
# 
# High freq. dielectric constant tensor:
#      x y z
#    x 1.814670 0.000000 0.000000 
#    y 0.000000 1.765400 0.000000 
#    z 0.000000 0.000000 1.796540 
# 
# From -- ./inp_files/4836.got.cif
#   From: 2010.03.12/outbox.cif.g09.slc.cpg/sg36_3_cif.got.tgz:4836.got - 2010.04.14 02:13:53.
