data_PCOD8174667
_publ_section_title
;
Structure prediction by ZEFSAII (Michael W. Deem and Ramdas Pophale) SiO2 
 PCOD8174667
Probable space group: C M C 21
;
_chemical_formula_sum "Si O2"
_cell_formula_units_Z 64
_cell_length_a 8.861020
_cell_length_b 14.192166
_cell_length_c 28.272197
_cell_angle_alpha 90.000000
_cell_angle_beta 90.000000
_cell_angle_gamma 90.000000
_cell_volume 3555.428566
_symmetry_space_group_name_H-M "C M C 21"
_symmetry_group_IT_number 36
_symmetry_cell_setting 'orthorhombic'
loop_
_space_group_symop_operation_xyz
x,y,z
-x,-y,1/2+z
x,-y,1/2+z
-x,y,z
1/2+x,1/2+y,z
1/2-x,1/2-y,1/2+z
1/2+x,1/2-y,1/2+z
1/2-x,1/2+y,z
loop_
_atom_site_type_symbol
_atom_site_label
_atom_site_fract_x
_atom_site_fract_y
_atom_site_fract_z
Si Si1 0.676115 0.647421 0.714700
Si Si2 0.323082 0.006269 0.648596
Si Si3 0.320035 0.373702 0.968188
Si Si4 0.823100 0.999477 0.295251
Si Si5 0.821117 0.489673 0.396056
Si Si6 0.321103 0.008622 0.041737
Si Si7 0.677362 0.836971 0.469890
Si Si8 0.178156 0.359807 0.727585
O O1 0.500000 0.648117 0.704629
O O2 0.752230 0.602143 0.668649
O O3 0.716786 0.587621 0.761138
O O4 0.736323 0.753281 0.721603
O O5 0.500000 0.020722 0.648881
O O6 0.264198 0.988134 0.595651
O O7 0.276216 0.916718 0.680355
O O8 0.500000 0.377731 0.966734
O O9 0.254872 0.420562 0.920833
O O10 0.253621 0.267437 0.969345
O O11 0.261283 0.423122 0.015598
O O12 0.000000 0.008104 0.305202
O O13 0.735174 0.979576 0.343075
O O14 0.764228 0.096412 0.272393
O O15 0.769723 0.395567 0.423890
O O16 0.000000 0.503276 0.397565
O O17 0.500000 0.992887 0.037438
O O18 0.272821 0.107003 0.017198
O O19 0.500000 0.826412 0.469081
O O20 0.000000 0.364473 0.737420
#
# Coordination Sequence:
#
# PCOD8174667 Si02
#       8
#     8   8   8   8   8   8   8   8
#     4   9  19  34  52  74 102 130 164 209 252 289
#     4   9  18  32  52  74 100 133 169 203 241 294
#     4  10  19  33  53  77 100 127 166 211 249 287
#     4  10  20  34  51  75 103 129 160 206 251 291
#     4  10  20  36  54  72  98 133 165 199 244 300
#     4   9  18  34  51  72 102 135 166 200 244 297
#     4   8  17  33  52  72  98 130 164 199 243 295
#     4   9  18  34  53  74  99 133 170 203 244 297
#
# _framework density 18.000643
#
# number of rings (size 3 to 8) (size 9 to 14) (size 15 to 20)
#    0.000    2.750    0.000    1.875    0.000    3.500 
#    0.000   11.250    0.000    0.000    0.000    0.000 
#    0.000    0.000    0.000    0.000    0.000    0.000 
#
# Total GULP energy -396801.317079 kJ/mol
# GULP energy per Si atom -12400.041159 kJ/mol
# Density = 1.795967 g / cm^3
# Si number density = 18.000643 Si / 1000 Ang^3
#
#
#
# Elastic Constant Matrix: (Units=GPa)
#
#
# Indices 1 2 3 4 5 6 
#
# 1 44.1210 32.3033 34.5817 0.0000 0.0000 0.0000
# 2 32.3033 155.6488 56.7443 0.0000 0.0000 0.0000
# 3 34.5817 56.7443 133.2195 0.0000 0.0000 0.0000
# 4 0.0000 0.0000 0.0000 13.3264 0.0000 0.0000
# 5 0.0000 0.0000 0.0000 0.0000 30.7871 0.0000
# 6 0.0000 0.0000 0.0000 0.0000 0.0000 24.7379
#
#
#
# Elastic Compliance Matrix: (Units=1/GPa)
#
#
# Indices 1 2 3 4 5 6 
#
# 1 0.030492 -0.004076 -0.006179 0.000000 0.000000 0.000000
# 2 -0.004076 0.008151 -0.002414 0.000000 0.000000 0.000000
# 3 -0.006179 -0.002414 0.010139 0.000000 0.000000 0.000000
# 4 0.000000 0.000000 0.000000 0.075039 0.000000 0.000000
# 5 0.000000 0.000000 0.000000 0.000000 0.032481 0.000000
# 6 0.000000 0.000000 0.000000 0.000000 0.000000 0.040424
#
#
# Mechanical properties :
#
#
# Convention : Reuss Voigt Hill
#
# Bulk Modulus (GPa) = 42.65476 64.47197 53.56337
# Shear Modulus (GPa) = 21.75078 27.72764 24.73921
#
# Velocity S-wave (km/s) = 3.47988 3.92901 3.71125
# Velocity P-wave (km/s) = 6.31615 7.51512 6.94157
#
# Compressibility (1/GPa) = 0.02344404
#
# Stress axis : x y z
#
# Youngs Moduli (GPa) = 32.79534 122.69147 98.63315
#
# Poissons Ratio (x) = 0.50004 0.60948
# Poissons Ratio (y) = 0.13366 0.23807
# Poissons Ratio (z) = 0.20265 0.29614
#
# Static dielectric constant tensor:
#      x y z
#    x 3.187730 0.000000 0.000000 
#    y 0.000000 3.576130 0.000000 
#    z 0.000000 0.000000 3.418730 
# 
# 
# High freq. dielectric constant tensor:
#      x y z
#    x 1.686750 0.000000 0.000000 
#    y 0.000000 1.700550 0.000000 
#    z 0.000000 0.000000 1.700350 
# 
# From -- ./inp_files/16698.got.cif
#   From: 2010.03.12/outbox.cif.g09.slc.cpg/sg36_9_cif.got.tgz:16698.got - 2010.04.14 02:13:53.
