data_PCOD8174755
_publ_section_title
;
Structure prediction by ZEFSAII (Michael W. Deem and Ramdas Pophale) SiO2 
 PCOD8174755
Probable space group: C M C 21
;
_chemical_formula_sum "Si O2"
_cell_formula_units_Z 64
_cell_length_a 8.734785
_cell_length_b 24.984981
_cell_length_c 14.804048
_cell_angle_alpha 90.000000
_cell_angle_beta 90.000000
_cell_angle_gamma 90.000000
_cell_volume 3230.812301
_symmetry_space_group_name_H-M "C M C 21"
_symmetry_group_IT_number 36
_symmetry_cell_setting 'orthorhombic'
loop_
_space_group_symop_operation_xyz
x,y,z
-x,-y,1/2+z
x,-y,1/2+z
-x,y,z
1/2+x,1/2+y,z
1/2-x,1/2-y,1/2+z
1/2+x,1/2-y,1/2+z
1/2-x,1/2+y,z
loop_
_atom_site_type_symbol
_atom_site_label
_atom_site_fract_x
_atom_site_fract_y
_atom_site_fract_z
Si Si1 0.682141 0.416735 0.892130
Si Si2 0.680199 0.698759 0.821832
Si Si3 0.317286 0.701895 0.430914
Si Si4 0.680206 0.728824 0.627626
Si Si5 0.671810 0.846869 0.626783
Si Si6 0.818190 0.991919 0.520326
Si Si7 0.177065 0.946204 0.702051
Si Si8 0.828552 0.390691 0.433096
O O1 0.500000 0.414428 0.885277
O O2 0.744696 0.355906 0.895861
O O3 0.747390 0.448875 0.803488
O O4 0.730886 0.450145 0.981400
O O5 0.500000 0.705270 0.834604
O O6 0.756468 0.750003 0.869398
O O7 0.726728 0.694991 0.715818
O O8 0.733703 0.641605 0.858644
O O9 0.500000 0.703975 0.428800
O O10 0.251818 0.706384 0.533646
O O11 0.500000 0.731049 0.614685
O O12 0.738205 0.788634 0.647706
O O13 0.500000 0.856618 0.666393
O O14 0.795598 0.885912 0.669832
O O15 0.666239 0.852669 0.519517
O O16 0.752763 0.985486 0.623850
O O17 0.750600 0.947003 0.454442
O O18 0.000000 0.984409 0.520576
O O19 0.000000 0.959245 0.708176
O O20 0.000000 0.401789 0.397437
#
# Coordination Sequence:
#
# PCOD8174755 Si02
#       8
#     8   8   8   8   8   8   8   8
#     4   9  18  33  54  79 105 138 179 218 260 313
#     4  11  21  33  52  81 110 138 176 221 267 316
#     4  10  19  36  56  76 108 147 181 215 263 323
#     4   9  18  32  49  74 106 141 175 208 259 325
#     4   9  16  30  51  72  98 133 171 209 252 310
#     4   9  18  34  53  77 106 134 171 224 268 305
#     4   9  17  30  50  78 103 128 173 222 260 300
#     4  10  19  34  55  75 100 137 176 215 263 318
#
# _framework density 19.809259999999998
#
# number of rings (size 3 to 8) (size 9 to 14) (size 15 to 20)
#    0.000    2.500    1.250    1.500    0.000    0.500 
#    2.250    3.125    0.000    0.000    0.000    0.000 
#    0.000    0.000    0.000    0.000    0.000    0.000 
#
# Total GULP energy -396482.230886 kJ/mol
# GULP energy per Si atom -12390.069715 kJ/mol
# Density = 1.976417 g / cm^3
# Si number density = 19.809260 Si / 1000 Ang^3
#
#
#
# Elastic Constant Matrix: (Units=GPa)
#
#
# Indices 1 2 3 4 5 6 
#
# 1 28.2282 5.8019 13.5301 0.0000 0.0000 0.0000
# 2 5.8019 54.5014 26.8360 0.0000 0.0000 0.0000
# 3 13.5301 26.8360 116.5057 0.0000 0.0000 0.0000
# 4 0.0000 0.0000 0.0000 24.6814 0.0000 0.0000
# 5 0.0000 0.0000 0.0000 0.0000 15.7390 0.0000
# 6 0.0000 0.0000 0.0000 0.0000 0.0000 21.4657
#
#
#
# Elastic Compliance Matrix: (Units=1/GPa)
#
#
# Indices 1 2 3 4 5 6 
#
# 1 0.037725 -0.002097 -0.003898 0.000000 0.000000 0.000000
# 2 -0.002097 0.020812 -0.004550 0.000000 0.000000 0.000000
# 3 -0.003898 -0.004550 0.010084 0.000000 0.000000 0.000000
# 4 0.000000 0.000000 0.000000 0.040516 0.000000 0.000000
# 5 0.000000 0.000000 0.000000 0.000000 0.063536 0.000000
# 6 0.000000 0.000000 0.000000 0.000000 0.000000 0.046586
#
#
# Mechanical properties :
#
#
# Convention : Reuss Voigt Hill
#
# Bulk Modulus (GPa) = 21.03900 32.39684 26.71792
# Shear Modulus (GPa) = 19.51649 22.58170 21.04909
#
# Velocity S-wave (km/s) = 3.14223 3.37999 3.26327
# Velocity P-wave (km/s) = 4.87941 5.62337 5.26455
#
# Compressibility (1/GPa) = 0.04753077
#
# Stress axis : x y z
#
# Youngs Moduli (GPa) = 26.50763 48.04946 99.16592
#
# Poissons Ratio (x) = 0.10074 0.38657
# Poissons Ratio (y) = 0.05558 0.45124
# Poissons Ratio (z) = 0.10333 0.21864
#
# Static dielectric constant tensor:
#      x y z
#    x 3.287810 0.000000 0.000000 
#    y 0.000000 3.532630 0.000000 
#    z 0.000000 0.000000 3.995920 
# 
# 
# High freq. dielectric constant tensor:
#      x y z
#    x 1.735820 0.000000 0.000000 
#    y 0.000000 1.760250 0.000000 
#    z 0.000000 0.000000 1.781950 
# 
# From -- ./inp_files/11046.got.cif
#   From: 2010.03.12/outbox.cif.g09.slc.cpg/sg36_6_cif.got.tgz:11046.got - 2010.04.14 02:13:53.
