data_PCOD8174333
_publ_section_title
;
Structure prediction by ZEFSAII (Michael W. Deem and Ramdas Pophale) SiO2 
 PCOD8174333
Probable space group: C M C 21
;
_chemical_formula_sum "Si O2"
_cell_formula_units_Z 44
_cell_length_a 25.352743
_cell_length_b 16.433359
_cell_length_c 5.241490
_cell_angle_alpha 90.000000
_cell_angle_beta 90.000000
_cell_angle_gamma 90.000000
_cell_volume 2183.765791
_symmetry_space_group_name_H-M "C M C 21"
_symmetry_group_IT_number 36
_symmetry_cell_setting 'orthorhombic'
loop_
_space_group_symop_operation_xyz
x,y,z
-x,-y,1/2+z
x,-y,1/2+z
-x,y,z
1/2+x,1/2+y,z
1/2-x,1/2-y,1/2+z
1/2+x,1/2-y,1/2+z
1/2-x,1/2+y,z
loop_
_atom_site_type_symbol
_atom_site_label
_atom_site_fract_x
_atom_site_fract_y
_atom_site_fract_z
Si Si1 0.607743 0.907533 0.465280
Si Si2 0.222982 0.650187 0.951173
Si Si3 0.713353 0.659168 0.451186
Si Si4 0.612984 0.553348 0.418394
Si Si5 0.500000 0.549225 0.509169
Si Si6 0.437751 0.911697 0.965069
O O1 0.670595 0.903920 0.447598
O O2 0.586030 0.863463 0.721843
O O3 0.589250 0.000416 0.489095
O O4 0.579991 0.864242 0.221538
O O5 0.256540 0.627505 0.701852
O O6 0.207110 0.744283 0.950654
O O7 0.255703 0.627433 0.203041
O O8 0.654834 0.624462 0.452307
O O9 0.619926 0.485901 0.639211
O O10 0.554878 0.595838 0.446660
O O11 0.500000 0.526913 0.809400
O O12 0.500000 0.921095 0.942545
#
# Coordination Sequence:
#
# PCOD8174333 Si02
#       6
#     8   8   8   8   4   8
#     4  10  18  32  50  76  98 139 182 212 254 301
#     4  10  21  37  55  74 107 154 173 215 256 316
#     4  10  21  38  54  76 108 142 183 207 268 318
#     4  10  19  35  55  85 105 135 169 224 267 313
#     4   8  16  30  54  74 104 132 162 204 276 322
#     4  10  19  33  53  76 108 142 174 213 263 305
#
# _framework density 20.148679000000001
#
# number of rings (size 3 to 8) (size 9 to 14) (size 15 to 20)
#    0.000    2.182    0.000    4.909    0.000    0.000 
#   19.636    0.000    6.000    0.000    4.727    0.000 
#    0.000    0.000    0.000    0.000    0.000    0.000 
#
# Total GULP energy -272653.319994 kJ/mol
# GULP energy per Si atom -12393.332727 kJ/mol
# Density = 2.010282 g / cm^3
# Si number density = 20.148679 Si / 1000 Ang^3
#
#
#
# Elastic Constant Matrix: (Units=GPa)
#
#
# Indices 1 2 3 4 5 6 
#
# 1 183.8842 32.9949 40.1340 0.0000 0.0000 0.0000
# 2 32.9949 12.9514 5.4234 0.0000 0.0000 0.0000
# 3 40.1340 5.4234 168.8400 0.0000 0.0000 0.0000
# 4 0.0000 0.0000 0.0000 5.8646 0.0000 0.0000
# 5 0.0000 0.0000 0.0000 0.0000 36.8146 0.0000
# 6 0.0000 0.0000 0.0000 0.0000 0.0000 15.7286
#
#
#
# Elastic Compliance Matrix: (Units=1/GPa)
#
#
# Indices 1 2 3 4 5 6 
#
# 1 0.010453 -0.025938 -0.001651 0.000000 0.000000 0.000000
# 2 -0.025938 0.142626 0.001584 0.000000 0.000000 0.000000
# 3 -0.001651 0.001584 0.006264 0.000000 0.000000 0.000000
# 4 0.000000 0.000000 0.000000 0.170514 0.000000 0.000000
# 5 0.000000 0.000000 0.000000 0.000000 0.027163 0.000000
# 6 0.000000 0.000000 0.000000 0.000000 0.000000 0.063578
#
#
# Mechanical properties :
#
#
# Convention : Reuss Voigt Hill
#
# Bulk Modulus (GPa) = 9.31676 58.08672 33.70174
# Shear Modulus (GPa) = 9.83504 30.82313 20.32909
#
# Velocity S-wave (km/s) = 2.21175 3.91549 3.17985
# Velocity P-wave (km/s) = 3.34013 7.02375 5.49952
#
# Compressibility (1/GPa) = 0.10733344
#
# Stress axis : x y z
#
# Youngs Moduli (GPa) = 95.66891 7.01133 159.63093
#
# Poissons Ratio (x) = 0.18186 0.26363
# Poissons Ratio (y) = 2.48142 -0.25287
# Poissons Ratio (z) = 0.15800 -0.01111
#
# Static dielectric constant tensor:
#      x y z
#    x 3.848450 0.000000 0.000000 
#    y 0.000000 2.941790 0.000000 
#    z 0.000000 0.000000 6.670210 
# 
# 
# High freq. dielectric constant tensor:
#      x y z
#    x 1.807310 0.000000 0.000000 
#    y 0.000000 1.709280 0.000000 
#    z 0.000000 0.000000 1.827770 
# 
# From -- ./inp_files/1335.got.cif
#   From: 2010.03.12/outbox.cif.g09.slc.cpg/sg36_1_cif.got.tgz:1335.got - 2010.04.14 02:13:53.
