data_PCOD8174336
_publ_section_title
;
Structure prediction by ZEFSAII (Michael W. Deem and Ramdas Pophale) SiO2 
 PCOD8174336
Probable space group: C M C 21
;
_chemical_formula_sum "Si O2"
_cell_formula_units_Z 60
_cell_length_a 17.350678
_cell_length_b 30.198870
_cell_length_c 5.197376
_cell_angle_alpha 90.000000
_cell_angle_beta 90.000000
_cell_angle_gamma 90.000000
_cell_volume 2723.273621
_symmetry_space_group_name_H-M "C M C 21"
_symmetry_group_IT_number 36
_symmetry_cell_setting 'orthorhombic'
loop_
_space_group_symop_operation_xyz
x,y,z
-x,-y,1/2+z
x,-y,1/2+z
-x,y,z
1/2+x,1/2+y,z
1/2-x,1/2-y,1/2+z
1/2+x,1/2-y,1/2+z
1/2-x,1/2+y,z
loop_
_atom_site_type_symbol
_atom_site_label
_atom_site_fract_x
_atom_site_fract_y
_atom_site_fract_z
Si Si1 0.200178 0.254239 0.653650
Si Si2 0.000000 0.471069 0.059371
Si Si3 0.852297 0.122757 0.132573
Si Si4 0.617517 0.480645 0.669107
Si Si5 0.714488 0.018689 0.668795
Si Si6 0.089968 0.828289 0.137462
Si Si7 0.826020 0.646052 0.087553
Si Si8 0.365330 0.099096 0.589970
O O1 0.262381 0.242263 0.435852
O O2 0.132043 0.218816 0.654888
O O3 0.164942 0.301571 0.588359
O O4 0.926940 0.439777 0.102049
O O5 0.000000 0.509490 0.272207
O O6 0.877167 0.071709 0.132746
O O7 0.874382 0.143890 0.404447
O O8 0.761714 0.129365 0.084876
O O9 0.898907 0.145953 0.904051
O O10 0.573787 0.504963 0.432412
O O11 0.700435 0.501987 0.732556
O O12 0.715493 0.071349 0.606064
O O13 0.671370 0.991213 0.441100
O O14 0.000000 0.819830 0.089035
O O15 0.871446 0.627142 0.331935
O O16 0.871150 0.631334 0.832501
#
# Coordination Sequence:
#
# PCOD8174336 Si02
#       8
#     8   4   8   8   8   8   8   8
#     4  12  23  47  72 104 138 172 226 290 356 426
#     4  12  26  46  66  90 146 210 246 288 352 434
#     4  12  23  41  72 102 139 177 227 283 346 407
#     4  10  19  33  56  94 130 162 212 275 331 380
#     4  10  18  32  51  82 122 157 206 266 316 376
#     4  12  26  47  71 103 139 184 228 275 353 443
#     4  12  23  40  71  99 133 169 224 302 351 398
#     4  12  24  40  62  98 134 181 237 284 347 418
#
# _framework density 22.032305999999998
#
# number of rings (size 3 to 8) (size 9 to 14) (size 15 to 20)
#    0.000    0.533    2.667    8.400    0.000    0.000 
#    2.400    0.000    0.000    8.000    0.000    0.000 
#    0.000    0.000    0.000    0.000    0.000    0.000 
#
# Total GULP energy -371939.200740 kJ/mol
# GULP energy per Si atom -12397.973358 kJ/mol
# Density = 2.198216 g / cm^3
# Si number density = 22.032306 Si / 1000 Ang^3
#
#
#
# Elastic Constant Matrix: (Units=GPa)
#
#
# Indices 1 2 3 4 5 6 
#
# 1 66.7361 31.1274 10.4298 0.0000 0.0000 0.0000
# 2 31.1274 143.8842 27.3233 0.0000 0.0000 0.0000
# 3 10.4298 27.3233 138.0149 0.0000 0.0000 0.0000
# 4 0.0000 0.0000 0.0000 39.9613 0.0000 0.0000
# 5 0.0000 0.0000 0.0000 0.0000 12.7797 0.0000
# 6 0.0000 0.0000 0.0000 0.0000 0.0000 21.3212
#
#
#
# Elastic Compliance Matrix: (Units=1/GPa)
#
#
# Indices 1 2 3 4 5 6 
#
# 1 0.016709 -0.003507 -0.000568 0.000000 0.000000 0.000000
# 2 -0.003507 0.007958 -0.001310 0.000000 0.000000 0.000000
# 3 -0.000568 -0.001310 0.007548 0.000000 0.000000 0.000000
# 4 0.000000 0.000000 0.000000 0.025024 0.000000 0.000000
# 5 0.000000 0.000000 0.000000 0.000000 0.078249 0.000000
# 6 0.000000 0.000000 0.000000 0.000000 0.000000 0.046902
#
#
# Mechanical properties :
#
#
# Convention : Reuss Voigt Hill
#
# Bulk Modulus (GPa) = 46.63493 54.04405 50.33949
# Shear Modulus (GPa) = 24.96151 33.46275 29.21213
#
# Velocity S-wave (km/s) = 3.36958 3.90141 3.64521
# Velocity P-wave (km/s) = 6.02921 6.69906 6.37294
#
# Compressibility (1/GPa) = 0.02144315
#
# Stress axis : x y z
#
# Youngs Moduli (GPa) = 59.84837 125.66727 132.48595
#
# Poissons Ratio (x) = 0.44069 0.07531
# Poissons Ratio (y) = 0.20988 0.17361
# Poissons Ratio (z) = 0.03402 0.16467
#
# Static dielectric constant tensor:
#      x y z
#    x 3.553900 0.000000 0.000000 
#    y 0.000000 4.155500 0.000000 
#    z 0.000000 0.000000 4.950180 
# 
# 
# High freq. dielectric constant tensor:
#      x y z
#    x 1.841130 0.000000 0.000000 
#    y 0.000000 1.876130 0.000000 
#    z 0.000000 0.000000 1.904080 
# 
# From -- ./inp_files/1186.got.cif
#   From: 2010.03.12/outbox.cif.g09.slc.cpg/sg36_1_cif.got.tgz:1186.got - 2010.04.14 02:13:53.
