data_PCOD8174768
_publ_section_title
;
Structure prediction by ZEFSAII (Michael W. Deem and Ramdas Pophale) SiO2 
 PCOD8174768
Probable space group: C M C 21
;
_chemical_formula_sum "Si O2"
_cell_formula_units_Z 64
_cell_length_a 9.455947
_cell_length_b 24.819158
_cell_length_c 13.999775
_cell_angle_alpha 90.000000
_cell_angle_beta 90.000000
_cell_angle_gamma 90.000000
_cell_volume 3285.588192
_symmetry_space_group_name_H-M "C M C 21"
_symmetry_group_IT_number 36
_symmetry_cell_setting 'orthorhombic'
loop_
_space_group_symop_operation_xyz
x,y,z
-x,-y,1/2+z
x,-y,1/2+z
-x,y,z
1/2+x,1/2+y,z
1/2-x,1/2-y,1/2+z
1/2+x,1/2-y,1/2+z
1/2-x,1/2+y,z
loop_
_atom_site_type_symbol
_atom_site_label
_atom_site_fract_x
_atom_site_fract_y
_atom_site_fract_z
Si Si1 0.666570 0.298858 0.978520
Si Si2 0.654410 0.485809 0.010296
Si Si3 0.664969 0.541763 0.299157
Si Si4 0.833084 0.307758 0.588055
Si Si5 0.841326 0.882100 0.132756
Si Si6 0.663399 0.938626 0.275630
Si Si7 0.839597 0.418702 0.497510
Si Si8 0.667603 0.664693 0.270853
O O1 0.500000 0.307837 0.974144
O O2 0.724506 0.311353 0.872077
O O3 0.709476 0.239734 0.014939
O O4 0.726453 0.340875 0.056635
O O5 0.500000 0.511899 0.996554
O O6 0.651612 0.441079 0.089618
O O7 0.754318 0.533409 0.047725
O O8 0.702110 0.458489 0.911378
O O9 0.500000 0.529551 0.278968
O O10 0.759170 0.495191 0.250322
O O11 0.705718 0.601238 0.261654
O O12 0.783796 0.361613 0.534376
O O13 0.748839 0.302859 0.687706
O O14 0.000000 0.306147 0.610196
O O15 0.735482 0.887911 0.221865
O O16 0.000000 0.863919 0.164866
O O17 0.500000 0.943853 0.245690
O O18 0.682231 0.922826 0.384998
O O19 0.000000 0.426755 0.528233
O O20 0.500000 0.673892 0.260222
#
# Coordination Sequence:
#
# PCOD8174768 Si02
#       8
#     8   8   8   8   8   8   8   8
#     4   9  19  39  62  81 109 150 191 230 277 331
#     4   9  17  31  54  79 105 138 180 229 275 321
#     4   9  17  33  55  80 109 143 187 232 275 325
#     4  10  22  39  59  83 112 150 188 227 280 335
#     4  10  19  34  56  82 108 143 189 232 274 324
#     4  10  21  34  51  80 118 155 185 221 276 339
#     4   9  20  37  52  74 113 151 182 217 271 337
#     4  10  20  37  61  85 108 142 188 236 278 326
#
# _framework density 19.479009999999999
#
# number of rings (size 3 to 8) (size 9 to 14) (size 15 to 20)
#    0.000    2.500    1.250    0.375    1.750    3.000 
#    0.000    3.125    0.000    0.000    0.000    0.000 
#    0.000    0.000    0.000    0.000    0.000    0.000 
#
# Total GULP energy -396709.140500 kJ/mol
# GULP energy per Si atom -12397.160641 kJ/mol
# Density = 1.943467 g / cm^3
# Si number density = 19.479010 Si / 1000 Ang^3
#
#
#
# Elastic Constant Matrix: (Units=GPa)
#
#
# Indices 1 2 3 4 5 6 
#
# 1 57.2820 32.7915 26.8178 0.0000 0.0000 0.0000
# 2 32.7915 99.0165 36.2037 0.0000 0.0000 0.0000
# 3 26.8178 36.2037 56.5072 0.0000 0.0000 0.0000
# 4 0.0000 0.0000 0.0000 32.1401 0.0000 0.0000
# 5 0.0000 0.0000 0.0000 0.0000 28.9904 0.0000
# 6 0.0000 0.0000 0.0000 0.0000 0.0000 21.8549
#
#
#
# Elastic Compliance Matrix: (Units=1/GPa)
#
#
# Indices 1 2 3 4 5 6 
#
# 1 0.024189 -0.004980 -0.008289 0.000000 0.000000 0.000000
# 2 -0.004980 0.014214 -0.006743 0.000000 0.000000 0.000000
# 3 -0.008289 -0.006743 0.025951 0.000000 0.000000 0.000000
# 4 0.000000 0.000000 0.000000 0.031114 0.000000 0.000000
# 5 0.000000 0.000000 0.000000 0.000000 0.034494 0.000000
# 6 0.000000 0.000000 0.000000 0.000000 0.000000 0.045756
#
#
# Mechanical properties :
#
#
# Convention : Reuss Voigt Hill
#
# Bulk Modulus (GPa) = 41.10285 44.93686 43.01986
# Shear Modulus (GPa) = 22.33597 24.39659 23.36628
#
# Velocity S-wave (km/s) = 3.38992 3.54284 3.46723
# Velocity P-wave (km/s) = 6.03896 6.31309 6.17755
#
# Compressibility (1/GPa) = 0.02432921
#
# Stress axis : x y z
#
# Youngs Moduli (GPa) = 41.34091 70.35234 38.53356
#
# Poissons Ratio (x) = 0.35035 0.31942
# Poissons Ratio (y) = 0.20587 0.25985
# Poissons Ratio (z) = 0.34269 0.47442
#
# Static dielectric constant tensor:
#      x y z
#    x 3.475220 0.000000 0.000000 
#    y 0.000000 3.559140 0.000000 
#    z 0.000000 0.000000 3.583070 
# 
# 
# High freq. dielectric constant tensor:
#      x y z
#    x 1.734310 0.000000 0.000000 
#    y 0.000000 1.752570 0.000000 
#    z 0.000000 0.000000 1.764570 
# 
# From -- ./inp_files/11073.got.cif
#   From: 2010.03.12/outbox.cif.g09.slc.cpg/sg36_6_cif.got.tgz:11073.got - 2010.04.14 02:13:53.
