data_PCOD8174169
_publ_section_title
;
Structure prediction by ZEFSAII (Michael W. Deem and Ramdas Pophale) SiO2 
 PCOD8174169
Probable space group: C M M 2
;
_chemical_formula_sum "Si O2"
_cell_formula_units_Z 24
_cell_length_a 9.000000
_cell_length_b 15.000000
_cell_length_c 18.000000
_cell_angle_alpha 90.000000
_cell_angle_beta 90.000000
_cell_angle_gamma 90.000000
_cell_volume 2430.000000
_symmetry_space_group_name_H-M "C M M 2"
_symmetry_group_IT_number 35
_symmetry_cell_setting 'orthorhombic'
loop_
_space_group_symop_operation_xyz
x,y,z
-x,-y,z
-x,y,z
x,-y,z
1/2+x,1/2+y,z
1/2-x,1/2-y,z
1/2-x,1/2+y,z
1/2+x,1/2-y,z
loop_
_atom_site_type_symbol
_atom_site_label
_atom_site_fract_x
_atom_site_fract_y
_atom_site_fract_z
Si Si1 0.176379 0.340688 0.946570
Si Si2 0.181569 0.000000 0.224247
Si Si3 0.179923 0.656747 0.324378
Si Si4 0.836136 0.601142 0.785577
Si Si5 0.833118 0.896874 0.473463
Si Si6 0.676170 0.000000 0.057930
Si Si7 0.676383 0.344315 0.638796
O O1 0.250000 0.250000 0.975816
O O2 0.233559 0.356354 0.861088
O O3 0.000000 0.332776 0.944332
O O4 0.222869 0.415375 0.007094
O O5 0.246548 0.084694 0.269148
O O6 0.237582 0.000000 0.137852
O O7 0.000000 0.000000 0.226169
O O8 0.250000 0.750000 0.297557
O O9 0.224039 0.644811 0.411691
O O10 0.000000 0.654761 0.317800
O O11 0.857389 0.500000 0.808292
O O12 0.733689 0.604133 0.711864
O O13 0.000000 0.642719 0.767680
O O14 0.774099 0.884256 0.558473
O O15 0.000000 0.855651 0.465550
O O16 0.840037 0.000000 0.455675
O O17 0.500000 0.000000 0.074934
O O18 0.500000 0.341443 0.643189
O O19 0.750000 0.250000 0.645564
#
# Coordination Sequence:
#
# PCOD8174169 Si02
#       7
#     8   4   8   8   8   4   8
#     4  10  21  39  64  92 125 165 208 257 314 375
#     4  12  26  46  70  99 134 167 208 263 320 385
#     4  12  25  43  69 100 131 171 217 262 319 383
#     4  10  20  37  60  86 119 163 210 258 315 374
#     4  10  21  39  62  88 124 166 210 263 320 375
#     4  10  22  44  68  91 126 167 206 253 316 385
#     4  11  23  37  54  83 121 165 212 263 315 367
#
# _framework density 9.8765429999999999
#
# number of rings (size 3 to 8) (size 9 to 14) (size 15 to 20)
#    0.000    1.333    1.667    4.250    0.000    7.000 
#    0.000    1.667    0.000    0.000    0.000    0.000 
#    0.000    0.000    0.000    0.000    0.000    0.000 
#
# Total GULP energy -297405.254261 kJ/mol
# GULP energy per Si atom -12391.885594 kJ/mol
# Density = 0.985406 g / cm^3
# Si number density = 9.876543 Si / 1000 Ang^3
#
#
#
# Elastic Constant Matrix: (Units=GPa)
#
#
# Indices 1 2 3 4 5 6 
#
# 1 114.4161 38.2332 61.2743 0.0000 0.0000 0.0000
# 2 38.2332 122.0318 54.9093 0.0000 0.0000 0.0000
# 3 61.2743 54.9093 189.3886 0.0000 0.0000 0.0000
# 4 0.0000 0.0000 0.0000 32.4630 0.0000 0.0000
# 5 0.0000 0.0000 0.0000 0.0000 42.1733 0.0000
# 6 0.0000 0.0000 0.0000 0.0000 0.0000 28.6941
#
#
#
# Elastic Compliance Matrix: (Units=1/GPa)
#
#
# Indices 1 2 3 4 5 6 
#
# 1 0.011032 -0.002128 -0.002952 0.000000 0.000000 0.000000
# 2 -0.002128 0.009834 -0.002163 0.000000 0.000000 0.000000
# 3 -0.002952 -0.002163 0.006862 0.000000 0.000000 0.000000
# 4 0.000000 0.000000 0.000000 0.030804 0.000000 0.000000
# 5 0.000000 0.000000 0.000000 0.000000 0.023712 0.000000
# 6 0.000000 0.000000 0.000000 0.000000 0.000000 0.034850
#
#
# Mechanical properties :
#
#
# Convention : Reuss Voigt Hill
#
# Bulk Modulus (GPa) = 75.51307 81.63001 78.57154
# Shear Modulus (GPa) = 36.76575 38.76073 37.76324
#
# Velocity S-wave (km/s) = 4.31892 4.43455 4.37712
# Velocity P-wave (km/s) = 7.94873 8.22406 8.08757
#
# Compressibility (1/GPa) = 0.01324274
#
# Stress axis : x y z
#
# Youngs Moduli (GPa) = 90.64350 101.68304 145.72139
#
# Poissons Ratio (x) = 0.21638 0.43022
# Poissons Ratio (y) = 0.19289 0.31517
# Poissons Ratio (z) = 0.26761 0.21992
#
# Static dielectric constant tensor:
#      x y z
#    x 3.846890 0.000000 0.000000 
#    y 0.000000 3.714090 0.000000 
#    z 0.000000 0.000000 4.307440 
# 
# 
# High freq. dielectric constant tensor:
#      x y z
#    x 1.777110 0.000000 0.000000 
#    y 0.000000 1.781070 0.000000 
#    z 0.000000 0.000000 1.802760 
# 
# From -- ./inp_files/17860.got.cif
#   From: 2010.03.12/outbox.ucp.g09.slc.cvg/sg35_9_cif.got.tgz:17860.got - 2010.05.04 21:11:10.
