data_PCOD8174013
_publ_section_title
;
Structure prediction by ZEFSAII (Michael W. Deem and Ramdas Pophale) SiO2 
 PCOD8174013
Probable space group: C M M 2
;
_chemical_formula_sum "Si O2"
_cell_formula_units_Z 40
_cell_length_a 8.970077
_cell_length_b 18.243406
_cell_length_c 12.736310
_cell_angle_alpha 90.000000
_cell_angle_beta 90.000000
_cell_angle_gamma 90.000000
_cell_volume 2084.230349
_symmetry_space_group_name_H-M "C M M 2"
_symmetry_group_IT_number 35
_symmetry_cell_setting 'orthorhombic'
loop_
_space_group_symop_operation_xyz
x,y,z
-x,-y,z
-x,y,z
x,-y,z
1/2+x,1/2+y,z
1/2-x,1/2-y,z
1/2-x,1/2+y,z
1/2+x,1/2-y,z
loop_
_atom_site_type_symbol
_atom_site_label
_atom_site_fract_x
_atom_site_fract_y
_atom_site_fract_z
Si Si1 0.326592 0.085130 0.279870
Si Si2 0.828494 0.914376 0.891512
Si Si3 0.323644 0.827788 0.710908
Si Si4 0.825776 0.172716 0.099053
Si Si5 0.676614 0.918988 0.515587
O O1 0.500000 0.102137 0.261758
O O2 0.230123 0.135939 0.205428
O O3 0.277348 0.105650 0.398576
O O4 0.292597 0.000000 0.257447
O O5 0.721215 0.882456 0.803183
O O6 0.000000 0.897242 0.862679
O O7 0.797761 0.000000 0.900769
O O8 0.784531 0.879582 0.002558
O O9 0.500000 0.818179 0.710487
O O10 0.250000 0.750000 0.731044
O O11 0.263244 0.861019 0.600818
O O12 0.750000 0.250000 0.078797
O O13 0.000000 0.185802 0.109659
O O14 0.500000 0.924194 0.522559
O O15 0.742864 0.000000 0.540101
#
# Coordination Sequence:
#
# PCOD8174013 Si02
#       5
#     8   8   8   8   8
#     4   9  18  35  59  84 111 144 182 224 270 322
#     4  10  22  40  60  82 109 140 177 225 277 326
#     4  11  22  36  56  82 113 147 183 223 269 322
#     4  11  23  38  56  80 112 146 181 224 273 323
#     4   8  16  33  56  81 109 142 181 225 271 319
#
# _framework density 19.191735999999999
#
# number of rings (size 3 to 8) (size 9 to 14) (size 15 to 20)
#    0.000    2.200    0.000    4.200    0.000    6.400 
#    0.000    4.000    0.000    2.400    0.000    0.000 
#    0.000    0.000    0.000    0.000    0.000    0.000 
#
# Total GULP energy -248036.752934 kJ/mol
# GULP energy per Si atom -12401.837647 kJ/mol
# Density = 1.914805 g / cm^3
# Si number density = 19.191736 Si / 1000 Ang^3
#
#
#
# Elastic Constant Matrix: (Units=GPa)
#
#
# Indices 1 2 3 4 5 6 
#
# 1 68.3194 49.8847 50.2036 0.0000 0.0000 0.0000
# 2 49.8847 127.9966 72.7341 0.0000 0.0000 0.0000
# 3 50.2036 72.7341 131.2731 0.0000 0.0000 0.0000
# 4 0.0000 0.0000 0.0000 14.8843 0.0000 0.0000
# 5 0.0000 0.0000 0.0000 0.0000 74.1810 0.0000
# 6 0.0000 0.0000 0.0000 0.0000 0.0000 18.9760
#
#
#
# Elastic Compliance Matrix: (Units=1/GPa)
#
#
# Indices 1 2 3 4 5 6 
#
# 1 0.022954 -0.005776 -0.005578 0.000000 0.000000 0.000000
# 2 -0.005776 0.012856 -0.004914 0.000000 0.000000 0.000000
# 3 -0.005578 -0.004914 0.012474 0.000000 0.000000 0.000000
# 4 0.000000 0.000000 0.000000 0.067185 0.000000 0.000000
# 5 0.000000 0.000000 0.000000 0.000000 0.013481 0.000000
# 6 0.000000 0.000000 0.000000 0.000000 0.000000 0.052698
#
#
# Mechanical properties :
#
#
# Convention : Reuss Voigt Hill
#
# Bulk Modulus (GPa) = 63.50411 74.80374 69.15392
# Shear Modulus (GPa) = 22.78598 31.92604 27.35601
#
# Velocity S-wave (km/s) = 3.44943 4.08306 3.77955
# Velocity P-wave (km/s) = 7.00185 7.82881 7.42685
#
# Compressibility (1/GPa) = 0.01574701
#
# Stress axis : x y z
#
# Youngs Moduli (GPa) = 43.56628 77.78204 80.16832
#
# Poissons Ratio (x) = 0.44928 0.44717
# Poissons Ratio (y) = 0.25165 0.39397
# Poissons Ratio (z) = 0.24301 0.38225
#
# Static dielectric constant tensor:
#      x y z
#    x 3.298120 0.000000 0.000000 
#    y 0.000000 3.731450 0.000000 
#    z 0.000000 0.000000 3.743850 
# 
# 
# High freq. dielectric constant tensor:
#      x y z
#    x 1.728290 0.000000 0.000000 
#    y 0.000000 1.754300 0.000000 
#    z 0.000000 0.000000 1.761060 
# 
# From -- ./inp_files/11003.got.cif
#   From: 2010.03.12/outbox.cif.g09.slc.cpg/sg35_6_cif.got.tgz:11003.got - 2010.04.14 02:02:04.
