data_PCOD8174721
_publ_section_title
;
Structure prediction by ZEFSAII (Michael W. Deem and Ramdas Pophale) SiO2 
 PCOD8174721
Probable space group: C M C 21
;
_chemical_formula_sum "Si O2"
_cell_formula_units_Z 64
_cell_length_a 8.909065
_cell_length_b 22.865709
_cell_length_c 15.962461
_cell_angle_alpha 90.000000
_cell_angle_beta 90.000000
_cell_angle_gamma 90.000000
_cell_volume 3251.746256
_symmetry_space_group_name_H-M "C M C 21"
_symmetry_group_IT_number 36
_symmetry_cell_setting 'orthorhombic'
loop_
_space_group_symop_operation_xyz
x,y,z
-x,-y,1/2+z
x,-y,1/2+z
-x,y,z
1/2+x,1/2+y,z
1/2-x,1/2-y,1/2+z
1/2+x,1/2-y,1/2+z
1/2-x,1/2+y,z
loop_
_atom_site_type_symbol
_atom_site_label
_atom_site_fract_x
_atom_site_fract_y
_atom_site_fract_z
Si Si1 0.668173 0.132682 0.520770
Si Si2 0.177579 0.781016 0.137518
Si Si3 0.825342 0.039738 0.410470
Si Si4 0.826150 0.838895 0.583872
Si Si5 0.324843 0.816767 0.307858
Si Si6 0.677236 0.593881 0.917205
Si Si7 0.171588 0.876634 0.763701
Si Si8 0.166600 0.716444 0.366534
O O1 0.500000 0.118897 0.553464
O O2 0.768680 0.158637 0.594708
O O3 0.738201 0.073984 0.483020
O O4 0.664084 0.182355 0.451984
O O5 0.240016 0.722281 0.094142
O O6 0.237348 0.787270 0.231200
O O7 0.000000 0.777967 0.135222
O O8 0.789560 0.064611 0.316681
O O9 0.000000 0.045772 0.430785
O O10 0.771590 0.973259 0.417098
O O11 0.768991 0.874861 0.502979
O O12 0.803475 0.882748 0.663694
O O13 0.000000 0.822244 0.573144
O O14 0.500000 0.820858 0.289056
O O15 0.261825 0.879223 0.336666
O O16 0.281507 0.770507 0.381091
O O17 0.500000 0.600017 0.904293
O O18 0.279865 0.824843 0.791402
O O19 0.000000 0.858190 0.782998
O O20 0.000000 0.739689 0.344540
#
# Coordination Sequence:
#
# PCOD8174721 Si02
#       8
#     8   8   8   8   8   8   8   8
#     4  10  21  37  59  86 118 152 189 238 293 347
#     4  12  24  38  59  88 119 150 193 243 297 360
#     4   9  19  38  60  85 117 156 205 245 284 343
#     4  10  20  36  59  87 120 155 193 244 301 352
#     4  12  24  38  57  82 118 156 192 239 299 355
#     4  10  22  40  59  85 122 161 202 246 293 348
#     4   9  17  32  57  84 113 153 195 240 288 341
#     4  10  19  33  56  85 115 149 187 231 287 348
#
# _framework density 19.681733000000001
#
# number of rings (size 3 to 8) (size 9 to 14) (size 15 to 20)
#    0.000    1.750    1.250    3.750    0.000    5.500 
#    2.250    0.000    0.000    0.000    0.000    0.000 
#    0.000    0.000    0.000    0.000    0.000    0.000 
#
# Total GULP energy -396713.491578 kJ/mol
# GULP energy per Si atom -12397.296612 kJ/mol
# Density = 1.963694 g / cm^3
# Si number density = 19.681733 Si / 1000 Ang^3
#
#
#
# Elastic Constant Matrix: (Units=GPa)
#
#
# Indices 1 2 3 4 5 6 
#
# 1 101.1853 57.2009 33.1689 0.0000 0.0000 0.0000
# 2 57.2009 143.3012 46.7313 0.0000 0.0000 0.0000
# 3 33.1689 46.7313 63.5782 0.0000 0.0000 0.0000
# 4 0.0000 0.0000 0.0000 27.9954 0.0000 0.0000
# 5 0.0000 0.0000 0.0000 0.0000 25.0219 0.0000
# 6 0.0000 0.0000 0.0000 0.0000 0.0000 30.0607
#
#
#
# Elastic Compliance Matrix: (Units=1/GPa)
#
#
# Indices 1 2 3 4 5 6 
#
# 1 0.013515 -0.004071 -0.004058 0.000000 0.000000 0.000000
# 2 -0.004071 0.010405 -0.005524 0.000000 0.000000 0.000000
# 3 -0.004058 -0.005524 0.021906 0.000000 0.000000 0.000000
# 4 0.000000 0.000000 0.000000 0.035720 0.000000 0.000000
# 5 0.000000 0.000000 0.000000 0.000000 0.039965 0.000000
# 6 0.000000 0.000000 0.000000 0.000000 0.000000 0.033266
#
#
# Mechanical properties :
#
#
# Convention : Reuss Voigt Hill
#
# Bulk Modulus (GPa) = 53.99862 64.69631 59.34747
# Shear Modulus (GPa) = 26.55962 28.01316 27.28639
#
# Velocity S-wave (km/s) = 3.67748 3.77677 3.72745
# Velocity P-wave (km/s) = 6.74739 7.20841 6.98171
#
# Compressibility (1/GPa) = 0.01851899
#
# Stress axis : x y z
#
# Youngs Moduli (GPa) = 73.99397 96.11046 45.64982
#
# Poissons Ratio (x) = 0.39128 0.18526
# Poissons Ratio (y) = 0.30124 0.25216
# Poissons Ratio (z) = 0.30028 0.53089
#
# Static dielectric constant tensor:
#      x y z
#    x 3.692350 0.000000 0.000000 
#    y 0.000000 3.587820 0.000000 
#    z 0.000000 0.000000 3.764940 
# 
# 
# High freq. dielectric constant tensor:
#      x y z
#    x 1.765240 0.000000 0.000000 
#    y 0.000000 1.757460 0.000000 
#    z 0.000000 0.000000 1.768110 
# 
# From -- ./inp_files/13905.got.cif
#   From: 2010.03.12/outbox.cif.g09.slc.cpg/sg36_7_cif.got.tgz:13905.got - 2010.04.14 02:13:53.
