data_PCOD8174512
_publ_section_title
;
Structure prediction by ZEFSAII (Michael W. Deem and Ramdas Pophale) SiO2 
 PCOD8174512
Probable space group: C M C 21
;
_chemical_formula_sum "Si O2"
_cell_formula_units_Z 64
_cell_length_a 8.600523
_cell_length_b 14.217070
_cell_length_c 28.515340
_cell_angle_alpha 90.000000
_cell_angle_beta 90.000000
_cell_angle_gamma 90.000000
_cell_volume 3486.691456
_symmetry_space_group_name_H-M "C M C 21"
_symmetry_group_IT_number 36
_symmetry_cell_setting 'orthorhombic'
loop_
_space_group_symop_operation_xyz
x,y,z
-x,-y,1/2+z
x,-y,1/2+z
-x,y,z
1/2+x,1/2+y,z
1/2-x,1/2-y,1/2+z
1/2+x,1/2-y,1/2+z
1/2-x,1/2+y,z
loop_
_atom_site_type_symbol
_atom_site_label
_atom_site_fract_x
_atom_site_fract_y
_atom_site_fract_z
Si Si1 0.682673 0.107088 0.790340
Si Si2 0.683899 0.605834 0.536482
Si Si3 0.817374 0.744679 0.356114
Si Si4 0.183013 0.743124 0.463811
Si Si5 0.683372 0.749299 0.213389
Si Si6 0.315071 0.246137 0.608925
Si Si7 0.683641 0.396229 0.535593
Si Si8 0.817360 0.902201 0.787216
O O1 0.500000 0.121087 0.798430
O O2 0.771741 0.155355 0.833603
O O3 0.736652 0.158366 0.742261
O O4 0.723090 0.998290 0.787585
O O5 0.500000 0.605521 0.540626
O O6 0.732918 0.655634 0.488329
O O7 0.752872 0.654542 0.582549
O O8 0.754958 0.500452 0.535150
O O9 0.766137 0.748203 0.410081
O O10 0.724270 0.658956 0.332776
O O11 0.000000 0.727092 0.350280
O O12 0.236506 0.839699 0.489078
O O13 0.000000 0.728096 0.469955
O O14 0.500000 0.748392 0.208788
O O15 0.756850 0.750979 0.161396
O O16 0.736114 0.655527 0.241083
O O17 0.500000 0.240218 0.609738
O O18 0.258366 0.339589 0.581602
O O19 0.500000 0.404197 0.536666
O O20 0.000000 0.923643 0.787227
#
# Coordination Sequence:
#
# PCOD8174512 Si02
#       8
#     8   8   8   8   8   8   8   8
#     4  10  20  35  53  77 108 138 173 215 261 313
#     4  10  19  31  49  76 104 130 166 211 253 296
#     4  10  20  35  55  78 103 134 175 220 266 312
#     4   9  19  36  54  72  97 133 171 205 251 310
#     4   8  17  33  53  74  98 133 174 214 256 305
#     4   9  17  34  54  70  97 137 173 207 253 304
#     4   8  16  31  50  70  96 129 162 199 245 299
#     4  10  20  35  54  77 105 138 176 215 261 313
#
# _framework density 18.355511
#
# number of rings (size 3 to 8) (size 9 to 14) (size 15 to 20)
#    0.000    2.750    0.000    3.000    0.000    3.000 
#    0.000   11.250    0.000    0.000    0.000    0.000 
#    0.000    0.000    0.000    0.000    0.000    0.000 
#
# Total GULP energy -396750.304416 kJ/mol
# GULP energy per Si atom -12398.447013 kJ/mol
# Density = 1.831373 g / cm^3
# Si number density = 18.355511 Si / 1000 Ang^3
#
#
#
# Elastic Constant Matrix: (Units=GPa)
#
#
# Indices 1 2 3 4 5 6 
#
# 1 29.3352 10.7788 21.1743 0.0000 0.0000 0.0000
# 2 10.7788 151.5449 71.0386 0.0000 0.0000 0.0000
# 3 21.1743 71.0386 172.4810 0.0000 0.0000 0.0000
# 4 0.0000 0.0000 0.0000 12.8958 0.0000 0.0000
# 5 0.0000 0.0000 0.0000 0.0000 23.8401 0.0000
# 6 0.0000 0.0000 0.0000 0.0000 0.0000 28.1758
#
#
#
# Elastic Compliance Matrix: (Units=1/GPa)
#
#
# Indices 1 2 3 4 5 6 
#
# 1 0.037452 -0.000630 -0.004338 0.000000 0.000000 0.000000
# 2 -0.000630 0.008188 -0.003295 0.000000 0.000000 0.000000
# 3 -0.004338 -0.003295 0.007687 0.000000 0.000000 0.000000
# 4 0.000000 0.000000 0.000000 0.077545 0.000000 0.000000
# 5 0.000000 0.000000 0.000000 0.000000 0.041946 0.000000
# 6 0.000000 0.000000 0.000000 0.000000 0.000000 0.035491
#
#
# Mechanical properties :
#
#
# Convention : Reuss Voigt Hill
#
# Bulk Modulus (GPa) = 27.17368 62.14941 44.66155
# Shear Modulus (GPa) = 21.08791 29.67365 25.38078
#
# Velocity S-wave (km/s) = 3.39316 4.02507 3.72255
# Velocity P-wave (km/s) = 5.49433 7.45210 6.54681
#
# Compressibility (1/GPa) = 0.03680031
#
# Stress axis : x y z
#
# Youngs Moduli (GPa) = 26.70119 122.12835 130.08318
#
# Poissons Ratio (x) = 0.07697 0.56431
# Poissons Ratio (y) = 0.01683 0.42863
# Poissons Ratio (z) = 0.11583 0.40241
#
# Static dielectric constant tensor:
#      x y z
#    x 3.160940 0.000000 0.000000 
#    y 0.000000 3.530990 0.000000 
#    z 0.000000 0.000000 3.657430 
# 
# 
# High freq. dielectric constant tensor:
#      x y z
#    x 1.694090 0.000000 0.000000 
#    y 0.000000 1.715340 0.000000 
#    z 0.000000 0.000000 1.716140 
# 
# From -- ./inp_files/17340.got.cif
#   From: 2010.03.12/outbox.cif.g09.slc.cpg/sg36_9_cif.got.tgz:17340.got - 2010.04.14 02:13:53.
