data_PCOD8174838
_publ_section_title
;
Structure prediction by ZEFSAII (Michael W. Deem and Ramdas Pophale) SiO2 
 PCOD8174838
Probable space group: C M C 21
;
_chemical_formula_sum "Si O2"
_cell_formula_units_Z 64
_cell_length_a 8.692984
_cell_length_b 32.152757
_cell_length_c 11.016172
_cell_angle_alpha 90.000000
_cell_angle_beta 90.000000
_cell_angle_gamma 90.000000
_cell_volume 3079.057553
_symmetry_space_group_name_H-M "C M C 21"
_symmetry_group_IT_number 36
_symmetry_cell_setting 'orthorhombic'
loop_
_space_group_symop_operation_xyz
x,y,z
-x,-y,1/2+z
x,-y,1/2+z
-x,y,z
1/2+x,1/2+y,z
1/2-x,1/2-y,1/2+z
1/2+x,1/2-y,1/2+z
1/2-x,1/2+y,z
loop_
_atom_site_type_symbol
_atom_site_label
_atom_site_fract_x
_atom_site_fract_y
_atom_site_fract_z
Si Si1 0.321183 0.861093 0.156480
Si Si2 0.820178 0.080767 0.486907
Si Si3 0.325245 0.366677 0.533580
Si Si4 0.824816 0.926864 0.327018
Si Si5 0.822306 0.485276 0.161364
Si Si6 0.178390 0.068546 0.216035
Si Si7 0.819695 0.267779 0.216912
Si Si8 0.320163 0.780920 0.490448
O O1 0.500000 0.868552 0.186416
O O2 0.213363 0.887006 0.245152
O O3 0.276312 0.813245 0.169486
O O4 0.277641 0.877978 0.022837
O O5 0.781627 0.041488 0.570634
O O6 0.767675 0.068569 0.353736
O O7 0.000000 0.091352 0.493811
O O8 0.500000 0.350073 0.518615
O O9 0.298803 0.410099 0.462013
O O10 0.291213 0.384199 0.668208
O O11 0.211513 0.330341 0.491859
O O12 0.716820 0.966514 0.295898
O O13 0.000000 0.940735 0.305102
O O14 0.779506 0.533451 0.149539
O O15 0.000000 0.478609 0.130868
O O16 0.000000 0.056662 0.199975
O O17 0.750803 0.237187 0.114896
O O18 0.760112 0.262492 0.358653
O O19 0.000000 0.259778 0.217053
O O20 0.500000 0.773280 0.496616
#
# Coordination Sequence:
#
# PCOD8174838 Si02
#       8
#     8   8   8   8   8   8   8   8
#     4  10  19  36  61  85 116 151 191 245 301 353
#     4  10  21  38  59  83 116 154 201 248 296 366
#     4  10  22  40  63  89 120 158 201 251 306 365
#     4  10  19  34  60  88 114 150 196 240 289 356
#     4  11  23  37  57  86 119 154 197 250 301 354
#     4  10  23  41  59  83 118 160 202 249 302 363
#     4  10  23  42  63  93 130 166 208 260 314 378
#     4  11  24  42  66  95 129 167 212 263 319 381
#
# _framework density 20.785578999999998
#
# number of rings (size 3 to 8) (size 9 to 14) (size 15 to 20)
#    0.000    1.750    1.250    4.125    1.750    5.000 
#    0.000    3.750    0.000    0.000    0.000    0.000 
#    0.000    0.000    0.000    0.000    0.000    0.000 
#
# Total GULP energy -396574.650832 kJ/mol
# GULP energy per Si atom -12392.957839 kJ/mol
# Density = 2.073827 g / cm^3
# Si number density = 20.785579 Si / 1000 Ang^3
#
#
#
# Elastic Constant Matrix: (Units=GPa)
#
#
# Indices 1 2 3 4 5 6 
#
# 1 46.4371 18.1836 24.0180 0.0000 0.0000 0.0000
# 2 18.1836 74.9130 37.6754 0.0000 0.0000 0.0000
# 3 24.0180 37.6754 106.5550 0.0000 0.0000 0.0000
# 4 0.0000 0.0000 0.0000 23.7177 0.0000 0.0000
# 5 0.0000 0.0000 0.0000 0.0000 19.5766 0.0000
# 6 0.0000 0.0000 0.0000 0.0000 0.0000 34.9271
#
#
#
# Elastic Compliance Matrix: (Units=1/GPa)
#
#
# Indices 1 2 3 4 5 6 
#
# 1 0.025317 -0.003984 -0.004298 0.000000 0.000000 0.000000
# 2 -0.003984 0.016863 -0.005064 0.000000 0.000000 0.000000
# 3 -0.004298 -0.005064 0.012144 0.000000 0.000000 0.000000
# 4 0.000000 0.000000 0.000000 0.042163 0.000000 0.000000
# 5 0.000000 0.000000 0.000000 0.000000 0.051081 0.000000
# 6 0.000000 0.000000 0.000000 0.000000 0.000000 0.028631
#
#
# Mechanical properties :
#
#
# Convention : Reuss Voigt Hill
#
# Bulk Modulus (GPa) = 36.18965 43.07322 39.63144
# Shear Modulus (GPa) = 23.57350 25.51283 24.54316
#
# Velocity S-wave (km/s) = 3.37133 3.50727 3.43997
# Velocity P-wave (km/s) = 5.70993 6.09663 5.90644
#
# Compressibility (1/GPa) = 0.02763221
#
# Stress axis : x y z
#
# Youngs Moduli (GPa) = 39.49838 59.30236 82.34325
#
# Poissons Ratio (x) = 0.23624 0.35392
# Poissons Ratio (y) = 0.15735 0.41701
# Poissons Ratio (z) = 0.16977 0.30033
#
# Static dielectric constant tensor:
#      x y z
#    x 3.629430 0.000000 0.000000 
#    y 0.000000 3.727440 0.000000 
#    z 0.000000 0.000000 4.244700 
# 
# 
# High freq. dielectric constant tensor:
#      x y z
#    x 1.805260 0.000000 0.000000 
#    y 0.000000 1.805050 0.000000 
#    z 0.000000 0.000000 1.821890 
# 
# From -- ./inp_files/7193.got.cif
#   From: 2010.03.12/outbox.cif.g09.slc.cpg/sg36_4_cif.got.tgz:7193.got - 2010.04.14 02:13:53.
