data_PCOD8174373
_publ_section_title
;
Structure prediction by ZEFSAII (Michael W. Deem and Ramdas Pophale) SiO2 
 PCOD8174373
Probable space group: C M C 21
;
_chemical_formula_sum "Si O2"
_cell_formula_units_Z 56
_cell_length_a 27.909024
_cell_length_b 8.165478
_cell_length_c 10.968765
_cell_angle_alpha 90.000000
_cell_angle_beta 90.000000
_cell_angle_gamma 90.000000
_cell_volume 2499.677576
_symmetry_space_group_name_H-M "C M C 21"
_symmetry_group_IT_number 36
_symmetry_cell_setting 'orthorhombic'
loop_
_space_group_symop_operation_xyz
x,y,z
-x,-y,1/2+z
x,-y,1/2+z
-x,y,z
1/2+x,1/2+y,z
1/2-x,1/2-y,1/2+z
1/2+x,1/2-y,1/2+z
1/2-x,1/2+y,z
loop_
_atom_site_type_symbol
_atom_site_label
_atom_site_fract_x
_atom_site_fract_y
_atom_site_fract_z
Si Si1 0.399003 0.246812 0.833050
Si Si2 0.268154 0.667897 0.979339
Si Si3 0.000000 0.321523 0.312396
Si Si4 0.822963 0.164972 0.519516
Si Si5 0.173364 0.711185 0.272211
Si Si6 0.598101 0.100396 0.439522
Si Si7 0.500000 0.919056 0.033209
Si Si8 0.667288 0.878580 0.146484
O O1 0.453890 0.303867 0.809168
O O2 0.363262 0.260533 0.718365
O O3 0.410223 0.054318 0.853654
O O4 0.372519 0.337858 0.944569
O O5 0.279658 0.733235 0.844600
O O6 0.210061 0.672553 0.991719
O O7 0.288956 0.487428 0.991376
O O8 0.288257 0.787222 0.084924
O O9 0.000000 0.416533 0.446031
O O10 0.000000 0.433371 0.183679
O O11 0.837257 0.167895 0.660692
O O12 0.127071 0.734781 0.360607
O O13 0.184639 0.523248 0.235459
O O14 0.548499 0.175909 0.492133
O O15 0.631633 0.038254 0.549389
#
# Coordination Sequence:
#
# PCOD8174373 Si02
#       8
#     8   8   4   8   8   8   4   8
#     4  10  21  35  63  92 132 176 216 276 332 400
#     4  11  28  41  66  97 127 181 222 271 338 414
#     4  10  20  34  62  99 139 178 234 280 357 402
#     4  12  26  43  63  95 135 176 228 278 339 406
#     4  10  23  42  63  91 133 172 221 272 331 404
#     4   9  18  35  61  94 129 172 214 271 339 385
#     4  10  18  32  58 107 137 172 222 294 343 420
#     4  10  19  40  64  90 130 168 217 271 326 396
#
# _framework density 22.402887
#
# number of rings (size 3 to 8) (size 9 to 14) (size 15 to 20)
#    0.000    1.714    2.857    0.857    8.000    0.000 
#    0.000    0.000    0.000    4.286    0.000    0.000 
#    0.000    0.000    0.000    0.000    0.000    0.000 
#
# Total GULP energy -346912.642212 kJ/mol
# GULP energy per Si atom -12389.737222 kJ/mol
# Density = 2.235190 g / cm^3
# Si number density = 22.402887 Si / 1000 Ang^3
#
#
#
# Elastic Constant Matrix: (Units=GPa)
#
#
# Indices 1 2 3 4 5 6 
#
# 1 120.3243 11.7704 43.1755 0.0000 0.0000 0.0000
# 2 11.7704 39.4989 15.1793 0.0000 0.0000 0.0000
# 3 43.1755 15.1793 133.8549 0.0000 0.0000 0.0000
# 4 0.0000 0.0000 0.0000 25.4768 0.0000 0.0000
# 5 0.0000 0.0000 0.0000 0.0000 28.1127 0.0000
# 6 0.0000 0.0000 0.0000 0.0000 0.0000 18.7820
#
#
#
# Elastic Compliance Matrix: (Units=1/GPa)
#
#
# Indices 1 2 3 4 5 6 
#
# 1 0.009510 -0.001731 -0.002871 0.000000 0.000000 0.000000
# 2 -0.001731 0.026786 -0.002479 0.000000 0.000000 0.000000
# 3 -0.002871 -0.002479 0.008678 0.000000 0.000000 0.000000
# 4 0.000000 0.000000 0.000000 0.039251 0.000000 0.000000
# 5 0.000000 0.000000 0.000000 0.000000 0.035571 0.000000
# 6 0.000000 0.000000 0.000000 0.000000 0.000000 0.053242
#
#
# Mechanical properties :
#
#
# Convention : Reuss Voigt Hill
#
# Bulk Modulus (GPa) = 32.45523 48.21427 40.33475
# Shear Modulus (GPa) = 25.32000 29.37783 27.34891
#
# Velocity S-wave (km/s) = 3.36551 3.62517 3.49775
# Velocity P-wave (km/s) = 5.44249 6.25225 5.86137
#
# Compressibility (1/GPa) = 0.03081168
#
# Stress axis : x y z
#
# Youngs Moduli (GPa) = 105.14695 37.33336 115.23238
#
# Poissons Ratio (x) = 0.06461 0.33088
# Poissons Ratio (y) = 0.18197 0.28570
# Poissons Ratio (z) = 0.30192 0.09256
#
# Static dielectric constant tensor:
#      x y z
#    x 4.556480 0.000000 0.000000 
#    y 0.000000 3.408040 0.000000 
#    z 0.000000 0.000000 4.366150 
# 
# 
# High freq. dielectric constant tensor:
#      x y z
#    x 1.896390 0.000000 0.000000 
#    y 0.000000 1.818410 0.000000 
#    z 0.000000 0.000000 1.903150 
# 
# From -- ./inp_files/9643.got.cif
#   From: 2010.03.12/outbox.cif.g09.slc.cpg/sg36_5_cif.got.tgz:9643.got - 2010.04.14 02:13:53.
