data_PCOD8174122
_publ_section_title
;
Structure prediction by ZEFSAII (Michael W. Deem and Ramdas Pophale) SiO2 
 PCOD8174122
Probable space group: C M M 2
;
_chemical_formula_sum "Si O2"
_cell_formula_units_Z 48
_cell_length_a 8.694929
_cell_length_b 15.688429
_cell_length_c 17.297209
_cell_angle_alpha 90.000000
_cell_angle_beta 90.000000
_cell_angle_gamma 90.000000
_cell_volume 2359.508410
_symmetry_space_group_name_H-M "C M M 2"
_symmetry_group_IT_number 35
_symmetry_cell_setting 'orthorhombic'
loop_
_space_group_symop_operation_xyz
x,y,z
-x,-y,z
-x,y,z
x,-y,z
1/2+x,1/2+y,z
1/2-x,1/2-y,z
1/2-x,1/2+y,z
1/2+x,1/2-y,z
loop_
_atom_site_type_symbol
_atom_site_label
_atom_site_fract_x
_atom_site_fract_y
_atom_site_fract_z
Si Si1 0.316663 0.404644 0.889420
Si Si2 0.317596 0.661586 0.050884
Si Si3 0.330731 0.601397 0.725064
Si Si4 0.817605 0.500000 0.313922
Si Si5 0.817490 0.500000 0.137352
Si Si6 0.316958 0.597971 0.558124
Si Si7 0.681594 0.162940 0.406211
O O1 0.500000 0.407024 0.882567
O O2 0.254997 0.500000 0.906174
O O3 0.248619 0.370013 0.806291
O O4 0.264702 0.346376 0.961103
O O5 0.500000 0.660256 0.059569
O O6 0.250000 0.750000 0.083442
O O7 0.249207 0.584339 0.099055
O O8 0.500000 0.642372 0.723342
O O9 0.345165 0.500000 0.727771
O O10 0.250992 0.626668 0.643345
O O11 0.762045 0.500000 0.225896
O O12 0.751975 0.415900 0.356395
O O13 0.000000 0.500000 0.319667
O O14 0.000000 0.500000 0.129651
O O15 0.500000 0.610287 0.554316
O O16 0.272703 0.500000 0.542193
O O17 0.233987 0.655641 0.495007
O O18 0.500000 0.166928 0.401555
O O19 0.750000 0.250000 0.370974
#
# Coordination Sequence:
#
# PCOD8174122 Si02
#       7
#     8   8   8   4   4   8   8
#     4   8  13  26  50  78 110 150 193 236 281 332
#     4  11  22  38  60  90 122 157 197 238 287 346
#     4   7  11  21  43  76 109 145 189 234 278 325
#     4   9  22  43  65  86 113 146 182 229 291 349
#     4  11  23  43  67  90 117 148 186 239 297 355
#     4   9  16  29  52  83 115 149 192 235 279 333
#     4  11  22  39  60  85 115 150 188 231 283 340
#
# _framework density 20.343219999999999
#
# number of rings (size 3 to 8) (size 9 to 14) (size 15 to 20)
#    0.000    2.667    1.667    3.250    0.000    0.667 
#    0.000    5.833    0.000    4.000    0.000    0.000 
#    0.000    0.000    0.000    0.000    0.000    0.000 
#
# Total GULP energy -297351.590142 kJ/mol
# GULP energy per Si atom -12389.649589 kJ/mol
# Density = 2.029692 g / cm^3
# Si number density = 20.343220 Si / 1000 Ang^3
#
#
#
# Elastic Constant Matrix: (Units=GPa)
#
#
# Indices 1 2 3 4 5 6 
#
# 1 51.0225 34.6576 35.7924 0.0000 0.0000 0.0000
# 2 34.6576 136.5575 71.4554 0.0000 0.0000 0.0000
# 3 35.7924 71.4554 161.0351 0.0000 0.0000 0.0000
# 4 0.0000 0.0000 0.0000 6.1516 0.0000 0.0000
# 5 0.0000 0.0000 0.0000 0.0000 22.0628 0.0000
# 6 0.0000 0.0000 0.0000 0.0000 0.0000 25.0140
#
#
#
# Elastic Compliance Matrix: (Units=1/GPa)
#
#
# Indices 1 2 3 4 5 6 
#
# 1 0.025186 -0.004510 -0.003597 0.000000 0.000000 0.000000
# 2 -0.004510 0.010345 -0.003588 0.000000 0.000000 0.000000
# 3 -0.003597 -0.003588 0.008601 0.000000 0.000000 0.000000
# 4 0.000000 0.000000 0.000000 0.162560 0.000000 0.000000
# 5 0.000000 0.000000 0.000000 0.000000 0.045325 0.000000
# 6 0.000000 0.000000 0.000000 0.000000 0.000000 0.039978
#
#
# Mechanical properties :
#
#
# Convention : Reuss Voigt Hill
#
# Bulk Modulus (GPa) = 48.20955 70.26956 59.23956
# Shear Modulus (GPa) = 15.51359 24.42632 19.96995
#
# Velocity S-wave (km/s) = 2.76450 3.46889 3.13653
# Velocity P-wave (km/s) = 5.82576 7.11767 6.50387
#
# Compressibility (1/GPa) = 0.02074278
#
# Stress axis : x y z
#
# Youngs Moduli (GPa) = 39.70502 96.66551 116.26156
#
# Poissons Ratio (x) = 0.43596 0.41816
# Poissons Ratio (y) = 0.17907 0.41714
# Poissons Ratio (z) = 0.14281 0.34683
#
# Static dielectric constant tensor:
#      x y z
#    x 3.191260 0.000000 0.000000 
#    y 0.000000 3.574420 0.000000 
#    z 0.000000 0.000000 4.168600 
# 
# 
# High freq. dielectric constant tensor:
#      x y z
#    x 1.748540 0.000000 0.000000 
#    y 0.000000 1.780920 0.000000 
#    z 0.000000 0.000000 1.810410 
# 
# From -- ./inp_files/17921.got.cif
#   From: 2010.03.12/outbox.cif.g09.slc.cpg/sg35_9_cif.got.tgz:17921.got - 2010.04.14 02:02:04.
