data_PCOD8174011
_publ_section_title
;
Structure prediction by ZEFSAII (Michael W. Deem and Ramdas Pophale) SiO2 
 PCOD8174011
Probable space group: C M M 2
;
_chemical_formula_sum "Si O2"
_cell_formula_units_Z 48
_cell_length_a 8.926913
_cell_length_b 18.111382
_cell_length_c 15.718364
_cell_angle_alpha 90.000000
_cell_angle_beta 90.000000
_cell_angle_gamma 90.000000
_cell_volume 2541.325152
_symmetry_space_group_name_H-M "C M M 2"
_symmetry_group_IT_number 35
_symmetry_cell_setting 'orthorhombic'
loop_
_space_group_symop_operation_xyz
x,y,z
-x,-y,z
-x,y,z
x,-y,z
1/2+x,1/2+y,z
1/2-x,1/2-y,z
1/2-x,1/2+y,z
1/2+x,1/2-y,z
loop_
_atom_site_type_symbol
_atom_site_label
_atom_site_fract_x
_atom_site_fract_y
_atom_site_fract_z
Si Si1 0.824494 0.171389 0.107080
Si Si2 0.177159 0.671200 0.425584
Si Si3 0.321179 0.083749 0.588138
Si Si4 0.172387 0.913674 0.276641
Si Si5 0.824664 0.587172 0.954656
Si Si6 0.175499 0.415134 0.770620
O O1 0.750000 0.250000 0.118933
O O2 0.779978 0.121916 0.187514
O O3 0.000000 0.182911 0.099542
O O4 0.769232 0.131474 0.022714
O O5 0.250000 0.750000 0.410450
O O6 0.239692 0.636162 0.513395
O O7 0.221059 0.617438 0.349394
O O8 0.000000 0.680266 0.427551
O O9 0.500000 0.081579 0.587018
O O10 0.264981 0.117769 0.680049
O O11 0.261194 0.000000 0.574180
O O12 0.000000 0.895601 0.298872
O O13 0.201247 0.000000 0.268483
O O14 0.795305 0.500000 0.964341
O O15 0.764094 0.615695 0.861207
O O16 0.000000 0.604547 0.966499
O O17 0.218625 0.500000 0.765641
O O18 0.000000 0.404428 0.775138
#
# Coordination Sequence:
#
# PCOD8174011 Si02
#       6
#     8   8   8   8   8   8
#     4  11  23  38  55  76 105 140 174 211 259 311
#     4  11  22  35  53  78 108 142 177 213 256 305
#     4   8  14  27  49  76 103 133 173 217 258 304
#     4  10  22  40  60  81 104 131 166 211 263 315
#     4   9  17  31  54  82 108 137 175 216 258 306
#     4   7  11  23  46  75 104 133 168 212 258 302
#
# _framework density 18.887782999999999
#
# number of rings (size 3 to 8) (size 9 to 14) (size 15 to 20)
#    0.000    2.667    0.000    4.500    0.000    4.667 
#    0.000    0.833    0.000    4.000    0.000    4.667 
#    0.000    0.000    0.000    0.000    0.000    0.000 
#
# Total GULP energy -297376.340774 kJ/mol
# GULP energy per Si atom -12390.680866 kJ/mol
# Density = 1.884479 g / cm^3
# Si number density = 18.887783 Si / 1000 Ang^3
#
#
#
# Elastic Constant Matrix: (Units=GPa)
#
#
# Indices 1 2 3 4 5 6 
#
# 1 50.2637 33.7871 49.2832 0.0000 0.0000 0.0000
# 2 33.7871 90.8375 69.0867 0.0000 0.0000 0.0000
# 3 49.2832 69.0867 181.0853 0.0000 0.0000 0.0000
# 4 0.0000 0.0000 0.0000 -3.3498 0.0000 0.0000
# 5 0.0000 0.0000 0.0000 0.0000 1214.8564 0.0000
# 6 0.0000 0.0000 0.0000 0.0000 0.0000 2.7737
#
#
#
# Elastic Compliance Matrix: (Units=1/GPa)
#
#
# Indices 1 2 3 4 5 6 
#
# 1 0.029968 -0.006965 -0.005499 0.000000 0.000000 0.000000
# 2 -0.006965 0.017127 -0.004639 0.000000 0.000000 0.000000
# 3 -0.005499 -0.004639 0.008789 0.000000 0.000000 0.000000
# 4 0.000000 0.000000 0.000000 -0.298528 0.000000 0.000000
# 5 0.000000 0.000000 0.000000 0.000000 0.000823 0.000000
# 6 0.000000 0.000000 0.000000 0.000000 0.000000 0.360527
#
#
# Mechanical properties :
#
#
# Convention : Reuss Voigt Hill
#
# Bulk Modulus (GPa) = 46.12659 69.61117 57.86888
# Shear Modulus (GPa) = 31.22326 254.19137 142.70731
#
# Velocity S-wave (km/s) = 4.07024 11.61344 8.70169
# Velocity P-wave (km/s) = 6.82374 14.72292 11.47449
#
# Compressibility (1/GPa) = 0.02167947
#
# Stress axis : x y z
#
# Youngs Moduli (GPa) = 33.36868 58.38659 113.78362
#
# Poissons Ratio (x) = 0.40663 0.62569
# Poissons Ratio (y) = 0.23240 0.52783
# Poissons Ratio (z) = 0.18349 0.27085
#
# Static dielectric constant tensor:
#      x y z
#    x 3.103950 0.000000 0.000000 
#    y 0.000000 3.352910 0.000000 
#    z 0.000000 0.000000 4.063490 
# 
# 
# High freq. dielectric constant tensor:
#      x y z
#    x 1.698870 0.000000 0.000000 
#    y 0.000000 1.715730 0.000000 
#    z 0.000000 0.000000 1.764580 
# 
# From -- ./inp_files/15146.got.cif
#   From: 2010.03.12/outbox.cif.g09.slc.cpg/sg35_8_cif.got.tgz:15146.got - 2010.04.14 02:02:04.
