data_PCOD8174653
_publ_section_title
;
Structure prediction by ZEFSAII (Michael W. Deem and Ramdas Pophale) SiO2 
 PCOD8174653
Probable space group: C M C 21
;
_chemical_formula_sum "Si O2"
_cell_formula_units_Z 64
_cell_length_a 8.868054
_cell_length_b 14.186934
_cell_length_c 28.268028
_cell_angle_alpha 90.000000
_cell_angle_beta 90.000000
_cell_angle_gamma 90.000000
_cell_volume 3556.414646
_symmetry_space_group_name_H-M "C M C 21"
_symmetry_group_IT_number 36
_symmetry_cell_setting 'orthorhombic'
loop_
_space_group_symop_operation_xyz
x,y,z
-x,-y,1/2+z
x,-y,1/2+z
-x,y,z
1/2+x,1/2+y,z
1/2-x,1/2-y,1/2+z
1/2+x,1/2-y,1/2+z
1/2-x,1/2+y,z
loop_
_atom_site_type_symbol
_atom_site_label
_atom_site_fract_x
_atom_site_fract_y
_atom_site_fract_z
Si Si1 0.323798 0.004143 0.864320
Si Si2 0.320186 0.654811 0.543366
Si Si3 0.322609 0.857319 0.784777
Si Si4 0.178769 0.480422 0.970541
Si Si5 0.322869 0.865511 0.543475
Si Si6 0.823395 0.998107 0.717154
Si Si7 0.321288 0.018943 0.616349
Si Si8 0.824130 0.144833 0.797784
O O1 0.500000 0.022107 0.865974
O O2 0.261904 0.985525 0.916888
O O3 0.252065 0.099174 0.843667
O O4 0.281922 0.913946 0.832438
O O5 0.500000 0.650769 0.544546
O O6 0.260907 0.606478 0.495653
O O7 0.253694 0.761108 0.543114
O O8 0.255868 0.606836 0.590462
O O9 0.500000 0.861669 0.773483
O O10 0.233112 0.901342 0.740738
O O11 0.264320 0.750871 0.791061
O O12 0.000000 0.463547 0.973783
O O13 0.226293 0.577289 0.996597
O O14 0.500000 0.854655 0.544438
O O15 0.270062 0.922889 0.589988
O O16 0.732559 0.015616 0.669722
O O17 0.000000 0.990732 0.706461
O O18 0.783901 0.085572 0.751115
O O19 0.500000 0.032428 0.613873
O O20 0.000000 0.145258 0.807926
#
# Coordination Sequence:
#
# PCOD8174653 Si02
#       8
#     8   8   8   8   8   8   8   8
#     4   9  18  32  52  74  99 130 168 207 242 288
#     4  10  19  33  52  74  97 126 164 203 237 285
#     4   9  18  34  52  72  99 134 168 202 248 298
#     4   9  18  34  51  72 102 134 163 199 248 296
#     4   8  17  33  51  69  96 130 160 191 241 297
#     4  10  20  34  51  74 100 128 164 207 245 290
#     4  10  20  36  54  72  98 132 162 198 248 299
#     4   9  19  34  51  71 101 134 165 203 251 297
#
# _framework density 17.995652
#
# number of rings (size 3 to 8) (size 9 to 14) (size 15 to 20)
#    0.000    2.750    0.000    1.875    0.000    3.500 
#    0.000   11.250    0.000    0.000    0.000    0.000 
#    0.000    0.000    0.000    0.000    0.000    0.000 
#
# Total GULP energy -396804.318430 kJ/mol
# GULP energy per Si atom -12400.134951 kJ/mol
# Density = 1.795469 g / cm^3
# Si number density = 17.995652 Si / 1000 Ang^3
#
#
#
# Elastic Constant Matrix: (Units=GPa)
#
#
# Indices 1 2 3 4 5 6 
#
# 1 45.8403 34.1448 34.1786 0.0000 0.0000 0.0000
# 2 34.1448 157.3145 57.1671 0.0000 0.0000 0.0000
# 3 34.1786 57.1671 131.7065 0.0000 0.0000 0.0000
# 4 0.0000 0.0000 0.0000 12.7176 0.0000 0.0000
# 5 0.0000 0.0000 0.0000 0.0000 30.5190 0.0000
# 6 0.0000 0.0000 0.0000 0.0000 0.0000 24.9150
#
#
#
# Elastic Compliance Matrix: (Units=1/GPa)
#
#
# Indices 1 2 3 4 5 6 
#
# 1 0.029277 -0.004267 -0.005746 0.000000 0.000000 0.000000
# 2 -0.004267 0.008169 -0.002439 0.000000 0.000000 0.000000
# 3 -0.005746 -0.002439 0.010142 0.000000 0.000000 0.000000
# 4 0.000000 0.000000 0.000000 0.078631 0.000000 0.000000
# 5 0.000000 0.000000 0.000000 0.000000 0.032766 0.000000
# 6 0.000000 0.000000 0.000000 0.000000 0.000000 0.040136
#
#
# Mechanical properties :
#
#
# Convention : Reuss Voigt Hill
#
# Bulk Modulus (GPa) = 44.07915 65.09359 54.58637
# Shear Modulus (GPa) = 21.59032 27.58838 24.58935
#
# Velocity S-wave (km/s) = 3.46750 3.91968 3.70050
# Velocity P-wave (km/s) = 6.37016 7.53230 6.97547
#
# Compressibility (1/GPa) = 0.02268646
#
# Stress axis : x y z
#
# Youngs Moduli (GPa) = 34.15669 122.41585 98.59894
#
# Poissons Ratio (x) = 0.52229 0.56651
# Poissons Ratio (y) = 0.14573 0.24043
# Poissons Ratio (z) = 0.19625 0.29851
#
# Static dielectric constant tensor:
#      x y z
#    x 3.185460 0.000000 0.000000 
#    y 0.000000 3.591710 0.000000 
#    z 0.000000 0.000000 3.396020 
# 
# 
# High freq. dielectric constant tensor:
#      x y z
#    x 1.686470 0.000000 0.000000 
#    y 0.000000 1.700700 0.000000 
#    z 0.000000 0.000000 1.700130 
# 
# From -- ./inp_files/17332.got.cif
#   From: 2010.03.12/outbox.cif.g09.slc.cpg/sg36_9_cif.got.tgz:17332.got - 2010.04.14 02:13:53.
