data_PCOD8174184
_publ_section_title
;
Structure prediction by ZEFSAII (Michael W. Deem and Ramdas Pophale) SiO2 
 PCOD8174184
Probable space group: C M C 21
;
_chemical_formula_sum "Si O2"
_cell_formula_units_Z 44
_cell_length_a 11.933776
_cell_length_b 14.311550
_cell_length_c 13.378018
_cell_angle_alpha 90.000000
_cell_angle_beta 90.000000
_cell_angle_gamma 90.000000
_cell_volume 2284.842824
_symmetry_space_group_name_H-M "C M C 21"
_symmetry_group_IT_number 36
_symmetry_cell_setting 'orthorhombic'
loop_
_space_group_symop_operation_xyz
x,y,z
-x,-y,1/2+z
x,-y,1/2+z
-x,y,z
1/2+x,1/2+y,z
1/2-x,1/2-y,1/2+z
1/2+x,1/2-y,1/2+z
1/2-x,1/2+y,z
loop_
_atom_site_type_symbol
_atom_site_label
_atom_site_fract_x
_atom_site_fract_y
_atom_site_fract_z
Si Si1 0.257867 0.355302 0.103510
Si Si2 0.866402 0.508192 0.976304
Si Si3 0.230974 0.857900 0.608801
Si Si4 0.760824 0.996112 0.776136
Si Si5 0.500000 0.546062 0.811148
Si Si6 0.500000 0.615703 0.588160
Si Si7 0.000000 0.083484 0.022086
O O1 0.211626 0.252076 0.117888
O O2 0.256707 0.411533 0.207143
O O3 0.383907 0.332689 0.063542
O O4 0.184669 0.414116 0.024810
O O5 0.832996 0.508067 0.860378
O O6 0.000000 0.507306 0.987940
O O7 0.817459 0.603388 0.025472
O O8 0.107527 0.891719 0.584988
O O9 0.268832 0.902674 0.714107
O O10 0.886182 0.984946 0.820969
O O11 0.500000 0.598989 0.707064
O O12 0.500000 0.618564 0.906450
O O13 0.500000 0.527564 0.515984
#
# Coordination Sequence:
#
# PCOD8174184 Si02
#       7
#     8   8   8   8   4   4   4
#     4  10  23  40  63  92 121 155 206 250 298 360
#     4  11  24  42  61  87 127 167 198 245 310 362
#     4  11  23  39  65  91 121 157 204 253 300 353
#     4  10  20  41  62  87 124 159 202 243 307 355
#     4  10  16  34  66  86 109 151 199 251 287 353
#     4  10  18  40  62  87 114 159 197 243 304 353
#     4  12  18  38  66  87 113 158 198 254 301 342
#
# _framework density 19.257342000000001
#
# number of rings (size 3 to 8) (size 9 to 14) (size 15 to 20)
#    0.000    1.455    7.273    0.000    2.545    4.364 
#    0.000    0.000    4.000    0.000    0.000    0.000 
#    0.000    0.000    0.000    0.000    0.000    0.000 
#
# Total GULP energy -272591.667092 kJ/mol
# GULP energy per Si atom -12390.530322 kJ/mol
# Density = 1.921351 g / cm^3
# Si number density = 19.257342 Si / 1000 Ang^3
#
#
#
# Elastic Constant Matrix: (Units=GPa)
#
#
# Indices 1 2 3 4 5 6 
#
# 1 113.3495 -14.2773 41.7144 0.0000 0.0000 0.0000
# 2 -14.2773 81.9494 36.1229 0.0000 0.0000 0.0000
# 3 41.7144 36.1229 98.2401 0.0000 0.0000 0.0000
# 4 0.0000 0.0000 0.0000 10.2351 0.0000 0.0000
# 5 0.0000 0.0000 0.0000 0.0000 32.8263 0.0000
# 6 0.0000 0.0000 0.0000 0.0000 0.0000 30.9614
#
#
#
# Elastic Compliance Matrix: (Units=1/GPa)
#
#
# Indices 1 2 3 4 5 6 
#
# 1 0.012068 0.005205 -0.007038 0.000000 0.000000 0.000000
# 2 0.005205 0.016808 -0.008390 0.000000 0.000000 0.000000
# 3 -0.007038 -0.008390 0.016253 0.000000 0.000000 0.000000
# 4 0.000000 0.000000 0.000000 0.097703 0.000000 0.000000
# 5 0.000000 0.000000 0.000000 0.000000 0.030463 0.000000
# 6 0.000000 0.000000 0.000000 0.000000 0.000000 0.032298
#
#
# Mechanical properties :
#
#
# Convention : Reuss Voigt Hill
#
# Bulk Modulus (GPa) = 40.51617 46.73987 43.62802
# Shear Modulus (GPa) = 21.34310 30.13648 25.73979
#
# Velocity S-wave (km/s) = 3.33274 3.96022 3.65995
# Velocity P-wave (km/s) = 5.99121 6.72570 6.36905
#
# Compressibility (1/GPa) = 0.02468150
#
# Stress axis : x y z
#
# Youngs Moduli (GPa) = 82.86377 59.49594 61.52800
#
# Poissons Ratio (x) = -0.30967 0.43304
# Poissons Ratio (y) = -0.43129 0.51624
# Poissons Ratio (z) = 0.58320 0.49919
#
# Static dielectric constant tensor:
#      x y z
#    x 3.742380 0.000000 0.000000 
#    y 0.000000 3.298380 0.000000 
#    z 0.000000 0.000000 3.588860 
# 
# 
# High freq. dielectric constant tensor:
#      x y z
#    x 1.764080 0.000000 0.000000 
#    y 0.000000 1.718240 0.000000 
#    z 0.000000 0.000000 1.755510 
# 
# From -- ./inp_files/11503.got.cif
#   From: 2010.03.12/outbox.cif.g09.slc.cpg/sg36_6_cif.got.tgz:11503.got - 2010.04.14 02:13:53.
