data_PCOD8174644
_publ_section_title
;
Structure prediction by ZEFSAII (Michael W. Deem and Ramdas Pophale) SiO2 
 PCOD8174644
Probable space group: C M C 21
;
_chemical_formula_sum "Si O2"
_cell_formula_units_Z 64
_cell_length_a 8.552109
_cell_length_b 22.611613
_cell_length_c 16.474936
_cell_angle_alpha 90.000000
_cell_angle_beta 90.000000
_cell_angle_gamma 90.000000
_cell_volume 3185.873354
_symmetry_space_group_name_H-M "C M C 21"
_symmetry_group_IT_number 36
_symmetry_cell_setting 'orthorhombic'
loop_
_space_group_symop_operation_xyz
x,y,z
-x,-y,1/2+z
x,-y,1/2+z
-x,y,z
1/2+x,1/2+y,z
1/2-x,1/2-y,1/2+z
1/2+x,1/2-y,1/2+z
1/2-x,1/2+y,z
loop_
_atom_site_type_symbol
_atom_site_label
_atom_site_fract_x
_atom_site_fract_y
_atom_site_fract_z
Si Si1 0.317387 0.847659 0.162900
Si Si2 0.185160 0.720641 0.188277
Si Si3 0.172552 0.051207 0.224797
Si Si4 0.815765 0.101701 0.497223
Si Si5 0.316776 0.861229 0.837995
Si Si6 0.184753 0.473376 0.454428
Si Si7 0.678541 0.886935 0.586228
Si Si8 0.325272 0.428468 0.292041
O O1 0.500000 0.859082 0.153145
O O2 0.283163 0.778570 0.170761
O O3 0.231964 0.876819 0.086423
O O4 0.256929 0.874029 0.247858
O O5 0.223829 0.693692 0.277988
O O6 0.246878 0.675599 0.117791
O O7 0.000000 0.732793 0.181325
O O8 0.225834 0.079619 0.310118
O O9 0.303196 0.066936 0.159405
O O10 0.000000 0.076017 0.201549
O O11 0.163272 0.980951 0.227378
O O12 0.739118 0.147155 0.431141
O O13 0.000000 0.106150 0.489046
O O14 0.764749 0.034260 0.481400
O O15 0.500000 0.874021 0.836007
O O16 0.254568 0.418427 0.507969
O O17 0.220314 0.453361 0.364059
O O18 0.000000 0.481500 0.467112
O O19 0.500000 0.875734 0.566691
O O20 0.500000 0.410273 0.321390
#
# Coordination Sequence:
#
# PCOD8174644 Si02
#       8
#     8   8   8   8   8   8   8   8
#     4  12  26  43  63  89 121 165 214 259 310 368
#     4   9  20  42  65  87 119 158 203 256 309 365
#     4  10  19  32  56  88 120 154 194 239 298 362
#     4  12  24  40  63  93 128 164 205 257 313 370
#     4  10  20  37  64  92 121 158 201 252 306 364
#     4  11  22  38  62  94 128 160 201 252 308 373
#     4   9  20  37  60  88 118 156 198 245 301 358
#     4  11  23  39  59  87 125 165 200 248 311 368
#
# _framework density 20.088681999999999
#
# number of rings (size 3 to 8) (size 9 to 14) (size 15 to 20)
#    0.000    1.500    1.250    5.250    0.000    7.000 
#    2.250    0.000    0.000    0.000    0.000    0.000 
#    0.000    0.000    0.000    0.000    0.000    0.000 
#
# Total GULP energy -396621.064037 kJ/mol
# GULP energy per Si atom -12394.408251 kJ/mol
# Density = 2.004296 g / cm^3
# Si number density = 20.088682 Si / 1000 Ang^3
#
#
#
# Elastic Constant Matrix: (Units=GPa)
#
#
# Indices 1 2 3 4 5 6 
#
# 1 73.2767 32.7870 14.1934 0.0000 0.0000 0.0000
# 2 32.7870 110.1340 56.3095 0.0000 0.0000 0.0000
# 3 14.1934 56.3095 88.8634 0.0000 0.0000 0.0000
# 4 0.0000 0.0000 0.0000 29.0876 0.0000 0.0000
# 5 0.0000 0.0000 0.0000 0.0000 24.5204 0.0000
# 6 0.0000 0.0000 0.0000 0.0000 0.0000 30.3666
#
#
#
# Elastic Compliance Matrix: (Units=1/GPa)
#
#
# Indices 1 2 3 4 5 6 
#
# 1 0.015771 -0.005040 0.000675 0.000000 0.000000 0.000000
# 2 -0.005040 0.015042 -0.008727 0.000000 0.000000 0.000000
# 3 0.000675 -0.008727 0.016675 0.000000 0.000000 0.000000
# 4 0.000000 0.000000 0.000000 0.034379 0.000000 0.000000
# 5 0.000000 0.000000 0.000000 0.000000 0.040782 0.000000
# 6 0.000000 0.000000 0.000000 0.000000 0.000000 0.032931
#
#
# Mechanical properties :
#
#
# Convention : Reuss Voigt Hill
#
# Bulk Modulus (GPa) = 46.93820 53.20601 50.07211
# Shear Modulus (GPa) = 26.47375 28.06053 27.26714
#
# Velocity S-wave (km/s) = 3.63415 3.74148 3.68820
# Velocity P-wave (km/s) = 6.40512 6.72368 6.56634
#
# Compressibility (1/GPa) = 0.02130461
#
# Stress axis : x y z
#
# Youngs Moduli (GPa) = 63.40602 66.48033 59.96938
#
# Poissons Ratio (x) = 0.33507 -0.04046
# Poissons Ratio (y) = 0.31957 0.52333
# Poissons Ratio (z) = -0.04278 0.58015
#
# Static dielectric constant tensor:
#      x y z
#    x 3.680650 0.000000 0.000000 
#    y 0.000000 3.632750 0.000000 
#    z 0.000000 0.000000 3.833370 
# 
# 
# High freq. dielectric constant tensor:
#      x y z
#    x 1.788440 0.000000 0.000000 
#    y 0.000000 1.773160 0.000000 
#    z 0.000000 0.000000 1.786280 
# 
# From -- ./inp_files/14000.got.cif
#   From: 2010.03.12/outbox.cif.g09.slc.cpg/sg36_7_cif.got.tgz:14000.got - 2010.04.14 02:13:53.
