data_PCOD8174500
_publ_section_title
;
Structure prediction by ZEFSAII (Michael W. Deem and Ramdas Pophale) SiO2 
 PCOD8174500
Probable space group: C M C 21
;
_chemical_formula_sum "Si O2"
_cell_formula_units_Z 48
_cell_length_a 9.238819
_cell_length_b 18.402433
_cell_length_c 16.343385
_cell_angle_alpha 90.000000
_cell_angle_beta 90.000000
_cell_angle_gamma 90.000000
_cell_volume 2778.649163
_symmetry_space_group_name_H-M "C M C 21"
_symmetry_group_IT_number 36
_symmetry_cell_setting 'orthorhombic'
loop_
_space_group_symop_operation_xyz
x,y,z
-x,-y,1/2+z
x,-y,1/2+z
-x,y,z
1/2+x,1/2+y,z
1/2-x,1/2-y,1/2+z
1/2+x,1/2-y,1/2+z
1/2-x,1/2+y,z
loop_
_atom_site_type_symbol
_atom_site_label
_atom_site_fract_x
_atom_site_fract_y
_atom_site_fract_z
Si Si1 0.329050 0.826744 0.894760
Si Si2 0.165561 0.073041 0.076897
Si Si3 0.337503 0.957344 0.335020
Si Si4 0.169882 0.160948 0.919811
Si Si5 0.669333 0.584788 0.261015
Si Si6 0.341071 0.954629 0.001723
O O1 0.500000 0.836961 0.877519
O O2 0.286015 0.744863 0.915296
O O3 0.242726 0.852213 0.814527
O O4 0.283046 0.875218 0.973857
O O5 0.193056 0.106605 0.166307
O O6 0.000000 0.054339 0.062448
O O7 0.242541 0.994599 0.068287
O O8 0.217397 0.131586 0.009366
O O9 0.500000 0.944291 0.300426
O O10 0.256483 0.880626 0.348183
O O11 0.244581 0.006647 0.273449
O O12 0.345772 0.997360 0.420824
O O13 0.000000 0.149708 0.904516
O O14 0.500000 0.578630 0.283540
O O15 0.500000 0.947170 0.040870
#
# Coordination Sequence:
#
# PCOD8174500 Si02
#       6
#     8   8   8   8   8   8
#     4   9  18  32  50  72  98 128 160 193 236 288
#     4   9  18  31  48  70  94 123 159 199 241 283
#     4   9  17  30  48  70  93 119 157 196 231 278
#     4   9  17  32  52  71  96 128 158 193 239 287
#     4  10  19  31  48  70  97 127 161 200 240 282
#     4   8  15  28  46  67  90 119 155 191 227 274
#
# _framework density 17.274581000000001
#
# number of rings (size 3 to 8) (size 9 to 14) (size 15 to 20)
#    0.000    3.000    0.000    2.000    0.000    6.000 
#    0.000    1.667    0.000    2.000    0.000    0.000 
#    0.000    0.000    0.000    0.000    0.000    0.000 
#
# Total GULP energy -297485.856783 kJ/mol
# GULP energy per Si atom -12395.244033 kJ/mol
# Density = 1.723526 g / cm^3
# Si number density = 17.274581 Si / 1000 Ang^3
#
#
#
# Elastic Constant Matrix: (Units=GPa)
#
#
# Indices 1 2 3 4 5 6 
#
# 1 79.1324 53.1869 40.3786 0.0000 0.0000 0.0000
# 2 53.1869 142.2039 43.8562 0.0000 0.0000 0.0000
# 3 40.3786 43.8562 70.6242 0.0000 0.0000 0.0000
# 4 0.0000 0.0000 0.0000 18.0071 0.0000 0.0000
# 5 0.0000 0.0000 0.0000 0.0000 23.1099 0.0000
# 6 0.0000 0.0000 0.0000 0.0000 0.0000 27.0357
#
#
#
# Elastic Compliance Matrix: (Units=1/GPa)
#
#
# Indices 1 2 3 4 5 6 
#
# 1 0.020337 -0.004973 -0.008539 0.000000 0.000000 0.000000
# 2 -0.004973 0.009914 -0.003313 0.000000 0.000000 0.000000
# 3 -0.008539 -0.003313 0.021099 0.000000 0.000000 0.000000
# 4 0.000000 0.000000 0.000000 0.055534 0.000000 0.000000
# 5 0.000000 0.000000 0.000000 0.000000 0.043272 0.000000
# 6 0.000000 0.000000 0.000000 0.000000 0.000000 0.036988
#
#
# Mechanical properties :
#
#
# Convention : Reuss Voigt Hill
#
# Bulk Modulus (GPa) = 56.49973 62.97819 59.73896
# Shear Modulus (GPa) = 22.05624 23.93312 22.99468
#
# Velocity S-wave (km/s) = 3.57711 3.72621 3.65242
# Velocity P-wave (km/s) = 7.05966 7.41951 7.24182
#
# Compressibility (1/GPa) = 0.01769920
#
# Stress axis : x y z
#
# Youngs Moduli (GPa) = 49.17233 100.86901 47.39535
#
# Poissons Ratio (x) = 0.50159 0.40472
# Poissons Ratio (y) = 0.24452 0.15703
# Poissons Ratio (z) = 0.41990 0.33420
#
# Static dielectric constant tensor:
#      x y z
#    x 3.385800 0.000000 0.000000 
#    y 0.000000 3.315310 0.000000 
#    z 0.000000 0.000000 3.061080 
# 
# 
# High freq. dielectric constant tensor:
#      x y z
#    x 1.670950 0.000000 0.000000 
#    y 0.000000 1.657910 0.000000 
#    z 0.000000 0.000000 1.642920 
# 
# From -- ./inp_files/10389.got.cif
#   From: 2010.03.12/outbox.cif.g09.slc.cpg/sg36_6_cif.got.tgz:10389.got - 2010.04.14 02:13:53.
