data_PCOD8174534
_publ_section_title
;
Structure prediction by ZEFSAII (Michael W. Deem and Ramdas Pophale) SiO2 
 PCOD8174534
Probable space group: C M C 21
;
_chemical_formula_sum "Si O2"
_cell_formula_units_Z 64
_cell_length_a 8.919245
_cell_length_b 20.796156
_cell_length_c 19.249503
_cell_angle_alpha 90.000000
_cell_angle_beta 90.000000
_cell_angle_gamma 90.000000
_cell_volume 3570.513514
_symmetry_space_group_name_H-M "C M C 21"
_symmetry_group_IT_number 36
_symmetry_cell_setting 'orthorhombic'
loop_
_space_group_symop_operation_xyz
x,y,z
-x,-y,1/2+z
x,-y,1/2+z
-x,y,z
1/2+x,1/2+y,z
1/2-x,1/2-y,1/2+z
1/2+x,1/2-y,1/2+z
1/2-x,1/2+y,z
loop_
_atom_site_type_symbol
_atom_site_label
_atom_site_fract_x
_atom_site_fract_y
_atom_site_fract_z
Si Si1 0.323463 0.865888 0.114620
Si Si2 0.672328 0.554006 0.971061
Si Si3 0.178206 0.369069 0.269522
Si Si4 0.822922 0.185284 0.898935
Si Si5 0.670605 0.497898 0.113258
Si Si6 0.178110 0.312394 0.973834
Si Si7 0.675719 0.493837 0.767913
Si Si8 0.177177 0.438241 0.893400
O O1 0.500000 0.868156 0.112356
O O2 0.270726 0.845823 0.192167
O O3 0.271311 0.937086 0.095034
O O4 0.264881 0.817518 0.054263
O O5 0.500000 0.539742 0.950855
O O6 0.721460 0.624165 0.945666
O O7 0.775756 0.500804 0.936267
O O8 0.694891 0.552133 0.054585
O O9 0.240993 0.317717 0.324453
O O10 0.251105 0.437701 0.286514
O O11 0.000000 0.375016 0.275541
O O12 0.758936 0.247589 0.939088
O O13 0.000000 0.189868 0.886333
O O14 0.500000 0.473171 0.114652
O O15 0.712247 0.526810 0.188721
O O16 0.236597 0.374140 0.931221
O O17 0.000000 0.310705 0.972471
O O18 0.500000 0.499348 0.782667
O O19 0.747880 0.439904 0.817194
O O20 0.000000 0.437575 0.885030
#
# Coordination Sequence:
#
# PCOD8174534 Si02
#       8
#     8   8   8   8   8   8   8   8
#     4   9  17  32  52  74 100 133 173 214 255 306
#     4  10  19  32  52  77 102 131 172 215 259 307
#     4  10  19  31  51  78 105 132 171 218 261 304
#     4  10  20  35  54  74 104 142 176 209 253 315
#     4   9  18  31  49  76 105 132 168 215 263 310
#     4   9  19  35  53  75 102 139 178 210 253 310
#     4  10  19  32  50  75 107 138 171 212 262 315
#     4  11  20  32  53  77 103 133 173 219 258 303
#
# _framework density 17.924593000000002
#
# number of rings (size 3 to 8) (size 9 to 14) (size 15 to 20)
#    0.000    2.250    2.500    1.125    0.000    1.000 
#    0.000    3.125    0.000    3.000    0.000    0.000 
#    0.000    0.000    0.000    0.000    0.000    0.000 
#
# Total GULP energy -396715.187649 kJ/mol
# GULP energy per Si atom -12397.349614 kJ/mol
# Density = 1.788380 g / cm^3
# Si number density = 17.924593 Si / 1000 Ang^3
#
#
#
# Elastic Constant Matrix: (Units=GPa)
#
#
# Indices 1 2 3 4 5 6 
#
# 1 37.7525 26.7369 34.9009 0.0000 0.0000 0.0000
# 2 26.7369 109.4915 76.0891 0.0000 0.0000 0.0000
# 3 34.9009 76.0891 161.9636 0.0000 0.0000 0.0000
# 4 0.0000 0.0000 0.0000 29.7883 0.0000 0.0000
# 5 0.0000 0.0000 0.0000 0.0000 24.3595 0.0000
# 6 0.0000 0.0000 0.0000 0.0000 0.0000 18.3687
#
#
#
# Elastic Compliance Matrix: (Units=1/GPa)
#
#
# Indices 1 2 3 4 5 6 
#
# 1 0.034744 -0.004872 -0.005198 0.000000 0.000000 0.000000
# 2 -0.004872 0.014243 -0.005642 0.000000 0.000000 0.000000
# 3 -0.005198 -0.005642 0.009945 0.000000 0.000000 0.000000
# 4 0.000000 0.000000 0.000000 0.033570 0.000000 0.000000
# 5 0.000000 0.000000 0.000000 0.000000 0.041052 0.000000
# 6 0.000000 0.000000 0.000000 0.000000 0.000000 0.054440
#
#
# Mechanical properties :
#
#
# Convention : Reuss Voigt Hill
#
# Bulk Modulus (GPa) = 36.35174 64.96239 50.65706
# Shear Modulus (GPa) = 21.87348 25.93535 23.90442
#
# Velocity S-wave (km/s) = 3.49708 3.80796 3.65582
# Velocity P-wave (km/s) = 6.05231 7.46021 6.79284
#
# Compressibility (1/GPa) = 0.02750900
#
# Stress axis : x y z
#
# Youngs Moduli (GPa) = 28.78186 70.20839 100.55609
#
# Poissons Ratio (x) = 0.34205 0.52270
# Poissons Ratio (y) = 0.14022 0.56729
# Poissons Ratio (z) = 0.14961 0.39608
#
# Static dielectric constant tensor:
#      x y z
#    x 3.198860 0.000000 0.000000 
#    y 0.000000 3.182140 0.000000 
#    z 0.000000 0.000000 3.867310 
# 
# 
# High freq. dielectric constant tensor:
#      x y z
#    x 1.683160 0.000000 0.000000 
#    y 0.000000 1.657510 0.000000 
#    z 0.000000 0.000000 1.717260 
# 
# From -- ./inp_files/15620.got.cif
#   From: 2010.03.12/outbox.cif.g09.slc.cpg/sg36_8_cif.got.tgz:15620.got - 2010.04.14 02:13:53.
