data_PCOD8174724
_publ_section_title
;
Structure prediction by ZEFSAII (Michael W. Deem and Ramdas Pophale) SiO2 
 PCOD8174724
Probable space group: C M C 21
;
_chemical_formula_sum "Si O2"
_cell_formula_units_Z 64
_cell_length_a 8.674511
_cell_length_b 24.169463
_cell_length_c 14.479685
_cell_angle_alpha 90.000000
_cell_angle_beta 90.000000
_cell_angle_gamma 90.000000
_cell_volume 3035.785746
_symmetry_space_group_name_H-M "C M C 21"
_symmetry_group_IT_number 36
_symmetry_cell_setting 'orthorhombic'
loop_
_space_group_symop_operation_xyz
x,y,z
-x,-y,1/2+z
x,-y,1/2+z
-x,y,z
1/2+x,1/2+y,z
1/2-x,1/2-y,1/2+z
1/2+x,1/2-y,1/2+z
1/2-x,1/2+y,z
loop_
_atom_site_type_symbol
_atom_site_label
_atom_site_fract_x
_atom_site_fract_y
_atom_site_fract_z
Si Si1 0.681058 0.503730 0.684600
Si Si2 0.818020 0.704461 0.082077
Si Si3 0.173917 0.655683 0.790947
Si Si4 0.822200 0.947565 0.374143
Si Si5 0.319861 0.919724 0.557558
Si Si6 0.681626 0.229444 0.286831
Si Si7 0.681228 0.692028 0.462746
Si Si8 0.825901 0.390908 0.094505
O O1 0.500000 0.513005 0.674209
O O2 0.727989 0.509518 0.793078
O O3 0.732824 0.443896 0.647531
O O4 0.766404 0.548822 0.621936
O O5 0.767304 0.644200 0.043465
O O6 0.757340 0.709669 0.187147
O O7 0.000000 0.709633 0.082876
O O8 0.753047 0.754182 0.018541
O O9 0.292933 0.613642 0.836371
O O10 0.227827 0.716089 0.818847
O O11 0.179762 0.650315 0.681100
O O12 0.000000 0.645139 0.829062
O O13 0.723903 0.956006 0.467329
O O14 0.000000 0.954805 0.400435
O O15 0.500000 0.923870 0.577071
O O16 0.500000 0.240215 0.285089
O O17 0.729402 0.185632 0.365397
O O18 0.500000 0.696367 0.445513
O O19 0.717117 0.635638 0.517148
O O20 0.000000 0.396656 0.057287
#
# Coordination Sequence:
#
# PCOD8174724 Si02
#       8
#     8   8   8   8   8   8   8   8
#     4  10  22  41  63  88 119 156 201 252 304 360
#     4   9  21  39  59  84 121 161 197 242 299 358
#     4  10  19  33  56  86 118 150 196 250 296 348
#     4  10  21  38  62  90 119 158 204 251 305 362
#     4  11  22  40  64  90 121 160 205 255 306 358
#     4  11  21  36  56  83 119 161 202 241 297 363
#     4  11  21  37  59  87 121 159 198 245 301 357
#     4  10  20  36  59  86 114 149 195 246 298 354
#
# _framework density 21.081858
#
# number of rings (size 3 to 8) (size 9 to 14) (size 15 to 20)
#    0.000    1.750    1.250    3.375    0.000    3.500 
#    2.250    4.375    0.000    0.000    0.000    0.000 
#    0.000    0.000    0.000    0.000    0.000    0.000 
#
# Total GULP energy -396831.464877 kJ/mol
# GULP energy per Si atom -12400.983277 kJ/mol
# Density = 2.103387 g / cm^3
# Si number density = 21.081858 Si / 1000 Ang^3
#
#
#
# Elastic Constant Matrix: (Units=GPa)
#
#
# Indices 1 2 3 4 5 6 
#
# 1 61.7833 12.5302 22.3294 0.0000 0.0000 0.0000
# 2 12.5302 39.7339 6.2424 0.0000 0.0000 0.0000
# 3 22.3294 6.2424 100.8133 0.0000 0.0000 0.0000
# 4 0.0000 0.0000 0.0000 25.9484 0.0000 0.0000
# 5 0.0000 0.0000 0.0000 0.0000 33.3244 0.0000
# 6 0.0000 0.0000 0.0000 0.0000 0.0000 29.9691
#
#
#
# Elastic Compliance Matrix: (Units=1/GPa)
#
#
# Indices 1 2 3 4 5 6 
#
# 1 0.018629 -0.005278 -0.003799 0.000000 0.000000 0.000000
# 2 -0.005278 0.026910 -0.000497 0.000000 0.000000 0.000000
# 3 -0.003799 -0.000497 0.010792 0.000000 0.000000 0.000000
# 4 0.000000 0.000000 0.000000 0.038538 0.000000 0.000000
# 5 0.000000 0.000000 0.000000 0.000000 0.030008 0.000000
# 6 0.000000 0.000000 0.000000 0.000000 0.000000 0.033368
#
#
# Mechanical properties :
#
#
# Convention : Reuss Voigt Hill
#
# Bulk Modulus (GPa) = 26.89496 31.61494 29.25495
# Shear Modulus (GPa) = 26.34525 28.59694 27.47110
#
# Velocity S-wave (km/s) = 3.53889 3.68703 3.61372
# Velocity P-wave (km/s) = 5.42987 5.75798 5.59633
#
# Compressibility (1/GPa) = 0.03718169
#
# Stress axis : x y z
#
# Youngs Moduli (GPa) = 53.67925 37.16097 92.66420
#
# Poissons Ratio (x) = 0.19613 0.35207
# Poissons Ratio (y) = 0.28331 0.04608
# Poissons Ratio (z) = 0.20395 0.01848
#
# Static dielectric constant tensor:
#      x y z
#    x 3.631960 0.000000 0.000000 
#    y 0.000000 3.620020 0.000000 
#    z 0.000000 0.000000 3.985860 
# 
# 
# High freq. dielectric constant tensor:
#      x y z
#    x 1.818680 0.000000 0.000000 
#    y 0.000000 1.807070 0.000000 
#    z 0.000000 0.000000 1.833940 
# 
# From -- ./inp_files/11107.got.cif
#   From: 2010.03.12/outbox.cif.g09.slc.cpg/sg36_6_cif.got.tgz:11107.got - 2010.04.14 02:13:53.
