data_PCOD8174597
_publ_section_title
;
Structure prediction by ZEFSAII (Michael W. Deem and Ramdas Pophale) SiO2 
 PCOD8174597
Probable space group: C M C 21
;
_chemical_formula_sum "Si O2"
_cell_formula_units_Z 64
_cell_length_a 9.029250
_cell_length_b 18.626544
_cell_length_c 20.755110
_cell_angle_alpha 90.000000
_cell_angle_beta 90.000000
_cell_angle_gamma 90.000000
_cell_volume 3490.671659
_symmetry_space_group_name_H-M "C M C 21"
_symmetry_group_IT_number 36
_symmetry_cell_setting 'orthorhombic'
loop_
_space_group_symop_operation_xyz
x,y,z
-x,-y,1/2+z
x,-y,1/2+z
-x,y,z
1/2+x,1/2+y,z
1/2-x,1/2-y,1/2+z
1/2+x,1/2-y,1/2+z
1/2-x,1/2+y,z
loop_
_atom_site_type_symbol
_atom_site_label
_atom_site_fract_x
_atom_site_fract_y
_atom_site_fract_z
Si Si1 0.325110 0.666243 0.681150
Si Si2 0.173741 0.077533 0.422540
Si Si3 0.175871 0.088230 0.056453
Si Si4 0.168362 0.582369 0.790579
Si Si5 0.670705 0.072705 0.932908
Si Si6 0.325802 0.830626 0.671401
Si Si7 0.327074 0.917964 0.797603
Si Si8 0.825548 0.075644 0.562932
O O1 0.500000 0.659849 0.681109
O O2 0.268721 0.632487 0.747080
O O3 0.276077 0.748519 0.677636
O O4 0.255470 0.623873 0.619782
O O5 0.250962 0.116183 0.361650
O O6 0.214238 0.110958 0.492983
O O7 0.000000 0.078929 0.410554
O O8 0.229162 0.996786 0.425395
O O9 0.229006 0.136325 0.114983
O O10 0.000000 0.093817 0.048270
O O11 0.231302 0.006415 0.068470
O O12 0.256818 0.118063 0.991479
O O13 0.179709 0.612772 0.863870
O O14 0.225021 0.499930 0.785814
O O15 0.000000 0.586374 0.765697
O O16 0.500000 0.053334 0.948631
O O17 0.500000 0.839265 0.656502
O O18 0.281027 0.870179 0.737138
O O19 0.500000 0.916278 0.811416
O O20 0.000000 0.073932 0.571377
#
# Coordination Sequence:
#
# PCOD8174597 Si02
#       8
#     8   8   8   8   8   8   8   8
#     4  10  20  34  51  70  98 135 169 203 245 295
#     4   9  16  28  49  76 101 125 160 207 252 293
#     4  10  19  32  53  78 101 127 165 211 250 293
#     4   9  18  32  51  74  98 125 160 203 246 290
#     4   9  17  31  51  75 103 131 160 201 252 302
#     4  10  21  35  50  70 100 137 170 203 248 299
#     4   9  18  33  51  73 100 129 165 204 245 298
#     4   8  16  31  50  74  99 123 159 204 248 294
#
# _framework density 18.334579999999999
#
# number of rings (size 3 to 8) (size 9 to 14) (size 15 to 20)
#    0.000    2.750    0.000    3.375    0.000    3.500 
#    0.000    4.375    0.000    4.500    0.000    0.000 
#    0.000    0.000    0.000    0.000    0.000    0.000 
#
# Total GULP energy -396596.221845 kJ/mol
# GULP energy per Si atom -12393.631933 kJ/mol
# Density = 1.829285 g / cm^3
# Si number density = 18.334580 Si / 1000 Ang^3
#
#
#
# Elastic Constant Matrix: (Units=GPa)
#
#
# Indices 1 2 3 4 5 6 
#
# 1 38.7832 31.1099 53.9146 0.0000 0.0000 0.0000
# 2 31.1099 85.9393 69.0128 0.0000 0.0000 0.0000
# 3 53.9146 69.0128 168.0551 0.0000 0.0000 0.0000
# 4 0.0000 0.0000 0.0000 0.8661 0.0000 0.0000
# 5 0.0000 0.0000 0.0000 0.0000 37.0646 0.0000
# 6 0.0000 0.0000 0.0000 0.0000 0.0000 15.9500
#
#
#
# Elastic Compliance Matrix: (Units=1/GPa)
#
#
# Indices 1 2 3 4 5 6 
#
# 1 0.049776 -0.007751 -0.012786 0.000000 0.000000 0.000000
# 2 -0.007751 0.018569 -0.005139 0.000000 0.000000 0.000000
# 3 -0.012786 -0.005139 0.012162 0.000000 0.000000 0.000000
# 4 0.000000 0.000000 0.000000 1.154625 0.000000 0.000000
# 5 0.000000 0.000000 0.000000 0.000000 0.026980 0.000000
# 6 0.000000 0.000000 0.000000 0.000000 0.000000 0.062696
#
#
# Mechanical properties :
#
#
# Convention : Reuss Voigt Hill
#
# Bulk Modulus (GPa) = 34.29838 66.76137 50.52987
# Shear Modulus (GPa) = 3.60782 20.02550 11.81666
#
# Velocity S-wave (km/s) = 1.40429 3.30847 2.54146
# Velocity P-wave (km/s) = 4.62352 7.14748 6.01928
#
# Compressibility (1/GPa) = 0.02915590
#
# Stress axis : x y z
#
# Youngs Moduli (GPa) = 20.08984 53.85451 82.21999
#
# Poissons Ratio (x) = 0.41745 1.05125
# Poissons Ratio (y) = 0.15572 0.42249
# Poissons Ratio (z) = 0.25687 0.27673
#
# Static dielectric constant tensor:
#      x y z
#    x 3.297890 0.000000 0.000000 
#    y 0.000000 3.165330 0.000000 
#    z 0.000000 0.000000 4.010770 
# 
# 
# High freq. dielectric constant tensor:
#      x y z
#    x 1.701770 0.000000 0.000000 
#    y 0.000000 1.667860 0.000000 
#    z 0.000000 0.000000 1.734530 
# 
# From -- ./inp_files/15814.got.cif
#   From: 2010.03.12/outbox.cif.g09.slc.cpg/sg36_8_cif.got.tgz:15814.got - 2010.04.14 02:13:53.
