data_PCOD8174175
_publ_section_title
;
Structure prediction by ZEFSAII (Michael W. Deem and Ramdas Pophale) SiO2 
 PCOD8174175
Probable space group: C M C 21
;
_chemical_formula_sum "Si O2"
_cell_formula_units_Z 64
_cell_length_a 27.555644
_cell_length_b 21.360064
_cell_length_c 5.341963
_cell_angle_alpha 90.000000
_cell_angle_beta 90.000000
_cell_angle_gamma 90.000000
_cell_volume 3144.227708
_symmetry_space_group_name_H-M "C M C 21"
_symmetry_group_IT_number 36
_symmetry_cell_setting 'orthorhombic'
loop_
_space_group_symop_operation_xyz
x,y,z
-x,-y,1/2+z
x,-y,1/2+z
-x,y,z
1/2+x,1/2+y,z
1/2-x,1/2-y,1/2+z
1/2+x,1/2-y,1/2+z
1/2-x,1/2+y,z
loop_
_atom_site_type_symbol
_atom_site_label
_atom_site_fract_x
_atom_site_fract_y
_atom_site_fract_z
Si Si1 0.207149 0.959473 0.683030
Si Si2 0.598100 0.429303 0.682910
Si Si3 0.444709 0.039085 0.695891
Si Si4 0.355637 0.123068 0.696310
Si Si5 0.442563 0.430703 0.182847
Si Si6 0.708807 0.270383 0.196536
Si Si7 0.182355 0.247668 0.196547
Si Si8 0.698952 0.121268 0.196355
O O1 0.155778 0.924418 0.692937
O O2 0.247414 0.906253 0.697471
O O3 0.212442 0.995368 0.420901
O O4 0.580829 0.500832 0.672667
O O5 0.577639 0.395475 0.431135
O O6 0.575150 0.395593 0.929126
O O7 0.500000 0.063109 0.695995
O O8 0.410773 0.099875 0.696098
O O9 0.433666 0.000060 0.445741
O O10 0.358841 0.199290 0.696254
O O11 0.328918 0.097865 0.446170
O O12 0.329016 0.097915 0.946803
O O13 0.500000 0.435503 0.192847
O O14 0.765847 0.287017 0.196571
O O15 0.681799 0.295866 0.447061
O O16 0.702543 0.195706 0.196689
O O17 0.681740 0.295780 0.946160
#
# Coordination Sequence:
#
# PCOD8174175 Si02
#       8
#     8   8   8   8   8   8   8   8
#     4  12  21  32  40  53  83 122 154 175 215 254
#     4  10  16  27  36  51  73  99 125 166 209 248
#     4  10  21  35  51  67  92 128 157 196 247 283
#     4  10  19  33  47  69  89 113 156 193 220 264
#     4  10  16  25  41  56  68  89 126 174 213 246
#     4   8  14  27  41  64  87 111 141 167 223 260
#     4   8  14  25  46  63  87 112 131 179 218 256
#     4  10  21  30  45  65  89 122 155 188 219 269
#
# _framework density 20.354759000000001
#
# number of rings (size 3 to 8) (size 9 to 14) (size 15 to 20)
#    0.000    2.250    2.500    3.375    0.000    3.000 
#    0.000    0.000    0.000    0.000    0.000    0.000 
#    0.000    3.000    0.000    4.250    0.000    0.000 
#
# Total GULP energy -396479.204159 kJ/mol
# GULP energy per Si atom -12389.975130 kJ/mol
# Density = 2.030843 g / cm^3
# Si number density = 20.354759 Si / 1000 Ang^3
#
#
#
# Elastic Constant Matrix: (Units=GPa)
#
#
# Indices 1 2 3 4 5 6 
#
# 1 106.1299 20.0431 24.4586 0.0000 0.0000 0.0000
# 2 20.0431 13.9201 5.0542 0.0000 0.0000 0.0000
# 3 24.4586 5.0542 202.2939 0.0000 0.0000 0.0000
# 4 0.0000 0.0000 0.0000 7.6187 0.0000 0.0000
# 5 0.0000 0.0000 0.0000 0.0000 10.7269 0.0000
# 6 0.0000 0.0000 0.0000 0.0000 0.0000 20.4126
#
#
#
# Elastic Compliance Matrix: (Units=1/GPa)
#
#
# Indices 1 2 3 4 5 6 
#
# 1 0.013193 -0.018586 -0.001131 0.000000 0.000000 0.000000
# 2 -0.018586 0.098678 -0.000218 0.000000 0.000000 0.000000
# 3 -0.001131 -0.000218 0.005085 0.000000 0.000000 0.000000
# 4 0.000000 0.000000 0.000000 0.131256 0.000000 0.000000
# 5 0.000000 0.000000 0.000000 0.000000 0.093224 0.000000
# 6 0.000000 0.000000 0.000000 0.000000 0.000000 0.048989
#
#
# Mechanical properties :
#
#
# Convention : Reuss Voigt Hill
#
# Bulk Modulus (GPa) = 12.97227 46.82840 29.90034
# Shear Modulus (GPa) = 10.96513 25.93750 18.45131
#
# Velocity S-wave (km/s) = 2.32351 3.57357 3.01406
# Velocity P-wave (km/s) = 3.68581 6.33113 5.18018
#
# Compressibility (1/GPa) = 0.07708752
#
# Stress axis : x y z
#
# Youngs Moduli (GPa) = 75.79796 10.13395 196.63851
#
# Poissons Ratio (x) = 0.18834 0.22235
# Poissons Ratio (y) = 1.40874 0.04292
# Poissons Ratio (z) = 0.08571 0.00221
#
# Static dielectric constant tensor:
#      x y z
#    x 3.510720 0.000000 0.000000 
#    y 0.000000 2.996020 0.000000 
#    z 0.000000 0.000000 7.184170 
# 
# 
# High freq. dielectric constant tensor:
#      x y z
#    x 1.773480 0.000000 0.000000 
#    y 0.000000 1.723860 0.000000 
#    z 0.000000 0.000000 1.848950 
# 
# From -- ./inp_files/1495.got.cif
#   From: 2010.03.12/outbox.cif.g09.slc.cpg/sg36_1_cif.got.tgz:1495.got - 2010.04.14 02:13:53.
