data_PCOD8174335
_publ_section_title
;
Structure prediction by ZEFSAII (Michael W. Deem and Ramdas Pophale) SiO2 
 PCOD8174335
Probable space group: C M C 21
;
_chemical_formula_sum "Si O2"
_cell_formula_units_Z 64
_cell_length_a 13.131531
_cell_length_b 18.378128
_cell_length_c 15.147911
_cell_angle_alpha 90.000000
_cell_angle_beta 90.000000
_cell_angle_gamma 90.000000
_cell_volume 3655.690162
_symmetry_space_group_name_H-M "C M C 21"
_symmetry_group_IT_number 36
_symmetry_cell_setting 'orthorhombic'
loop_
_space_group_symop_operation_xyz
x,y,z
-x,-y,1/2+z
x,-y,1/2+z
-x,y,z
1/2+x,1/2+y,z
1/2-x,1/2-y,1/2+z
1/2+x,1/2-y,1/2+z
1/2-x,1/2+y,z
loop_
_atom_site_type_symbol
_atom_site_label
_atom_site_fract_x
_atom_site_fract_y
_atom_site_fract_z
Si Si1 0.115053 0.036316 0.509960
Si Si2 0.120703 0.191317 0.543366
Si Si3 0.309408 0.644519 0.225695
Si Si4 0.192950 0.847321 0.348570
Si Si5 0.384426 0.230416 0.221016
Si Si6 0.883781 0.004011 0.309579
Si Si7 0.883913 0.258948 0.360396
Si Si8 0.621263 0.621173 0.038386
O O1 0.168968 0.109447 0.547317
O O2 0.118664 0.041326 0.404466
O O3 0.000000 0.034646 0.544551
O O4 0.166766 0.961471 0.542634
O O5 0.154722 0.234897 0.629379
O O6 0.157298 0.231906 0.455210
O O7 0.000000 0.183015 0.538076
O O8 0.190047 0.662601 0.240581
O O9 0.328644 0.559140 0.242599
O O10 0.377982 0.693567 0.290037
O O11 0.342756 0.663332 0.125516
O O12 0.121231 0.790465 0.297460
O O13 0.311179 0.825921 0.332601
O O14 0.165528 0.840475 0.451599
O O15 0.175204 0.927473 0.309316
O O16 0.500000 0.201412 0.214015
O O17 0.000000 0.990410 0.278681
O O18 0.000000 0.287131 0.364821
O O19 0.500000 0.619922 0.028961
#
# Coordination Sequence:
#
# PCOD8174335 Si02
#       8
#     8   8   8   8   8   8   8   8
#     4   8  15  27  46  72 100 126 155 200 256 300
#     4   9  16  29  50  73  99 134 168 205 250 293
#     4  11  21  32  52  79 103 134 174 210 264 311
#     4  10  21  34  52  77 105 137 172 207 260 311
#     4  10  21  35  50  72 104 140 176 211 251 308
#     4  10  18  32  51  75 103 126 161 214 260 300
#     4  10  19  34  53  76 106 136 172 214 251 302
#     4  10  19  31  48  76 108 133 162 211 266 309
#
# _framework density 17.506955000000001
#
# number of rings (size 3 to 8) (size 9 to 14) (size 15 to 20)
#    0.000    2.250    1.250    3.750    1.750    0.000 
#    0.000    0.625    0.000    0.000    0.000    0.000 
#    0.000    0.000    0.000    0.000    0.000    0.000 
#
# Total GULP energy -396690.421835 kJ/mol
# GULP energy per Si atom -12396.575682 kJ/mol
# Density = 1.746711 g / cm^3
# Si number density = 17.506955 Si / 1000 Ang^3
#
#
#
# Elastic Constant Matrix: (Units=GPa)
#
#
# Indices 1 2 3 4 5 6 
#
# 1 82.5347 44.1315 23.7659 0.0000 0.0000 0.0000
# 2 44.1315 85.4324 34.5376 0.0000 0.0000 0.0000
# 3 23.7659 34.5376 99.5772 0.0000 0.0000 0.0000
# 4 0.0000 0.0000 0.0000 16.8516 0.0000 0.0000
# 5 0.0000 0.0000 0.0000 0.0000 20.2080 0.0000
# 6 0.0000 0.0000 0.0000 0.0000 0.0000 19.5460
#
#
#
# Elastic Compliance Matrix: (Units=1/GPa)
#
#
# Indices 1 2 3 4 5 6 
#
# 1 0.016856 -0.008235 -0.001166 0.000000 0.000000 0.000000
# 2 -0.008235 0.017638 -0.004152 0.000000 0.000000 0.000000
# 3 -0.001166 -0.004152 0.011761 0.000000 0.000000 0.000000
# 4 0.000000 0.000000 0.000000 0.059342 0.000000 0.000000
# 5 0.000000 0.000000 0.000000 0.000000 0.049485 0.000000
# 6 0.000000 0.000000 0.000000 0.000000 0.000000 0.051161
#
#
# Mechanical properties :
#
#
# Convention : Reuss Voigt Hill
#
# Bulk Modulus (GPa) = 52.22896 52.49048 52.35972
# Shear Modulus (GPa) = 20.85656 22.32839 21.59248
#
# Velocity S-wave (km/s) = 3.45531 3.57515 3.51574
# Velocity P-wave (km/s) = 6.76882 6.86222 6.81568
#
# Compressibility (1/GPa) = 0.01914646
#
# Stress axis : x y z
#
# Youngs Moduli (GPa) = 59.32777 56.69631 85.02704
#
# Poissons Ratio (x) = 0.46692 0.09918
# Poissons Ratio (y) = 0.48859 0.35303
# Poissons Ratio (z) = 0.06920 0.23540
#
# Static dielectric constant tensor:
#      x y z
#    x 2.951910 0.000000 0.000000 
#    y 0.000000 3.232640 0.000000 
#    z 0.000000 0.000000 3.385270 
# 
# 
# High freq. dielectric constant tensor:
#      x y z
#    x 1.641410 0.000000 0.000000 
#    y 0.000000 1.667150 0.000000 
#    z 0.000000 0.000000 1.690370 
# 
# From -- ./inp_files/12330.got.cif
#   From: 2010.03.12/outbox.cif.g09.slc.cpg/sg36_7_cif.got.tgz:12330.got - 2010.04.14 02:13:53.
