data_PCOD8174872
_publ_section_title
;
Structure prediction by ZEFSAII (Michael W. Deem and Ramdas Pophale) SiO2 
 PCOD8174872
Probable space group: C M C 21
;
_chemical_formula_sum "Si O2"
_cell_formula_units_Z 40
_cell_length_a 25.927736
_cell_length_b 8.927847
_cell_length_c 8.340359
_cell_angle_alpha 90.000000
_cell_angle_beta 90.000000
_cell_angle_gamma 90.000000
_cell_volume 1930.616794
_symmetry_space_group_name_H-M "C M C 21"
_symmetry_group_IT_number 36
_symmetry_cell_setting 'orthorhombic'
loop_
_space_group_symop_operation_xyz
x,y,z
-x,-y,1/2+z
x,-y,1/2+z
-x,y,z
1/2+x,1/2+y,z
1/2-x,1/2-y,1/2+z
1/2+x,1/2-y,1/2+z
1/2-x,1/2+y,z
loop_
_atom_site_type_symbol
_atom_site_label
_atom_site_fract_x
_atom_site_fract_y
_atom_site_fract_z
Si Si1 0.000000 0.704157 0.730460
Si Si2 0.797983 0.205997 0.710917
Si Si3 0.000000 0.590575 0.384158
Si Si4 0.794966 0.888324 0.845480
Si Si5 0.612500 0.792618 0.211514
Si Si6 0.388594 0.882614 0.847584
O O1 0.000000 0.602829 0.573407
O O2 0.944468 0.788956 0.730611
O O3 0.000000 0.588756 0.875943
O O4 0.791698 0.151352 0.530745
O O5 0.753540 0.323344 0.750963
O O6 0.852845 0.287839 0.729214
O O7 0.793708 0.067230 0.832229
O O8 0.948144 0.662094 0.307648
O O9 0.847422 0.831507 0.765639
O O10 0.618589 0.939313 0.322898
O O11 0.624859 0.842806 0.030605
#
# Coordination Sequence:
#
# PCOD8174872 Si02
#       6
#     4   8   4   8   8   8
#     4   8  16  30  53  82 115 150 188 228 272 324
#     4  12  25  42  61  84 112 147 187 233 283 337
#     4   8  16  30  53  82 115 150 188 228 272 324
#     4  12  25  42  61  84 112 147 187 233 283 337
#     4  10  19  35  58  87 118 152 190 232 277 329
#     4  10  19  35  58  87 118 152 190 232 277 329
#
# _framework density 20.718767
#
# number of rings (size 3 to 8) (size 9 to 14) (size 15 to 20)
#    0.000    1.600    0.000    6.000    0.000    1.600 
#    0.000    1.000    0.000    0.000    0.000    0.000 
#    0.000    0.000    0.000    0.000    0.000    0.000 
#
# Total GULP energy -247905.534507 kJ/mol
# GULP energy per Si atom -12395.276725 kJ/mol
# Density = 2.067161 g / cm^3
# Si number density = 20.718767 Si / 1000 Ang^3
#
#
#
# Elastic Constant Matrix: (Units=GPa)
#
#
# Indices 1 2 3 4 5 6 
#
# 1 131.4144 31.2566 21.2459 0.0000 0.0000 0.0000
# 2 31.2566 64.1836 -8.0272 0.0000 0.0000 0.0000
# 3 21.2459 -8.0272 60.2955 0.0000 0.0000 0.0000
# 4 0.0000 0.0000 0.0000 31.6370 0.0000 0.0000
# 5 0.0000 0.0000 0.0000 0.0000 31.5764 0.0000
# 6 0.0000 0.0000 0.0000 0.0000 0.0000 27.2278
#
#
#
# Elastic Compliance Matrix: (Units=1/GPa)
#
#
# Indices 1 2 3 4 5 6 
#
# 1 0.009477 -0.005118 -0.004021 0.000000 0.000000 0.000000
# 2 -0.005118 0.018608 0.004281 0.000000 0.000000 0.000000
# 3 -0.004021 0.004281 0.018572 0.000000 0.000000 0.000000
# 4 0.000000 0.000000 0.000000 0.031609 0.000000 0.000000
# 5 0.000000 0.000000 0.000000 0.000000 0.031669 0.000000
# 6 0.000000 0.000000 0.000000 0.000000 0.000000 0.036727
#
#
# Mechanical properties :
#
#
# Convention : Reuss Voigt Hill
#
# Bulk Modulus (GPa) = 27.07044 38.31600 32.69322
# Shear Modulus (GPa) = 29.64003 32.18279 30.91141
#
# Velocity S-wave (km/s) = 3.78642 3.94549 3.86677
# Velocity P-wave (km/s) = 5.67538 6.26812 5.97910
#
# Compressibility (1/GPa) = 0.03694067
#
# Stress axis : x y z
#
# Youngs Moduli (GPa) = 105.52060 53.74020 53.84567
#
# Poissons Ratio (x) = 0.27504 0.21649
# Poissons Ratio (y) = 0.54005 -0.23050
# Poissons Ratio (z) = 0.42426 -0.23004
#
# Static dielectric constant tensor:
#      x y z
#    x 4.287560 0.000000 0.000000 
#    y 0.000000 3.475560 0.000000 
#    z 0.000000 0.000000 3.782570 
# 
# 
# High freq. dielectric constant tensor:
#      x y z
#    x 1.837840 0.000000 0.000000 
#    y 0.000000 1.772320 0.000000 
#    z 0.000000 0.000000 1.820510 
# 
# From -- ./inp_files/5480.got.cif
#   From: 2010.03.12/outbox.cif.g09.slc.cpg/sg36_3_cif.got.tgz:5480.got - 2010.04.14 02:13:53.
