data_PCOD8174873
_publ_section_title
;
Structure prediction by ZEFSAII (Michael W. Deem and Ramdas Pophale) SiO2 
 PCOD8174873
Probable space group: C M C 21
;
_chemical_formula_sum "Si O2"
_cell_formula_units_Z 64
_cell_length_a 8.664092
_cell_length_b 20.227649
_cell_length_c 19.086204
_cell_angle_alpha 90.000000
_cell_angle_beta 90.000000
_cell_angle_gamma 90.000000
_cell_volume 3344.937640
_symmetry_space_group_name_H-M "C M C 21"
_symmetry_group_IT_number 36
_symmetry_cell_setting 'orthorhombic'
loop_
_space_group_symop_operation_xyz
x,y,z
-x,-y,1/2+z
x,-y,1/2+z
-x,y,z
1/2+x,1/2+y,z
1/2-x,1/2-y,1/2+z
1/2+x,1/2-y,1/2+z
1/2-x,1/2+y,z
loop_
_atom_site_type_symbol
_atom_site_label
_atom_site_fract_x
_atom_site_fract_y
_atom_site_fract_z
Si Si1 0.178629 0.860070 0.866140
Si Si2 0.321491 0.512026 0.865615
Si Si3 0.821106 0.487450 0.221491
Si Si4 0.178988 0.442443 0.502252
Si Si5 0.820862 0.641480 0.221208
Si Si6 0.820833 0.821637 0.582067
Si Si7 0.821872 0.941347 0.086566
Si Si8 0.821019 0.196095 0.514469
O O1 0.217042 0.936094 0.884866
O O2 0.274889 0.834964 0.799214
O O3 0.000000 0.852720 0.846999
O O4 0.222930 0.816216 0.933314
O O5 0.500000 0.521695 0.847598
O O6 0.221844 0.535557 0.799424
O O7 0.276051 0.557813 0.930715
O O8 0.779477 0.564463 0.211911
O O9 0.717902 0.444480 0.168677
O O10 0.000000 0.473735 0.207187
O O11 0.219940 0.378242 0.546515
O O12 0.213343 0.507171 0.547243
O O13 0.000000 0.441138 0.483102
O O14 0.726040 0.683118 0.163833
O O15 0.000000 0.655556 0.209660
O O16 0.787721 0.752971 0.543810
O O17 0.000000 0.839127 0.575401
O O18 0.785140 0.868572 0.059627
O O19 0.000000 0.959990 0.072614
O O20 0.000000 0.216366 0.521396
#
# Coordination Sequence:
#
# PCOD8174873 Si02
#       8
#     8   8   8   8   8   8   8   8
#     4   9  18  35  59  86 116 153 192 236 289 352
#     4  10  19  35  58  87 119 154 195 242 295 352
#     4  10  20  34  55  88 122 155 193 243 297 346
#     4  12  23  37  59  87 119 153 193 245 296 347
#     4  10  20  35  57  86 118 153 193 242 292 345
#     4  12  25  40  60  86 118 158 202 244 294 354
#     4  11  21  37  61  88 117 154 195 241 292 349
#     4  10  22  41  61  86 121 156 195 241 295 349
#
# _framework density 19.133392000000001
#
# number of rings (size 3 to 8) (size 9 to 14) (size 15 to 20)
#    0.000    1.500    2.500    3.750    0.000    3.000 
#    0.000    1.250    0.000    6.000    0.000    0.000 
#    0.000    0.000    0.000    0.000    0.000    0.000 
#
# Total GULP energy -396978.436247 kJ/mol
# GULP energy per Si atom -12405.576133 kJ/mol
# Density = 1.908984 g / cm^3
# Si number density = 19.133392 Si / 1000 Ang^3
#
#
#
# Elastic Constant Matrix: (Units=GPa)
#
#
# Indices 1 2 3 4 5 6 
#
# 1 68.9805 30.7033 27.4569 0.0000 0.0000 0.0000
# 2 30.7033 52.8865 37.3839 0.0000 0.0000 0.0000
# 3 27.4569 37.3839 121.2183 0.0000 0.0000 0.0000
# 4 0.0000 0.0000 0.0000 28.3196 0.0000 0.0000
# 5 0.0000 0.0000 0.0000 0.0000 37.3284 0.0000
# 6 0.0000 0.0000 0.0000 0.0000 0.0000 26.8819
#
#
#
# Elastic Compliance Matrix: (Units=1/GPa)
#
#
# Indices 1 2 3 4 5 6 
#
# 1 0.019683 -0.010582 -0.001195 0.000000 0.000000 0.000000
# 2 -0.010582 0.029869 -0.006815 0.000000 0.000000 0.000000
# 3 -0.001195 -0.006815 0.010622 0.000000 0.000000 0.000000
# 4 0.000000 0.000000 0.000000 0.035311 0.000000 0.000000
# 5 0.000000 0.000000 0.000000 0.000000 0.026789 0.000000
# 6 0.000000 0.000000 0.000000 0.000000 0.000000 0.037200
#
#
# Mechanical properties :
#
#
# Convention : Reuss Voigt Hill
#
# Bulk Modulus (GPa) = 43.49673 48.24148 45.86910
# Shear Modulus (GPa) = 24.47137 28.34206 26.40672
#
# Velocity S-wave (km/s) = 3.58017 3.85293 3.71905
# Velocity P-wave (km/s) = 6.31450 6.71278 6.51668
#
# Compressibility (1/GPa) = 0.02299024
#
# Stress axis : x y z
#
# Youngs Moduli (GPa) = 50.80640 33.47943 94.14557
#
# Poissons Ratio (x) = 0.35429 0.11247
# Poissons Ratio (y) = 0.53765 0.64157
# Poissons Ratio (z) = 0.06070 0.22815
#
# Static dielectric constant tensor:
#      x y z
#    x 3.464840 0.000000 0.000000 
#    y 0.000000 3.314820 0.000000 
#    z 0.000000 0.000000 3.696840 
# 
# 
# High freq. dielectric constant tensor:
#      x y z
#    x 1.751180 0.000000 0.000000 
#    y 0.000000 1.708380 0.000000 
#    z 0.000000 0.000000 1.761510 
# 
# From -- ./inp_files/13898.got.cif
#   From: 2010.03.12/outbox.cif.g09.slc.cpg/sg36_7_cif.got.tgz:13898.got - 2010.04.14 02:13:53.
