data_PCOD8174541
_publ_section_title
;
Structure prediction by ZEFSAII (Michael W. Deem and Ramdas Pophale) SiO2 
 PCOD8174541
Probable space group: C M C 21
;
_chemical_formula_sum "Si O2"
_cell_formula_units_Z 64
_cell_length_a 9.296929
_cell_length_b 24.382659
_cell_length_c 14.457477
_cell_angle_alpha 90.000000
_cell_angle_beta 90.000000
_cell_angle_gamma 90.000000
_cell_volume 3277.276541
_symmetry_space_group_name_H-M "C M C 21"
_symmetry_group_IT_number 36
_symmetry_cell_setting 'orthorhombic'
loop_
_space_group_symop_operation_xyz
x,y,z
-x,-y,1/2+z
x,-y,1/2+z
-x,y,z
1/2+x,1/2+y,z
1/2-x,1/2-y,1/2+z
1/2+x,1/2-y,1/2+z
1/2-x,1/2+y,z
loop_
_atom_site_type_symbol
_atom_site_label
_atom_site_fract_x
_atom_site_fract_y
_atom_site_fract_z
Si Si1 0.835035 0.441854 0.669920
Si Si2 0.336560 0.016681 0.365245
Si Si3 0.661760 0.411056 0.360244
Si Si4 0.662332 0.187719 0.790502
Si Si5 0.334161 0.172325 0.586747
Si Si6 0.835347 0.140299 0.054123
Si Si7 0.332372 0.242923 0.975862
Si Si8 0.669798 0.049681 0.564904
O O1 0.825702 0.440559 0.781115
O O2 0.738408 0.390698 0.639294
O O3 0.773358 0.499591 0.628663
O O4 0.000000 0.433290 0.636737
O O5 0.500000 0.997525 0.381337
O O6 0.274029 0.042730 0.459370
O O7 0.248891 0.964268 0.332926
O O8 0.500000 0.418849 0.325912
O O9 0.725053 0.359770 0.306927
O O10 0.670646 0.402087 0.469772
O O11 0.500000 0.164973 0.804669
O O12 0.682955 0.205927 0.683652
O O13 0.689860 0.236609 0.864501
O O14 0.500000 0.173109 0.553584
O O15 0.237875 0.200025 0.507402
O O16 0.278874 0.109501 0.600690
O O17 0.747070 0.194656 0.030737
O O18 0.000000 0.156402 0.078270
O O19 0.500000 0.242078 0.002222
O O20 0.500000 0.048606 0.568724
#
# Coordination Sequence:
#
# PCOD8174541 Si02
#       8
#     8   8   8   8   8   8   8   8
#     4  10  19  33  55  81 109 145 187 224 269 333
#     4  10  19  32  52  78 111 149 186 221 271 336
#     4  10  19  31  52  81 111 142 183 230 274 320
#     4   9  19  36  59  82 108 146 192 232 278 336
#     4  10  20  38  60  82 112 151 190 231 282 337
#     4  10  20  35  55  79 108 142 181 228 279 327
#     4  10  21  38  59  83 109 143 187 236 282 331
#     4   9  18  33  54  80 110 146 184 224 271 328
#
# _framework density 19.528410000000001
#
# number of rings (size 3 to 8) (size 9 to 14) (size 15 to 20)
#    0.000    2.250    1.250    1.875    0.000    4.500 
#    2.250    1.250    0.000    0.000    0.000    0.000 
#    0.000    0.000    0.000    0.000    0.000    0.000 
#
# Total GULP energy -396720.966183 kJ/mol
# GULP energy per Si atom -12397.530193 kJ/mol
# Density = 1.948396 g / cm^3
# Si number density = 19.528410 Si / 1000 Ang^3
#
#
#
# Elastic Constant Matrix: (Units=GPa)
#
#
# Indices 1 2 3 4 5 6 
#
# 1 81.4030 14.4713 18.9129 0.0000 0.0000 0.0000
# 2 14.4713 48.6788 12.3385 0.0000 0.0000 0.0000
# 3 18.9129 12.3385 90.3226 0.0000 0.0000 0.0000
# 4 0.0000 0.0000 0.0000 22.5343 0.0000 0.0000
# 5 0.0000 0.0000 0.0000 0.0000 22.6241 0.0000
# 6 0.0000 0.0000 0.0000 0.0000 0.0000 27.3835
#
#
#
# Elastic Compliance Matrix: (Units=1/GPa)
#
#
# Indices 1 2 3 4 5 6 
#
# 1 0.013434 -0.003398 -0.002349 0.000000 0.000000 0.000000
# 2 -0.003398 0.022139 -0.002313 0.000000 0.000000 0.000000
# 3 -0.002349 -0.002313 0.011879 0.000000 0.000000 0.000000
# 4 0.000000 0.000000 0.000000 0.044377 0.000000 0.000000
# 5 0.000000 0.000000 0.000000 0.000000 0.044201 0.000000
# 6 0.000000 0.000000 0.000000 0.000000 0.000000 0.036518
#
#
# Mechanical properties :
#
#
# Convention : Reuss Voigt Hill
#
# Bulk Modulus (GPa) = 31.91532 34.64998 33.28265
# Shear Modulus (GPa) = 25.11135 26.15381 25.63258
#
# Velocity S-wave (km/s) = 3.58982 3.66357 3.62688
# Velocity P-wave (km/s) = 5.79318 5.97307 5.88381
#
# Compressibility (1/GPa) = 0.03133292
#
# Stress axis : x y z
#
# Youngs Moduli (GPa) = 74.43564 45.16853 84.18088
#
# Poissons Ratio (x) = 0.15350 0.19773
# Poissons Ratio (y) = 0.25297 0.19469
# Poissons Ratio (z) = 0.17484 0.10446
#
# Static dielectric constant tensor:
#      x y z
#    x 3.454050 0.000000 0.000000 
#    y 0.000000 3.345080 0.000000 
#    z 0.000000 0.000000 3.650210 
# 
# 
# High freq. dielectric constant tensor:
#      x y z
#    x 1.746320 0.000000 0.000000 
#    y 0.000000 1.739440 0.000000 
#    z 0.000000 0.000000 1.762910 
# 
# From -- ./inp_files/10866.got.cif
#   From: 2010.03.12/outbox.cif.g09.slc.cpg/sg36_6_cif.got.tgz:10866.got - 2010.04.14 02:13:53.
