data_PCOD8174328
_publ_section_title
;
Structure prediction by ZEFSAII (Michael W. Deem and Ramdas Pophale) SiO2 
 PCOD8174328
Probable space group: C M C 21
;
_chemical_formula_sum "Si O2"
_cell_formula_units_Z 56
_cell_length_a 21.146785
_cell_length_b 12.083115
_cell_length_c 10.850463
_cell_angle_alpha 90.000000
_cell_angle_beta 90.000000
_cell_angle_gamma 90.000000
_cell_volume 2772.499835
_symmetry_space_group_name_H-M "C M C 21"
_symmetry_group_IT_number 36
_symmetry_cell_setting 'orthorhombic'
loop_
_space_group_symop_operation_xyz
x,y,z
-x,-y,1/2+z
x,-y,1/2+z
-x,y,z
1/2+x,1/2+y,z
1/2-x,1/2-y,1/2+z
1/2+x,1/2-y,1/2+z
1/2-x,1/2+y,z
loop_
_atom_site_type_symbol
_atom_site_label
_atom_site_fract_x
_atom_site_fract_y
_atom_site_fract_z
Si Si1 0.330391 0.787361 0.923730
Si Si2 0.746572 0.928557 0.084349
Si Si3 0.289676 0.802383 0.310716
Si Si4 0.830377 0.873134 0.629186
Si Si5 0.573169 0.526992 0.303506
Si Si6 0.429250 0.275118 0.247425
Si Si7 0.632913 0.691287 0.497211
O O1 0.277148 0.702303 0.877669
O O2 0.382911 0.809432 0.819306
O O3 0.303007 0.905254 0.972742
O O4 0.359295 0.718658 0.038138
O O5 0.711595 0.906896 0.216646
O O6 0.775217 0.050070 0.070749
O O7 0.803377 0.840862 0.069888
O O8 0.294275 0.686293 0.239579
O O9 0.349134 0.796194 0.407618
O O10 0.890293 0.941935 0.678063
O O11 0.500000 0.563028 0.291981
O O12 0.579913 0.394817 0.312029
O O13 0.604365 0.586564 0.421857
O O14 0.500000 0.232144 0.266840
O O15 0.416920 0.272464 0.100821
#
# Coordination Sequence:
#
# PCOD8174328 Si02
#       7
#     8   8   8   8   8   8   8
#     4  10  20  33  50  78 108 138 175 220 265 311
#     4  10  18  33  53  74 105 138 174 222 265 314
#     4   9  19  32  52  73 104 138 173 223 264 310
#     4  10  19  33  54  76 108 148 170 217 267 313
#     4  10  20  31  47  73 107 147 182 204 244 330
#     4  11  21  32  50  73 107 146 178 211 259 324
#     4  10  18  32  48  69 104 143 172 209 258 304
#
# _framework density 20.198377000000001
#
# number of rings (size 3 to 8) (size 9 to 14) (size 15 to 20)
#    0.000    2.000    2.857    1.286    0.000    2.857 
#    0.000    0.000    0.000    0.000    0.000    1.000 
#    0.000    0.286    0.000    0.000    0.000    0.000 
#
# Total GULP energy -346975.354197 kJ/mol
# GULP energy per Si atom -12391.976936 kJ/mol
# Density = 2.015240 g / cm^3
# Si number density = 20.198377 Si / 1000 Ang^3
#
#
#
# Elastic Constant Matrix: (Units=GPa)
#
#
# Indices 1 2 3 4 5 6 
#
# 1 105.4509 21.1357 46.0892 0.0000 0.0000 0.0000
# 2 21.1357 26.2192 15.6015 0.0000 0.0000 0.0000
# 3 46.0892 15.6015 99.2383 0.0000 0.0000 0.0000
# 4 0.0000 0.0000 0.0000 19.6691 0.0000 0.0000
# 5 0.0000 0.0000 0.0000 0.0000 29.5162 0.0000
# 6 0.0000 0.0000 0.0000 0.0000 0.0000 24.1262
#
#
#
# Elastic Compliance Matrix: (Units=1/GPa)
#
#
# Indices 1 2 3 4 5 6 
#
# 1 0.013170 -0.007697 -0.004907 0.000000 0.000000 0.000000
# 2 -0.007697 0.046575 -0.003747 0.000000 0.000000 0.000000
# 3 -0.004907 -0.003747 0.012945 0.000000 0.000000 0.000000
# 4 0.000000 0.000000 0.000000 0.050841 0.000000 0.000000
# 5 0.000000 0.000000 0.000000 0.000000 0.033880 0.000000
# 6 0.000000 0.000000 0.000000 0.000000 0.000000 0.041449
#
#
# Mechanical properties :
#
#
# Convention : Reuss Voigt Hill
#
# Bulk Modulus (GPa) = 25.00784 44.06236 34.53510
# Shear Modulus (GPa) = 20.41726 24.53443 22.47584
#
# Velocity S-wave (km/s) = 3.18282 3.48900 3.33942
# Velocity P-wave (km/s) = 5.09069 6.17195 5.65721
#
# Compressibility (1/GPa) = 0.03998745
#
# Stress axis : x y z
#
# Youngs Moduli (GPa) = 75.92788 21.47088 77.25202
#
# Poissons Ratio (x) = 0.16527 0.37905
# Poissons Ratio (y) = 0.58444 0.28948
# Poissons Ratio (z) = 0.37255 0.08046
#
# Static dielectric constant tensor:
#      x y z
#    x 3.626550 0.000000 0.000000 
#    y 0.000000 3.233870 0.000000 
#    z 0.000000 0.000000 3.923630 
# 
# 
# High freq. dielectric constant tensor:
#      x y z
#    x 1.768420 0.000000 0.000000 
#    y 0.000000 1.740020 0.000000 
#    z 0.000000 0.000000 1.810030 
# 
# From -- ./inp_files/9225.got.cif
#   From: 2010.03.12/outbox.cif.g09.slc.cpg/sg36_5_cif.got.tgz:9225.got - 2010.04.14 02:13:53.
