data_PCOD8174238
_publ_section_title
;
Structure prediction by ZEFSAII (Michael W. Deem and Ramdas Pophale) SiO2 
 PCOD8174238
Probable space group: C M C 21
;
_chemical_formula_sum "Si O2"
_cell_formula_units_Z 48
_cell_length_a 8.879611
_cell_length_b 31.266324
_cell_length_c 9.687806
_cell_angle_alpha 90.000000
_cell_angle_beta 90.000000
_cell_angle_gamma 90.000000
_cell_volume 2689.652653
_symmetry_space_group_name_H-M "C M C 21"
_symmetry_group_IT_number 36
_symmetry_cell_setting 'orthorhombic'
loop_
_space_group_symop_operation_xyz
x,y,z
-x,-y,1/2+z
x,-y,1/2+z
-x,y,z
1/2+x,1/2+y,z
1/2-x,1/2-y,1/2+z
1/2+x,1/2-y,1/2+z
1/2-x,1/2+y,z
loop_
_atom_site_type_symbol
_atom_site_label
_atom_site_fract_x
_atom_site_fract_y
_atom_site_fract_z
Si Si1 0.820267 0.956638 0.591830
Si Si2 0.326080 0.530984 0.781700
Si Si3 0.175475 0.784704 0.552310
Si Si4 0.328420 0.623562 0.784113
Si Si5 0.824301 0.370528 0.568165
Si Si6 0.171492 0.215487 0.731489
O O1 0.761370 0.967341 0.437196
O O2 0.754234 0.911126 0.642688
O O3 0.000000 0.954173 0.595371
O O4 0.750973 0.993677 0.690355
O O5 0.500000 0.519214 0.789803
O O6 0.301946 0.577817 0.708555
O O7 0.259103 0.825266 0.622021
O O8 0.218748 0.778962 0.391516
O O9 0.219900 0.742204 0.634080
O O10 0.000000 0.792932 0.568206
O O11 0.500000 0.624034 0.846378
O O12 0.309051 0.665252 0.687263
O O13 0.208831 0.626951 0.906069
O O14 0.000000 0.372097 0.599054
O O15 0.000000 0.230568 0.708311
#
# Coordination Sequence:
#
# PCOD8174238 Si02
#       6
#     8   8   8   8   8   8
#     4   9  16  29  47  68  92 120 155 192 231 276
#     4   8  14  26  47  68  89 119 154 189 224 270
#     4  10  20  34  52  73  98 128 162 200 241 287
#     4   8  15  30  49  69  94 124 158 194 231 279
#     4  10  18  29  47  69  93 124 160 195 234 282
#     4   9  18  32  50  73 100 127 159 200 241 284
#
# _framework density 17.846170000000001
#
# number of rings (size 3 to 8) (size 9 to 14) (size 15 to 20)
#    0.000    3.000    0.000    4.000    0.000    3.333 
#    0.000    5.000    0.000    4.000    0.000    0.000 
#    0.000    0.000    0.000    0.000    0.000    0.000 
#
# Total GULP energy -297358.157439 kJ/mol
# GULP energy per Si atom -12389.923227 kJ/mol
# Density = 1.780555 g / cm^3
# Si number density = 17.846170 Si / 1000 Ang^3
#
#
#
# Elastic Constant Matrix: (Units=GPa)
#
#
# Indices 1 2 3 4 5 6 
#
# 1 51.5582 19.0251 12.0347 0.0000 0.0000 0.0000
# 2 19.0251 86.3054 15.7014 0.0000 0.0000 0.0000
# 3 12.0347 15.7014 31.1005 0.0000 0.0000 0.0000
# 4 0.0000 0.0000 0.0000 32.2350 0.0000 0.0000
# 5 0.0000 0.0000 0.0000 0.0000 17.1903 0.0000
# 6 0.0000 0.0000 0.0000 0.0000 0.0000 26.4238
#
#
#
# Elastic Compliance Matrix: (Units=1/GPa)
#
#
# Indices 1 2 3 4 5 6 
#
# 1 0.022340 -0.003691 -0.006782 0.000000 0.000000 0.000000
# 2 -0.003691 0.013368 -0.005321 0.000000 0.000000 0.000000
# 3 -0.006782 -0.005321 0.037464 0.000000 0.000000 0.000000
# 4 0.000000 0.000000 0.000000 0.031022 0.000000 0.000000
# 5 0.000000 0.000000 0.000000 0.000000 0.058172 0.000000
# 6 0.000000 0.000000 0.000000 0.000000 0.000000 0.037845
#
#
# Mechanical properties :
#
#
# Convention : Reuss Voigt Hill
#
# Bulk Modulus (GPa) = 24.04628 29.16516 26.60572
# Shear Modulus (GPa) = 20.35322 23.31667 21.83494
#
# Velocity S-wave (km/s) = 3.38076 3.61853 3.50166
# Velocity P-wave (km/s) = 5.36124 5.81690 5.59371
#
# Compressibility (1/GPa) = 0.04158647
#
# Stress axis : x y z
#
# Youngs Moduli (GPa) = 44.76181 74.80313 26.69204
#
# Poissons Ratio (x) = 0.27610 0.18101
# Poissons Ratio (y) = 0.16521 0.14203
# Poissons Ratio (z) = 0.30355 0.39802
#
# Static dielectric constant tensor:
#      x y z
#    x 3.009830 0.000000 0.000000 
#    y 0.000000 3.817200 0.000000 
#    z 0.000000 0.000000 2.988720 
# 
# 
# High freq. dielectric constant tensor:
#      x y z
#    x 1.667940 0.000000 0.000000 
#    y 0.000000 1.717240 0.000000 
#    z 0.000000 0.000000 1.636280 
# 
# From -- ./inp_files/6751.got.cif
#   From: 2010.03.12/outbox.cif.g09.slc.cpg/sg36_4_cif.got.tgz:6751.got - 2010.04.14 02:13:53.
