data_PCOD8174870
_publ_section_title
;
Structure prediction by ZEFSAII (Michael W. Deem and Ramdas Pophale) SiO2 
 PCOD8174870
Probable space group: C M C 21
;
_chemical_formula_sum "Si O2"
_cell_formula_units_Z 64
_cell_length_a 8.402025
_cell_length_b 24.733829
_cell_length_c 14.325336
_cell_angle_alpha 90.000000
_cell_angle_beta 90.000000
_cell_angle_gamma 90.000000
_cell_volume 2977.008951
_symmetry_space_group_name_H-M "C M C 21"
_symmetry_group_IT_number 36
_symmetry_cell_setting 'orthorhombic'
loop_
_space_group_symop_operation_xyz
x,y,z
-x,-y,1/2+z
x,-y,1/2+z
-x,y,z
1/2+x,1/2+y,z
1/2-x,1/2-y,1/2+z
1/2+x,1/2-y,1/2+z
1/2-x,1/2+y,z
loop_
_atom_site_type_symbol
_atom_site_label
_atom_site_fract_x
_atom_site_fract_y
_atom_site_fract_z
Si Si1 0.683820 0.159074 0.353040
Si Si2 0.185191 0.295295 0.524121
Si Si3 0.312972 0.589153 0.055621
Si Si4 0.678696 0.872699 0.231469
Si Si5 0.812481 0.686164 0.554268
Si Si6 0.686408 0.057355 0.245527
Si Si7 0.182514 0.959201 0.358124
Si Si8 0.820012 0.222498 0.825030
O O1 0.500000 0.144367 0.366880
O O2 0.760023 0.165820 0.455749
O O3 0.762156 0.110581 0.294455
O O4 0.706324 0.214978 0.296995
O O5 0.229274 0.352639 0.571398
O O6 0.223859 0.241968 0.587278
O O7 0.296531 0.286887 0.434711
O O8 0.000000 0.296584 0.498177
O O9 0.500000 0.597991 0.048189
O O10 0.270021 0.550993 0.144156
O O11 0.252648 0.559937 0.959803
O O12 0.500000 0.895418 0.245056
O O13 0.722105 0.864495 0.122937
O O14 0.803089 0.910296 0.284545
O O15 0.688864 0.812147 0.271644
O O16 0.000000 0.698565 0.548446
O O17 0.500000 0.062659 0.226421
O O18 0.716367 0.008136 0.316034
O O19 0.000000 0.977042 0.365330
O O20 0.000000 0.204520 0.800079
#
# Coordination Sequence:
#
# PCOD8174870 Si02
#       8
#     8   8   8   8   8   8   8   8
#     4   8  18  38  60  85 122 164 202 249 316 377
#     4  11  21  35  59  91 125 163 214 262 310 373
#     4  11  24  43  65  90 124 167 211 261 320 379
#     4  11  22  36  60  94 125 163 214 264 312 376
#     4   9  20  38  59  89 130 170 206 254 322 384
#     4  11  24  42  67  97 125 162 215 271 319 378
#     4  11  25  45  66  89 125 172 215 263 319 380
#     4  10  19  35  58  85 124 167 203 254 318 377
#
# _framework density 21.498087000000002
#
# number of rings (size 3 to 8) (size 9 to 14) (size 15 to 20)
#    0.000    1.750    1.250    3.750    1.750    3.500 
#    0.000    6.875    0.000    0.000    0.000    0.000 
#    0.000    0.000    0.000    0.000    0.000    0.000 
#
# Total GULP energy -396701.387364 kJ/mol
# GULP energy per Si atom -12396.918355 kJ/mol
# Density = 2.144916 g / cm^3
# Si number density = 21.498087 Si / 1000 Ang^3
#
#
#
# Elastic Constant Matrix: (Units=GPa)
#
#
# Indices 1 2 3 4 5 6 
#
# 1 52.4123 20.4813 19.2786 0.0000 0.0000 0.0000
# 2 20.4813 107.0247 49.1034 0.0000 0.0000 0.0000
# 3 19.2786 49.1034 87.2918 0.0000 0.0000 0.0000
# 4 0.0000 0.0000 0.0000 28.9734 0.0000 0.0000
# 5 0.0000 0.0000 0.0000 0.0000 23.9122 0.0000
# 6 0.0000 0.0000 0.0000 0.0000 0.0000 30.8699
#
#
#
# Elastic Compliance Matrix: (Units=1/GPa)
#
#
# Indices 1 2 3 4 5 6 
#
# 1 0.021283 -0.002583 -0.003247 0.000000 0.000000 0.000000
# 2 -0.002583 0.012907 -0.006690 0.000000 0.000000 0.000000
# 3 -0.003247 -0.006690 0.015936 0.000000 0.000000 0.000000
# 4 0.000000 0.000000 0.000000 0.034514 0.000000 0.000000
# 5 0.000000 0.000000 0.000000 0.000000 0.041820 0.000000
# 6 0.000000 0.000000 0.000000 0.000000 0.000000 0.032394
#
#
# Mechanical properties :
#
#
# Convention : Reuss Voigt Hill
#
# Bulk Modulus (GPa) = 39.86323 47.16171 43.51247
# Shear Modulus (GPa) = 26.00661 27.27546 26.64104
#
# Velocity S-wave (km/s) = 3.48187 3.56580 3.52409
# Velocity P-wave (km/s) = 5.89470 6.24007 6.06984
#
# Compressibility (1/GPa) = 0.02508578
#
# Stress axis : x y z
#
# Youngs Moduli (GPa) = 46.98502 77.47460 62.74928
#
# Poissons Ratio (x) = 0.20012 0.20378
# Poissons Ratio (y) = 0.12136 0.41981
# Poissons Ratio (z) = 0.15258 0.51832
#
# Static dielectric constant tensor:
#      x y z
#    x 3.561860 0.000000 0.000000 
#    y 0.000000 3.952070 0.000000 
#    z 0.000000 0.000000 4.083000 
# 
# 
# High freq. dielectric constant tensor:
#      x y z
#    x 1.828220 0.000000 0.000000 
#    y 0.000000 1.837690 0.000000 
#    z 0.000000 0.000000 1.846110 
# 
# From -- ./inp_files/11039.got.cif
#   From: 2010.03.12/outbox.cif.g09.slc.cpg/sg36_6_cif.got.tgz:11039.got - 2010.04.14 02:13:53.
