data_PCOD8174480
_publ_section_title
;
Structure prediction by ZEFSAII (Michael W. Deem and Ramdas Pophale) SiO2 
 PCOD8174480
Probable space group: C M C 21
;
_chemical_formula_sum "Si O2"
_cell_formula_units_Z 64
_cell_length_a 9.194351
_cell_length_b 23.080218
_cell_length_c 17.591341
_cell_angle_alpha 90.000000
_cell_angle_beta 90.000000
_cell_angle_gamma 90.000000
_cell_volume 3733.016702
_symmetry_space_group_name_H-M "C M C 21"
_symmetry_group_IT_number 36
_symmetry_cell_setting 'orthorhombic'
loop_
_space_group_symop_operation_xyz
x,y,z
-x,-y,1/2+z
x,-y,1/2+z
-x,y,z
1/2+x,1/2+y,z
1/2-x,1/2-y,1/2+z
1/2+x,1/2-y,1/2+z
1/2-x,1/2+y,z
loop_
_atom_site_type_symbol
_atom_site_label
_atom_site_fract_x
_atom_site_fract_y
_atom_site_fract_z
Si Si1 0.834793 0.326211 0.121420
Si Si2 0.330724 0.610465 0.828383
Si Si3 0.333014 0.727661 0.754892
Si Si4 0.829621 0.569323 0.138135
Si Si5 0.660217 0.721842 0.036171
Si Si6 0.669965 0.878815 0.476763
Si Si7 0.336951 0.670651 0.204503
Si Si8 0.667019 0.943086 0.186797
O O1 0.711925 0.304298 0.178084
O O2 0.811327 0.291963 0.040776
O O3 0.816963 0.395951 0.117986
O O4 0.000000 0.311777 0.150783
O O5 0.500000 0.594387 0.831306
O O6 0.307554 0.680184 0.820992
O O7 0.260559 0.574764 0.759639
O O8 0.253445 0.591647 0.906604
O O9 0.500000 0.746521 0.749109
O O10 0.239335 0.786457 0.766048
O O11 0.787336 0.584935 0.051600
O O12 0.748116 0.610068 0.198641
O O13 0.778040 0.503905 0.153470
O O14 0.000000 0.578269 0.150641
O O15 0.500000 0.708867 0.001381
O O16 0.779464 0.688150 0.987003
O O17 0.666409 0.701703 0.123373
O O18 0.500000 0.879206 0.459684
O O19 0.500000 0.657887 0.232396
O O20 0.500000 0.947645 0.213423
#
# Coordination Sequence:
#
# PCOD8174480 Si02
#       8
#     8   8   8   8   8   8   8   8
#     4   8  14  25  43  66  90 116 145 180 225 272
#     4  10  20  32  47  69  95 123 157 198 244 292
#     4   9  16  26  42  64  89 114 143 183 229 275
#     4   9  18  31  48  71  97 126 164 204 238 278
#     4   8  14  25  41  63  89 114 142 179 226 276
#     4  10  19  30  46  68  93 123 158 197 243 291
#     4   9  16  26  43  66  91 118 147 182 226 274
#     4   9  17  31  50  71  96 126 162 201 237 280
#
# _framework density 17.144310999999998
#
# number of rings (size 3 to 8) (size 9 to 14) (size 15 to 20)
#    0.000    3.000    0.000    2.250    0.000    5.500 
#    0.000    0.000    0.000    1.500    0.000    8.750 
#    0.000    0.000    0.000    0.000    0.000    0.000 
#
# Total GULP energy -396492.333930 kJ/mol
# GULP energy per Si atom -12390.385435 kJ/mol
# Density = 1.710529 g / cm^3
# Si number density = 17.144311 Si / 1000 Ang^3
#
#
#
# Elastic Constant Matrix: (Units=GPa)
#
#
# Indices 1 2 3 4 5 6 
#
# 1 88.9005 49.5165 38.5350 0.0000 0.0000 0.0000
# 2 49.5165 129.2547 37.4063 0.0000 0.0000 0.0000
# 3 38.5350 37.4063 52.7701 0.0000 0.0000 0.0000
# 4 0.0000 0.0000 0.0000 15.5431 0.0000 0.0000
# 5 0.0000 0.0000 0.0000 0.0000 20.4101 0.0000
# 6 0.0000 0.0000 0.0000 0.0000 0.0000 24.5075
#
#
#
# Elastic Compliance Matrix: (Units=1/GPa)
#
#
# Indices 1 2 3 4 5 6 
#
# 1 0.017869 -0.003861 -0.010312 0.000000 0.000000 0.000000
# 2 -0.003861 0.010568 -0.004671 0.000000 0.000000 0.000000
# 3 -0.010312 -0.004671 0.029791 0.000000 0.000000 0.000000
# 4 0.000000 0.000000 0.000000 0.064337 0.000000 0.000000
# 5 0.000000 0.000000 0.000000 0.000000 0.048995 0.000000
# 6 0.000000 0.000000 0.000000 0.000000 0.000000 0.040804
#
#
# Mechanical properties :
#
#
# Convention : Reuss Voigt Hill
#
# Bulk Modulus (GPa) = 48.68623 57.98231 53.33427
# Shear Modulus (GPa) = 19.46289 21.78997 20.62643
#
# Velocity S-wave (km/s) = 3.37299 3.56894 3.47235
# Velocity P-wave (km/s) = 6.60522 7.13279 6.87407
#
# Compressibility (1/GPa) = 0.02053969
#
# Stress axis : x y z
#
# Youngs Moduli (GPa) = 55.96326 94.62735 33.56685
#
# Poissons Ratio (x) = 0.36538 0.34613
# Poissons Ratio (y) = 0.21609 0.15680
# Poissons Ratio (z) = 0.57707 0.44204
#
# Static dielectric constant tensor:
#      x y z
#    x 3.277650 0.000000 0.000000 
#    y 0.000000 3.419720 0.000000 
#    z 0.000000 0.000000 2.871430 
# 
# 
# High freq. dielectric constant tensor:
#      x y z
#    x 1.670650 0.000000 0.000000 
#    y 0.000000 1.655290 0.000000 
#    z 0.000000 0.000000 1.613560 
# 
# From -- ./inp_files/14006.got.cif
#   From: 2010.03.12/outbox.cif.g09.slc.cpg/sg36_8_cif.got.tgz:14006.got - 2010.04.14 02:13:53.
