data_PCOD8174695
_publ_section_title
;
Structure prediction by ZEFSAII (Michael W. Deem and Ramdas Pophale) SiO2 
 PCOD8174695
Probable space group: C M C 21
;
_chemical_formula_sum "Si O2"
_cell_formula_units_Z 64
_cell_length_a 8.962891
_cell_length_b 29.560729
_cell_length_c 12.511238
_cell_angle_alpha 90.000000
_cell_angle_beta 90.000000
_cell_angle_gamma 90.000000
_cell_volume 3314.847402
_symmetry_space_group_name_H-M "C M C 21"
_symmetry_group_IT_number 36
_symmetry_cell_setting 'orthorhombic'
loop_
_space_group_symop_operation_xyz
x,y,z
-x,-y,1/2+z
x,-y,1/2+z
-x,y,z
1/2+x,1/2+y,z
1/2-x,1/2-y,1/2+z
1/2+x,1/2-y,1/2+z
1/2-x,1/2+y,z
loop_
_atom_site_type_symbol
_atom_site_label
_atom_site_fract_x
_atom_site_fract_y
_atom_site_fract_z
Si Si1 0.824703 0.432189 0.270690
Si Si2 0.663509 0.680315 0.261121
Si Si3 0.676801 0.868994 0.458354
Si Si4 0.167299 0.085656 0.154501
Si Si5 0.324850 0.281133 0.537119
Si Si6 0.326170 0.184832 0.470067
Si Si7 0.678476 0.912573 0.035562
Si Si8 0.323776 0.030358 0.331466
O O1 0.777410 0.389201 0.342628
O O2 0.756865 0.429116 0.150287
O O3 0.776940 0.477637 0.333769
O O4 0.000000 0.432394 0.255316
O O5 0.500000 0.694803 0.305701
O O6 0.657643 0.628431 0.230568
O O7 0.707890 0.710373 0.160476
O O8 0.794003 0.687454 0.344923
O O9 0.500000 0.867722 0.474290
O O10 0.744276 0.902369 0.547109
O O11 0.740811 0.818206 0.464507
O O12 0.253262 0.047970 0.221486
O O13 0.000000 0.069273 0.124677
O O14 0.500000 0.285277 0.509926
O O15 0.258892 0.230915 0.519156
O O16 0.500000 0.184491 0.491303
O O17 0.258174 0.138553 0.518622
O O18 0.500000 0.912531 0.033291
O O19 0.737166 0.945097 0.939345
O O20 0.500000 0.037585 0.323199
#
# Coordination Sequence:
#
# PCOD8174695 Si02
#       8
#     8   8   8   8   8   8   8   8
#     4   9  20  34  54  85 116 145 181 230 281 327
#     4   9  18  33  51  73 103 138 178 225 273 318
#     4  10  20  35  57  83 109 144 192 234 273 329
#     4  10  20  35  55  78 109 145 180 230 284 329
#     4   9  20  36  53  77 110 148 183 225 285 336
#     4  10  19  33  55  79 106 143 183 222 272 333
#     4   9  18  33  53  82 115 143 178 228 281 328
#     4  10  19  33  58  85 108 140 185 230 271 328
#
# _framework density 19.307074
#
# number of rings (size 3 to 8) (size 9 to 14) (size 15 to 20)
#    0.000    2.500    1.250    1.500    1.750    3.500 
#    0.000    3.750    0.000    3.750    0.000    0.000 
#    0.000    0.000    0.000    0.000    0.000    0.000 
#
# Total GULP energy -396612.906004 kJ/mol
# GULP energy per Si atom -12394.153313 kJ/mol
# Density = 1.926313 g / cm^3
# Si number density = 19.307074 Si / 1000 Ang^3
#
#
#
# Elastic Constant Matrix: (Units=GPa)
#
#
# Indices 1 2 3 4 5 6 
#
# 1 36.4271 25.3940 21.4277 0.0000 0.0000 0.0000
# 2 25.3940 137.1379 72.8754 0.0000 0.0000 0.0000
# 3 21.4277 72.8754 106.7270 0.0000 0.0000 0.0000
# 4 0.0000 0.0000 0.0000 18.3856 0.0000 0.0000
# 5 0.0000 0.0000 0.0000 0.0000 19.6041 0.0000
# 6 0.0000 0.0000 0.0000 0.0000 0.0000 20.8492
#
#
#
# Elastic Compliance Matrix: (Units=1/GPa)
#
#
# Indices 1 2 3 4 5 6 
#
# 1 0.032468 -0.003999 -0.003788 0.000000 0.000000 0.000000
# 2 -0.003999 0.011937 -0.007348 0.000000 0.000000 0.000000
# 3 -0.003788 -0.007348 0.015148 0.000000 0.000000 0.000000
# 4 0.000000 0.000000 0.000000 0.054390 0.000000 0.000000
# 5 0.000000 0.000000 0.000000 0.000000 0.051010 0.000000
# 6 0.000000 0.000000 0.000000 0.000000 0.000000 0.047963
#
#
# Mechanical properties :
#
#
# Convention : Reuss Voigt Hill
#
# Bulk Modulus (GPa) = 34.14996 57.74292 45.94644
# Shear Modulus (GPa) = 19.76692 22.47412 21.12052
#
# Velocity S-wave (km/s) = 3.20319 3.41550 3.31104
# Velocity P-wave (km/s) = 5.60417 6.74735 6.20216
#
# Compressibility (1/GPa) = 0.02928261
#
# Stress axis : x y z
#
# Youngs Moduli (GPa) = 30.79934 83.77123 66.01701
#
# Poissons Ratio (x) = 0.33503 0.25006
# Poissons Ratio (y) = 0.12318 0.48510
# Poissons Ratio (z) = 0.11666 0.61556
#
# Static dielectric constant tensor:
#      x y z
#    x 3.321190 0.000000 0.000000 
#    y 0.000000 3.788140 0.000000 
#    z 0.000000 0.000000 3.622580 
# 
# 
# High freq. dielectric constant tensor:
#      x y z
#    x 1.717830 0.000000 0.000000 
#    y 0.000000 1.757400 0.000000 
#    z 0.000000 0.000000 1.750570 
# 
# From -- ./inp_files/7227.got.cif
#   From: 2010.03.12/outbox.cif.g09.slc.cpg/sg36_4_cif.got.tgz:7227.got - 2010.04.14 02:13:53.
