data_PCOD8174536
_publ_section_title
;
Structure prediction by ZEFSAII (Michael W. Deem and Ramdas Pophale) SiO2 
 PCOD8174536
Probable space group: C M C 21
;
_chemical_formula_sum "Si O2"
_cell_formula_units_Z 64
_cell_length_a 8.865418
_cell_length_b 20.098572
_cell_length_c 19.864111
_cell_angle_alpha 90.000000
_cell_angle_beta 90.000000
_cell_angle_gamma 90.000000
_cell_volume 3539.431833
_symmetry_space_group_name_H-M "C M C 21"
_symmetry_group_IT_number 36
_symmetry_cell_setting 'orthorhombic'
loop_
_space_group_symop_operation_xyz
x,y,z
-x,-y,1/2+z
x,-y,1/2+z
-x,y,z
1/2+x,1/2+y,z
1/2-x,1/2-y,1/2+z
1/2+x,1/2-y,1/2+z
1/2-x,1/2+y,z
loop_
_atom_site_type_symbol
_atom_site_label
_atom_site_fract_x
_atom_site_fract_y
_atom_site_fract_z
Si Si1 0.821484 0.044981 0.196860
Si Si2 0.677840 0.583111 0.049031
Si Si3 0.674832 0.915530 0.155716
Si Si4 0.176715 0.335654 0.926454
Si Si5 0.320892 0.726558 0.028600
Si Si6 0.178615 0.059458 0.514757
Si Si7 0.324052 0.161725 0.272107
Si Si8 0.826008 0.266442 0.176652
O O1 0.767000 0.075774 0.125947
O O2 0.760957 0.093302 0.254710
O O3 0.000000 0.038342 0.202648
O O4 0.751298 0.971116 0.203237
O O5 0.500000 0.589099 0.050785
O O6 0.743819 0.651441 0.017629
O O7 0.726996 0.518258 0.006613
O O8 0.500000 0.932556 0.145235
O O9 0.750937 0.910811 0.082592
O O10 0.695274 0.844525 0.192457
O O11 0.213720 0.321314 0.849203
O O12 0.000000 0.345596 0.939315
O O13 0.243039 0.274093 0.970027
O O14 0.259861 0.402809 0.949600
O O15 0.500000 0.727367 0.024591
O O16 0.267311 0.752316 0.101294
O O17 0.000000 0.066541 0.520477
O O18 0.500000 0.150321 0.260280
O O19 0.270710 0.224409 0.228969
O O20 0.000000 0.244290 0.183627
#
# Coordination Sequence:
#
# PCOD8174536 Si02
#       8
#     8   8   8   8   8   8   8   8
#     4  10  19  34  55  80 108 142 184 229 278 332
#     4   8  15  28  51  79 102 126 170 224 268 312
#     4  10  19  33  55  83 112 143 181 227 280 331
#     4  10  21  37  55  76 108 150 186 224 282 343
#     4   9  15  31  56  78 101 138 183 222 269 330
#     4  10  19  31  51  81 110 140 181 230 274 325
#     4  11  23  36  53  80 114 149 188 234 284 338
#     4  10  19  34  58  81 107 148 187 224 277 335
#
# _framework density 18.081997999999999
#
# number of rings (size 3 to 8) (size 9 to 14) (size 15 to 20)
#    0.000    2.250    2.500    2.250    0.000    2.000 
#    0.000    1.250    0.000    1.500    0.000    0.000 
#    0.000    0.000    0.000    0.000    0.000    0.000 
#
# Total GULP energy -396741.466801 kJ/mol
# GULP energy per Si atom -12398.170838 kJ/mol
# Density = 1.804084 g / cm^3
# Si number density = 18.081998 Si / 1000 Ang^3
#
#
#
# Elastic Constant Matrix: (Units=GPa)
#
#
# Indices 1 2 3 4 5 6 
#
# 1 71.0236 44.7537 42.0365 0.0000 0.0000 0.0000
# 2 44.7537 147.3513 64.6019 0.0000 0.0000 0.0000
# 3 42.0365 64.6019 100.1759 0.0000 0.0000 0.0000
# 4 0.0000 0.0000 0.0000 29.0989 0.0000 0.0000
# 5 0.0000 0.0000 0.0000 0.0000 23.3354 0.0000
# 6 0.0000 0.0000 0.0000 0.0000 0.0000 29.2610
#
#
#
# Elastic Compliance Matrix: (Units=1/GPa)
#
#
# Indices 1 2 3 4 5 6 
#
# 1 0.019826 -0.003310 -0.006185 0.000000 0.000000 0.000000
# 2 -0.003310 0.010014 -0.005069 0.000000 0.000000 0.000000
# 3 -0.006185 -0.005069 0.015847 0.000000 0.000000 0.000000
# 4 0.000000 0.000000 0.000000 0.034366 0.000000 0.000000
# 5 0.000000 0.000000 0.000000 0.000000 0.042853 0.000000
# 6 0.000000 0.000000 0.000000 0.000000 0.000000 0.034175
#
#
# Mechanical properties :
#
#
# Convention : Reuss Voigt Hill
#
# Bulk Modulus (GPa) = 60.38988 69.03722 64.71355
# Shear Modulus (GPa) = 26.07844 27.48297 26.78071
#
# Velocity S-wave (km/s) = 3.80179 3.90283 3.85264
# Velocity P-wave (km/s) = 7.26236 7.65326 7.46037
#
# Compressibility (1/GPa) = 0.01655907
#
# Stress axis : x y z
#
# Youngs Moduli (GPa) = 50.43807 99.85834 63.10416
#
# Poissons Ratio (x) = 0.33053 0.39031
# Poissons Ratio (y) = 0.16695 0.31988
# Poissons Ratio (z) = 0.31196 0.50618
#
# Static dielectric constant tensor:
#      x y z
#    x 3.182120 0.000000 0.000000 
#    y 0.000000 3.749530 0.000000 
#    z 0.000000 0.000000 3.138740 
# 
# 
# High freq. dielectric constant tensor:
#      x y z
#    x 1.684700 0.000000 0.000000 
#    y 0.000000 1.719150 0.000000 
#    z 0.000000 0.000000 1.669340 
# 
# From -- ./inp_files/13986.got.cif
#   From: 2010.03.12/outbox.cif.g09.slc.cpg/sg36_7_cif.got.tgz:13986.got - 2010.04.14 02:13:53.
