data_PCOD8174822
_publ_section_title
;
Structure prediction by ZEFSAII (Michael W. Deem and Ramdas Pophale) SiO2 
 PCOD8174822
Probable space group: C M C 21
;
_chemical_formula_sum "Si O2"
_cell_formula_units_Z 64
_cell_length_a 8.737319
_cell_length_b 20.297975
_cell_length_c 19.066478
_cell_angle_alpha 90.000000
_cell_angle_beta 90.000000
_cell_angle_gamma 90.000000
_cell_volume 3381.437635
_symmetry_space_group_name_H-M "C M C 21"
_symmetry_group_IT_number 36
_symmetry_cell_setting 'orthorhombic'
loop_
_space_group_symop_operation_xyz
x,y,z
-x,-y,1/2+z
x,-y,1/2+z
-x,y,z
1/2+x,1/2+y,z
1/2-x,1/2-y,1/2+z
1/2+x,1/2-y,1/2+z
1/2-x,1/2+y,z
loop_
_atom_site_type_symbol
_atom_site_label
_atom_site_fract_x
_atom_site_fract_y
_atom_site_fract_z
Si Si1 0.177104 0.690746 0.912380
Si Si2 0.678180 0.428676 0.912188
Si Si3 0.823829 0.932273 0.478989
Si Si4 0.821156 0.690631 0.493665
Si Si5 0.677638 0.106967 0.273788
Si Si6 0.177615 0.243714 0.623079
Si Si7 0.676907 0.616645 0.129447
Si Si8 0.825190 0.761108 0.280187
O O1 0.215405 0.617616 0.937485
O O2 0.280721 0.742480 0.953644
O O3 0.213526 0.697254 0.829790
O O4 0.000000 0.706061 0.926368
O O5 0.500000 0.411230 0.916774
O O6 0.718190 0.495425 0.952406
O O7 0.775094 0.371335 0.947606
O O8 0.728367 0.434944 0.830959
O O9 0.792865 0.929893 0.562428
O O10 0.000000 0.914507 0.462582
O O11 0.732916 0.688667 0.568071
O O12 0.000000 0.688669 0.508210
O O13 0.500000 0.090015 0.281083
O O14 0.731068 0.087414 0.195606
O O15 0.710903 0.183817 0.286862
O O16 0.270150 0.310342 0.608616
O O17 0.207405 0.215672 0.700800
O O18 0.000000 0.260744 0.612783
O O19 0.500000 0.619020 0.150335
O O20 0.000000 0.775234 0.301789
#
# Coordination Sequence:
#
# PCOD8174822 Si02
#       8
#     8   8   8   8   8   8   8   8
#     4  12  23  35  59  88 116 150 194 239 285 346
#     4  11  23  40  61  86 116 155 201 243 289 352
#     4  10  23  41  60  85 119 155 194 241 295 349
#     4  12  23  37  58  85 119 153 190 240 295 347
#     4  10  20  35  57  85 117 152 191 241 292 347
#     4  10  20  35  57  87 117 150 194 245 294 346
#     4  10  19  34  58  85 115 153 193 238 291 353
#     4   9  19  35  56  83 119 152 187 239 295 342
#
# _framework density 18.926862
#
# number of rings (size 3 to 8) (size 9 to 14) (size 15 to 20)
#    0.000    1.500    2.500    4.500    0.000    4.000 
#    0.000    1.250    0.000    3.000    0.000    0.000 
#    0.000    0.000    0.000    0.000    0.000    0.000 
#
# Total GULP energy -396946.014856 kJ/mol
# GULP energy per Si atom -12404.562964 kJ/mol
# Density = 1.888378 g / cm^3
# Si number density = 18.926862 Si / 1000 Ang^3
#
#
#
# Elastic Constant Matrix: (Units=GPa)
#
#
# Indices 1 2 3 4 5 6 
#
# 1 69.3110 23.1893 39.1521 0.0000 0.0000 0.0000
# 2 23.1893 57.2297 39.7907 0.0000 0.0000 0.0000
# 3 39.1521 39.7907 132.7063 0.0000 0.0000 0.0000
# 4 0.0000 0.0000 0.0000 29.7751 0.0000 0.0000
# 5 0.0000 0.0000 0.0000 0.0000 35.3236 0.0000
# 6 0.0000 0.0000 0.0000 0.0000 0.0000 25.2741
#
#
#
# Elastic Compliance Matrix: (Units=1/GPa)
#
#
# Indices 1 2 3 4 5 6 
#
# 1 0.018226 -0.004607 -0.003996 0.000000 0.000000 0.000000
# 2 -0.004607 0.023240 -0.005609 0.000000 0.000000 0.000000
# 3 -0.003996 -0.005609 0.010396 0.000000 0.000000 0.000000
# 4 0.000000 0.000000 0.000000 0.033585 0.000000 0.000000
# 5 0.000000 0.000000 0.000000 0.000000 0.028310 0.000000
# 6 0.000000 0.000000 0.000000 0.000000 0.000000 0.039566
#
#
# Mechanical properties :
#
#
# Convention : Reuss Voigt Hill
#
# Bulk Modulus (GPa) = 42.66474 51.50124 47.08299
# Shear Modulus (GPa) = 26.37683 28.54889 27.46286
#
# Velocity S-wave (km/s) = 3.73717 3.88800 3.81333
# Velocity P-wave (km/s) = 6.41972 6.88659 6.65725
#
# Compressibility (1/GPa) = 0.02343856
#
# Stress axis : x y z
#
# Youngs Moduli (GPa) = 54.86588 43.02911 96.18907
#
# Poissons Ratio (x) = 0.19823 0.38436
# Poissons Ratio (y) = 0.25276 0.53954
# Poissons Ratio (z) = 0.21924 0.24136
#
# Static dielectric constant tensor:
#      x y z
#    x 3.496620 0.000000 0.000000 
#    y 0.000000 3.163000 0.000000 
#    z 0.000000 0.000000 3.776370 
# 
# 
# High freq. dielectric constant tensor:
#      x y z
#    x 1.746250 0.000000 0.000000 
#    y 0.000000 1.695740 0.000000 
#    z 0.000000 0.000000 1.755280 
# 
# From -- ./inp_files/15695.got.cif
#   From: 2010.03.12/outbox.cif.g09.slc.cpg/sg36_8_cif.got.tgz:15695.got - 2010.04.14 02:13:53.
