data_PCOD8174191
_publ_section_title
;
Structure prediction by ZEFSAII (Michael W. Deem and Ramdas Pophale) SiO2 
 PCOD8174191
Probable space group: C M C 21
;
_chemical_formula_sum "Si O2"
_cell_formula_units_Z 64
_cell_length_a 8.815421
_cell_length_b 23.208854
_cell_length_c 17.906812
_cell_angle_alpha 90.000000
_cell_angle_beta 90.000000
_cell_angle_gamma 90.000000
_cell_volume 3663.658866
_symmetry_space_group_name_H-M "C M C 21"
_symmetry_group_IT_number 36
_symmetry_cell_setting 'orthorhombic'
loop_
_space_group_symop_operation_xyz
x,y,z
-x,-y,1/2+z
x,-y,1/2+z
-x,y,z
1/2+x,1/2+y,z
1/2-x,1/2-y,1/2+z
1/2+x,1/2-y,1/2+z
1/2-x,1/2+y,z
loop_
_atom_site_type_symbol
_atom_site_label
_atom_site_fract_x
_atom_site_fract_y
_atom_site_fract_z
Si Si1 0.822932 0.628983 0.356560
Si Si2 0.330078 0.520963 0.579364
Si Si3 0.822232 0.310560 0.167984
Si Si4 0.675362 0.871942 0.021926
Si Si5 0.180958 0.185987 0.214022
Si Si6 0.332559 0.412731 0.234961
Si Si7 0.321094 0.471869 0.791156
Si Si8 0.321796 0.081007 0.146575
O O1 0.801149 0.655702 0.439757
O O2 0.745847 0.670541 0.295842
O O3 0.739128 0.566148 0.360329
O O4 0.000000 0.621738 0.337298
O O5 0.500000 0.508935 0.551590
O O6 0.252886 0.565478 0.522880
O O7 0.328168 0.548409 0.661262
O O8 0.242519 0.459596 0.580315
O O9 0.755458 0.249172 0.192569
O O10 0.781002 0.358988 0.229976
O O11 0.000000 0.304628 0.164168
O O12 0.757027 0.329630 0.086379
O O13 0.500000 0.882529 0.039885
O O14 0.241542 0.143676 0.148721
O O15 0.000000 0.183135 0.217473
O O16 0.500000 0.386827 0.247614
O O17 0.291460 0.459004 0.300833
O O18 0.500000 0.460690 0.775436
O O19 0.216843 0.447941 0.724976
O O20 0.500000 0.088813 0.135701
#
# Coordination Sequence:
#
# PCOD8174191 Si02
#       8
#     8   8   8   8   8   8   8   8
#     4  10  19  30  47  70  95 123 153 192 243 292
#     4   9  16  27  44  67  92 117 145 180 227 277
#     4   9  18  31  48  68  91 123 161 200 237 276
#     4   9  18  32  48  69  95 121 154 195 240 291
#     4  10  19  31  47  68  94 124 162 202 237 278
#     4   8  15  26  42  65  90 114 142 181 224 266
#     4   9  16  27  43  65  92 118 147 183 225 275
#     4  10  17  26  43  66  91 118 148 185 229 271
#
# _framework density 17.468875000000001
#
# number of rings (size 3 to 8) (size 9 to 14) (size 15 to 20)
#    0.000    2.750    0.000    4.875    0.000    5.500 
#    0.000    0.000    0.000    1.500    0.000    5.250 
#    0.000    0.000    0.000    0.000    0.000    0.000 
#
# Total GULP energy -396455.386781 kJ/mol
# GULP energy per Si atom -12389.230837 kJ/mol
# Density = 1.742911 g / cm^3
# Si number density = 17.468875 Si / 1000 Ang^3
#
#
#
# Elastic Constant Matrix: (Units=GPa)
#
#
# Indices 1 2 3 4 5 6 
#
# 1 77.2402 43.6685 28.5869 0.0000 0.0000 0.0000
# 2 43.6685 142.0904 45.5687 0.0000 0.0000 0.0000
# 3 28.5869 45.5687 58.5536 0.0000 0.0000 0.0000
# 4 0.0000 0.0000 0.0000 17.0419 0.0000 0.0000
# 5 0.0000 0.0000 0.0000 0.0000 17.3755 0.0000
# 6 0.0000 0.0000 0.0000 0.0000 0.0000 26.0679
#
#
#
# Elastic Compliance Matrix: (Units=1/GPa)
#
#
# Indices 1 2 3 4 5 6 
#
# 1 0.016955 -0.003406 -0.005627 0.000000 0.000000 0.000000
# 2 -0.003406 0.010063 -0.006168 0.000000 0.000000 0.000000
# 3 -0.005627 -0.006168 0.024626 0.000000 0.000000 0.000000
# 4 0.000000 0.000000 0.000000 0.058679 0.000000 0.000000
# 5 0.000000 0.000000 0.000000 0.000000 0.057552 0.000000
# 6 0.000000 0.000000 0.000000 0.000000 0.000000 0.038361
#
#
# Mechanical properties :
#
#
# Convention : Reuss Voigt Hill
#
# Bulk Modulus (GPa) = 47.07896 57.05915 52.06905
# Shear Modulus (GPa) = 20.51541 22.76772 21.64156
#
# Velocity S-wave (km/s) = 3.43067 3.61408 3.52357
# Velocity P-wave (km/s) = 6.53463 7.08165 6.81363
#
# Compressibility (1/GPa) = 0.02124091
#
# Stress axis : x y z
#
# Youngs Moduli (GPa) = 58.98012 99.37622 40.60762
#
# Poissons Ratio (x) = 0.33849 0.22849
# Poissons Ratio (y) = 0.20090 0.25048
# Poissons Ratio (z) = 0.33187 0.61298
#
# Static dielectric constant tensor:
#      x y z
#    x 3.279780 0.000000 0.000000 
#    y 0.000000 3.568770 0.000000 
#    z 0.000000 0.000000 3.068140 
# 
# 
# High freq. dielectric constant tensor:
#      x y z
#    x 1.682070 0.000000 0.000000 
#    y 0.000000 1.667090 0.000000 
#    z 0.000000 0.000000 1.630990 
# 
# From -- ./inp_files/15861.got.cif
#   From: 2010.03.12/outbox.cif.g09.slc.cpg/sg36_8_cif.got.tgz:15861.got - 2010.04.14 02:13:53.
