data_PCOD8174559
_publ_section_title
;
Structure prediction by ZEFSAII (Michael W. Deem and Ramdas Pophale) SiO2 
 PCOD8174559
Probable space group: C M C 21
;
_chemical_formula_sum "Si O2"
_cell_formula_units_Z 64
_cell_length_a 8.952129
_cell_length_b 28.588719
_cell_length_c 14.276856
_cell_angle_alpha 90.000000
_cell_angle_beta 90.000000
_cell_angle_gamma 90.000000
_cell_volume 3653.874335
_symmetry_space_group_name_H-M "C M C 21"
_symmetry_group_IT_number 36
_symmetry_cell_setting 'orthorhombic'
loop_
_space_group_symop_operation_xyz
x,y,z
-x,-y,1/2+z
x,-y,1/2+z
-x,y,z
1/2+x,1/2+y,z
1/2-x,1/2-y,1/2+z
1/2+x,1/2-y,1/2+z
1/2-x,1/2+y,z
loop_
_atom_site_type_symbol
_atom_site_label
_atom_site_fract_x
_atom_site_fract_y
_atom_site_fract_z
Si Si1 0.676644 0.750872 0.736040
Si Si2 0.676409 0.503161 0.943346
Si Si3 0.822154 0.429918 0.586289
Si Si4 0.322580 0.322748 0.086296
Si Si5 0.822986 0.675837 0.086278
Si Si6 0.323586 0.503167 0.229239
Si Si7 0.175526 0.926125 0.086304
Si Si8 0.323353 0.249137 0.936541
O O1 0.500000 0.751321 0.748079
O O2 0.729592 0.704848 0.679108
O O3 0.731802 0.796798 0.679268
O O4 0.750018 0.750010 0.836285
O O5 0.500000 0.511977 0.952742
O O6 0.728463 0.499995 0.836294
O O7 0.760128 0.546056 0.992475
O O8 0.724098 0.454860 0.993915
O O9 0.761246 0.376816 0.586275
O O10 0.760110 0.453932 0.680111
O O11 0.000000 0.432586 0.586296
O O12 0.500000 0.325338 0.086282
O O13 0.249402 0.374707 0.086303
O O14 0.270382 0.295154 0.993487
O O15 0.000000 0.675846 0.086274
O O16 0.768186 0.703205 0.993292
O O17 0.500000 0.511972 0.219836
O O18 0.275851 0.454871 0.178668
O O19 0.000000 0.919263 0.086338
O O20 0.500000 0.248691 0.924528
#
# Coordination Sequence:
#
# PCOD8174559 Si02
#       8
#     8   8   8   8   8   8   8   8
#     4   9  17  31  49  68  91 119 153 189 227 272
#     4   9  18  32  49  70  97 124 151 193 243 280
#     4  10  19  32  50  69  93 128 165 194 226 279
#     4   8  15  28  46  65  87 120 153 177 215 279
#     4   8  17  33  48  65  97 134 155 181 235 287
#     4   9  18  32  49  70  97 124 151 193 243 280
#     4   8  14  27  46  67  91 118 149 184 224 269
#     4   9  17  31  49  68  91 119 153 189 227 272
#
# _framework density 17.515654999999999
#
# number of rings (size 3 to 8) (size 9 to 14) (size 15 to 20)
#    0.000    3.250    0.000    2.625    0.000    2.500 
#    0.000    7.500    0.000    6.000    0.000    0.000 
#    0.000    0.000    0.000    0.000    0.000    0.000 
#
# Total GULP energy -396638.576453 kJ/mol
# GULP energy per Si atom -12394.955514 kJ/mol
# Density = 1.747579 g / cm^3
# Si number density = 17.515655 Si / 1000 Ang^3
#
#
#
# Elastic Constant Matrix: (Units=GPa)
#
#
# Indices 1 2 3 4 5 6 
#
# 1 29.8011 31.1156 34.0634 0.0000 0.0000 0.0000
# 2 31.1156 190.6654 98.0361 0.0000 0.0000 0.0000
# 3 34.0634 98.0361 191.8788 0.0000 0.0000 0.0000
# 4 0.0000 0.0000 0.0000 12.7633 0.0000 0.0000
# 5 0.0000 0.0000 0.0000 0.0000 27.7831 0.0000
# 6 0.0000 0.0000 0.0000 0.0000 0.0000 19.1991
#
#
#
# Elastic Compliance Matrix: (Units=1/GPa)
#
#
# Indices 1 2 3 4 5 6 
#
# 1 0.044610 -0.004351 -0.005696 0.000000 0.000000 0.000000
# 2 -0.004351 0.007538 -0.003079 0.000000 0.000000 0.000000
# 3 -0.005696 -0.003079 0.007796 0.000000 0.000000 0.000000
# 4 0.000000 0.000000 0.000000 0.078350 0.000000 0.000000
# 5 0.000000 0.000000 0.000000 0.000000 0.035993 0.000000
# 6 0.000000 0.000000 0.000000 0.000000 0.000000 0.052086
#
#
# Mechanical properties :
#
#
# Convention : Reuss Voigt Hill
#
# Bulk Modulus (GPa) = 29.68143 82.08617 55.88380
# Shear Modulus (GPa) = 18.94974 28.55776 23.75375
#
# Velocity S-wave (km/s) = 3.29275 4.04222 3.68658
# Velocity P-wave (km/s) = 5.60703 8.29170 7.07782
#
# Compressibility (1/GPa) = 0.03369110
#
# Stress axis : x y z
#
# Youngs Moduli (GPa) = 22.41654 132.66121 128.27153
#
# Poissons Ratio (x) = 0.57724 0.73067
# Poissons Ratio (y) = 0.09754 0.39494
# Poissons Ratio (z) = 0.12769 0.40845
#
# Static dielectric constant tensor:
#      x y z
#    x 2.840220 0.000000 0.000000 
#    y 0.000000 3.748210 0.000000 
#    z 0.000000 0.000000 3.394890 
# 
# 
# High freq. dielectric constant tensor:
#      x y z
#    x 1.637070 0.000000 0.000000 
#    y 0.000000 1.685030 0.000000 
#    z 0.000000 0.000000 1.682310 
# 
# From -- ./inp_files/11195.got.cif
#   From: 2010.03.12/outbox.cif.g09.slc.cpg/sg36_6_cif.got.tgz:11195.got - 2010.04.14 02:13:53.
