data_PCOD8174714
_publ_section_title
;
Structure prediction by ZEFSAII (Michael W. Deem and Ramdas Pophale) SiO2 
 PCOD8174714
Probable space group: C M C 21
;
_chemical_formula_sum "Si O2"
_cell_formula_units_Z 64
_cell_length_a 8.769032
_cell_length_b 18.570682
_cell_length_c 20.400342
_cell_angle_alpha 90.000000
_cell_angle_beta 90.000000
_cell_angle_gamma 90.000000
_cell_volume 3322.132550
_symmetry_space_group_name_H-M "C M C 21"
_symmetry_group_IT_number 36
_symmetry_cell_setting 'orthorhombic'
loop_
_space_group_symop_operation_xyz
x,y,z
-x,-y,1/2+z
x,-y,1/2+z
-x,y,z
1/2+x,1/2+y,z
1/2-x,1/2-y,1/2+z
1/2+x,1/2-y,1/2+z
1/2-x,1/2+y,z
loop_
_atom_site_type_symbol
_atom_site_label
_atom_site_fract_x
_atom_site_fract_y
_atom_site_fract_z
Si Si1 0.179137 0.204278 0.412600
Si Si2 0.321932 0.459553 0.295884
Si Si3 0.822709 0.198669 0.652682
Si Si4 0.825160 0.793535 0.301704
Si Si5 0.680504 0.797219 0.534332
Si Si6 0.320558 0.951854 0.158177
Si Si7 0.319708 0.047943 0.410638
Si Si8 0.818728 0.541899 0.033593
O O1 0.215444 0.244680 0.345037
O O2 0.243221 0.251600 0.472982
O O3 0.259728 0.128190 0.415360
O O4 0.000000 0.192050 0.418053
O O5 0.500000 0.475455 0.301476
O O6 0.283861 0.376992 0.313546
O O7 0.268581 0.476955 0.222561
O O8 0.232121 0.511952 0.343489
O O9 0.794601 0.227301 0.726126
O O10 0.770106 0.260382 0.602494
O O11 0.721656 0.129035 0.637589
O O12 0.000000 0.177428 0.643563
O O13 0.000000 0.778095 0.320802
O O14 0.500000 0.802085 0.529702
O O15 0.750295 0.877469 0.531705
O O16 0.500000 0.957168 0.171086
O O17 0.265345 0.004118 0.100294
O O18 0.500000 0.050178 0.412300
O O19 0.253668 0.002102 0.471561
O O20 0.000000 0.543866 0.030144
#
# Coordination Sequence:
#
# PCOD8174714 Si02
#       8
#     8   8   8   8   8   8   8   8
#     4  11  22  35  55  81 109 142 182 228 273 323
#     4  10  21  38  58  82 112 144 184 229 273 326
#     4   9  18  34  56  79 107 143 179 219 267 322
#     4   9  19  35  55  79 108 143 179 219 269 322
#     4   9  18  34  55  78 105 139 180 223 270 322
#     4  10  19  33  56  83 111 144 180 220 270 327
#     4  11  22  37  57  80 111 148 185 227 275 327
#     4   9  19  34  54  82 111 141 181 227 273 327
#
# _framework density 19.264733
#
# number of rings (size 3 to 8) (size 9 to 14) (size 15 to 20)
#    0.000    2.250    0.000    3.750    0.000    4.500 
#    0.000    5.000    0.000    6.000    0.000    0.000 
#    0.000    0.000    0.000    0.000    0.000    0.000 
#
# Total GULP energy -396888.611864 kJ/mol
# GULP energy per Si atom -12402.769121 kJ/mol
# Density = 1.922089 g / cm^3
# Si number density = 19.264733 Si / 1000 Ang^3
#
#
#
# Elastic Constant Matrix: (Units=GPa)
#
#
# Indices 1 2 3 4 5 6 
#
# 1 49.0706 34.9539 28.7433 0.0000 0.0000 0.0000
# 2 34.9539 145.9346 94.4208 0.0000 0.0000 0.0000
# 3 28.7433 94.4208 137.5763 0.0000 0.0000 0.0000
# 4 0.0000 0.0000 0.0000 39.7595 0.0000 0.0000
# 5 0.0000 0.0000 0.0000 0.0000 21.9306 0.0000
# 6 0.0000 0.0000 0.0000 0.0000 0.0000 24.7101
#
#
#
# Elastic Compliance Matrix: (Units=1/GPa)
#
#
# Indices 1 2 3 4 5 6 
#
# 1 0.024871 -0.004668 -0.001993 0.000000 0.000000 0.000000
# 2 -0.004668 0.013202 -0.008085 0.000000 0.000000 0.000000
# 3 -0.001993 -0.008085 0.013234 0.000000 0.000000 0.000000
# 4 0.000000 0.000000 0.000000 0.025151 0.000000 0.000000
# 5 0.000000 0.000000 0.000000 0.000000 0.045598 0.000000
# 6 0.000000 0.000000 0.000000 0.000000 0.000000 0.040469
#
#
# Mechanical properties :
#
#
# Convention : Reuss Voigt Hill
#
# Bulk Modulus (GPa) = 45.83941 72.09081 58.96511
# Shear Modulus (GPa) = 25.08924 28.91094 27.00009
#
# Velocity S-wave (km/s) = 3.61271 3.87811 3.74776
# Velocity P-wave (km/s) = 6.42249 7.58653 7.02865
#
# Compressibility (1/GPa) = 0.02181529
#
# Stress axis : x y z
#
# Youngs Moduli (GPa) = 40.20755 75.74821 75.56266
#
# Poissons Ratio (x) = 0.35358 0.15057
# Poissons Ratio (y) = 0.18768 0.61094
# Poissons Ratio (z) = 0.08012 0.61244
#
# Static dielectric constant tensor:
#      x y z
#    x 3.295420 0.000000 0.000000 
#    y 0.000000 3.633210 0.000000 
#    z 0.000000 0.000000 3.683080 
# 
# 
# High freq. dielectric constant tensor:
#      x y z
#    x 1.729300 0.000000 0.000000 
#    y 0.000000 1.752690 0.000000 
#    z 0.000000 0.000000 1.764260 
# 
# From -- ./inp_files/15673.got.cif
#   From: 2010.03.12/outbox.cif.g09.slc.cpg/sg36_8_cif.got.tgz:15673.got - 2010.04.14 02:13:53.
