data_PCOD8174938
_publ_section_title
;
Structure prediction by ZEFSAII (Michael W. Deem and Ramdas Pophale) SiO2 
 PCOD8174938
Probable space group: C M C 21
;
_chemical_formula_sum "Si O2"
_cell_formula_units_Z 56
_cell_length_a 9.562985
_cell_length_b 22.570889
_cell_length_c 12.991818
_cell_angle_alpha 90.000000
_cell_angle_beta 90.000000
_cell_angle_gamma 90.000000
_cell_volume 2804.219904
_symmetry_space_group_name_H-M "C M C 21"
_symmetry_group_IT_number 36
_symmetry_cell_setting 'orthorhombic'
loop_
_space_group_symop_operation_xyz
x,y,z
-x,-y,1/2+z
x,-y,1/2+z
-x,y,z
1/2+x,1/2+y,z
1/2-x,1/2-y,1/2+z
1/2+x,1/2-y,1/2+z
1/2-x,1/2+y,z
loop_
_atom_site_type_symbol
_atom_site_label
_atom_site_fract_x
_atom_site_fract_y
_atom_site_fract_z
Si Si1 0.158471 0.908281 0.555640
Si Si2 0.748120 0.287690 0.648315
Si Si3 0.153992 0.228367 0.455700
Si Si4 0.165101 0.920164 0.314348
Si Si5 0.654897 0.813099 0.279503
Si Si6 0.333324 0.969462 0.727412
Si Si7 0.845407 0.646546 0.343610
O O1 0.165506 0.839429 0.589055
O O2 0.195738 0.915822 0.435825
O O3 0.269003 0.947974 0.618709
O O4 0.000000 0.930206 0.576934
O O5 0.847560 0.251362 0.571736
O O6 0.643959 0.238010 0.692980
O O7 0.840206 0.314212 0.740241
O O8 0.203596 0.283133 0.386013
O O9 0.248498 0.170586 0.435273
O O10 0.000000 0.208040 0.422923
O O11 0.228592 0.862725 0.256612
O O12 0.000000 0.925202 0.290580
O O13 0.249490 0.974146 0.265904
O O14 0.500000 0.841856 0.289472
O O15 0.500000 0.981060 0.713165
O O16 0.304406 0.920303 0.814800
O O17 0.000000 0.649320 0.389195
#
# Coordination Sequence:
#
# PCOD8174938 Si02
#       7
#     8   8   8   8   8   8   8
#     4  10  21  39  65  92 117 156 202 246 301 361
#     4  10  19  36  59  89 118 155 194 242 296 356
#     4  10  20  34  56  85 118 154 192 236 292 352
#     4  11  23  40  63  90 121 158 199 251 301 355
#     4  10  21  36  57  88 121 155 193 240 292 351
#     4  10  22  41  63  87 116 157 202 251 298 353
#     4   9  20  36  57  83 113 149 196 244 294 350
#
# _framework density 19.969905000000001
#
# number of rings (size 3 to 8) (size 9 to 14) (size 15 to 20)
#    0.000    2.000    1.429    1.714    0.000    9.714 
#    2.571    0.000    0.000    0.000    0.000    0.000 
#    0.000    0.000    0.000    0.000    0.000    0.000 
#
# Total GULP energy -347067.594354 kJ/mol
# GULP energy per Si atom -12395.271227 kJ/mol
# Density = 1.992445 g / cm^3
# Si number density = 19.969905 Si / 1000 Ang^3
#
#
#
# Elastic Constant Matrix: (Units=GPa)
#
#
# Indices 1 2 3 4 5 6 
#
# 1 115.3218 64.7035 23.0886 0.0000 0.0000 0.0000
# 2 64.7035 110.7041 39.1817 0.0000 0.0000 0.0000
# 3 23.0886 39.1817 69.8541 0.0000 0.0000 0.0000
# 4 0.0000 0.0000 0.0000 27.7257 0.0000 0.0000
# 5 0.0000 0.0000 0.0000 0.0000 25.8727 0.0000
# 6 0.0000 0.0000 0.0000 0.0000 0.0000 29.1819
#
#
#
# Elastic Compliance Matrix: (Units=1/GPa)
#
#
# Indices 1 2 3 4 5 6 
#
# 1 0.012903 -0.007526 -0.000043 0.000000 0.000000 0.000000
# 2 -0.007526 0.015660 -0.006296 0.000000 0.000000 0.000000
# 3 -0.000043 -0.006296 0.017862 0.000000 0.000000 0.000000
# 4 0.000000 0.000000 0.000000 0.036068 0.000000 0.000000
# 5 0.000000 0.000000 0.000000 0.000000 0.038651 0.000000
# 6 0.000000 0.000000 0.000000 0.000000 0.000000 0.034268
#
#
# Mechanical properties :
#
#
# Convention : Reuss Voigt Hill
#
# Bulk Modulus (GPa) = 53.49557 61.09197 57.29377
# Shear Modulus (GPa) = 26.40292 27.81648 27.10970
#
# Velocity S-wave (km/s) = 3.64006 3.73623 3.68846
# Velocity P-wave (km/s) = 6.67181 7.01933 6.84777
#
# Compressibility (1/GPa) = 0.01869314
#
# Stress axis : x y z
#
# Youngs Moduli (GPa) = 77.50374 63.85585 55.98604
#
# Poissons Ratio (x) = 0.48057 0.00243
# Poissons Ratio (y) = 0.58328 0.35251
# Poissons Ratio (z) = 0.00336 0.40207
#
# Static dielectric constant tensor:
#      x y z
#    x 3.560750 0.000000 0.000000 
#    y 0.000000 3.603710 0.000000 
#    z 0.000000 0.000000 3.558810 
# 
# 
# High freq. dielectric constant tensor:
#      x y z
#    x 1.783860 0.000000 0.000000 
#    y 0.000000 1.773010 0.000000 
#    z 0.000000 0.000000 1.768960 
# 
# From -- ./inp_files/10633.got.cif
#   From: 2010.03.12/outbox.cif.g09.slc.cpg/sg36_6_cif.got.tgz:10633.got - 2010.04.14 02:13:53.
