data_PCOD8174181
_publ_section_title
;
Structure prediction by ZEFSAII (Michael W. Deem and Ramdas Pophale) SiO2 
 PCOD8174181
Probable space group: C M C 21
;
_chemical_formula_sum "Si O2"
_cell_formula_units_Z 64
_cell_length_a 22.153807
_cell_length_b 9.450244
_cell_length_c 16.121116
_cell_angle_alpha 90.000000
_cell_angle_beta 90.000000
_cell_angle_gamma 90.000000
_cell_volume 3375.098817
_symmetry_space_group_name_H-M "C M C 21"
_symmetry_group_IT_number 36
_symmetry_cell_setting 'orthorhombic'
loop_
_space_group_symop_operation_xyz
x,y,z
-x,-y,1/2+z
x,-y,1/2+z
-x,y,z
1/2+x,1/2+y,z
1/2-x,1/2-y,1/2+z
1/2+x,1/2-y,1/2+z
1/2-x,1/2+y,z
loop_
_atom_site_type_symbol
_atom_site_label
_atom_site_fract_x
_atom_site_fract_y
_atom_site_fract_z
Si Si1 0.433029 0.176186 0.318910
Si Si2 0.234493 0.734198 0.761831
Si Si3 0.070396 0.161340 0.655452
Si Si4 0.773277 0.327831 0.937578
Si Si5 0.360238 0.403632 0.409322
Si Si6 0.348424 0.935213 0.376998
Si Si7 0.175558 0.988616 0.232867
Si Si8 0.138015 0.184779 0.489899
O O1 0.500000 0.140112 0.344790
O O2 0.426853 0.212609 0.222004
O O3 0.414180 0.310050 0.374029
O O4 0.397389 0.036180 0.338441
O O5 0.268754 0.808571 0.837970
O O6 0.186164 0.624928 0.797731
O O7 0.202791 0.858300 0.707254
O O8 0.281412 0.643784 0.704861
O O9 0.105162 0.222051 0.575492
O O10 0.000000 0.117482 0.638848
O O11 0.109469 0.028125 0.690801
O O12 0.815545 0.195399 0.964816
O O13 0.805672 0.481375 0.943876
O O14 0.711638 0.324881 0.990354
O O15 0.325755 0.482186 0.333436
O O16 0.387072 0.529649 0.465268
O O17 0.380778 0.806721 0.425502
#
# Coordination Sequence:
#
# PCOD8174181 Si02
#       8
#     8   8   8   8   8   8   8   8
#     4   9  20  39  58  76 107 157 199 229 283 348
#     4  10  16  29  56  90 112 137 178 232 284 332
#     4  10  24  41  54  75 119 161 189 232 295 344
#     4   9  16  31  51  84 121 145 164 224 297 341
#     4   9  17  31  58  82 110 142 184 230 284 337
#     4  10  18  32  60  89 115 141 191 245 280 338
#     4  10  18  34  56  84 112 146 182 226 282 343
#     4  11  19  33  57  86 110 145 187 236 285 339
#
# _framework density 18.962408
#
# number of rings (size 3 to 8) (size 9 to 14) (size 15 to 20)
#    0.000    2.250    3.750    2.250    0.000    1.000 
#    4.500    0.625    2.750    0.000    0.000    0.000 
#    0.000    0.000    0.000    0.000    0.000    0.000 
#
# Total GULP energy -396538.336441 kJ/mol
# GULP energy per Si atom -12391.823014 kJ/mol
# Density = 1.891925 g / cm^3
# Si number density = 18.962408 Si / 1000 Ang^3
#
#
#
# Elastic Constant Matrix: (Units=GPa)
#
#
# Indices 1 2 3 4 5 6 
#
# 1 123.5739 58.6169 43.5192 0.0000 0.0000 0.0000
# 2 58.6169 126.1241 24.0334 0.0000 0.0000 0.0000
# 3 43.5192 24.0334 48.0664 0.0000 0.0000 0.0000
# 4 0.0000 0.0000 0.0000 13.4643 0.0000 0.0000
# 5 0.0000 0.0000 0.0000 0.0000 26.7534 0.0000
# 6 0.0000 0.0000 0.0000 0.0000 0.0000 15.2687
#
#
#
# Elastic Compliance Matrix: (Units=1/GPa)
#
#
# Indices 1 2 3 4 5 6 
#
# 1 0.013838 -0.004470 -0.010294 0.000000 0.000000 0.000000
# 2 -0.004470 0.010207 -0.001057 0.000000 0.000000 0.000000
# 3 -0.010294 -0.001057 0.030653 0.000000 0.000000 0.000000
# 4 0.000000 0.000000 0.000000 0.074270 0.000000 0.000000
# 5 0.000000 0.000000 0.000000 0.000000 0.037378 0.000000
# 6 0.000000 0.000000 0.000000 0.000000 0.000000 0.065493
#
#
# Mechanical properties :
#
#
# Convention : Reuss Voigt Hill
#
# Bulk Modulus (GPa) = 43.37012 61.12261 52.24637
# Shear Modulus (GPa) = 18.43886 22.53694 20.48790
#
# Velocity S-wave (km/s) = 3.12170 3.45121 3.29058
# Velocity P-wave (km/s) = 5.99288 6.94152 6.48457
#
# Compressibility (1/GPa) = 0.02305735
#
# Stress axis : x y z
#
# Youngs Moduli (GPa) = 72.26670 97.96828 32.62330
#
# Poissons Ratio (x) = 0.43788 0.33582
# Poissons Ratio (y) = 0.32300 0.03448
# Poissons Ratio (z) = 0.74389 0.10355
#
# Static dielectric constant tensor:
#      x y z
#    x 3.495810 0.000000 0.000000 
#    y 0.000000 3.638820 0.000000 
#    z 0.000000 0.000000 3.024080 
# 
# 
# High freq. dielectric constant tensor:
#      x y z
#    x 1.727470 0.000000 0.000000 
#    y 0.000000 1.747280 0.000000 
#    z 0.000000 0.000000 1.689340 
# 
# From -- ./inp_files/15114.got.cif
#   From: 2010.03.12/outbox.cif.g09.slc.cpg/sg36_8_cif.got.tgz:15114.got - 2010.04.14 02:13:53.
