data_PCOD8174703
_publ_section_title
;
Structure prediction by ZEFSAII (Michael W. Deem and Ramdas Pophale) SiO2 
 PCOD8174703
Probable space group: C M C 21
;
_chemical_formula_sum "Si O2"
_cell_formula_units_Z 64
_cell_length_a 9.015703
_cell_length_b 14.790175
_cell_length_c 24.520637
_cell_angle_alpha 90.000000
_cell_angle_beta 90.000000
_cell_angle_gamma 90.000000
_cell_volume 3269.675532
_symmetry_space_group_name_H-M "C M C 21"
_symmetry_group_IT_number 36
_symmetry_cell_setting 'orthorhombic'
loop_
_space_group_symop_operation_xyz
x,y,z
-x,-y,1/2+z
x,-y,1/2+z
-x,y,z
1/2+x,1/2+y,z
1/2-x,1/2-y,1/2+z
1/2+x,1/2-y,1/2+z
1/2-x,1/2+y,z
loop_
_atom_site_type_symbol
_atom_site_label
_atom_site_fract_x
_atom_site_fract_y
_atom_site_fract_z
Si Si1 0.323766 0.094496 0.612220
Si Si2 0.676650 0.265142 0.185984
Si Si3 0.832820 0.110146 0.503655
Si Si4 0.824971 0.239028 0.808856
Si Si5 0.325032 0.424421 0.381061
Si Si6 0.663073 0.604647 0.998913
Si Si7 0.676695 0.113478 0.393560
Si Si8 0.826350 0.611634 0.104306
O O1 0.500000 0.104029 0.610588
O O2 0.256347 0.145148 0.664169
O O3 0.255440 0.140010 0.557842
O O4 0.272759 0.989947 0.617593
O O5 0.500000 0.278635 0.183065
O O6 0.734429 0.249952 0.247465
O O7 0.731000 0.178378 0.151434
O O8 0.747272 0.146941 0.450572
O O9 0.000000 0.149607 0.505751
O O10 0.835903 0.003013 0.500694
O O11 0.777402 0.141092 0.831880
O O12 0.763461 0.319188 0.846794
O O13 0.000000 0.246156 0.809307
O O14 0.500000 0.449209 0.380641
O O15 0.287080 0.370337 0.437408
O O16 0.229342 0.514511 0.375506
O O17 0.500000 0.643114 0.011309
O O18 0.769095 0.645439 0.045224
O O19 0.500000 0.114249 0.400007
O O20 0.000000 0.615127 0.100547
#
# Coordination Sequence:
#
# PCOD8174703 Si02
#       8
#     8   8   8   8   8   8   8   8
#     4  10  20  35  55  81 109 137 172 221 269 313
#     4  10  21  38  55  74 103 143 184 220 261 316
#     4   9  17  32  54  81 110 140 171 209 261 325
#     4   9  20  37  55  74 103 143 185 219 258 316
#     4   9  18  35  55  76 103 139 176 213 259 317
#     4   8  15  28  50  77 104 131 165 207 256 312
#     4  10  19  33  55  83 109 137 174 221 269 312
#     4   9  19  34  53  76 105 136 169 212 265 315
#
# _framework density 19.573809000000001
#
# number of rings (size 3 to 8) (size 9 to 14) (size 15 to 20)
#    0.000    2.750    0.000    1.875    0.000    6.000 
#    0.000    5.625    0.000    0.000    0.000    0.000 
#    0.000    0.000    0.000    0.000    0.000    0.000 
#
# Total GULP energy -396732.469396 kJ/mol
# GULP energy per Si atom -12397.889669 kJ/mol
# Density = 1.952926 g / cm^3
# Si number density = 19.573809 Si / 1000 Ang^3
#
#
#
# Elastic Constant Matrix: (Units=GPa)
#
#
# Indices 1 2 3 4 5 6 
#
# 1 47.2168 15.6775 23.0154 0.0000 0.0000 0.0000
# 2 15.6775 41.1246 27.3051 0.0000 0.0000 0.0000
# 3 23.0154 27.3051 132.0881 0.0000 0.0000 0.0000
# 4 0.0000 0.0000 0.0000 35.0887 0.0000 0.0000
# 5 0.0000 0.0000 0.0000 0.0000 28.3452 0.0000
# 6 0.0000 0.0000 0.0000 0.0000 0.0000 20.3471
#
#
#
# Elastic Compliance Matrix: (Units=1/GPa)
#
#
# Indices 1 2 3 4 5 6 
#
# 1 0.025097 -0.007724 -0.002776 0.000000 0.000000 0.000000
# 2 -0.007724 0.030562 -0.004972 0.000000 0.000000 0.000000
# 3 -0.002776 -0.004972 0.009082 0.000000 0.000000 0.000000
# 4 0.000000 0.000000 0.000000 0.028499 0.000000 0.000000
# 5 0.000000 0.000000 0.000000 0.000000 0.035279 0.000000
# 6 0.000000 0.000000 0.000000 0.000000 0.000000 0.049147
#
#
# Mechanical properties :
#
#
# Convention : Reuss Voigt Hill
#
# Bulk Modulus (GPa) = 29.58870 39.15837 34.37353
# Shear Modulus (GPa) = 22.74002 27.05163 24.89582
#
# Velocity S-wave (km/s) = 3.41215 3.72160 3.57023
# Velocity P-wave (km/s) = 5.53832 6.20613 5.88171
#
# Compressibility (1/GPa) = 0.03379669
#
# Stress axis : x y z
#
# Youngs Moduli (GPa) = 39.84572 32.72026 110.10521
#
# Poissons Ratio (x) = 0.25274 0.30568
# Poissons Ratio (y) = 0.30777 0.54743
# Poissons Ratio (z) = 0.11062 0.16268
#
# Static dielectric constant tensor:
#      x y z
#    x 3.422460 0.000000 0.000000 
#    y 0.000000 3.513900 0.000000 
#    z 0.000000 0.000000 3.909560 
# 
# 
# High freq. dielectric constant tensor:
#      x y z
#    x 1.745720 0.000000 0.000000 
#    y 0.000000 1.755160 0.000000 
#    z 0.000000 0.000000 1.766140 
# 
# From -- ./inp_files/15639.got.cif
#   From: 2010.03.12/outbox.cif.g09.slc.cpg/sg36_8_cif.got.tgz:15639.got - 2010.04.14 02:13:53.
