data_PCOD8174683
_publ_section_title
;
Structure prediction by ZEFSAII (Michael W. Deem and Ramdas Pophale) SiO2 
 PCOD8174683
Probable space group: C M C 21
;
_chemical_formula_sum "Si O2"
_cell_formula_units_Z 64
_cell_length_a 16.962184
_cell_length_b 17.147427
_cell_length_c 11.575166
_cell_angle_alpha 90.000000
_cell_angle_beta 90.000000
_cell_angle_gamma 90.000000
_cell_volume 3366.727455
_symmetry_space_group_name_H-M "C M C 21"
_symmetry_group_IT_number 36
_symmetry_cell_setting 'orthorhombic'
loop_
_space_group_symop_operation_xyz
x,y,z
-x,-y,1/2+z
x,-y,1/2+z
-x,y,z
1/2+x,1/2+y,z
1/2-x,1/2-y,1/2+z
1/2+x,1/2-y,1/2+z
1/2-x,1/2+y,z
loop_
_atom_site_type_symbol
_atom_site_label
_atom_site_fract_x
_atom_site_fract_y
_atom_site_fract_z
Si Si1 0.407708 0.758542 0.160620
Si Si2 0.282614 0.617495 0.809329
Si Si3 0.821769 0.499036 0.922901
Si Si4 0.093278 0.359963 0.800390
Si Si5 0.908450 0.359774 0.542215
Si Si6 0.269812 0.863823 0.065482
Si Si7 0.411383 0.297773 0.418270
Si Si8 0.175380 0.245224 0.394950
O O1 0.500000 0.785192 0.181650
O O2 0.353402 0.829852 0.114031
O O3 0.368814 0.719811 0.275487
O O4 0.405835 0.695397 0.057504
O O5 0.246322 0.533226 0.839242
O O6 0.289593 0.632450 0.672974
O O7 0.369441 0.627185 0.862810
O O8 0.232999 0.683766 0.872636
O O9 0.875695 0.440168 0.851823
O O10 0.873725 0.568625 0.971430
O O11 0.783574 0.452679 0.028840
O O12 0.127173 0.353469 0.670901
O O13 0.124768 0.285587 0.873975
O O14 0.000000 0.363034 0.804764
O O15 0.891694 0.277267 0.480920
O O16 0.000000 0.375028 0.549647
O O17 0.226688 0.821433 0.957635
O O18 0.500000 0.302363 0.373756
#
# Coordination Sequence:
#
# PCOD8174683 Si02
#       8
#     8   8   8   8   8   8   8   8
#     4  10  20  35  59  88 116 149 193 242 291 344
#     4  10  21  36  53  85 112 147 194 234 289 339
#     4  11  21  35  52  82 117 154 185 228 283 354
#     4  10  19  33  54  81 110 147 189 226 278 344
#     4  10  21  34  52  81 116 149 183 232 287 343
#     4  11  21  37  58  84 118 158 191 238 293 348
#     4  10  19  37  62  83 107 144 193 243 285 335
#     4  10  20  35  56  82 116 150 190 241 286 341
#
# _framework density 19.009557000000001
#
# number of rings (size 3 to 8) (size 9 to 14) (size 15 to 20)
#    0.000    1.750    2.500    2.250    0.000    1.500 
#    2.250    3.750    0.000    2.250    0.000    0.000 
#    0.000    0.000    0.000    0.000    0.000    0.000 
#
# Total GULP energy -396590.342238 kJ/mol
# GULP energy per Si atom -12393.448195 kJ/mol
# Density = 1.896629 g / cm^3
# Si number density = 19.009557 Si / 1000 Ang^3
#
#
#
# Elastic Constant Matrix: (Units=GPa)
#
#
# Indices 1 2 3 4 5 6 
#
# 1 77.5038 27.5456 44.8971 0.0000 0.0000 0.0000
# 2 27.5456 38.7949 14.9458 0.0000 0.0000 0.0000
# 3 44.8971 14.9458 121.3521 0.0000 0.0000 0.0000
# 4 0.0000 0.0000 0.0000 25.8239 0.0000 0.0000
# 5 0.0000 0.0000 0.0000 0.0000 33.2437 0.0000
# 6 0.0000 0.0000 0.0000 0.0000 0.0000 26.8602
#
#
#
# Elastic Compliance Matrix: (Units=1/GPa)
#
#
# Indices 1 2 3 4 5 6 
#
# 1 0.020931 -0.012470 -0.006208 0.000000 0.000000 0.000000
# 2 -0.012470 0.034490 0.000366 0.000000 0.000000 0.000000
# 3 -0.006208 0.000366 0.010492 0.000000 0.000000 0.000000
# 4 0.000000 0.000000 0.000000 0.038724 0.000000 0.000000
# 5 0.000000 0.000000 0.000000 0.000000 0.030081 0.000000
# 6 0.000000 0.000000 0.000000 0.000000 0.000000 0.037230
#
#
# Mechanical properties :
#
#
# Convention : Reuss Voigt Hill
#
# Bulk Modulus (GPa) = 34.14321 45.82531 39.98426
# Shear Modulus (GPa) = 22.90067 27.20304 25.05185
#
# Velocity S-wave (km/s) = 3.47463 3.78699 3.63417
# Velocity P-wave (km/s) = 5.83931 6.57879 6.22005
#
# Compressibility (1/GPa) = 0.02928840
#
# Stress axis : x y z
#
# Youngs Moduli (GPa) = 47.77665 28.99423 95.30849
#
# Poissons Ratio (x) = 0.36155 0.59168
# Poissons Ratio (y) = 0.59577 -0.03486
# Poissons Ratio (z) = 0.29660 -0.01060
#
# Static dielectric constant tensor:
#      x y z
#    x 3.579950 0.000000 0.000000 
#    y 0.000000 3.300200 0.000000 
#    z 0.000000 0.000000 3.868630 
# 
# 
# High freq. dielectric constant tensor:
#      x y z
#    x 1.734960 0.000000 0.000000 
#    y 0.000000 1.701180 0.000000 
#    z 0.000000 0.000000 1.760810 
# 
# From -- ./inp_files/9019.got.cif
#   From: 2010.03.12/outbox.cif.g09.slc.cpg/sg36_5_cif.got.tgz:9019.got - 2010.04.14 02:13:53.
