data_PCOD8174959
_publ_section_title
;
Structure prediction by ZEFSAII (Michael W. Deem and Ramdas Pophale) SiO2 
 PCOD8174959
Probable space group: C M C 21
;
_chemical_formula_sum "Si O2"
_cell_formula_units_Z 64
_cell_length_a 8.699349
_cell_length_b 23.983023
_cell_length_c 15.528789
_cell_angle_alpha 90.000000
_cell_angle_beta 90.000000
_cell_angle_gamma 90.000000
_cell_volume 3239.875092
_symmetry_space_group_name_H-M "C M C 21"
_symmetry_group_IT_number 36
_symmetry_cell_setting 'orthorhombic'
loop_
_space_group_symop_operation_xyz
x,y,z
-x,-y,1/2+z
x,-y,1/2+z
-x,y,z
1/2+x,1/2+y,z
1/2-x,1/2-y,1/2+z
1/2+x,1/2-y,1/2+z
1/2-x,1/2+y,z
loop_
_atom_site_type_symbol
_atom_site_label
_atom_site_fract_x
_atom_site_fract_y
_atom_site_fract_z
Si Si1 0.317323 0.632738 0.448560
Si Si2 0.682190 0.436295 0.784828
Si Si3 0.318208 0.130327 0.627855
Si Si4 0.682677 0.632738 0.121097
Si Si5 0.182245 0.062908 0.784828
Si Si6 0.681792 0.869673 0.441802
Si Si7 0.182286 0.250260 0.188526
Si Si8 0.817714 0.749740 0.881131
O O1 0.500000 0.629198 0.458345
O O2 0.256679 0.594863 0.370025
O O3 0.238961 0.609681 0.534998
O O4 0.259939 0.696101 0.432747
O O5 0.500000 0.433190 0.784828
O O6 0.743323 0.405137 0.699632
O O7 0.741961 0.499410 0.784828
O O8 0.500000 0.125648 0.635415
O O9 0.244805 0.091597 0.699649
O O10 0.260475 0.193884 0.641243
O O11 0.500000 0.629199 0.111314
O O12 0.740061 0.696101 0.136909
O O13 0.761036 0.609681 0.034658
O O14 0.244808 0.091598 0.870006
O O15 0.000000 0.065951 0.784829
O O16 0.500000 0.874351 0.434244
O O17 0.739524 0.806116 0.428414
O O18 0.251667 0.249217 0.284828
O O19 0.000000 0.249048 0.194715
O O20 0.000000 0.750952 0.874941
#
# Coordination Sequence:
#
# PCOD8174959 Si02
#       8
#     8   8   8   8   8   8   8   8
#     4  10  19  36  62  87 110 144 189 232 277 330
#     4   9  20  38  61  83 107 143 192 245 280 310
#     4  11  22  37  57  85 120 151 178 222 285 341
#     4  10  19  36  62  87 110 144 189 232 277 330
#     4  11  23  40  59  81 107 145 198 241 272 320
#     4  11  22  37  57  85 120 151 178 222 285 341
#     4   9  16  31  58  85 112 146 181 223 278 333
#     4   9  16  31  58  85 112 146 181 223 278 333
#
# _framework density 19.753848000000001
#
# number of rings (size 3 to 8) (size 9 to 14) (size 15 to 20)
#    0.000    2.000    2.500    1.875    0.000    1.000 
#    0.000    9.375    0.000    0.000    0.000    0.000 
#    0.000    0.000    0.000    0.000    0.000    0.000 
#
# Total GULP energy -396841.215427 kJ/mol
# GULP energy per Si atom -12401.287982 kJ/mol
# Density = 1.970889 g / cm^3
# Si number density = 19.753848 Si / 1000 Ang^3
#
#
#
# Elastic Constant Matrix: (Units=GPa)
#
#
# Indices 1 2 3 4 5 6 
#
# 1 45.9187 36.7009 35.2062 0.0000 0.0000 0.0000
# 2 36.7009 163.4370 83.0590 0.0000 0.0000 0.0000
# 3 35.2062 83.0590 188.8760 0.0000 0.0000 0.0000
# 4 0.0000 0.0000 0.0000 1.1617 0.0000 0.0000
# 5 0.0000 0.0000 0.0000 0.0000 23.5312 0.0000
# 6 0.0000 0.0000 0.0000 0.0000 0.0000 22.5740
#
#
#
# Elastic Compliance Matrix: (Units=1/GPa)
#
#
# Indices 1 2 3 4 5 6 
#
# 1 0.027926 -0.004669 -0.003152 0.000000 0.000000 0.000000
# 2 -0.004669 0.008660 -0.002938 0.000000 0.000000 0.000000
# 3 -0.003152 -0.002938 0.007174 0.000000 0.000000 0.000000
# 4 0.000000 0.000000 0.000000 0.860822 0.000000 0.000000
# 5 0.000000 0.000000 0.000000 0.000000 0.042497 0.000000
# 6 0.000000 0.000000 0.000000 0.000000 0.000000 0.044299
#
#
# Mechanical properties :
#
#
# Convention : Reuss Voigt Hill
#
# Bulk Modulus (GPa) = 44.96029 78.68488 61.82259
# Shear Modulus (GPa) = 4.90047 25.67107 15.28577
#
# Velocity S-wave (km/s) = 1.57675 3.60884 2.78477
# Velocity P-wave (km/s) = 5.11122 7.56862 6.45789
#
# Compressibility (1/GPa) = 0.02224185
#
# Stress axis : x y z
#
# Youngs Moduli (GPa) = 35.80869 115.47137 139.39134
#
# Poissons Ratio (x) = 0.53915 0.43938
# Poissons Ratio (y) = 0.16719 0.40954
# Poissons Ratio (z) = 0.11287 0.33926
#
# Static dielectric constant tensor:
#      x y z
#    x 3.157170 0.000000 0.000000 
#    y 0.000000 3.824460 0.000000 
#    z 0.000000 0.000000 3.715380 
# 
# 
# High freq. dielectric constant tensor:
#      x y z
#    x 1.732180 0.000000 0.000000 
#    y 0.000000 1.772000 0.000000 
#    z 0.000000 0.000000 1.787790 
# 
# From -- ./inp_files/11033.got.cif
#   From: 2010.03.12/outbox.cif.g09.slc.cpg/sg36_6_cif.got.tgz:11033.got - 2010.04.14 02:13:53.
