data_PCOD8174492
_publ_section_title
;
Structure prediction by ZEFSAII (Michael W. Deem and Ramdas Pophale) SiO2 
 PCOD8174492
Probable space group: C M C 21
;
_chemical_formula_sum "Si O2"
_cell_formula_units_Z 64
_cell_length_a 8.860590
_cell_length_b 19.885786
_cell_length_c 19.985312
_cell_angle_alpha 90.000000
_cell_angle_beta 90.000000
_cell_angle_gamma 90.000000
_cell_volume 3521.407909
_symmetry_space_group_name_H-M "C M C 21"
_symmetry_group_IT_number 36
_symmetry_cell_setting 'orthorhombic'
loop_
_space_group_symop_operation_xyz
x,y,z
-x,-y,1/2+z
x,-y,1/2+z
-x,y,z
1/2+x,1/2+y,z
1/2-x,1/2-y,1/2+z
1/2+x,1/2-y,1/2+z
1/2-x,1/2+y,z
loop_
_atom_site_type_symbol
_atom_site_label
_atom_site_fract_x
_atom_site_fract_y
_atom_site_fract_z
Si Si1 0.676517 0.548312 0.782200
Si Si2 0.677426 0.717302 0.613792
Si Si3 0.174022 0.415007 0.145015
Si Si4 0.823808 0.735277 0.262571
Si Si5 0.820793 0.659134 0.861939
Si Si6 0.322524 0.827446 0.510660
Si Si7 0.326726 0.062186 0.111119
Si Si8 0.324475 0.400472 0.745880
O O1 0.500000 0.563050 0.786762
O O2 0.732715 0.580286 0.713122
O O3 0.760452 0.585150 0.842928
O O4 0.712800 0.468949 0.786261
O O5 0.500000 0.705199 0.606433
O O6 0.762645 0.646954 0.602214
O O7 0.717116 0.748068 0.686053
O O8 0.741792 0.767744 0.557291
O O9 0.195486 0.482417 0.100862
O O10 0.000000 0.403331 0.163668
O O11 0.736769 0.785804 0.310379
O O12 0.769544 0.659771 0.279147
O O13 0.000000 0.741713 0.277040
O O14 0.000000 0.657674 0.861217
O O15 0.756092 0.676277 0.935843
O O16 0.500000 0.818544 0.507210
O O17 0.281549 0.899914 0.542900
O O18 0.500000 0.078988 0.131402
O O19 0.220091 0.089821 0.169026
O O20 0.500000 0.382638 0.749687
#
# Coordination Sequence:
#
# PCOD8174492 Si02
#       8
#     8   8   8   8   8   8   8   8
#     4  10  20  35  53  77 111 145 177 221 276 326
#     4  10  19  34  56  78 108 146 180 220 274 331
#     4  10  19  30  53  84 110 136 177 230 269 313
#     4  11  21  35  57  81 111 147 181 226 278 327
#     4  11  22  36  57  81 109 146 188 227 270 329
#     4   9  19  37  57  77 105 146 185 221 272 331
#     4   9  17  34  55  77 107 142 179 219 272 326
#     4  10  20  33  54  83 111 138 179 230 271 317
#
# _framework density 18.174548999999999
#
# number of rings (size 3 to 8) (size 9 to 14) (size 15 to 20)
#    0.000    2.000    2.500    1.875    0.000    2.500 
#    0.000    3.750    0.000    3.000    0.000    0.000 
#    0.000    0.000    0.000    0.000    0.000    0.000 
#
# Total GULP energy -396821.079287 kJ/mol
# GULP energy per Si atom -12400.658728 kJ/mol
# Density = 1.813318 g / cm^3
# Si number density = 18.174549 Si / 1000 Ang^3
#
#
#
# Elastic Constant Matrix: (Units=GPa)
#
#
# Indices 1 2 3 4 5 6 
#
# 1 63.1490 42.7916 33.2935 0.0000 0.0000 0.0000
# 2 42.7916 121.7867 39.6512 0.0000 0.0000 0.0000
# 3 33.2935 39.6512 84.9742 0.0000 0.0000 0.0000
# 4 0.0000 0.0000 0.0000 23.2900 0.0000 0.0000
# 5 0.0000 0.0000 0.0000 0.0000 19.1452 0.0000
# 6 0.0000 0.0000 0.0000 0.0000 0.0000 31.8992
#
#
#
# Elastic Compliance Matrix: (Units=1/GPa)
#
#
# Indices 1 2 3 4 5 6 
#
# 1 0.023304 -0.006150 -0.006261 0.000000 0.000000 0.000000
# 2 -0.006150 0.011305 -0.002866 0.000000 0.000000 0.000000
# 3 -0.006261 -0.002866 0.015559 0.000000 0.000000 0.000000
# 4 0.000000 0.000000 0.000000 0.042937 0.000000 0.000000
# 5 0.000000 0.000000 0.000000 0.000000 0.052232 0.000000
# 6 0.000000 0.000000 0.000000 0.000000 0.000000 0.031349
#
#
# Mechanical properties :
#
#
# Convention : Reuss Voigt Hill
#
# Bulk Modulus (GPa) = 50.98261 55.70916 53.34589
# Shear Modulus (GPa) = 23.38900 25.14513 24.26707
#
# Velocity S-wave (km/s) = 3.59124 3.72363 3.65803
# Velocity P-wave (km/s) = 6.73117 7.01470 6.87440
#
# Compressibility (1/GPa) = 0.01961453
#
# Stress axis : x y z
#
# Youngs Moduli (GPa) = 42.91170 88.45769 64.27334
#
# Poissons Ratio (x) = 0.54398 0.40241
# Poissons Ratio (y) = 0.26389 0.18419
# Poissons Ratio (z) = 0.26867 0.25349
#
# Static dielectric constant tensor:
#      x y z
#    x 3.293520 0.000000 0.000000 
#    y 0.000000 3.658850 0.000000 
#    z 0.000000 0.000000 3.287200 
# 
# 
# High freq. dielectric constant tensor:
#      x y z
#    x 1.701260 0.000000 0.000000 
#    y 0.000000 1.720990 0.000000 
#    z 0.000000 0.000000 1.672590 
# 
# From -- ./inp_files/13977.got.cif
#   From: 2010.03.12/outbox.cif.g09.slc.cpg/sg36_7_cif.got.tgz:13977.got - 2010.04.14 02:13:53.
