data_PCOD8174600
_publ_section_title
;
Structure prediction by ZEFSAII (Michael W. Deem and Ramdas Pophale) SiO2 
 PCOD8174600
Probable space group: C M C 21
;
_chemical_formula_sum "Si O2"
_cell_formula_units_Z 64
_cell_length_a 8.875885
_cell_length_b 20.097114
_cell_length_c 19.798866
_cell_angle_alpha 90.000000
_cell_angle_beta 90.000000
_cell_angle_gamma 90.000000
_cell_volume 3531.715237
_symmetry_space_group_name_H-M "C M C 21"
_symmetry_group_IT_number 36
_symmetry_cell_setting 'orthorhombic'
loop_
_space_group_symop_operation_xyz
x,y,z
-x,-y,1/2+z
x,-y,1/2+z
-x,y,z
1/2+x,1/2+y,z
1/2-x,1/2-y,1/2+z
1/2+x,1/2-y,1/2+z
1/2-x,1/2+y,z
loop_
_atom_site_type_symbol
_atom_site_label
_atom_site_fract_x
_atom_site_fract_y
_atom_site_fract_z
Si Si1 0.321784 0.322615 0.985740
Si Si2 0.176716 0.936453 0.891826
Si Si3 0.824000 0.776821 0.386874
Si Si4 0.178150 0.540231 0.713450
Si Si5 0.178478 0.906453 0.741803
Si Si6 0.322723 0.770668 0.739530
Si Si7 0.676362 0.577021 0.852456
Si Si8 0.322496 0.654897 0.637236
O O1 0.500000 0.321114 0.980135
O O2 0.253599 0.389417 0.949997
O O3 0.260839 0.257432 0.948532
O O4 0.270293 0.321475 0.063177
O O5 0.235647 0.912315 0.819059
O O6 0.000000 0.927215 0.893939
O O7 0.218773 0.014586 0.901199
O O8 0.768998 0.747934 0.315020
O O9 0.783886 0.855128 0.390930
O O10 0.000000 0.764591 0.395779
O O11 0.249129 0.467431 0.700559
O O12 0.231751 0.572638 0.783465
O O13 0.234063 0.587278 0.653085
O O14 0.000000 0.534228 0.712746
O O15 0.238071 0.836508 0.713401
O O16 0.000000 0.910602 0.734712
O O17 0.500000 0.783243 0.736558
O O18 0.274566 0.711494 0.689994
O O19 0.500000 0.574905 0.832080
O O20 0.500000 0.640357 0.640421
#
# Coordination Sequence:
#
# PCOD8174600 Si02
#       8
#     8   8   8   8   8   8   8   8
#     4  10  20  35  55  79 108 145 187 227 270 331
#     4   8  15  29  51  77 101 130 174 218 259 314
#     4  10  19  32  53  78 109 144 178 226 278 325
#     4  11  21  33  53  81 110 139 179 229 272 326
#     4  10  19  33  55  80 108 137 173 227 278 324
#     4  10  19  33  53  79 108 144 185 225 273 326
#     4   9  17  33  54  77 107 142 178 220 274 325
#     4  10  21  38  56  75 111 155 188 222 276 335
#
# _framework density 18.121504999999999
#
# number of rings (size 3 to 8) (size 9 to 14) (size 15 to 20)
#    0.000    2.250    2.500    2.250    0.000    1.500 
#    0.000    1.250    0.000    1.500    0.000    0.000 
#    0.000    0.000    0.000    0.000    0.000    0.000 
#
# Total GULP energy -396766.667962 kJ/mol
# GULP energy per Si atom -12398.958374 kJ/mol
# Density = 1.808026 g / cm^3
# Si number density = 18.121505 Si / 1000 Ang^3
#
#
#
# Elastic Constant Matrix: (Units=GPa)
#
#
# Indices 1 2 3 4 5 6 
#
# 1 53.9735 37.3771 21.6215 0.0000 0.0000 0.0000
# 2 37.3771 133.1920 31.8373 0.0000 0.0000 0.0000
# 3 21.6215 31.8373 66.6318 0.0000 0.0000 0.0000
# 4 0.0000 0.0000 0.0000 26.9867 0.0000 0.0000
# 5 0.0000 0.0000 0.0000 0.0000 19.5507 0.0000
# 6 0.0000 0.0000 0.0000 0.0000 0.0000 29.0618
#
#
#
# Elastic Compliance Matrix: (Units=1/GPa)
#
#
# Indices 1 2 3 4 5 6 
#
# 1 0.024535 -0.005625 -0.005274 0.000000 0.000000 0.000000
# 2 -0.005625 0.009765 -0.002841 0.000000 0.000000 0.000000
# 3 -0.005274 -0.002841 0.018077 0.000000 0.000000 0.000000
# 4 0.000000 0.000000 0.000000 0.037055 0.000000 0.000000
# 5 0.000000 0.000000 0.000000 0.000000 0.051149 0.000000
# 6 0.000000 0.000000 0.000000 0.000000 0.000000 0.034409
#
#
# Mechanical properties :
#
#
# Convention : Reuss Voigt Hill
#
# Bulk Modulus (GPa) = 40.16318 48.38546 44.27432
# Shear Modulus (GPa) = 23.72256 25.98394 24.85325
#
# Velocity S-wave (km/s) = 3.62205 3.79076 3.70737
# Velocity P-wave (km/s) = 6.30109 6.77631 6.54301
#
# Compressibility (1/GPa) = 0.02489843
#
# Stress axis : x y z
#
# Youngs Moduli (GPa) = 40.75731 102.40203 55.32000
#
# Poissons Ratio (x) = 0.57597 0.29176
# Poissons Ratio (y) = 0.22924 0.15716
# Poissons Ratio (z) = 0.21496 0.29091
#
# Static dielectric constant tensor:
#      x y z
#    x 3.116000 0.000000 0.000000 
#    y 0.000000 3.638790 0.000000 
#    z 0.000000 0.000000 3.239960 
# 
# 
# High freq. dielectric constant tensor:
#      x y z
#    x 1.684200 0.000000 0.000000 
#    y 0.000000 1.720240 0.000000 
#    z 0.000000 0.000000 1.671310 
# 
# From -- ./inp_files/13911.got.cif
#   From: 2010.03.12/outbox.cif.g09.slc.cpg/sg36_7_cif.got.tgz:13911.got - 2010.04.14 02:13:53.
