data_PCOD8174719
_publ_section_title
;
Structure prediction by ZEFSAII (Michael W. Deem and Ramdas Pophale) SiO2 
 PCOD8174719
Probable space group: C M C 21
;
_chemical_formula_sum "Si O2"
_cell_formula_units_Z 64
_cell_length_a 9.037158
_cell_length_b 22.723125
_cell_length_c 16.343939
_cell_angle_alpha 90.000000
_cell_angle_beta 90.000000
_cell_angle_gamma 90.000000
_cell_volume 3356.268258
_symmetry_space_group_name_H-M "C M C 21"
_symmetry_group_IT_number 36
_symmetry_cell_setting 'orthorhombic'
loop_
_space_group_symop_operation_xyz
x,y,z
-x,-y,1/2+z
x,-y,1/2+z
-x,y,z
1/2+x,1/2+y,z
1/2-x,1/2-y,1/2+z
1/2+x,1/2-y,1/2+z
1/2-x,1/2+y,z
loop_
_atom_site_type_symbol
_atom_site_label
_atom_site_fract_x
_atom_site_fract_y
_atom_site_fract_z
Si Si1 0.675666 0.036158 0.054580
Si Si2 0.824974 0.848861 0.243053
Si Si3 0.335932 0.809292 0.960720
Si Si4 0.172938 0.863869 0.645628
Si Si5 0.665949 0.896570 0.394143
Si Si6 0.169035 0.404564 0.088517
Si Si7 0.663941 0.204614 0.014559
Si Si8 0.168909 0.286186 0.773118
O O1 0.500000 0.044401 0.058741
O O2 0.746582 0.074366 0.127419
O O3 0.728751 0.970082 0.071740
O O4 0.728157 0.058512 0.964082
O O5 0.766390 0.893671 0.313186
O O6 0.763922 0.870147 0.155910
O O7 0.775037 0.781218 0.260155
O O8 0.000000 0.853880 0.242945
O O9 0.500000 0.783781 0.981388
O O10 0.315104 0.809529 0.864459
O O11 0.318868 0.873604 0.000034
O O12 0.204932 0.771588 0.999526
O O13 0.209396 0.819856 0.572520
O O14 0.230210 0.833155 0.727184
O O15 0.000000 0.875498 0.652561
O O16 0.500000 0.915602 0.368412
O O17 0.665160 0.830709 0.430001
O O18 0.000000 0.406162 0.119716
O O19 0.500000 0.201397 0.055015
O O20 0.000000 0.290219 0.742437
#
# Coordination Sequence:
#
# PCOD8174719 Si02
#       8
#     8   8   8   8   8   8   8   8
#     4   9  20  41  62  82 111 150 197 242 289 343
#     4  11  22  36  58  87 121 154 189 234 293 348
#     4  10  20  36  58  85 117 151 189 237 290 344
#     4  11  22  35  57  85 113 148 191 237 285 341
#     4   9  18  34  58  84 110 144 192 240 283 339
#     4  10  22  40  61  84 114 154 199 242 287 344
#     4  10  19  33  56  84 115 149 187 231 287 345
#     4  10  21  37  56  85 123 154 186 233 292 352
#
# _framework density 19.068798000000001
#
# number of rings (size 3 to 8) (size 9 to 14) (size 15 to 20)
#    0.000    2.000    1.250    3.375    0.000    6.500 
#    2.250    0.000    0.000    0.000    0.000    0.000 
#    0.000    0.000    0.000    0.000    0.000    0.000 
#
# Total GULP energy -396665.780483 kJ/mol
# GULP energy per Si atom -12395.805640 kJ/mol
# Density = 1.902540 g / cm^3
# Si number density = 19.068798 Si / 1000 Ang^3
#
#
#
# Elastic Constant Matrix: (Units=GPa)
#
#
# Indices 1 2 3 4 5 6 
#
# 1 69.8027 45.8175 44.5383 0.0000 0.0000 0.0000
# 2 45.8175 110.6652 66.1803 0.0000 0.0000 0.0000
# 3 44.5383 66.1803 110.3908 0.0000 0.0000 0.0000
# 4 0.0000 0.0000 0.0000 23.1716 0.0000 0.0000
# 5 0.0000 0.0000 0.0000 0.0000 29.7337 0.0000
# 6 0.0000 0.0000 0.0000 0.0000 0.0000 24.4059
#
#
#
# Elastic Compliance Matrix: (Units=1/GPa)
#
#
# Indices 1 2 3 4 5 6 
#
# 1 0.021420 -0.005768 -0.005184 0.000000 0.000000 0.000000
# 2 -0.005768 0.015640 -0.007049 0.000000 0.000000 0.000000
# 3 -0.005184 -0.007049 0.015376 0.000000 0.000000 0.000000
# 4 0.000000 0.000000 0.000000 0.043156 0.000000 0.000000
# 5 0.000000 0.000000 0.000000 0.000000 0.033632 0.000000
# 6 0.000000 0.000000 0.000000 0.000000 0.000000 0.040974
#
#
# Mechanical properties :
#
#
# Convention : Reuss Voigt Hill
#
# Bulk Modulus (GPa) = 60.85075 67.10344 63.97709
# Shear Modulus (GPa) = 23.62078 24.41709 24.01894
#
# Velocity S-wave (km/s) = 3.52335 3.58225 3.55293
# Velocity P-wave (km/s) = 6.96653 7.23717 7.10314
#
# Compressibility (1/GPa) = 0.01643365
#
# Stress axis : x y z
#
# Youngs Moduli (GPa) = 46.68554 63.93936 65.03538
#
# Poissons Ratio (x) = 0.36881 0.33715
# Poissons Ratio (y) = 0.26928 0.45844
# Poissons Ratio (z) = 0.24202 0.45071
#
# Static dielectric constant tensor:
#      x y z
#    x 3.450090 0.000000 0.000000 
#    y 0.000000 3.475250 0.000000 
#    z 0.000000 0.000000 3.454390 
# 
# 
# High freq. dielectric constant tensor:
#      x y z
#    x 1.736470 0.000000 0.000000 
#    y 0.000000 1.730310 0.000000 
#    z 0.000000 0.000000 1.740870 
# 
# From -- ./inp_files/10903.got.cif
#   From: 2010.03.12/outbox.cif.g09.slc.cpg/sg36_6_cif.got.tgz:10903.got - 2010.04.14 02:13:53.
