data_PCOD8174316
_publ_section_title
;
Structure prediction by ZEFSAII (Michael W. Deem and Ramdas Pophale) SiO2 
 PCOD8174316
Probable space group: C M C 21
;
_chemical_formula_sum "Si O2"
_cell_formula_units_Z 64
_cell_length_a 9.095247
_cell_length_b 29.384116
_cell_length_c 12.205680
_cell_angle_alpha 90.000000
_cell_angle_beta 90.000000
_cell_angle_gamma 90.000000
_cell_volume 3262.038686
_symmetry_space_group_name_H-M "C M C 21"
_symmetry_group_IT_number 36
_symmetry_cell_setting 'orthorhombic'
loop_
_space_group_symop_operation_xyz
x,y,z
-x,-y,1/2+z
x,-y,1/2+z
-x,y,z
1/2+x,1/2+y,z
1/2-x,1/2-y,1/2+z
1/2+x,1/2-y,1/2+z
1/2-x,1/2+y,z
loop_
_atom_site_type_symbol
_atom_site_label
_atom_site_fract_x
_atom_site_fract_y
_atom_site_fract_z
Si Si1 0.161889 0.323683 0.424710
Si Si2 0.825860 0.221622 0.742108
Si Si3 0.673967 0.083582 0.214950
Si Si4 0.836965 0.683301 0.174555
Si Si5 0.172283 0.431890 0.967047
Si Si6 0.329344 0.370052 0.126810
Si Si7 0.170224 0.978490 0.534508
Si Si8 0.833742 0.093585 0.859224
O O1 0.273054 0.290685 0.362803
O O2 0.152923 0.306769 0.547024
O O3 0.220921 0.374985 0.424736
O O4 0.000000 0.322449 0.370099
O O5 0.754599 0.271325 0.718482
O O6 0.776624 0.181044 0.659491
O O7 0.000000 0.225004 0.738721
O O8 0.500000 0.082580 0.187743
O O9 0.739700 0.135064 0.202519
O O10 0.707484 0.067427 0.338107
O O11 0.757432 0.051199 0.130473
O O12 0.000000 0.680502 0.226526
O O13 0.000000 0.434939 0.988857
O O14 0.234142 0.385884 0.022788
O O15 0.250356 0.473424 0.028148
O O16 0.500000 0.370497 0.093553
O O17 0.299979 0.404649 0.229252
O O18 0.186036 0.955884 0.413579
O O19 0.000000 0.985898 0.564988
O O20 0.000000 0.111732 0.877780
#
# Coordination Sequence:
#
# PCOD8174316 Si02
#       8
#     8   8   8   8   8   8   8   8
#     4  10  18  31  54  83 111 145 192 243 289 340
#     4   9  19  36  57  82 116 159 198 237 292 349
#     4  10  22  42  62  87 121 156 196 241 298 357
#     4   9  18  35  59  83 114 155 191 234 294 350
#     4  11  25  40  58  86 121 158 197 241 297 356
#     4   9  19  37  58  82 116 155 197 238 287 347
#     4  11  23  39  62  88 115 149 195 243 294 353
#     4   9  19  36  58  83 110 145 188 239 293 346
#
# _framework density 19.619631999999999
#
# number of rings (size 3 to 8) (size 9 to 14) (size 15 to 20)
#    0.000    2.250    1.250    1.875    1.750    4.500 
#    0.000    1.875    0.000    0.000    0.000    0.000 
#    0.000    0.000    0.000    0.000    0.000    0.000 
#
# Total GULP energy -396637.948790 kJ/mol
# GULP energy per Si atom -12394.935900 kJ/mol
# Density = 1.957498 g / cm^3
# Si number density = 19.619632 Si / 1000 Ang^3
#
#
#
# Elastic Constant Matrix: (Units=GPa)
#
#
# Indices 1 2 3 4 5 6 
#
# 1 59.9030 40.6940 35.6102 0.0000 0.0000 0.0000
# 2 40.6940 132.6105 45.2361 0.0000 0.0000 0.0000
# 3 35.6102 45.2361 75.3105 0.0000 0.0000 0.0000
# 4 0.0000 0.0000 0.0000 27.0813 0.0000 0.0000
# 5 0.0000 0.0000 0.0000 0.0000 27.9697 0.0000
# 6 0.0000 0.0000 0.0000 0.0000 0.0000 17.5989
#
#
#
# Elastic Compliance Matrix: (Units=1/GPa)
#
#
# Indices 1 2 3 4 5 6 
#
# 1 0.025297 -0.004632 -0.009180 0.000000 0.000000 0.000000
# 2 -0.004632 0.010332 -0.004016 0.000000 0.000000 0.000000
# 3 -0.009180 -0.004016 0.020031 0.000000 0.000000 0.000000
# 4 0.000000 0.000000 0.000000 0.036926 0.000000 0.000000
# 5 0.000000 0.000000 0.000000 0.000000 0.035753 0.000000
# 6 0.000000 0.000000 0.000000 0.000000 0.000000 0.056822
#
#
# Mechanical properties :
#
#
# Convention : Reuss Voigt Hill
#
# Bulk Modulus (GPa) = 49.98535 56.76719 53.37627
# Shear Modulus (GPa) = 21.97958 24.28221 23.13089
#
# Velocity S-wave (km/s) = 3.35070 3.52184 3.43733
# Velocity P-wave (km/s) = 6.36412 6.74792 6.55883
#
# Compressibility (1/GPa) = 0.02000586
#
# Stress axis : x y z
#
# Youngs Moduli (GPa) = 39.53049 96.78548 49.92213
#
# Poissons Ratio (x) = 0.44826 0.45826
# Poissons Ratio (y) = 0.18309 0.20049
# Poissons Ratio (z) = 0.36287 0.38870
#
# Static dielectric constant tensor:
#      x y z
#    x 3.516550 0.000000 0.000000 
#    y 0.000000 3.732990 0.000000 
#    z 0.000000 0.000000 3.491260 
# 
# 
# High freq. dielectric constant tensor:
#      x y z
#    x 1.749750 0.000000 0.000000 
#    y 0.000000 1.768300 0.000000 
#    z 0.000000 0.000000 1.759300 
# 
# From -- ./inp_files/7176.got.cif
#   From: 2010.03.12/outbox.cif.g09.slc.cpg/sg36_4_cif.got.tgz:7176.got - 2010.04.14 02:13:53.
