data_PCOD8174567
_publ_section_title
;
Structure prediction by ZEFSAII (Michael W. Deem and Ramdas Pophale) SiO2 
 PCOD8174567
Probable space group: C M C 21
;
_chemical_formula_sum "Si O2"
_cell_formula_units_Z 64
_cell_length_a 8.917052
_cell_length_b 18.891552
_cell_length_c 20.960158
_cell_angle_alpha 90.000000
_cell_angle_beta 90.000000
_cell_angle_gamma 90.000000
_cell_volume 3530.884321
_symmetry_space_group_name_H-M "C M C 21"
_symmetry_group_IT_number 36
_symmetry_cell_setting 'orthorhombic'
loop_
_space_group_symop_operation_xyz
x,y,z
-x,-y,1/2+z
x,-y,1/2+z
-x,y,z
1/2+x,1/2+y,z
1/2-x,1/2-y,1/2+z
1/2+x,1/2-y,1/2+z
1/2-x,1/2+y,z
loop_
_atom_site_type_symbol
_atom_site_label
_atom_site_fract_x
_atom_site_fract_y
_atom_site_fract_z
Si Si1 0.324142 0.671917 0.373530
Si Si2 0.678546 0.581129 0.754155
Si Si3 0.176872 0.334377 0.140329
Si Si4 0.327320 0.677103 0.867946
Si Si5 0.821209 0.078217 0.257149
Si Si6 0.671252 0.313664 0.506961
Si Si7 0.673100 0.327523 0.644271
Si Si8 0.673004 0.330338 0.013814
O O1 0.500000 0.684923 0.366528
O O2 0.249869 0.747392 0.360752
O O3 0.264626 0.616385 0.321391
O O4 0.287194 0.638590 0.443492
O O5 0.500000 0.581698 0.750780
O O6 0.742632 0.618423 0.692226
O O7 0.738959 0.621256 0.817414
O O8 0.742007 0.501361 0.756444
O O9 0.234016 0.253148 0.148207
O O10 0.226280 0.363368 0.070341
O O11 0.000000 0.341516 0.147500
O O12 0.500000 0.690014 0.852400
O O13 0.307460 0.644538 0.940058
O O14 0.751413 0.120747 0.196297
O O15 0.000000 0.076099 0.254569
O O16 0.500000 0.282416 0.510231
O O17 0.697825 0.358918 0.572068
O O18 0.793980 0.252600 0.507482
O O19 0.500000 0.324274 0.662115
O O20 0.500000 0.342832 0.031213
#
# Coordination Sequence:
#
# PCOD8174567 Si02
#       8
#     8   8   8   8   8   8   8   8
#     4   9  17  30  50  73  95 123 159 195 230 274
#     4  10  20  32  46  67  96 127 158 196 237 274
#     4  10  19  32  51  71  92 121 157 196 238 287
#     4   9  17  29  46  69  96 123 152 191 237 279
#     4   9  17  30  46  67  96 125 156 194 231 268
#     4   8  14  26  44  68  95 122 155 190 228 277
#     4   8  14  26  47  70  88 115 156 195 228 268
#     4   9  16  27  46  73  98 118 149 195 241 279
#
# _framework density 18.125771
#
# number of rings (size 3 to 8) (size 9 to 14) (size 15 to 20)
#    0.000    3.000    0.000    2.250    0.000    2.000 
#    0.000    1.875    0.000    9.750    0.000    5.250 
#    0.000    0.000    0.000    0.000    0.000    0.000 
#
# Total GULP energy -396449.909862 kJ/mol
# GULP energy per Si atom -12389.059683 kJ/mol
# Density = 1.808452 g / cm^3
# Si number density = 18.125771 Si / 1000 Ang^3
#
#
#
# Elastic Constant Matrix: (Units=GPa)
#
#
# Indices 1 2 3 4 5 6 
#
# 1 17.1492 16.0124 20.1759 0.0000 0.0000 0.0000
# 2 16.0124 99.2667 80.4080 0.0000 0.0000 0.0000
# 3 20.1759 80.4080 185.2563 0.0000 0.0000 0.0000
# 4 0.0000 0.0000 0.0000 6.0452 0.0000 0.0000
# 5 0.0000 0.0000 0.0000 0.0000 21.8682 0.0000
# 6 0.0000 0.0000 0.0000 0.0000 0.0000 13.8986
#
#
#
# Elastic Compliance Matrix: (Units=1/GPa)
#
#
# Indices 1 2 3 4 5 6 
#
# 1 0.070751 -0.007975 -0.004244 0.000000 0.000000 0.000000
# 2 -0.007975 0.016435 -0.006265 0.000000 0.000000 0.000000
# 3 -0.004244 -0.006265 0.008579 0.000000 0.000000 0.000000
# 4 0.000000 0.000000 0.000000 0.165421 0.000000 0.000000
# 5 0.000000 0.000000 0.000000 0.000000 0.045728 0.000000
# 6 0.000000 0.000000 0.000000 0.000000 0.000000 0.071950
#
#
# Mechanical properties :
#
#
# Convention : Reuss Voigt Hill
#
# Bulk Modulus (GPa) = 17.00748 59.42941 38.21845
# Shear Modulus (GPa) = 11.48289 20.70080 16.09184
#
# Velocity S-wave (km/s) = 2.51970 3.38311 2.98281
# Velocity P-wave (km/s) = 4.22712 6.93679 5.74402
#
# Compressibility (1/GPa) = 0.05879765
#
# Stress axis : x y z
#
# Youngs Moduli (GPa) = 14.13412 60.84605 116.55992
#
# Poissons Ratio (x) = 0.48525 0.49467
# Poissons Ratio (y) = 0.11272 0.73023
# Poissons Ratio (z) = 0.05998 0.38119
#
# Static dielectric constant tensor:
#      x y z
#    x 3.075800 0.000000 0.000000 
#    y 0.000000 3.143850 0.000000 
#    z 0.000000 0.000000 3.956700 
# 
# 
# High freq. dielectric constant tensor:
#      x y z
#    x 1.673740 0.000000 0.000000 
#    y 0.000000 1.656450 0.000000 
#    z 0.000000 0.000000 1.732400 
# 
# From -- ./inp_files/16047.got.cif
#   From: 2010.03.12/outbox.cif.g09.slc.cpg/sg36_9_cif.got.tgz:16047.got - 2010.04.14 02:13:53.
