data_PCOD8174128
_publ_section_title
;
Structure prediction by ZEFSAII (Michael W. Deem and Ramdas Pophale) SiO2 
 PCOD8174128
Probable space group: C M M 2
;
_chemical_formula_sum "Si O2"
_cell_formula_units_Z 48
_cell_length_a 18.262472
_cell_length_b 7.501402
_cell_length_c 17.406781
_cell_angle_alpha 90.000000
_cell_angle_beta 90.000000
_cell_angle_gamma 90.000000
_cell_volume 2384.627063
_symmetry_space_group_name_H-M "C M M 2"
_symmetry_group_IT_number 35
_symmetry_cell_setting 'orthorhombic'
loop_
_space_group_symop_operation_xyz
x,y,z
-x,-y,z
-x,y,z
x,-y,z
1/2+x,1/2+y,z
1/2-x,1/2-y,z
1/2-x,1/2+y,z
1/2+x,1/2-y,z
loop_
_atom_site_type_symbol
_atom_site_label
_atom_site_fract_x
_atom_site_fract_y
_atom_site_fract_z
Si Si1 0.086774 0.000000 0.905910
Si Si2 0.167533 0.290890 0.335496
Si Si3 0.667859 0.792058 0.166889
Si Si4 0.164396 0.708676 0.631789
Si Si5 0.913505 0.701693 0.019533
Si Si6 0.912307 0.000000 0.731118
Si Si7 0.081847 0.288467 0.479608
O O1 0.115761 0.823419 0.949738
O O2 0.114852 0.000000 0.819095
O O3 0.000000 0.000000 0.907040
O O4 0.155051 0.500000 0.331642
O O5 0.250000 0.250000 0.360827
O O6 0.151001 0.205736 0.251054
O O7 0.114227 0.208049 0.400226
O O8 0.750000 0.750000 0.141704
O O9 0.654500 0.000000 0.174237
O O10 0.615687 0.716739 0.100101
O O11 0.149461 0.500000 0.647140
O O12 0.250000 0.750000 0.635257
O O13 0.133517 0.771954 0.549487
O O14 0.120773 0.820539 0.695189
O O15 0.884772 0.500000 0.005673
O O16 0.000000 0.706404 0.024540
O O17 0.000000 0.000000 0.722727
O O18 0.080094 0.500000 0.475177
O O19 0.000000 0.212159 0.491861
#
# Coordination Sequence:
#
# PCOD8174128 Si02
#       7
#     4   8   8   8   8   4   8
#     4   9  20  38  60  85 113 146 181 229 291 348
#     4   9  17  31  49  72 105 146 187 230 279 336
#     4   9  18  30  49  75 106 144 186 229 281 334
#     4  11  22  40  65  89 122 163 199 246 302 365
#     4   9  18  34  56  81 109 143 188 230 275 340
#     4  11  24  42  66  95 122 154 201 251 304 366
#     4   9  18  32  53  82 113 147 193 240 288 343
#
# _framework density 20.128931999999999
#
# number of rings (size 3 to 8) (size 9 to 14) (size 15 to 20)
#    0.000    2.500    0.833    1.000    1.167    2.333 
#    1.500    5.833    0.000    0.000    0.000    0.000 
#    0.000    0.000    0.000    0.000    0.000    0.000 
#
# Total GULP energy -297489.839678 kJ/mol
# GULP energy per Si atom -12395.409987 kJ/mol
# Density = 2.008312 g / cm^3
# Si number density = 20.128932 Si / 1000 Ang^3
#
#
#
# Elastic Constant Matrix: (Units=GPa)
#
#
# Indices 1 2 3 4 5 6 
#
# 1 98.2807 27.0959 69.6786 0.0000 0.0000 0.0000
# 2 27.0959 78.7142 57.5916 0.0000 0.0000 0.0000
# 3 69.6786 57.5916 183.4630 0.0000 0.0000 0.0000
# 4 0.0000 0.0000 0.0000 -11.7794 0.0000 0.0000
# 5 0.0000 0.0000 0.0000 0.0000 31.0697 0.0000
# 6 0.0000 0.0000 0.0000 0.0000 0.0000 19.6076
#
#
#
# Elastic Compliance Matrix: (Units=1/GPa)
#
#
# Indices 1 2 3 4 5 6 
#
# 1 0.014012 -0.001207 -0.004943 0.000000 0.000000 0.000000
# 2 -0.001207 0.016596 -0.004751 0.000000 0.000000 0.000000
# 3 -0.004943 -0.004751 0.008819 0.000000 0.000000 0.000000
# 4 0.000000 0.000000 0.000000 -0.084894 0.000000 0.000000
# 5 0.000000 0.000000 0.000000 0.000000 0.032186 0.000000
# 6 0.000000 0.000000 0.000000 0.000000 0.000000 0.051001
#
#
# Mechanical properties :
#
#
# Convention : Reuss Voigt Hill
#
# Bulk Modulus (GPa) = 56.73663 74.35447 65.54555
# Shear Modulus (GPa) = 76.45602 21.51904 48.98753
#
# Velocity S-wave (km/s) = 6.16973 3.27320 4.93859
# Velocity P-wave (km/s) = 8.88830 7.16271 8.07175
#
# Compressibility (1/GPa) = 0.01762530
#
# Stress axis : x y z
#
# Youngs Moduli (GPa) = 71.36709 60.25553 113.38534
#
# Poissons Ratio (x) = 0.07272 0.56045
# Poissons Ratio (y) = 0.08613 0.53873
# Poissons Ratio (z) = 0.35276 0.28629
#
# Static dielectric constant tensor:
#      x y z
#    x 3.568430 0.000000 0.000000 
#    y 0.000000 3.668930 0.000000 
#    z 0.000000 0.000000 4.105300 
# 
# 
# High freq. dielectric constant tensor:
#      x y z
#    x 1.771640 0.000000 0.000000 
#    y 0.000000 1.780090 0.000000 
#    z 0.000000 0.000000 1.790600 
# 
# From -- ./inp_files/15213.got.cif
#   From: 2010.03.12/outbox.cif.g09.slc.cpg/sg35_8_cif.got.tgz:15213.got - 2010.04.14 02:02:04.
