data_PCOD8174166
_publ_section_title
;
Structure prediction by ZEFSAII (Michael W. Deem and Ramdas Pophale) SiO2 
 PCOD8174166
Probable space group: C M M 2
;
_chemical_formula_sum "Si O2"
_cell_formula_units_Z 32
_cell_length_a 30.000000
_cell_length_b 9.000000
_cell_length_c 12.000000
_cell_angle_alpha 90.000000
_cell_angle_beta 90.000000
_cell_angle_gamma 90.000000
_cell_volume 3240.000000
_symmetry_space_group_name_H-M "C M M 2"
_symmetry_group_IT_number 35
_symmetry_cell_setting 'orthorhombic'
loop_
_space_group_symop_operation_xyz
x,y,z
-x,-y,z
-x,y,z
x,-y,z
1/2+x,1/2+y,z
1/2-x,1/2-y,z
1/2-x,1/2+y,z
1/2+x,1/2-y,z
loop_
_atom_site_type_symbol
_atom_site_label
_atom_site_fract_x
_atom_site_fract_y
_atom_site_fract_z
Si Si1 0.892854 0.674861 0.578140
Si Si2 0.886546 0.825809 0.169302
Si Si3 0.052787 0.172999 0.383667
Si Si4 0.703629 0.820356 0.101823
Si Si5 0.815621 0.829227 0.868343
Si Si6 0.915843 0.168510 0.802327
Si Si7 0.550109 0.828820 0.999804
Si Si8 0.206153 0.324218 0.638602
O O1 0.899464 0.500000 0.594762
O O2 0.921560 0.727954 0.473585
O O3 0.913597 0.761224 0.681096
O O4 0.839442 0.711112 0.569244
O O5 0.918936 0.793256 0.273004
O O6 0.838977 0.739044 0.174091
O O7 0.914935 0.771457 0.064965
O O8 0.875866 0.000000 0.156082
O O9 0.000000 0.217916 0.371036
O O10 0.056030 0.000000 0.416034
O O11 0.750000 0.750000 0.150272
O O12 0.705036 0.000000 0.107673
O O13 0.699545 0.764538 0.975049
O O14 0.868626 0.827497 0.863963
O O15 0.795979 0.748597 0.760456
O O16 0.798197 0.000000 0.875536
O O17 0.933548 0.000000 0.791803
O O18 0.949958 0.268220 0.873453
O O19 0.500000 0.812453 0.047891
O O20 0.565612 0.000000 0.003356
O O21 0.213148 0.500000 0.649101
O O22 0.250000 0.250000 0.579311
#
# Coordination Sequence:
#
# PCOD8174166 Si02
#       8
#     8   8   8   8   8   8   8   8
#     4  10  22  39  61  89 122 157 200 253 306 360
#     4  11  23  42  65  90 121 157 201 253 308 366
#     4  10  23  44  69  93 117 152 200 252 306 367
#     4  12  24  38  59  87 123 163 204 250 300 360
#     4  10  19  33  54  83 119 161 205 247 294 353
#     4  10  20  35  58  85 120 163 203 247 301 362
#     4  11  23  37  57  88 124 161 200 246 305 369
#     4  10  20  34  54  84 121 161 203 246 295 353
#
# _framework density 9.8765429999999999
#
# number of rings (size 3 to 8) (size 9 to 14) (size 15 to 20)
#    0.000    1.500    1.250    4.125    0.000    5.750 
#    0.000    0.625    0.000    1.500    0.000    0.000 
#    0.000    0.000    0.000    0.000    0.000    0.000 
#
# Total GULP energy -396714.920407 kJ/mol
# GULP energy per Si atom -12397.341263 kJ/mol
# Density = 0.985406 g / cm^3
# Si number density = 9.876543 Si / 1000 Ang^3
#
#
#
# Elastic Constant Matrix: (Units=GPa)
#
#
# Indices 1 2 3 4 5 6 
#
# 1 145.9436 57.5374 46.0338 0.0000 0.0000 0.0000
# 2 57.5374 147.2281 41.5431 0.0000 0.0000 0.0000
# 3 46.0338 41.5431 71.8453 0.0000 0.0000 0.0000
# 4 0.0000 0.0000 0.0000 29.4655 0.0000 0.0000
# 5 0.0000 0.0000 0.0000 0.0000 28.3057 0.0000
# 6 0.0000 0.0000 0.0000 0.0000 0.0000 40.6352
#
#
#
# Elastic Compliance Matrix: (Units=1/GPa)
#
#
# Indices 1 2 3 4 5 6 
#
# 1 0.009201 -0.002309 -0.004560 0.000000 0.000000 0.000000
# 2 -0.002309 0.008696 -0.003549 0.000000 0.000000 0.000000
# 3 -0.004560 -0.003549 0.018893 0.000000 0.000000 0.000000
# 4 0.000000 0.000000 0.000000 0.033938 0.000000 0.000000
# 5 0.000000 0.000000 0.000000 0.000000 0.035329 0.000000
# 6 0.000000 0.000000 0.000000 0.000000 0.000000 0.024609
#
#
# Mechanical properties :
#
#
# Convention : Reuss Voigt Hill
#
# Bulk Modulus (GPa) = 62.68216 72.80508 67.74362
# Shear Modulus (GPa) = 31.88405 34.34146 33.11275
#
# Velocity S-wave (km/s) = 4.02198 4.17410 4.09875
# Velocity P-wave (km/s) = 7.30549 7.75683 7.53454
#
# Compressibility (1/GPa) = 0.01595350
#
# Stress axis : x y z
#
# Youngs Moduli (GPa) = 108.68873 114.99689 52.93075
#
# Poissons Ratio (x) = 0.26552 0.24137
# Poissons Ratio (y) = 0.25095 0.18784
# Poissons Ratio (z) = 0.49563 0.40810
#
# Static dielectric constant tensor:
#      x y z
#    x 4.089550 0.000000 0.000000 
#    y 0.000000 3.827160 0.000000 
#    z 0.000000 0.000000 3.406840 
# 
# 
# High freq. dielectric constant tensor:
#      x y z
#    x 1.798640 0.000000 0.000000 
#    y 0.000000 1.794340 0.000000 
#    z 0.000000 0.000000 1.747290 
# 
# From -- ./inp_files/14567.got.cif
#   From: 2010.03.12/outbox.ucp.g09.slc.cvg/sg35_8_cif.got.tgz:14567.got - 2010.05.04 21:11:10.
