data_PCOD8174788
_publ_section_title
;
Structure prediction by ZEFSAII (Michael W. Deem and Ramdas Pophale) SiO2 
 PCOD8174788
Probable space group: C M C 21
;
_chemical_formula_sum "Si O2"
_cell_formula_units_Z 64
_cell_length_a 8.728813
_cell_length_b 23.963734
_cell_length_c 15.523544
_cell_angle_alpha 90.000000
_cell_angle_beta 90.000000
_cell_angle_gamma 90.000000
_cell_volume 3247.136585
_symmetry_space_group_name_H-M "C M C 21"
_symmetry_group_IT_number 36
_symmetry_cell_setting 'orthorhombic'
loop_
_space_group_symop_operation_xyz
x,y,z
-x,-y,1/2+z
x,-y,1/2+z
-x,y,z
1/2+x,1/2+y,z
1/2-x,1/2-y,1/2+z
1/2+x,1/2-y,1/2+z
1/2-x,1/2+y,z
loop_
_atom_site_type_symbol
_atom_site_label
_atom_site_fract_x
_atom_site_fract_y
_atom_site_fract_z
Si Si1 0.180195 0.752888 0.635470
Si Si2 0.182208 0.427837 0.729663
Si Si3 0.318626 0.860579 0.564506
Si Si4 0.181806 0.444790 0.236027
Si Si5 0.822023 0.363150 0.893306
Si Si6 0.677346 0.252528 0.315797
Si Si7 0.682339 0.868294 0.081616
Si Si8 0.819076 0.127868 0.885054
O O1 0.261025 0.797366 0.573665
O O2 0.221989 0.764388 0.734081
O O3 0.243693 0.691929 0.611079
O O4 0.000000 0.758040 0.621099
O O5 0.244861 0.397462 0.644098
O O6 0.236630 0.491616 0.729497
O O7 0.253391 0.397357 0.814176
O O8 0.000000 0.423350 0.730221
O O9 0.500000 0.861612 0.560977
O O10 0.253925 0.886868 0.476903
O O11 0.240387 0.414432 0.149147
O O12 0.261145 0.417822 0.318230
O O13 0.000000 0.439171 0.246571
O O14 0.797378 0.296573 0.884986
O O15 0.000000 0.377838 0.892479
O O16 0.752659 0.381932 0.985823
O O17 0.500000 0.256201 0.287431
O O18 0.735489 0.310601 0.355586
O O19 0.500000 0.866905 0.079365
O O20 0.000000 0.125130 0.892917
#
# Coordination Sequence:
#
# PCOD8174788 Si02
#       8
#     8   8   8   8   8   8   8   8
#     4  11  20  33  55  85 115 148 187 230 288 347
#     4   9  19  34  57  84 110 144 194 239 279 329
#     4  11  22  38  59  87 117 151 192 238 287 343
#     4  10  20  37  58  84 112 147 194 242 282 331
#     4   9  16  31  54  80 107 141 184 233 277 328
#     4  10  19  34  57  80 110 149 191 231 282 342
#     4   9  18  31  52  80 113 145 180 226 283 338
#     4  11  23  38  58  86 116 153 192 235 292 348
#
# _framework density 19.709672000000001
#
# number of rings (size 3 to 8) (size 9 to 14) (size 15 to 20)
#    0.000    2.000    2.500    1.875    0.000    3.500 
#    0.000    5.000    0.000    0.750    0.000    0.000 
#    0.000    0.000    0.000    0.000    0.000    0.000 
#
# Total GULP energy -396825.687196 kJ/mol
# GULP energy per Si atom -12400.802725 kJ/mol
# Density = 1.966481 g / cm^3
# Si number density = 19.709672 Si / 1000 Ang^3
#
#
#
# Elastic Constant Matrix: (Units=GPa)
#
#
# Indices 1 2 3 4 5 6 
#
# 1 36.6261 18.5472 22.3639 0.0000 0.0000 0.0000
# 2 18.5472 127.7729 53.0028 0.0000 0.0000 0.0000
# 3 22.3639 53.0028 152.7739 0.0000 0.0000 0.0000
# 4 0.0000 0.0000 0.0000 19.3269 0.0000 0.0000
# 5 0.0000 0.0000 0.0000 0.0000 23.0236 0.0000
# 6 0.0000 0.0000 0.0000 0.0000 0.0000 21.8622
#
#
#
# Elastic Compliance Matrix: (Units=1/GPa)
#
#
# Indices 1 2 3 4 5 6 
#
# 1 0.030971 -0.003055 -0.003474 0.000000 0.000000 0.000000
# 2 -0.003055 0.009443 -0.002829 0.000000 0.000000 0.000000
# 3 -0.003474 -0.002829 0.008036 0.000000 0.000000 0.000000
# 4 0.000000 0.000000 0.000000 0.051741 0.000000 0.000000
# 5 0.000000 0.000000 0.000000 0.000000 0.043434 0.000000
# 6 0.000000 0.000000 0.000000 0.000000 0.000000 0.045741
#
#
# Mechanical properties :
#
#
# Convention : Reuss Voigt Hill
#
# Bulk Modulus (GPa) = 33.63076 56.11120 44.87098
# Shear Modulus (GPa) = 22.93652 27.72647 25.33149
#
# Velocity S-wave (km/s) = 3.41503 3.75473 3.58890
# Velocity P-wave (km/s) = 5.71402 6.87953 6.32369
#
# Compressibility (1/GPa) = 0.02973468
#
# Stress axis : x y z
#
# Youngs Moduli (GPa) = 32.28835 105.89463 124.44516
#
# Poissons Ratio (x) = 0.32347 0.43231
# Poissons Ratio (y) = 0.09863 0.35207
# Poissons Ratio (z) = 0.11217 0.29959
#
# Static dielectric constant tensor:
#      x y z
#    x 3.162810 0.000000 0.000000 
#    y 0.000000 3.682300 0.000000 
#    z 0.000000 0.000000 3.885160 
# 
# 
# High freq. dielectric constant tensor:
#      x y z
#    x 1.725270 0.000000 0.000000 
#    y 0.000000 1.767690 0.000000 
#    z 0.000000 0.000000 1.785140 
# 
# From -- ./inp_files/11032.got.cif
#   From: 2010.03.12/outbox.cif.g09.slc.cpg/sg36_6_cif.got.tgz:11032.got - 2010.04.14 02:13:53.
