data_PCOD8174014
_publ_section_title
;
Structure prediction by ZEFSAII (Michael W. Deem and Ramdas Pophale) SiO2 
 PCOD8174014
Probable space group: C M M 2
;
_chemical_formula_sum "Si O2"
_cell_formula_units_Z 48
_cell_length_a 8.769022
_cell_length_b 18.672504
_cell_length_c 15.134709
_cell_angle_alpha 90.000000
_cell_angle_beta 90.000000
_cell_angle_gamma 90.000000
_cell_volume 2478.151173
_symmetry_space_group_name_H-M "C M M 2"
_symmetry_group_IT_number 35
_symmetry_cell_setting 'orthorhombic'
loop_
_space_group_symop_operation_xyz
x,y,z
-x,-y,z
-x,y,z
x,-y,z
1/2+x,1/2+y,z
1/2-x,1/2-y,z
1/2-x,1/2+y,z
1/2+x,1/2-y,z
loop_
_atom_site_type_symbol
_atom_site_label
_atom_site_fract_x
_atom_site_fract_y
_atom_site_fract_z
Si Si1 0.180199 0.673668 0.481410
Si Si2 0.178927 0.172615 0.161031
Si Si3 0.178759 0.418731 0.010423
Si Si4 0.821501 0.824807 0.666391
Si Si5 0.671020 0.916032 0.809374
Si Si6 0.822360 0.916762 0.331021
O O1 0.250000 0.750000 0.452833
O O2 0.244070 0.648513 0.575952
O O3 0.224154 0.613378 0.411436
O O4 0.000000 0.681699 0.486875
O O5 0.250000 0.250000 0.174468
O O6 0.231906 0.136881 0.070442
O O7 0.230228 0.122495 0.241849
O O8 0.000000 0.182092 0.157464
O O9 0.233171 0.500000 0.030009
O O10 0.000000 0.412005 0.028780
O O11 0.216918 0.397722 0.909711
O O12 0.750000 0.750000 0.696691
O O13 0.792108 0.880965 0.743932
O O14 0.000000 0.816038 0.649769
O O15 0.500000 0.887568 0.789599
O O16 0.676829 0.000000 0.793917
O O17 0.000000 0.903565 0.350783
O O18 0.784653 0.000000 0.319447
#
# Coordination Sequence:
#
# PCOD8174014 Si02
#       6
#     8   8   8   8   8   8
#     4  11  22  38  60  84 112 147 187 230 278 331
#     4  11  23  38  58  84 114 149 187 230 278 329
#     4   9  19  37  60  84 112 147 186 231 281 331
#     4  11  22  37  58  83 113 149 188 231 279 330
#     4   9  19  37  59  83 113 148 186 230 280 332
#     4  10  22  40  60  84 114 146 183 229 279 330
#
# _framework density 19.369277
#
# number of rings (size 3 to 8) (size 9 to 14) (size 15 to 20)
#    0.000    1.833    0.000    6.500    0.000    6.333 
#    0.000    1.667    0.000    0.000    0.000    0.000 
#    0.000    0.000    0.000    0.000    0.000    0.000 
#
# Total GULP energy -297701.902758 kJ/mol
# GULP energy per Si atom -12404.245948 kJ/mol
# Density = 1.932519 g / cm^3
# Si number density = 19.369277 Si / 1000 Ang^3
#
#
#
# Elastic Constant Matrix: (Units=GPa)
#
#
# Indices 1 2 3 4 5 6 
#
# 1 113.5308 58.6569 61.2546 0.0000 0.0000 0.0000
# 2 58.6569 114.5563 80.3161 0.0000 0.0000 0.0000
# 3 61.2546 80.3161 129.0348 0.0000 0.0000 0.0000
# 4 0.0000 0.0000 0.0000 41.6959 0.0000 0.0000
# 5 0.0000 0.0000 0.0000 0.0000 31.4294 0.0000
# 6 0.0000 0.0000 0.0000 0.0000 0.0000 25.7128
#
#
#
# Elastic Compliance Matrix: (Units=1/GPa)
#
#
# Indices 1 2 3 4 5 6 
#
# 1 0.012833 -0.004081 -0.003552 0.000000 0.000000 0.000000
# 2 -0.004081 0.016786 -0.008511 0.000000 0.000000 0.000000
# 3 -0.003552 -0.008511 0.014734 0.000000 0.000000 0.000000
# 4 0.000000 0.000000 0.000000 0.023983 0.000000 0.000000
# 5 0.000000 0.000000 0.000000 0.000000 0.031817 0.000000
# 6 0.000000 0.000000 0.000000 0.000000 0.000000 0.038891
#
#
# Mechanical properties :
#
#
# Convention : Reuss Voigt Hill
#
# Bulk Modulus (GPa) = 82.88367 84.17521 83.52944
# Shear Modulus (GPa) = 28.51387 30.22724 29.37056
#
# Velocity S-wave (km/s) = 3.84098 3.95470 3.89826
# Velocity P-wave (km/s) = 7.90918 8.02529 7.96745
#
# Compressibility (1/GPa) = 0.01206510
#
# Stress axis : x y z
#
# Youngs Moduli (GPa) = 77.92446 59.57395 67.87169
#
# Poissons Ratio (x) = 0.24309 0.24109
# Poissons Ratio (y) = 0.31797 0.57766
# Poissons Ratio (z) = 0.27680 0.50704
#
# Static dielectric constant tensor:
#      x y z
#    x 3.579370 0.000000 0.000000 
#    y 0.000000 3.477450 0.000000 
#    z 0.000000 0.000000 3.628310 
# 
# 
# High freq. dielectric constant tensor:
#      x y z
#    x 1.756180 0.000000 0.000000 
#    y 0.000000 1.753870 0.000000 
#    z 0.000000 0.000000 1.764500 
# 
# From -- ./inp_files/15089.got.cif
#   From: 2010.03.12/outbox.cif.g09.slc.cpg/sg35_8_cif.got.tgz:15089.got - 2010.04.14 02:02:04.
