data_PCOD8174841
_publ_section_title
;
Structure prediction by ZEFSAII (Michael W. Deem and Ramdas Pophale) SiO2 
 PCOD8174841
Probable space group: C M C 21
;
_chemical_formula_sum "Si O2"
_cell_formula_units_Z 64
_cell_length_a 9.143660
_cell_length_b 32.304260
_cell_length_c 10.968189
_cell_angle_alpha 90.000000
_cell_angle_beta 90.000000
_cell_angle_gamma 90.000000
_cell_volume 3239.774563
_symmetry_space_group_name_H-M "C M C 21"
_symmetry_group_IT_number 36
_symmetry_cell_setting 'orthorhombic'
loop_
_space_group_symop_operation_xyz
x,y,z
-x,-y,1/2+z
x,-y,1/2+z
-x,y,z
1/2+x,1/2+y,z
1/2-x,1/2-y,1/2+z
1/2+x,1/2-y,1/2+z
1/2-x,1/2+y,z
loop_
_atom_site_type_symbol
_atom_site_label
_atom_site_fract_x
_atom_site_fract_y
_atom_site_fract_z
Si Si1 0.828462 0.627801 0.125000
Si Si2 0.171095 0.917636 0.823491
Si Si3 0.326851 0.779399 0.684787
Si Si4 0.167887 0.637384 0.514745
Si Si5 0.335017 0.417728 0.173951
Si Si6 0.171507 0.987823 0.998049
Si Si7 0.332134 0.232872 0.463175
Si Si8 0.834938 0.077412 0.957593
O O1 0.754317 0.589863 0.197745
O O2 0.781797 0.672385 0.176626
O O3 0.000000 0.623123 0.126989
O O4 0.763766 0.617651 0.991333
O O5 0.000000 0.910942 0.804421
O O6 0.229800 0.882973 0.914641
O O7 0.207194 0.963727 0.871603
O O8 0.500000 0.774123 0.673229
O O9 0.257132 0.758257 0.565081
O O10 0.276718 0.762545 0.820180
O O11 0.229596 0.621328 0.644500
O O12 0.183350 0.686166 0.506308
O O13 0.000000 0.623931 0.495092
O O14 0.500000 0.408777 0.124511
O O15 0.271949 0.459067 0.108597
O O16 0.337281 0.425937 0.314268
O O17 0.000000 0.994853 0.008941
O O18 0.239046 0.033932 0.002285
O O19 0.500000 0.247663 0.468460
O O20 0.000000 0.083811 0.007385
#
# Coordination Sequence:
#
# PCOD8174841 Si02
#       8
#     8   8   8   8   8   8   8   8
#     4  11  23  40  58  82 121 158 190 239 303 359
#     4  10  19  34  61  88 109 144 196 239 278 340
#     4  10  23  43  63  87 123 160 200 252 308 366
#     4  10  19  36  60  83 115 151 184 233 295 351
#     4   9  19  35  54  82 116 149 197 248 288 345
#     4   8  17  33  56  83 110 146 192 244 291 333
#     4  10  22  41  63  90 121 156 200 251 306 366
#     4  10  21  36  57  83 115 154 199 248 293 344
#
# _framework density 19.754462
#
# number of rings (size 3 to 8) (size 9 to 14) (size 15 to 20)
#    0.000    2.250    1.250    1.875    1.750    4.000 
#    0.000    8.125    0.000    0.000    0.000    0.000 
#    0.000    0.000    0.000    0.000    0.000    0.000 
#
# Total GULP energy -396472.572709 kJ/mol
# GULP energy per Si atom -12389.767897 kJ/mol
# Density = 1.970950 g / cm^3
# Si number density = 19.754462 Si / 1000 Ang^3
#
#
#
# Elastic Constant Matrix: (Units=GPa)
#
#
# Indices 1 2 3 4 5 6 
#
# 1 56.8638 44.3650 44.1053 0.0000 0.0000 0.0000
# 2 44.3650 79.0462 52.4739 0.0000 0.0000 0.0000
# 3 44.1053 52.4739 109.2900 0.0000 0.0000 0.0000
# 4 0.0000 0.0000 0.0000 27.2542 0.0000 0.0000
# 5 0.0000 0.0000 0.0000 0.0000 30.7581 0.0000
# 6 0.0000 0.0000 0.0000 0.0000 0.0000 26.5476
#
#
#
# Elastic Compliance Matrix: (Units=1/GPa)
#
#
# Indices 1 2 3 4 5 6 
#
# 1 0.034388 -0.014808 -0.006768 0.000000 0.000000 0.000000
# 2 -0.014808 0.024946 -0.006001 0.000000 0.000000 0.000000
# 3 -0.006768 -0.006001 0.014763 0.000000 0.000000 0.000000
# 4 0.000000 0.000000 0.000000 0.036692 0.000000 0.000000
# 5 0.000000 0.000000 0.000000 0.000000 0.032512 0.000000
# 6 0.000000 0.000000 0.000000 0.000000 0.000000 0.037668
#
#
# Mechanical properties :
#
#
# Convention : Reuss Voigt Hill
#
# Bulk Modulus (GPa) = 52.79182 58.56536 55.67859
# Shear Modulus (GPa) = 20.62391 23.86238 22.24314
#
# Velocity S-wave (km/s) = 3.23462 3.47933 3.35920
# Velocity P-wave (km/s) = 6.38219 6.77141 6.57968
#
# Compressibility (1/GPa) = 0.01894233
#
# Stress axis : x y z
#
# Youngs Moduli (GPa) = 29.07961 40.08712 67.73744
#
# Poissons Ratio (x) = 0.59359 0.45846
# Poissons Ratio (y) = 0.43060 0.40653
# Poissons Ratio (z) = 0.19682 0.24058
#
# Static dielectric constant tensor:
#      x y z
#    x 3.600800 0.000000 0.000000 
#    y 0.000000 3.712240 0.000000 
#    z 0.000000 0.000000 3.953970 
# 
# 
# High freq. dielectric constant tensor:
#      x y z
#    x 1.749680 0.000000 0.000000 
#    y 0.000000 1.766140 0.000000 
#    z 0.000000 0.000000 1.780830 
# 
# From -- ./inp_files/7258.got.cif
#   From: 2010.03.12/outbox.cif.g09.slc.cpg/sg36_4_cif.got.tgz:7258.got - 2010.04.14 02:13:53.
