data_PCOD8174858
_publ_section_title
;
Structure prediction by ZEFSAII (Michael W. Deem and Ramdas Pophale) SiO2 
 PCOD8174858
Probable space group: C M C 21
;
_chemical_formula_sum "Si O2"
_cell_formula_units_Z 64
_cell_length_a 8.843802
_cell_length_b 23.753642
_cell_length_c 14.557249
_cell_angle_alpha 90.000000
_cell_angle_beta 90.000000
_cell_angle_gamma 90.000000
_cell_volume 3058.077787
_symmetry_space_group_name_H-M "C M C 21"
_symmetry_group_IT_number 36
_symmetry_cell_setting 'orthorhombic'
loop_
_space_group_symop_operation_xyz
x,y,z
-x,-y,1/2+z
x,-y,1/2+z
-x,y,z
1/2+x,1/2+y,z
1/2-x,1/2-y,1/2+z
1/2+x,1/2-y,1/2+z
1/2-x,1/2+y,z
loop_
_atom_site_type_symbol
_atom_site_label
_atom_site_fract_x
_atom_site_fract_y
_atom_site_fract_z
Si Si1 0.822699 0.542908 0.713450
Si Si2 0.823394 0.988635 0.880206
Si Si3 0.321643 0.722864 0.303346
Si Si4 0.322619 0.912701 0.023105
Si Si5 0.327101 0.393495 0.462979
Si Si6 0.825282 0.808443 0.610337
Si Si7 0.676465 0.844852 0.299886
Si Si8 0.819942 0.203672 0.507054
O O1 0.737621 0.496362 0.775717
O O2 0.789821 0.540959 0.604153
O O3 0.753694 0.603657 0.742677
O O4 0.000000 0.537053 0.735146
O O5 0.782992 0.041543 0.946412
O O6 0.000000 0.976555 0.874077
O O7 0.746186 0.934867 0.927452
O O8 0.500000 0.726854 0.317647
O O9 0.276553 0.683117 0.217424
O O10 0.257739 0.784178 0.271969
O O11 0.255616 0.704274 0.401674
O O12 0.500000 0.903702 0.011722
O O13 0.250146 0.852778 0.051346
O O14 0.500000 0.384446 0.431167
O O15 0.302388 0.370809 0.566664
O O16 0.216569 0.353376 0.406218
O O17 0.731265 0.759569 0.560335
O O18 0.000000 0.789558 0.604656
O O19 0.500000 0.845990 0.284014
O O20 0.000000 0.200044 0.511456
#
# Coordination Sequence:
#
# PCOD8174858 Si02
#       8
#     8   8   8   8   8   8   8   8
#     4   9  19  36  61  87 110 150 200 240 287 346
#     4  10  21  38  59  87 118 148 190 248 301 344
#     4   9  18  32  52  79 114 153 188 222 278 348
#     4  11  23  41  62  84 117 158 200 241 290 355
#     4   9  18  32  53  79 107 138 180 231 283 334
#     4  10  19  35  57  81 113 154 191 226 282 353
#     4   9  15  29  53  77 105 142 186 231 272 327
#     4  11  22  37  57  86 120 153 193 243 293 341
#
# _framework density 20.928177999999999
#
# number of rings (size 3 to 8) (size 9 to 14) (size 15 to 20)
#    0.000    2.250    1.250    1.875    0.000    3.500 
#    2.250    4.375    0.000    0.000    0.000    0.000 
#    0.000    0.000    0.000    0.000    0.000    0.000 
#
# Total GULP energy -396503.910590 kJ/mol
# GULP energy per Si atom -12390.747206 kJ/mol
# Density = 2.088054 g / cm^3
# Si number density = 20.928178 Si / 1000 Ang^3
#
#
#
# Elastic Constant Matrix: (Units=GPa)
#
#
# Indices 1 2 3 4 5 6 
#
# 1 61.3566 14.6660 22.1620 0.0000 0.0000 0.0000
# 2 14.6660 35.7044 -3.0336 0.0000 0.0000 0.0000
# 3 22.1620 -3.0336 88.4259 0.0000 0.0000 0.0000
# 4 0.0000 0.0000 0.0000 29.7969 0.0000 0.0000
# 5 0.0000 0.0000 0.0000 0.0000 26.0052 0.0000
# 6 0.0000 0.0000 0.0000 0.0000 0.0000 25.3432
#
#
#
# Elastic Compliance Matrix: (Units=1/GPa)
#
#
# Indices 1 2 3 4 5 6 
#
# 1 0.020359 -0.008822 -0.005405 0.000000 0.000000 0.000000
# 2 -0.008822 0.031912 0.003306 0.000000 0.000000 0.000000
# 3 -0.005405 0.003306 0.012777 0.000000 0.000000 0.000000
# 4 0.000000 0.000000 0.000000 0.033561 0.000000 0.000000
# 5 0.000000 0.000000 0.000000 0.000000 0.038454 0.000000
# 6 0.000000 0.000000 0.000000 0.000000 0.000000 0.039458
#
#
# Mechanical properties :
#
#
# Convention : Reuss Voigt Hill
#
# Bulk Modulus (GPa) = 23.14504 28.11951 25.63227
# Shear Modulus (GPa) = 23.49997 26.34189 24.92093
#
# Velocity S-wave (km/s) = 3.35459 3.55164 3.45452
# Velocity P-wave (km/s) = 5.10760 5.50311 5.30904
#
# Compressibility (1/GPa) = 0.04320581
#
# Stress axis : x y z
#
# Youngs Moduli (GPa) = 49.11766 31.33576 78.26551
#
# Poissons Ratio (x) = 0.27645 0.42304
# Poissons Ratio (y) = 0.43332 -0.25873
# Poissons Ratio (z) = 0.26549 -0.10359
#
# Static dielectric constant tensor:
#      x y z
#    x 3.528770 0.000000 0.000000 
#    y 0.000000 3.712450 0.000000 
#    z 0.000000 0.000000 3.939680 
# 
# 
# High freq. dielectric constant tensor:
#      x y z
#    x 1.797230 0.000000 0.000000 
#    y 0.000000 1.805550 0.000000 
#    z 0.000000 0.000000 1.823730 
# 
# From -- ./inp_files/11106.got.cif
#   From: 2010.03.12/outbox.cif.g09.slc.cpg/sg36_6_cif.got.tgz:11106.got - 2010.04.14 02:13:53.
