data_PCOD8174544
_publ_section_title
;
Structure prediction by ZEFSAII (Michael W. Deem and Ramdas Pophale) SiO2 
 PCOD8174544
Probable space group: C M C 21
;
_chemical_formula_sum "Si O2"
_cell_formula_units_Z 28
_cell_length_a 14.051515
_cell_length_b 22.748706
_cell_length_c 5.159683
_cell_angle_alpha 90.000000
_cell_angle_beta 90.000000
_cell_angle_gamma 90.000000
_cell_volume 1649.312193
_symmetry_space_group_name_H-M "C M C 21"
_symmetry_group_IT_number 36
_symmetry_cell_setting 'orthorhombic'
loop_
_space_group_symop_operation_xyz
x,y,z
-x,-y,1/2+z
x,-y,1/2+z
-x,y,z
1/2+x,1/2+y,z
1/2-x,1/2-y,1/2+z
1/2+x,1/2-y,1/2+z
1/2-x,1/2+y,z
loop_
_atom_site_type_symbol
_atom_site_label
_atom_site_fract_x
_atom_site_fract_y
_atom_site_fract_z
Si Si1 0.500000 0.538061 0.004730
Si Si2 0.394211 0.748237 0.150338
Si Si3 0.244294 0.827317 0.929063
Si Si4 0.339495 0.367898 0.437455
O O1 0.500000 0.514035 0.296517
O O2 0.594855 0.575686 0.967518
O O3 0.500000 0.765824 0.245211
O O4 0.326181 0.730022 0.394382
O O5 0.349048 0.803320 0.995887
O O6 0.402104 0.691587 0.961462
O O7 0.241641 0.866070 0.665037
O O8 0.209004 0.869968 0.157480
#
# Coordination Sequence:
#
# PCOD8174544 Si02
#       4
#     4   8   8   8
#     4  12  24  36  54  80  98 144 198 218 266 328
#     4  10  19  31  53  76 105 149 172 209 259 331
#     4  10  19  33  47  77 102 147 178 197 270 329
#     4  10  19  35  48  66 111 137 161 232 255 305
#
# _framework density 16.976773000000001
#
# number of rings (size 3 to 8) (size 9 to 14) (size 15 to 20)
#    1.714    0.000    4.286    1.714    2.000    0.000 
#    0.000    0.000    0.000    0.000    0.000    0.000 
#    0.000   22.857    0.000    0.000    0.000    0.000 
#
# Total GULP energy -173443.818948 kJ/mol
# GULP energy per Si atom -12388.844211 kJ/mol
# Density = 1.693813 g / cm^3
# Si number density = 16.976773 Si / 1000 Ang^3
#
#
#
# Elastic Constant Matrix: (Units=GPa)
#
#
# Indices 1 2 3 4 5 6 
#
# 1 82.7170 17.4439 11.3322 0.0000 0.0000 0.0000
# 2 17.4439 51.8082 9.6547 0.0000 0.0000 0.0000
# 3 11.3322 9.6547 93.9898 0.0000 0.0000 0.0000
# 4 0.0000 0.0000 0.0000 28.7009 0.0000 0.0000
# 5 0.0000 0.0000 0.0000 0.0000 16.9893 0.0000
# 6 0.0000 0.0000 0.0000 0.0000 0.0000 24.8539
#
#
#
# Elastic Compliance Matrix: (Units=1/GPa)
#
#
# Indices 1 2 3 4 5 6 
#
# 1 0.013135 -0.004208 -0.001151 0.000000 0.000000 0.000000
# 2 -0.004208 0.021027 -0.001653 0.000000 0.000000 0.000000
# 3 -0.001151 -0.001653 0.010948 0.000000 0.000000 0.000000
# 4 0.000000 0.000000 0.000000 0.034842 0.000000 0.000000
# 5 0.000000 0.000000 0.000000 0.000000 0.058860 0.000000
# 6 0.000000 0.000000 0.000000 0.000000 0.000000 0.040235
#
#
# Mechanical properties :
#
#
# Convention : Reuss Voigt Hill
#
# Bulk Modulus (GPa) = 32.16913 33.93075 33.04994
# Shear Modulus (GPa) = 24.57818 26.78110 25.67964
#
# Velocity S-wave (km/s) = 3.80906 3.97610 3.89348
# Velocity P-wave (km/s) = 6.19155 6.41164 6.30256
#
# Compressibility (1/GPa) = 0.03108571
#
# Stress axis : x y z
#
# Youngs Moduli (GPa) = 76.13526 47.55858 91.34070
#
# Poissons Ratio (x) = 0.20012 0.10517
# Poissons Ratio (y) = 0.32036 0.15095
# Poissons Ratio (z) = 0.08766 0.07859
#
# Static dielectric constant tensor:
#      x y z
#    x 2.870800 0.000000 0.000000 
#    y 0.000000 2.776990 0.000000 
#    z 0.000000 0.000000 3.195200 
# 
# 
# High freq. dielectric constant tensor:
#      x y z
#    x 1.628180 0.000000 0.000000 
#    y 0.000000 1.608010 0.000000 
#    z 0.000000 0.000000 1.665700 
# 
# From -- ./inp_files/385.got.cif
#   From: 2010.03.12/outbox.cif.g09.slc.cpg/sg36_1_cif.got.tgz:385.got - 2010.04.14 02:13:53.
