data_PCOD8174622
_publ_section_title
;
Structure prediction by ZEFSAII (Michael W. Deem and Ramdas Pophale) SiO2 
 PCOD8174622
Probable space group: C M C 21
;
_chemical_formula_sum "Si O2"
_cell_formula_units_Z 56
_cell_length_a 13.290230
_cell_length_b 20.290456
_cell_length_c 11.047559
_cell_angle_alpha 90.000000
_cell_angle_beta 90.000000
_cell_angle_gamma 90.000000
_cell_volume 2979.138087
_symmetry_space_group_name_H-M "C M C 21"
_symmetry_group_IT_number 36
_symmetry_cell_setting 'orthorhombic'
loop_
_space_group_symop_operation_xyz
x,y,z
-x,-y,1/2+z
x,-y,1/2+z
-x,y,z
1/2+x,1/2+y,z
1/2-x,1/2-y,1/2+z
1/2+x,1/2-y,1/2+z
1/2-x,1/2+y,z
loop_
_atom_site_type_symbol
_atom_site_label
_atom_site_fract_x
_atom_site_fract_y
_atom_site_fract_z
Si Si1 0.887050 0.285590 0.021970
Si Si2 0.760593 0.674804 0.969094
Si Si3 0.612850 0.750008 0.299421
Si Si4 0.285599 0.475700 0.430189
Si Si5 0.381799 0.922246 0.909296
Si Si6 0.618413 0.523123 0.179408
Si Si7 0.247404 0.142278 0.225766
O O1 0.878220 0.276088 0.164186
O O2 0.000000 0.275791 0.974271
O O3 0.824561 0.230811 0.947686
O O4 0.855414 0.361573 0.998577
O O5 0.858439 0.691011 0.889488
O O6 0.722846 0.602722 0.933246
O O7 0.793493 0.678929 0.109392
O O8 0.500000 0.725686 0.328585
O O9 0.694353 0.691864 0.320367
O O10 0.176779 0.511081 0.445325
O O11 0.348333 0.504395 0.546233
O O12 0.334686 0.489368 0.299204
O O13 0.500000 0.938474 0.902070
O O14 0.339104 0.899472 0.779396
O O15 0.500000 0.517091 0.190072
O O16 0.654159 0.598377 0.179376
#
# Coordination Sequence:
#
# PCOD8174622 Si02
#       7
#     8   8   8   8   8   8   8
#     4   9  19  35  58  80 105 147 188 227 280 339
#     4  10  20  35  56  81 114 143 186 237 282 331
#     4  10  19  32  54  81 108 139 184 234 280 330
#     4  10  23  36  57  87 118 150 192 243 284 346
#     4  10  20  38  59  80 112 154 191 228 283 348
#     4  10  20  38  60  83 115 152 189 232 294 348
#     4   9  19  36  56  82 112 149 184 231 283 346
#
# _framework density 18.797383
#
# number of rings (size 3 to 8) (size 9 to 14) (size 15 to 20)
#    0.000    2.286    1.429    0.857    2.000    5.143 
#    0.000    5.714    0.000    0.000    0.000    0.000 
#    0.000    0.000    0.000    0.000    0.000    0.000 
#
# Total GULP energy -346904.860493 kJ/mol
# GULP energy per Si atom -12389.459303 kJ/mol
# Density = 1.875460 g / cm^3
# Si number density = 18.797383 Si / 1000 Ang^3
#
#
#
# Elastic Constant Matrix: (Units=GPa)
#
#
# Indices 1 2 3 4 5 6 
#
# 1 114.9992 44.9516 46.9594 0.0000 0.0000 0.0000
# 2 44.9516 78.0766 30.3958 0.0000 0.0000 0.0000
# 3 46.9594 30.3958 92.4931 0.0000 0.0000 0.0000
# 4 0.0000 0.0000 0.0000 29.1560 0.0000 0.0000
# 5 0.0000 0.0000 0.0000 0.0000 27.3924 0.0000
# 6 0.0000 0.0000 0.0000 0.0000 0.0000 26.6810
#
#
#
# Elastic Compliance Matrix: (Units=1/GPa)
#
#
# Indices 1 2 3 4 5 6 
#
# 1 0.012762 -0.005533 -0.004661 0.000000 0.000000 0.000000
# 2 -0.005533 0.017086 -0.002806 0.000000 0.000000 0.000000
# 3 -0.004661 -0.002806 0.014100 0.000000 0.000000 0.000000
# 4 0.000000 0.000000 0.000000 0.034298 0.000000 0.000000
# 5 0.000000 0.000000 0.000000 0.000000 0.036507 0.000000
# 6 0.000000 0.000000 0.000000 0.000000 0.000000 0.037480
#
#
# Mechanical properties :
#
#
# Convention : Reuss Voigt Hill
#
# Bulk Modulus (GPa) = 55.71548 58.90916 57.31232
# Shear Modulus (GPa) = 27.14234 27.53001 27.33618
#
# Velocity S-wave (km/s) = 3.80405 3.83112 3.81761
# Velocity P-wave (km/s) = 6.99991 7.13982 7.07021
#
# Compressibility (1/GPa) = 0.01794833
#
# Stress axis : x y z
#
# Youngs Moduli (GPa) = 78.35950 58.52842 70.92157
#
# Poissons Ratio (x) = 0.32383 0.33056
# Poissons Ratio (y) = 0.43355 0.19899
# Poissons Ratio (z) = 0.36523 0.16422
#
# Static dielectric constant tensor:
#      x y z
#    x 3.429440 0.000000 0.000000 
#    y 0.000000 3.463370 0.000000 
#    z 0.000000 0.000000 3.597300 
# 
# 
# High freq. dielectric constant tensor:
#      x y z
#    x 1.723820 0.000000 0.000000 
#    y 0.000000 1.727420 0.000000 
#    z 0.000000 0.000000 1.733780 
# 
# From -- ./inp_files/4192.got.cif
#   From: 2010.03.12/outbox.cif.g09.slc.cpg/sg36_3_cif.got.tgz:4192.got - 2010.04.14 02:13:53.
