data_PCOD8174969
_publ_section_title
;
Structure prediction by ZEFSAII (Michael W. Deem and Ramdas Pophale) SiO2 
 PCOD8174969
Probable space group: C M C 21
;
_chemical_formula_sum "Si O2"
_cell_formula_units_Z 64
_cell_length_a 8.781199
_cell_length_b 22.402451
_cell_length_c 16.280222
_cell_angle_alpha 90.000000
_cell_angle_beta 90.000000
_cell_angle_gamma 90.000000
_cell_volume 3202.651464
_symmetry_space_group_name_H-M "C M C 21"
_symmetry_group_IT_number 36
_symmetry_cell_setting 'orthorhombic'
loop_
_space_group_symop_operation_xyz
x,y,z
-x,-y,1/2+z
x,-y,1/2+z
-x,y,z
1/2+x,1/2+y,z
1/2-x,1/2-y,1/2+z
1/2+x,1/2-y,1/2+z
1/2-x,1/2+y,z
loop_
_atom_site_type_symbol
_atom_site_label
_atom_site_fract_x
_atom_site_fract_y
_atom_site_fract_z
Si Si1 0.178533 0.466222 0.914380
Si Si2 0.319754 0.151312 0.107752
Si Si3 0.669437 0.171166 0.821993
Si Si4 0.323247 0.715797 0.659546
Si Si5 0.679424 0.592028 0.947792
Si Si6 0.824490 0.106199 0.268245
Si Si7 0.327883 0.856753 0.026581
Si Si8 0.333878 0.705161 0.392995
O O1 0.257016 0.525622 0.946132
O O2 0.250466 0.442582 0.829243
O O3 0.000000 0.475799 0.899078
O O4 0.209183 0.421665 0.990377
O O5 0.500000 0.145031 0.103398
O O6 0.270586 0.220341 0.122531
O O7 0.259409 0.108271 0.180544
O O8 0.251116 0.129359 0.022102
O O9 0.500000 0.144824 0.806666
O O10 0.732821 0.200523 0.740623
O O11 0.777065 0.120529 0.859707
O O12 0.661668 0.224189 0.887413
O O13 0.500000 0.717279 0.680718
O O14 0.287776 0.661218 0.598156
O O15 0.500000 0.590996 0.958530
O O16 0.806200 0.172460 0.306053
O O17 0.000000 0.088479 0.254334
O O18 0.500000 0.851946 0.059136
O O19 0.304439 0.810196 0.952679
O O20 0.500000 0.683549 0.427670
#
# Coordination Sequence:
#
# PCOD8174969 Si02
#       8
#     8   8   8   8   8   8   8   8
#     4  10  22  43  65  88 120 161 208 255 308 372
#     4  11  23  40  63  93 128 165 206 255 312 370
#     4  11  22  39  61  87 124 163 199 247 309 369
#     4  11  23  38  60  92 128 161 201 250 306 370
#     4  12  26  43  63  90 123 164 212 262 311 366
#     4  10  19  36  63  94 123 158 203 253 303 361
#     4  10  21  36  60  89 118 155 199 247 300 360
#     4   9  18  33  57  87 120 155 192 239 299 360
#
# _framework density 19.983443999999999
#
# number of rings (size 3 to 8) (size 9 to 14) (size 15 to 20)
#    0.000    1.500    1.250    4.125    0.000    7.500 
#    2.250    0.000    0.000    0.000    0.000    0.000 
#    0.000    0.000    0.000    0.000    0.000    0.000 
#
# Total GULP energy -396766.124132 kJ/mol
# GULP energy per Si atom -12398.941379 kJ/mol
# Density = 1.993796 g / cm^3
# Si number density = 19.983444 Si / 1000 Ang^3
#
#
#
# Elastic Constant Matrix: (Units=GPa)
#
#
# Indices 1 2 3 4 5 6 
#
# 1 122.7738 58.4521 53.7977 0.0000 0.0000 0.0000
# 2 58.4521 95.7256 57.1497 0.0000 0.0000 0.0000
# 3 53.7977 57.1497 85.9917 0.0000 0.0000 0.0000
# 4 0.0000 0.0000 0.0000 28.0704 0.0000 0.0000
# 5 0.0000 0.0000 0.0000 0.0000 39.9660 0.0000
# 6 0.0000 0.0000 0.0000 0.0000 0.0000 25.8105
#
#
#
# Elastic Compliance Matrix: (Units=1/GPa)
#
#
# Indices 1 2 3 4 5 6 
#
# 1 0.012470 -0.004902 -0.004544 0.000000 0.000000 0.000000
# 2 -0.004902 0.019245 -0.009723 0.000000 0.000000 0.000000
# 3 -0.004544 -0.009723 0.020934 0.000000 0.000000 0.000000
# 4 0.000000 0.000000 0.000000 0.035625 0.000000 0.000000
# 5 0.000000 0.000000 0.000000 0.000000 0.025021 0.000000
# 6 0.000000 0.000000 0.000000 0.000000 0.000000 0.038744
#
#
# Mechanical properties :
#
#
# Convention : Reuss Voigt Hill
#
# Bulk Modulus (GPa) = 69.87748 71.47667 70.67707
# Shear Modulus (GPa) = 25.62196 27.77548 26.69872
#
# Velocity S-wave (km/s) = 3.58461 3.73221 3.65916
# Velocity P-wave (km/s) = 7.22331 7.37687 7.30049
#
# Compressibility (1/GPa) = 0.01431076
#
# Stress axis : x y z
#
# Youngs Moduli (GPa) = 80.19479 51.96274 47.77000
#
# Poissons Ratio (x) = 0.25470 0.21705
# Poissons Ratio (y) = 0.39309 0.46448
# Poissons Ratio (z) = 0.36437 0.50525
#
# Static dielectric constant tensor:
#      x y z
#    x 3.778290 0.000000 0.000000 
#    y 0.000000 3.612820 0.000000 
#    z 0.000000 0.000000 3.661510 
# 
# 
# High freq. dielectric constant tensor:
#      x y z
#    x 1.792430 0.000000 0.000000 
#    y 0.000000 1.769550 0.000000 
#    z 0.000000 0.000000 1.779120 
# 
# From -- ./inp_files/11075.got.cif
#   From: 2010.03.12/outbox.cif.g09.slc.cpg/sg36_6_cif.got.tgz:11075.got - 2010.04.14 02:13:53.
