data_PCOD8174685
_publ_section_title
;
Structure prediction by ZEFSAII (Michael W. Deem and Ramdas Pophale) SiO2 
 PCOD8174685
Probable space group: C M C 21
;
_chemical_formula_sum "Si O2"
_cell_formula_units_Z 64
_cell_length_a 8.980673
_cell_length_b 29.243535
_cell_length_c 12.274967
_cell_angle_alpha 90.000000
_cell_angle_beta 90.000000
_cell_angle_gamma 90.000000
_cell_volume 3223.733158
_symmetry_space_group_name_H-M "C M C 21"
_symmetry_group_IT_number 36
_symmetry_cell_setting 'orthorhombic'
loop_
_space_group_symop_operation_xyz
x,y,z
-x,-y,1/2+z
x,-y,1/2+z
-x,y,z
1/2+x,1/2+y,z
1/2-x,1/2-y,1/2+z
1/2+x,1/2-y,1/2+z
1/2-x,1/2+y,z
loop_
_atom_site_type_symbol
_atom_site_label
_atom_site_fract_x
_atom_site_fract_y
_atom_site_fract_z
Si Si1 0.325364 0.413448 0.135900
Si Si2 0.823409 0.473697 0.970983
Si Si3 0.826091 0.063187 0.030403
Si Si4 0.329046 0.830902 0.045818
Si Si5 0.827291 0.134585 0.853398
Si Si6 0.671654 0.684804 0.338573
Si Si7 0.826013 0.082974 0.276706
Si Si8 0.831005 0.717737 0.764853
O O1 0.500000 0.424115 0.133574
O O2 0.283110 0.373624 0.051189
O O3 0.267045 0.398630 0.255753
O O4 0.238878 0.457298 0.088957
O O5 0.762958 0.444834 0.868373
O O6 0.000000 0.470810 0.969428
O O7 0.768961 0.525890 0.963941
O O8 0.776973 0.066555 0.156391
O O9 0.000000 0.050731 0.020304
O O10 0.793943 0.111482 0.969849
O O11 0.500000 0.847840 0.044138
O O12 0.296060 0.796297 0.142343
O O13 0.284535 0.805290 0.936657
O O14 0.758074 0.185304 0.848910
O O15 0.000000 0.141319 0.831756
O O16 0.500000 0.684867 0.377032
O O17 0.710635 0.637070 0.279961
O O18 0.707356 0.728517 0.263583
O O19 0.000000 0.073723 0.296392
O O20 0.000000 0.709147 0.798049
#
# Coordination Sequence:
#
# PCOD8174685 Si02
#       8
#     8   8   8   8   8   8   8   8
#     4  10  19  35  59  84 112 150 195 244 293 352
#     4  12  25  39  59  89 121 153 196 247 305 361
#     4  10  23  42  63  88 119 160 205 247 300 361
#     4  10  19  33  54  83 114 149 194 249 298 345
#     4   9  20  38  61  88 117 153 202 248 291 350
#     4  10  20  36  58  84 116 158 199 242 297 358
#     4  10  22  41  64  87 118 159 205 249 295 357
#     4   9  20  36  56  85 121 158 198 242 301 358
#
# _framework density 19.85276
#
# number of rings (size 3 to 8) (size 9 to 14) (size 15 to 20)
#    0.000    2.000    1.250    1.875    1.750    3.500 
#    0.000    2.500    0.000    0.000    0.000    0.000 
#    0.000    0.000    0.000    0.000    0.000    0.000 
#
# Total GULP energy -396697.860747 kJ/mol
# GULP energy per Si atom -12396.808148 kJ/mol
# Density = 1.980757 g / cm^3
# Si number density = 19.852760 Si / 1000 Ang^3
#
#
#
# Elastic Constant Matrix: (Units=GPa)
#
#
# Indices 1 2 3 4 5 6 
#
# 1 73.9697 45.9120 39.3394 0.0000 0.0000 0.0000
# 2 45.9120 123.5995 41.9910 0.0000 0.0000 0.0000
# 3 39.3394 41.9910 86.8692 0.0000 0.0000 0.0000
# 4 0.0000 0.0000 0.0000 25.2258 0.0000 0.0000
# 5 0.0000 0.0000 0.0000 0.0000 21.6968 0.0000
# 6 0.0000 0.0000 0.0000 0.0000 0.0000 29.5259
#
#
#
# Elastic Compliance Matrix: (Units=1/GPa)
#
#
# Indices 1 2 3 4 5 6 
#
# 1 0.020345 -0.005297 -0.006653 0.000000 0.000000 0.000000
# 2 -0.005297 0.011060 -0.002947 0.000000 0.000000 0.000000
# 3 -0.006653 -0.002947 0.015949 0.000000 0.000000 0.000000
# 4 0.000000 0.000000 0.000000 0.039642 0.000000 0.000000
# 5 0.000000 0.000000 0.000000 0.000000 0.046090 0.000000
# 6 0.000000 0.000000 0.000000 0.000000 0.000000 0.033869
#
#
# Mechanical properties :
#
#
# Convention : Reuss Voigt Hill
#
# Bulk Modulus (GPa) = 56.94992 59.88036 58.41514
# Shear Modulus (GPa) = 24.67901 25.76944 25.22422
#
# Velocity S-wave (km/s) = 3.52959 3.60672 3.56837
# Velocity P-wave (km/s) = 6.73492 6.89727 6.81658
#
# Compressibility (1/GPa) = 0.01755929
#
# Stress axis : x y z
#
# Youngs Moduli (GPa) = 49.15178 90.41959 62.69991
#
# Poissons Ratio (x) = 0.47896 0.41714
# Poissons Ratio (y) = 0.26036 0.18479
# Poissons Ratio (z) = 0.32700 0.26648
#
# Static dielectric constant tensor:
#      x y z
#    x 3.512750 0.000000 0.000000 
#    y 0.000000 3.738710 0.000000 
#    z 0.000000 0.000000 3.639470 
# 
# 
# High freq. dielectric constant tensor:
#      x y z
#    x 1.764100 0.000000 0.000000 
#    y 0.000000 1.776540 0.000000 
#    z 0.000000 0.000000 1.770290 
# 
# From -- ./inp_files/7231.got.cif
#   From: 2010.03.12/outbox.cif.g09.slc.cpg/sg36_4_cif.got.tgz:7231.got - 2010.04.14 02:13:53.
