data_PCOD8174458
_publ_section_title
;
Structure prediction by ZEFSAII (Michael W. Deem and Ramdas Pophale) SiO2 
 PCOD8174458
Probable space group: C M C 21
;
_chemical_formula_sum "Si O2"
_cell_formula_units_Z 48
_cell_length_a 11.475085
_cell_length_b 15.634029
_cell_length_c 13.294180
_cell_angle_alpha 90.000000
_cell_angle_beta 90.000000
_cell_angle_gamma 90.000000
_cell_volume 2384.999977
_symmetry_space_group_name_H-M "C M C 21"
_symmetry_group_IT_number 36
_symmetry_cell_setting 'orthorhombic'
loop_
_space_group_symop_operation_xyz
x,y,z
-x,-y,1/2+z
x,-y,1/2+z
-x,y,z
1/2+x,1/2+y,z
1/2-x,1/2-y,1/2+z
1/2+x,1/2-y,1/2+z
1/2-x,1/2+y,z
loop_
_atom_site_type_symbol
_atom_site_label
_atom_site_fract_x
_atom_site_fract_y
_atom_site_fract_z
Si Si1 0.265458 0.677164 0.532590
Si Si2 0.000000 0.261216 0.579430
Si Si3 0.130856 0.175242 0.324411
Si Si4 0.500000 0.993454 0.904043
Si Si5 0.309655 0.004928 0.069313
Si Si6 0.861373 0.153147 0.097570
Si Si7 0.500000 0.827824 0.362812
Si Si8 0.000000 0.582458 0.205277
O O1 0.388657 0.701513 0.579057
O O2 0.278820 0.652616 0.413511
O O3 0.230927 0.591729 0.592995
O O4 0.175827 0.755931 0.548916
O O5 0.000000 0.327089 0.485505
O O6 0.000000 0.317668 0.679077
O O7 0.175600 0.147020 0.215338
O O8 0.000000 0.137048 0.348016
O O9 0.115594 0.279062 0.322722
O O10 0.500000 0.914906 0.826671
O O11 0.500000 0.074986 0.827972
O O12 0.383979 0.996113 0.968474
O O13 0.204642 0.072382 0.047171
O O14 0.384684 0.036844 0.163133
O O15 0.000000 0.143551 0.083578
#
# Coordination Sequence:
#
# PCOD8174458 Si02
#       8
#     8   4   8   4   8   8   4   4
#     4  11  22  39  67  90 127 168 215 260 327 387
#     4  10  18  43  64  87 123 173 211 256 320 390
#     4   8  19  37  65  87 118 169 214 246 315 395
#     4  11  23  40  69  93 131 165 231 272 330 384
#     4  11  25  40  64  98 127 171 216 275 330 378
#     4  11  24  42  63  97 133 164 214 273 327 388
#     4   8  14  35  62  85 113 165 208 252 307 385
#     4  11  23  42  65  91 125 169 222 270 317 389
#
# _framework density 20.125786000000002
#
# number of rings (size 3 to 8) (size 9 to 14) (size 15 to 20)
#    0.500    1.333    4.167    1.000    8.167    0.000 
#    0.000    0.000    1.833    0.000    0.000    0.000 
#    0.000    0.000    0.000    0.000    0.000    0.000 
#
# Total GULP energy -297383.691042 kJ/mol
# GULP energy per Si atom -12390.987127 kJ/mol
# Density = 2.007998 g / cm^3
# Si number density = 20.125786 Si / 1000 Ang^3
#
#
#
# Elastic Constant Matrix: (Units=GPa)
#
#
# Indices 1 2 3 4 5 6 
#
# 1 123.1956 54.0960 41.6693 0.0000 0.0000 0.0000
# 2 54.0960 126.5677 22.7812 0.0000 0.0000 0.0000
# 3 41.6693 22.7812 96.8851 0.0000 0.0000 0.0000
# 4 0.0000 0.0000 0.0000 24.4919 0.0000 0.0000
# 5 0.0000 0.0000 0.0000 0.0000 0.4941 0.0000
# 6 0.0000 0.0000 0.0000 0.0000 0.0000 30.0663
#
#
#
# Elastic Compliance Matrix: (Units=1/GPa)
#
#
# Indices 1 2 3 4 5 6 
#
# 1 0.011225 -0.004102 -0.003863 0.000000 0.000000 0.000000
# 2 -0.004102 0.009749 -0.000528 0.000000 0.000000 0.000000
# 3 -0.003863 -0.000528 0.012107 0.000000 0.000000 0.000000
# 4 0.000000 0.000000 0.000000 0.040830 0.000000 0.000000
# 5 0.000000 0.000000 0.000000 0.000000 2.024012 0.000000
# 6 0.000000 0.000000 0.000000 0.000000 0.000000 0.033260
#
#
# Mechanical properties :
#
#
# Convention : Reuss Voigt Hill
#
# Bulk Modulus (GPa) = 62.13315 64.86014 63.49665
# Shear Modulus (GPa) = 2.32176 26.21725 14.26951
#
# Velocity S-wave (km/s) = 1.07524 3.61317 2.66562
# Velocity P-wave (km/s) = 5.69920 7.05011 6.41034
#
# Compressibility (1/GPa) = 0.01609447
#
# Stress axis : x y z
#
# Youngs Moduli (GPa) = 89.08481 102.57098 82.59544
#
# Poissons Ratio (x) = 0.42079 0.31909
# Poissons Ratio (y) = 0.36546 0.04361
# Poissons Ratio (z) = 0.34416 0.05416
#
# Static dielectric constant tensor:
#      x y z
#    x 3.687620 0.000000 0.000000 
#    y 0.000000 3.630310 0.000000 
#    z 0.000000 0.000000 3.494200 
# 
# 
# High freq. dielectric constant tensor:
#      x y z
#    x 1.784330 0.000000 0.000000 
#    y 0.000000 1.778290 0.000000 
#    z 0.000000 0.000000 1.768950 
# 
# From -- ./inp_files/11576.got.cif
#   From: 2010.03.12/outbox.cif.g09.slc.cpg/sg36_6_cif.got.tgz:11576.got - 2010.04.14 02:13:53.
