data_PCOD8174794
_publ_section_title
;
Structure prediction by ZEFSAII (Michael W. Deem and Ramdas Pophale) SiO2 
 PCOD8174794
Probable space group: C M C 21
;
_chemical_formula_sum "Si O2"
_cell_formula_units_Z 64
_cell_length_a 8.811786
_cell_length_b 20.648649
_cell_length_c 19.122431
_cell_angle_alpha 90.000000
_cell_angle_beta 90.000000
_cell_angle_gamma 90.000000
_cell_volume 3479.354549
_symmetry_space_group_name_H-M "C M C 21"
_symmetry_group_IT_number 36
_symmetry_cell_setting 'orthorhombic'
loop_
_space_group_symop_operation_xyz
x,y,z
-x,-y,1/2+z
x,-y,1/2+z
-x,y,z
1/2+x,1/2+y,z
1/2-x,1/2-y,1/2+z
1/2+x,1/2-y,1/2+z
1/2-x,1/2+y,z
loop_
_atom_site_type_symbol
_atom_site_label
_atom_site_fract_x
_atom_site_fract_y
_atom_site_fract_z
Si Si1 0.821194 0.182770 0.112890
Si Si2 0.324942 0.991431 0.965030
Si Si3 0.823293 0.008811 0.322790
Si Si4 0.820734 0.314494 0.189140
Si Si5 0.321294 0.359847 0.326557
Si Si6 0.320526 0.935662 0.692713
Si Si7 0.175883 0.641492 0.972835
Si Si8 0.820799 0.559551 0.610811
O O1 0.774271 0.250217 0.148224
O O2 0.756310 0.127642 0.162424
O O3 0.000000 0.174842 0.106592
O O4 0.751951 0.181317 0.035431
O O5 0.500000 0.981327 0.943369
O O6 0.216996 0.971090 0.901669
O O7 0.297855 0.065610 0.987742
O O8 0.276271 0.945651 0.029367
O O9 0.775075 0.934152 0.310642
O O10 0.000000 0.019974 0.308957
O O11 0.726056 0.055561 0.273264
O O12 0.742778 0.314688 0.265089
O O13 0.755882 0.374405 0.143401
O O14 0.000000 0.319842 0.200245
O O15 0.500000 0.351612 0.332351
O O16 0.249761 0.336974 0.399689
O O17 0.500000 0.928364 0.684835
O O18 0.254163 0.997961 0.651971
O O19 0.000000 0.659249 0.970112
O O20 0.000000 0.557893 0.618901
#
# Coordination Sequence:
#
# PCOD8174794 Si02
#       8
#     8   8   8   8   8   8   8   8
#     4  11  23  37  55  83 118 150 185 235 287 331
#     4   9  17  32  54  81 107 140 186 233 274 327
#     4  10  20  33  51  83 117 144 178 232 289 331
#     4  10  21  38  58  81 113 152 187 228 279 336
#     4  10  20  34  55  84 114 145 185 234 281 328
#     4  11  20  35  59  82 107 146 189 230 273 332
#     4  10  19  34  57  82 109 147 192 230 273 336
#     4   9  17  33  57  82 105 136 186 230 268 325
#
# _framework density 18.394216
#
# number of rings (size 3 to 8) (size 9 to 14) (size 15 to 20)
#    0.000    2.000    2.500    1.875    0.000    2.500 
#    0.000    1.875    0.000    4.500    0.000    0.000 
#    0.000    0.000    0.000    0.000    0.000    0.000 
#
# Total GULP energy -396891.932968 kJ/mol
# GULP energy per Si atom -12402.872905 kJ/mol
# Density = 1.835235 g / cm^3
# Si number density = 18.394216 Si / 1000 Ang^3
#
#
#
# Elastic Constant Matrix: (Units=GPa)
#
#
# Indices 1 2 3 4 5 6 
#
# 1 63.7442 43.5205 52.3428 0.0000 0.0000 0.0000
# 2 43.5205 107.3306 72.3492 0.0000 0.0000 0.0000
# 3 52.3428 72.3492 151.7168 0.0000 0.0000 0.0000
# 4 0.0000 0.0000 0.0000 26.2990 0.0000 0.0000
# 5 0.0000 0.0000 0.0000 0.0000 34.9030 0.0000
# 6 0.0000 0.0000 0.0000 0.0000 0.0000 22.2357
#
#
#
# Elastic Compliance Matrix: (Units=1/GPa)
#
#
# Indices 1 2 3 4 5 6 
#
# 1 0.024416 -0.006222 -0.005457 0.000000 0.000000 0.000000
# 2 -0.006222 0.015316 -0.005157 0.000000 0.000000 0.000000
# 3 -0.005457 -0.005157 0.010933 0.000000 0.000000 0.000000
# 4 0.000000 0.000000 0.000000 0.038024 0.000000 0.000000
# 5 0.000000 0.000000 0.000000 0.000000 0.028651 0.000000
# 6 0.000000 0.000000 0.000000 0.000000 0.000000 0.044973
#
#
# Mechanical properties :
#
#
# Convention : Reuss Voigt Hill
#
# Bulk Modulus (GPa) = 58.84481 73.24628 66.04554
# Shear Modulus (GPa) = 24.79540 26.99283 25.89412
#
# Velocity S-wave (km/s) = 3.67549 3.83490 3.75605
# Velocity P-wave (km/s) = 7.07621 7.71462 7.40230
#
# Compressibility (1/GPa) = 0.01699385
#
# Stress axis : x y z
#
# Youngs Moduli (GPa) = 40.95596 65.28959 91.46564
#
# Poissons Ratio (x) = 0.40625 0.49909
# Poissons Ratio (y) = 0.25484 0.47171
# Poissons Ratio (z) = 0.22348 0.33671
#
# Static dielectric constant tensor:
#      x y z
#    x 3.272010 0.000000 0.000000 
#    y 0.000000 3.254650 0.000000 
#    z 0.000000 0.000000 3.477830 
# 
# 
# High freq. dielectric constant tensor:
#      x y z
#    x 1.708940 0.000000 0.000000 
#    y 0.000000 1.684830 0.000000 
#    z 0.000000 0.000000 1.728890 
# 
# From -- ./inp_files/13871.got.cif
#   From: 2010.03.12/outbox.cif.g09.slc.cpg/sg36_7_cif.got.tgz:13871.got - 2010.04.14 02:13:53.
