data_PCOD8174311
_publ_section_title
;
Structure prediction by ZEFSAII (Michael W. Deem and Ramdas Pophale) SiO2 
 PCOD8174311
Probable space group: C M C 21
;
_chemical_formula_sum "Si O2"
_cell_formula_units_Z 64
_cell_length_a 9.177970
_cell_length_b 22.746889
_cell_length_c 16.365995
_cell_angle_alpha 90.000000
_cell_angle_beta 90.000000
_cell_angle_gamma 90.000000
_cell_volume 3416.733110
_symmetry_space_group_name_H-M "C M C 21"
_symmetry_group_IT_number 36
_symmetry_cell_setting 'orthorhombic'
loop_
_space_group_symop_operation_xyz
x,y,z
-x,-y,1/2+z
x,-y,1/2+z
-x,y,z
1/2+x,1/2+y,z
1/2-x,1/2-y,1/2+z
1/2+x,1/2-y,1/2+z
1/2-x,1/2+y,z
loop_
_atom_site_type_symbol
_atom_site_label
_atom_site_fract_x
_atom_site_fract_y
_atom_site_fract_z
Si Si1 0.666164 0.857405 0.482010
Si Si2 0.837981 0.103989 0.214409
Si Si3 0.671636 0.430870 0.035923
Si Si4 0.164459 0.535185 0.092981
Si Si5 0.666247 0.285530 0.616562
Si Si6 0.833820 0.025619 0.362061
Si Si7 0.172536 0.654951 0.646074
Si Si8 0.327372 0.907596 0.313559
O O1 0.500000 0.836351 0.488664
O O2 0.684736 0.924156 0.513714
O O3 0.756583 0.811076 0.535409
O O4 0.716939 0.862845 0.387402
O O5 0.702858 0.072964 0.171490
O O6 0.815667 0.173282 0.196867
O O7 0.826685 0.085218 0.308300
O O8 0.000000 0.086170 0.180479
O O9 0.500000 0.420651 0.037641
O O10 0.720996 0.482362 0.096630
O O11 0.751420 0.372329 0.066109
O O12 0.730649 0.451844 0.947800
O O13 0.000000 0.510844 0.100255
O O14 0.500000 0.279524 0.589552
O O15 0.726336 0.222466 0.645245
O O16 0.000000 0.003989 0.373009
O O17 0.745797 0.971592 0.322884
O O18 0.225068 0.622997 0.729472
O O19 0.000000 0.649376 0.637551
O O20 0.500000 0.917880 0.314568
#
# Coordination Sequence:
#
# PCOD8174311 Si02
#       8
#     8   8   8   8   8   8   8   8
#     4   9  18  33  55  82 108 139 179 224 269 317
#     4   9  18  34  55  79 106 139 177 222 268 319
#     4  11  22  35  52  78 112 147 179 221 274 327
#     4  10  18  31  53  80 108 139 175 218 270 326
#     4   9  19  37  58  78 106 144 185 224 267 322
#     4  10  21  35  53  82 113 141 178 221 273 332
#     4  10  22  39  57  80 110 148 188 227 274 328
#     4  10  20  36  57  83 111 143 183 227 277 329
#
# _framework density 18.731342999999999
#
# number of rings (size 3 to 8) (size 9 to 14) (size 15 to 20)
#    0.000    2.250    1.250    1.500    0.000    5.000 
#    2.250    0.000    0.000    0.000    0.000    0.000 
#    0.000    0.000    0.000    0.000    0.000    0.000 
#
# Total GULP energy -396598.676767 kJ/mol
# GULP energy per Si atom -12393.708649 kJ/mol
# Density = 1.868871 g / cm^3
# Si number density = 18.731343 Si / 1000 Ang^3
#
#
#
# Elastic Constant Matrix: (Units=GPa)
#
#
# Indices 1 2 3 4 5 6 
#
# 1 46.8316 41.2867 34.1316 0.0000 0.0000 0.0000
# 2 41.2867 137.5166 65.4666 0.0000 0.0000 0.0000
# 3 34.1316 65.4666 91.2849 0.0000 0.0000 0.0000
# 4 0.0000 0.0000 0.0000 28.3159 0.0000 0.0000
# 5 0.0000 0.0000 0.0000 0.0000 25.2972 0.0000
# 6 0.0000 0.0000 0.0000 0.0000 0.0000 27.4318
#
#
#
# Elastic Compliance Matrix: (Units=1/GPa)
#
#
# Indices 1 2 3 4 5 6 
#
# 1 0.032310 -0.005997 -0.007780 0.000000 0.000000 0.000000
# 2 -0.005997 0.012155 -0.006475 0.000000 0.000000 0.000000
# 3 -0.007780 -0.006475 0.018507 0.000000 0.000000 0.000000
# 4 0.000000 0.000000 0.000000 0.035316 0.000000 0.000000
# 5 0.000000 0.000000 0.000000 0.000000 0.039530 0.000000
# 6 0.000000 0.000000 0.000000 0.000000 0.000000 0.036454
#
#
# Mechanical properties :
#
#
# Convention : Reuss Voigt Hill
#
# Bulk Modulus (GPa) = 44.50626 61.93366 53.21996
# Shear Modulus (GPa) = 22.49570 25.19218 23.84394
#
# Velocity S-wave (km/s) = 3.46925 3.67130 3.57170
# Velocity P-wave (km/s) = 6.31344 7.14893 6.74413
#
# Compressibility (1/GPa) = 0.02246875
#
# Stress axis : x y z
#
# Youngs Moduli (GPa) = 30.95008 82.27334 54.03292
#
# Poissons Ratio (x) = 0.49336 0.42039
# Poissons Ratio (y) = 0.18560 0.34985
# Poissons Ratio (z) = 0.24080 0.53270
#
# Static dielectric constant tensor:
#      x y z
#    x 3.385230 0.000000 0.000000 
#    y 0.000000 3.454770 0.000000 
#    z 0.000000 0.000000 3.540460 
# 
# 
# High freq. dielectric constant tensor:
#      x y z
#    x 1.721940 0.000000 0.000000 
#    y 0.000000 1.716890 0.000000 
#    z 0.000000 0.000000 1.725530 
# 
# From -- ./inp_files/11026.got.cif
#   From: 2010.03.12/outbox.cif.g09.slc.cpg/sg36_6_cif.got.tgz:11026.got - 2010.04.14 02:13:53.
