data_PCOD8174773
_publ_section_title
;
Structure prediction by ZEFSAII (Michael W. Deem and Ramdas Pophale) SiO2 
 PCOD8174773
Probable space group: C M C 21
;
_chemical_formula_sum "Si O2"
_cell_formula_units_Z 64
_cell_length_a 9.266495
_cell_length_b 23.887702
_cell_length_c 15.298523
_cell_angle_alpha 90.000000
_cell_angle_beta 90.000000
_cell_angle_gamma 90.000000
_cell_volume 3386.408707
_symmetry_space_group_name_H-M "C M C 21"
_symmetry_group_IT_number 36
_symmetry_cell_setting 'orthorhombic'
loop_
_space_group_symop_operation_xyz
x,y,z
-x,-y,1/2+z
x,-y,1/2+z
-x,y,z
1/2+x,1/2+y,z
1/2-x,1/2-y,1/2+z
1/2+x,1/2-y,1/2+z
1/2-x,1/2+y,z
loop_
_atom_site_type_symbol
_atom_site_label
_atom_site_fract_x
_atom_site_fract_y
_atom_site_fract_z
Si Si1 0.664986 0.377278 0.334670
Si Si2 0.671182 0.680762 0.478542
Si Si3 0.666076 0.500214 0.395497
Si Si4 0.167459 0.106507 0.638578
Si Si5 0.330636 0.881756 0.635520
Si Si6 0.166980 0.885384 0.809143
Si Si7 0.671079 0.807068 0.473770
Si Si8 0.329464 0.995515 0.072814
O O1 0.500000 0.366893 0.362403
O O2 0.709033 0.441437 0.352725
O O3 0.688586 0.364435 0.232460
O O4 0.765289 0.335630 0.387855
O O5 0.500000 0.681226 0.480190
O O6 0.727138 0.648885 0.564951
O O7 0.727277 0.648825 0.392497
O O8 0.730834 0.743940 0.479421
O O9 0.500000 0.501332 0.427435
O O10 0.691917 0.548468 0.323781
O O11 0.768034 0.513494 0.476436
O O12 0.259456 0.049712 0.637204
O O13 0.000000 0.091051 0.622829
O O14 0.500000 0.876857 0.651097
O O15 0.253114 0.864645 0.724794
O O16 0.277577 0.839556 0.560269
O O17 0.284301 0.943670 0.607059
O O18 0.000000 0.871587 0.793591
O O19 0.500000 0.809265 0.464538
O O20 0.500000 0.987667 0.070356
#
# Coordination Sequence:
#
# PCOD8174773 Si02
#       8
#     8   8   8   8   8   8   8   8
#     4  10  21  35  58  88 111 141 186 231 277 326
#     4   9  19  37  60  81 106 147 192 229 274 330
#     4  10  19  34  56  83 113 144 180 226 281 331
#     4  10  20  38  60  83 112 146 185 229 277 331
#     4  10  22  37  54  82 115 148 181 219 278 337
#     4  10  20  36  59  85 108 141 187 230 274 324
#     4  10  21  39  58  77 111 153 187 226 279 330
#     4  11  21  34  55  85 114 146 184 222 276 337
#
# _framework density 18.899079
#
# number of rings (size 3 to 8) (size 9 to 14) (size 15 to 20)
#    0.000    2.000    2.500    1.125    0.000    4.500 
#    0.000    2.500    0.000    0.000    0.000    0.000 
#    0.000    0.000    0.000    0.000    0.000    0.000 
#
# Total GULP energy -396909.881117 kJ/mol
# GULP energy per Si atom -12403.433785 kJ/mol
# Density = 1.885606 g / cm^3
# Si number density = 18.899079 Si / 1000 Ang^3
#
#
#
# Elastic Constant Matrix: (Units=GPa)
#
#
# Indices 1 2 3 4 5 6 
#
# 1 39.6621 30.5373 33.7964 0.0000 0.0000 0.0000
# 2 30.5373 134.2543 50.8566 0.0000 0.0000 0.0000
# 3 33.7964 50.8566 124.1380 0.0000 0.0000 0.0000
# 4 0.0000 0.0000 0.0000 15.0724 0.0000 0.0000
# 5 0.0000 0.0000 0.0000 0.0000 33.5830 0.0000
# 6 0.0000 0.0000 0.0000 0.0000 0.0000 23.2526
#
#
#
# Elastic Compliance Matrix: (Units=1/GPa)
#
#
# Indices 1 2 3 4 5 6 
#
# 1 0.035708 -0.005255 -0.007569 0.000000 0.000000 0.000000
# 2 -0.005255 0.009590 -0.002498 0.000000 0.000000 0.000000
# 3 -0.007569 -0.002498 0.011140 0.000000 0.000000 0.000000
# 4 0.000000 0.000000 0.000000 0.066346 0.000000 0.000000
# 5 0.000000 0.000000 0.000000 0.000000 0.029777 0.000000
# 6 0.000000 0.000000 0.000000 0.000000 0.000000 0.043006
#
#
# Mechanical properties :
#
#
# Convention : Reuss Voigt Hill
#
# Bulk Modulus (GPa) = 38.76833 58.71501 48.74167
# Shear Modulus (GPa) = 21.29386 26.57255 23.93321
#
# Velocity S-wave (km/s) = 3.36030 3.75377 3.56247
# Velocity P-wave (km/s) = 5.96769 7.06561 6.53973
#
# Compressibility (1/GPa) = 0.02579425
#
# Stress axis : x y z
#
# Youngs Moduli (GPa) = 28.00458 104.27293 89.77016
#
# Poissons Ratio (x) = 0.54797 0.67944
# Poissons Ratio (y) = 0.14717 0.22426
# Poissons Ratio (z) = 0.21196 0.26049
#
# Static dielectric constant tensor:
#      x y z
#    x 3.235520 0.000000 0.000000 
#    y 0.000000 3.613180 0.000000 
#    z 0.000000 0.000000 3.481430 
# 
# 
# High freq. dielectric constant tensor:
#      x y z
#    x 1.711720 0.000000 0.000000 
#    y 0.000000 1.735230 0.000000 
#    z 0.000000 0.000000 1.742890 
# 
# From -- ./inp_files/10923.got.cif
#   From: 2010.03.12/outbox.cif.g09.slc.cpg/sg36_6_cif.got.tgz:10923.got - 2010.04.14 02:13:53.
