data_PCOD8174125
_publ_section_title
;
Structure prediction by ZEFSAII (Michael W. Deem and Ramdas Pophale) SiO2 
 PCOD8174125
Probable space group: C M M 2
;
_chemical_formula_sum "Si O2"
_cell_formula_units_Z 48
_cell_length_a 8.469755
_cell_length_b 15.543345
_cell_length_c 17.236462
_cell_angle_alpha 90.000000
_cell_angle_beta 90.000000
_cell_angle_gamma 90.000000
_cell_volume 2269.151335
_symmetry_space_group_name_H-M "C M M 2"
_symmetry_group_IT_number 35
_symmetry_cell_setting 'orthorhombic'
loop_
_space_group_symop_operation_xyz
x,y,z
-x,-y,z
-x,y,z
x,-y,z
1/2+x,1/2+y,z
1/2-x,1/2-y,z
1/2-x,1/2+y,z
1/2+x,1/2-y,z
loop_
_atom_site_type_symbol
_atom_site_label
_atom_site_fract_x
_atom_site_fract_y
_atom_site_fract_z
Si Si1 0.682168 0.397402 0.250000
Si Si2 0.816860 0.500000 0.835195
Si Si3 0.313697 0.660541 0.744504
Si Si4 0.312711 0.404143 0.417201
Si Si5 0.183169 0.000000 0.002585
Si Si6 0.187544 0.097754 0.582820
Si Si7 0.316289 0.841445 0.094906
O O1 0.500000 0.373002 0.233581
O O2 0.703650 0.500000 0.246555
O O3 0.740237 0.361677 0.335235
O O4 0.791663 0.351023 0.187211
O O5 0.740031 0.415346 0.799890
O O6 0.000000 0.500000 0.815966
O O7 0.790518 0.500000 0.926778
O O8 0.500000 0.661832 0.743940
O O9 0.250000 0.750000 0.778673
O O10 0.244209 0.649093 0.656816
O O11 0.500000 0.409411 0.414843
O O12 0.243020 0.500000 0.419948
O O13 0.257829 0.360099 0.499245
O O14 0.219441 0.084237 0.052535
O O15 0.000000 0.000000 0.979249
O O16 0.000000 0.097694 0.587231
O O17 0.249376 0.000000 0.588987
O O18 0.500000 0.849001 0.074383
O O19 0.250000 0.750000 0.066039
#
# Coordination Sequence:
#
# PCOD8174125 Si02
#       7
#     8   4   8   8   4   8   8
#     4   9  16  30  55  86 122 164 210 257 308 363
#     4  12  26  46  70  97 126 159 200 249 306 371
#     4  11  22  39  63  94 128 167 209 255 308 367
#     4   7  11  21  44  80 115 155 207 256 303 357
#     4  12  26  48  74  99 126 157 196 247 308 375
#     4   8  13  26  51  82 117 159 208 257 306 360
#     4  12  25  42  65  95 129 167 208 253 305 365
#
# _framework density 21.153281
#
# number of rings (size 3 to 8) (size 9 to 14) (size 15 to 20)
#    0.000    2.167    1.667    5.500    0.000    0.667 
#    0.000    4.167    0.000    4.000    0.000    0.000 
#    0.000    0.000    0.000    0.000    0.000    0.000 
#
# Total GULP energy -297378.605015 kJ/mol
# GULP energy per Si atom -12390.775209 kJ/mol
# Density = 2.110514 g / cm^3
# Si number density = 21.153281 Si / 1000 Ang^3
#
#
#
# Elastic Constant Matrix: (Units=GPa)
#
#
# Indices 1 2 3 4 5 6 
#
# 1 64.2039 20.3260 9.3895 0.0000 0.0000 0.0000
# 2 20.3260 115.2664 41.9550 0.0000 0.0000 0.0000
# 3 9.3895 41.9550 124.9937 0.0000 0.0000 0.0000
# 4 0.0000 0.0000 0.0000 -1.8659 0.0000 0.0000
# 5 0.0000 0.0000 0.0000 0.0000 21.3606 0.0000
# 6 0.0000 0.0000 0.0000 0.0000 0.0000 21.6774
#
#
#
# Elastic Compliance Matrix: (Units=1/GPa)
#
#
# Indices 1 2 3 4 5 6 
#
# 1 0.016506 -0.002802 -0.000300 0.000000 0.000000 0.000000
# 2 -0.002802 0.010359 -0.003266 0.000000 0.000000 0.000000
# 3 -0.000300 -0.003266 0.009119 0.000000 0.000000 0.000000
# 4 0.000000 0.000000 0.000000 -0.535932 0.000000 0.000000
# 5 0.000000 0.000000 0.000000 0.000000 0.046815 0.000000
# 6 0.000000 0.000000 0.000000 0.000000 0.000000 0.046131
#
#
# Mechanical properties :
#
#
# Convention : Reuss Voigt Hill
#
# Bulk Modulus (GPa) = 43.01319 49.75611 46.38465
# Shear Modulus (GPa) = -12.93605 23.75399 5.40897
#
# Velocity S-wave (km/s) = -2.47561 3.35467 1.60081
# Velocity P-wave (km/s) = 3.49380 6.21111 5.03907
#
# Compressibility (1/GPa) = 0.02324868
#
# Stress axis : x y z
#
# Youngs Moduli (GPa) = 60.58353 96.53886 109.65744
#
# Poissons Ratio (x) = 0.27047 0.03285
# Poissons Ratio (y) = 0.16973 0.35819
# Poissons Ratio (z) = 0.01815 0.31534
#
# Static dielectric constant tensor:
#      x y z
#    x 3.399780 0.000000 0.000000 
#    y 0.000000 3.624320 0.000000 
#    z 0.000000 0.000000 4.347480 
# 
# 
# High freq. dielectric constant tensor:
#      x y z
#    x 1.795180 0.000000 0.000000 
#    y 0.000000 1.808670 0.000000 
#    z 0.000000 0.000000 1.847230 
# 
# From -- ./inp_files/17885.got.cif
#   From: 2010.03.12/outbox.cif.g09.slc.cpg/sg35_9_cif.got.tgz:17885.got - 2010.04.14 02:02:04.
