data_PCOD8174038
_publ_section_title
;
Structure prediction by ZEFSAII (Michael W. Deem and Ramdas Pophale) SiO2 
 PCOD8174038
Probable space group: C M M 2
;
_chemical_formula_sum "Si O2"
_cell_formula_units_Z 44
_cell_length_a 14.976168
_cell_length_b 9.414888
_cell_length_c 13.754486
_cell_angle_alpha 90.000000
_cell_angle_beta 90.000000
_cell_angle_gamma 90.000000
_cell_volume 1939.368007
_symmetry_space_group_name_H-M "C M M 2"
_symmetry_group_IT_number 35
_symmetry_cell_setting 'orthorhombic'
loop_
_space_group_symop_operation_xyz
x,y,z
-x,-y,z
-x,y,z
x,-y,z
1/2+x,1/2+y,z
1/2-x,1/2-y,z
1/2-x,1/2+y,z
1/2+x,1/2-y,z
loop_
_atom_site_type_symbol
_atom_site_label
_atom_site_fract_x
_atom_site_fract_y
_atom_site_fract_z
Si Si1 0.750000 0.750000 0.359460
Si Si2 0.663886 0.668922 0.660470
Si Si3 0.902693 0.655495 0.498478
Si Si4 0.098477 0.844107 0.219322
Si Si5 0.659365 0.165576 0.046963
Si Si6 0.101591 0.343147 0.833918
O O1 0.818893 0.660445 0.424845
O O2 0.817726 0.841339 0.293333
O O3 0.671696 0.500000 0.659553
O O4 0.750000 0.750000 0.619578
O O5 0.592200 0.722555 0.581745
O O6 0.648512 0.721390 0.770710
O O7 0.895507 0.500000 0.548764
O O8 0.000000 0.667836 0.444803
O O9 0.000000 0.825738 0.269832
O O10 0.103424 0.000000 0.170452
O O11 0.102924 0.723656 0.137149
O O12 0.750000 0.250000 0.040809
O O13 0.606778 0.194470 0.947334
O O14 0.677617 0.000000 0.064423
O O15 0.144758 0.500000 0.814541
O O16 0.000000 0.346416 0.801254
#
# Coordination Sequence:
#
# PCOD8174038 Si02
#       6
#     4   8   8   8   8   8
#     4  12  24  44  74 100 134 182 224 280 338 414
#     4  12  25  42  67  98 134 176 224 276 334 400
#     4  11  25  45  70 101 138 179 224 278 339 403
#     4  11  25  44  68 101 140 179 224 282 341 399
#     4  11  23  41  67  98 134 177 226 276 332 399
#     4  10  22  41  65  96 135 177 222 272 327 394
#
# _framework density 22.687802000000001
#
# number of rings (size 3 to 8) (size 9 to 14) (size 15 to 20)
#    0.000    0.909    1.818    4.909    0.000    8.364 
#    0.000    0.000    0.000    0.000    0.000    0.000 
#    0.000    0.000    0.000    0.000    0.000    0.000 
#
# Total GULP energy -272573.828742 kJ/mol
# GULP energy per Si atom -12389.719488 kJ/mol
# Density = 2.263616 g / cm^3
# Si number density = 22.687802 Si / 1000 Ang^3
#
#
#
# Elastic Constant Matrix: (Units=GPa)
#
#
# Indices 1 2 3 4 5 6 
#
# 1 152.5036 56.1687 38.8239 0.0000 0.0000 0.0000
# 2 56.1687 191.5150 66.5180 0.0000 0.0000 0.0000
# 3 38.8239 66.5180 115.1351 0.0000 0.0000 0.0000
# 4 0.0000 0.0000 0.0000 31.2695 0.0000 0.0000
# 5 0.0000 0.0000 0.0000 0.0000 23.1954 0.0000
# 6 0.0000 0.0000 0.0000 0.0000 0.0000 25.5822
#
#
#
# Elastic Compliance Matrix: (Units=1/GPa)
#
#
# Indices 1 2 3 4 5 6 
#
# 1 0.007577 -0.001670 -0.001590 0.000000 0.000000 0.000000
# 2 -0.001670 0.006900 -0.003423 0.000000 0.000000 0.000000
# 3 -0.001590 -0.003423 0.011200 0.000000 0.000000 0.000000
# 4 0.000000 0.000000 0.000000 0.031980 0.000000 0.000000
# 5 0.000000 0.000000 0.000000 0.000000 0.043112 0.000000
# 6 0.000000 0.000000 0.000000 0.000000 0.000000 0.039090
#
#
# Mechanical properties :
#
#
# Convention : Reuss Voigt Hill
#
# Bulk Modulus (GPa) = 81.23672 86.90830 84.07251
# Shear Modulus (GPa) = 31.78048 35.85231 33.81639
#
# Velocity S-wave (km/s) = 3.74675 3.97954 3.86490
# Velocity P-wave (km/s) = 7.38929 7.71395 7.55336
#
# Compressibility (1/GPa) = 0.01230970
#
# Stress axis : x y z
#
# Youngs Moduli (GPa) = 131.97643 144.91999 89.28914
#
# Poissons Ratio (x) = 0.24201 0.14199
# Poissons Ratio (y) = 0.22039 0.30568
# Poissons Ratio (z) = 0.20987 0.49613
#
# Static dielectric constant tensor:
#      x y z
#    x 4.360330 0.000000 0.000000 
#    y 0.000000 4.057910 0.000000 
#    z 0.000000 0.000000 4.072330 
# 
# 
# High freq. dielectric constant tensor:
#      x y z
#    x 1.913850 0.000000 0.000000 
#    y 0.000000 1.894200 0.000000 
#    z 0.000000 0.000000 1.886170 
# 
# From -- ./inp_files/16948.got.cif
#   From: 2010.03.12/outbox.cif.g09.slc.cpg/sg35_9_cif.got.tgz:16948.got - 2010.04.14 02:02:04.
