data_PCOD8174582
_publ_section_title
;
Structure prediction by ZEFSAII (Michael W. Deem and Ramdas Pophale) SiO2 
 PCOD8174582
Probable space group: C M C 21
;
_chemical_formula_sum "Si O2"
_cell_formula_units_Z 64
_cell_length_a 9.526852
_cell_length_b 24.737617
_cell_length_c 14.255084
_cell_angle_alpha 90.000000
_cell_angle_beta 90.000000
_cell_angle_gamma 90.000000
_cell_volume 3359.518682
_symmetry_space_group_name_H-M "C M C 21"
_symmetry_group_IT_number 36
_symmetry_cell_setting 'orthorhombic'
loop_
_space_group_symop_operation_xyz
x,y,z
-x,-y,1/2+z
x,-y,1/2+z
-x,y,z
1/2+x,1/2+y,z
1/2-x,1/2-y,1/2+z
1/2+x,1/2-y,1/2+z
1/2-x,1/2+y,z
loop_
_atom_site_type_symbol
_atom_site_label
_atom_site_fract_x
_atom_site_fract_y
_atom_site_fract_z
Si Si1 0.332876 0.802206 0.239740
Si Si2 0.343410 0.569868 0.039661
Si Si3 0.166054 0.197219 0.351327
Si Si4 0.839389 0.088920 0.256786
Si Si5 0.336552 0.667830 0.556848
Si Si6 0.154524 0.610304 0.887384
Si Si7 0.157067 0.489093 0.264609
Si Si8 0.661808 0.453866 0.096279
O O1 0.500000 0.801758 0.221215
O O2 0.278463 0.749277 0.295177
O O3 0.254968 0.807045 0.140407
O O4 0.285343 0.852123 0.304772
O O5 0.500000 0.577655 0.001829
O O6 0.327773 0.590225 0.145251
O O7 0.301703 0.506090 0.031606
O O8 0.249173 0.610614 0.979529
O O9 0.222187 0.144417 0.297646
O O10 0.214735 0.196137 0.460249
O O11 0.000000 0.197196 0.348746
O O12 0.000000 0.078924 0.289284
O O13 0.742515 0.041525 0.296942
O O14 0.500000 0.679770 0.577493
O O15 0.313685 0.603027 0.543815
O O16 0.147299 0.548641 0.854701
O O17 0.000000 0.631825 0.915413
O O18 0.236689 0.455144 0.185146
O O19 0.000000 0.504657 0.229734
O O20 0.500000 0.459692 0.130580
#
# Coordination Sequence:
#
# PCOD8174582 Si02
#       8
#     8   8   8   8   8   8   8   8
#     4  10  21  40  59  80 114 153 188 227 278 332
#     4   9  19  32  51  81 112 143 182 226 274 326
#     4   9  20  38  62  84 108 147 190 230 278 333
#     4   9  19  37  57  80 109 143 184 230 279 328
#     4  10  20  36  59  86 109 140 188 236 277 325
#     4  10  21  34  50  77 112 150 186 218 268 332
#     4  10  19  32  51  78 111 146 182 221 274 334
#     4   9  18  33  53  80 111 142 184 232 278 324
#
# _framework density 19.050346999999999
#
# number of rings (size 3 to 8) (size 9 to 14) (size 15 to 20)
#    0.000    2.500    1.250    1.125    1.750    4.500 
#    0.000    1.875    0.000    0.000    0.000    0.000 
#    0.000    0.000    0.000    0.000    0.000    0.000 
#
# Total GULP energy -396688.232514 kJ/mol
# GULP energy per Si atom -12396.507266 kJ/mol
# Density = 1.900699 g / cm^3
# Si number density = 19.050347 Si / 1000 Ang^3
#
#
#
# Elastic Constant Matrix: (Units=GPa)
#
#
# Indices 1 2 3 4 5 6 
#
# 1 65.0269 36.7686 35.8023 0.0000 0.0000 0.0000
# 2 36.7686 118.2949 62.3825 0.0000 0.0000 0.0000
# 3 35.8023 62.3825 96.8792 0.0000 0.0000 0.0000
# 4 0.0000 0.0000 0.0000 26.9415 0.0000 0.0000
# 5 0.0000 0.0000 0.0000 0.0000 31.1090 0.0000
# 6 0.0000 0.0000 0.0000 0.0000 0.0000 19.9703
#
#
#
# Elastic Compliance Matrix: (Units=1/GPa)
#
#
# Indices 1 2 3 4 5 6 
#
# 1 0.020248 -0.003554 -0.005194 0.000000 0.000000 0.000000
# 2 -0.003554 0.013424 -0.007330 0.000000 0.000000 0.000000
# 3 -0.005194 -0.007330 0.016962 0.000000 0.000000 0.000000
# 4 0.000000 0.000000 0.000000 0.037118 0.000000 0.000000
# 5 0.000000 0.000000 0.000000 0.000000 0.032145 0.000000
# 6 0.000000 0.000000 0.000000 0.000000 0.000000 0.050074
#
#
# Mechanical properties :
#
#
# Convention : Reuss Voigt Hill
#
# Bulk Modulus (GPa) = 54.12439 61.12311 57.62375
# Shear Modulus (GPa) = 24.00543 25.28732 24.64638
#
# Velocity S-wave (km/s) = 3.55365 3.64729 3.60077
# Velocity P-wave (km/s) = 6.73133 7.06341 6.89937
#
# Compressibility (1/GPa) = 0.01847596
#
# Stress axis : x y z
#
# Youngs Moduli (GPa) = 49.38831 74.49407 58.95623
#
# Poissons Ratio (x) = 0.26479 0.30621
# Poissons Ratio (y) = 0.17555 0.43217
# Poissons Ratio (z) = 0.25652 0.54607
#
# Static dielectric constant tensor:
#      x y z
#    x 3.417480 0.000000 0.000000 
#    y 0.000000 3.610970 0.000000 
#    z 0.000000 0.000000 3.305090 
# 
# 
# High freq. dielectric constant tensor:
#      x y z
#    x 1.722600 0.000000 0.000000 
#    y 0.000000 1.739740 0.000000 
#    z 0.000000 0.000000 1.733080 
# 
# From -- ./inp_files/11001.got.cif
#   From: 2010.03.12/outbox.cif.g09.slc.cpg/sg36_6_cif.got.tgz:11001.got - 2010.04.14 02:13:53.
