data_PCOD8174241
_publ_section_title
;
Structure prediction by ZEFSAII (Michael W. Deem and Ramdas Pophale) SiO2 
 PCOD8174241
Probable space group: C M C 21
;
_chemical_formula_sum "Si O2"
_cell_formula_units_Z 64
_cell_length_a 9.258443
_cell_length_b 20.734317
_cell_length_c 19.508824
_cell_angle_alpha 90.000000
_cell_angle_beta 90.000000
_cell_angle_gamma 90.000000
_cell_volume 3745.060017
_symmetry_space_group_name_H-M "C M C 21"
_symmetry_group_IT_number 36
_symmetry_cell_setting 'orthorhombic'
loop_
_space_group_symop_operation_xyz
x,y,z
-x,-y,1/2+z
x,-y,1/2+z
-x,y,z
1/2+x,1/2+y,z
1/2-x,1/2-y,1/2+z
1/2+x,1/2-y,1/2+z
1/2-x,1/2+y,z
loop_
_atom_site_type_symbol
_atom_site_label
_atom_site_fract_x
_atom_site_fract_y
_atom_site_fract_z
Si Si1 0.329012 0.884841 0.953810
Si Si2 0.672264 0.886583 0.804646
Si Si3 0.669330 0.261558 0.455766
Si Si4 0.830453 0.242629 0.803333
Si Si5 0.671733 0.933379 0.662278
Si Si6 0.172019 0.564981 0.596450
Si Si7 0.668983 0.191129 0.080676
Si Si8 0.669447 0.681644 0.666311
O O1 0.500000 0.882321 0.951643
O O2 0.273718 0.912072 0.879729
O O3 0.273979 0.811764 0.965195
O O4 0.276200 0.929225 0.016957
O O5 0.500000 0.884691 0.803797
O O6 0.734789 0.814374 0.794203
O O7 0.727795 0.930754 0.741488
O O8 0.500000 0.266360 0.470986
O O9 0.706370 0.285294 0.378548
O O10 0.752872 0.308115 0.507410
O O11 0.775252 0.194766 0.744013
O O12 0.000000 0.250553 0.793660
O O13 0.500000 0.933873 0.661045
O O14 0.728480 0.870581 0.622098
O O15 0.731880 0.997563 0.625891
O O16 0.239420 0.621840 0.640411
O O17 0.000000 0.570063 0.602111
O O18 0.500000 0.184594 0.067336
O O19 0.707037 0.255423 0.122185
O O20 0.500000 0.665160 0.662529
#
# Coordination Sequence:
#
# PCOD8174241 Si02
#       8
#     8   8   8   8   8   8   8   8
#     4   8  14  24  42  66  91 117 151 191 226 266
#     4   8  12  23  43  65  86 116 158 193 218 260
#     4   9  16  28  47  70  93 120 156 196 230 271
#     4   8  14  26  46  69  90 118 161 197 221 264
#     4   9  17  29  45  67  96 125 156 192 230 275
#     4  10  19  31  46  70  99 123 150 192 239 278
#     4  10  18  29  47  71  95 119 150 193 239 276
#     4  10  18  30  49  70  92 120 156 194 229 274
#
# _framework density 17.089179999999999
#
# number of rings (size 3 to 8) (size 9 to 14) (size 15 to 20)
#    0.000    3.000    2.500    1.500    0.000    0.000 
#    0.000    2.500    0.000    3.000    0.000    2.625 
#    0.000    0.000    0.000    0.000    0.000    0.000 
#
# Total GULP energy -396520.958361 kJ/mol
# GULP energy per Si atom -12391.279949 kJ/mol
# Density = 1.705028 g / cm^3
# Si number density = 17.089180 Si / 1000 Ang^3
#
#
#
# Elastic Constant Matrix: (Units=GPa)
#
#
# Indices 1 2 3 4 5 6 
#
# 1 16.4210 19.1572 25.4947 0.0000 0.0000 0.0000
# 2 19.1572 102.6902 75.8863 0.0000 0.0000 0.0000
# 3 25.4947 75.8863 182.9627 0.0000 0.0000 0.0000
# 4 0.0000 0.0000 0.0000 28.9992 0.0000 0.0000
# 5 0.0000 0.0000 0.0000 0.0000 21.0099 0.0000
# 6 0.0000 0.0000 0.0000 0.0000 0.0000 16.6711
#
#
#
# Elastic Compliance Matrix: (Units=1/GPa)
#
#
# Indices 1 2 3 4 5 6 
#
# 1 0.084502 -0.010184 -0.007551 0.000000 0.000000 0.000000
# 2 -0.010184 0.015269 -0.004914 0.000000 0.000000 0.000000
# 3 -0.007551 -0.004914 0.008556 0.000000 0.000000 0.000000
# 4 0.000000 0.000000 0.000000 0.034484 0.000000 0.000000
# 5 0.000000 0.000000 0.000000 0.000000 0.047597 0.000000
# 6 0.000000 0.000000 0.000000 0.000000 0.000000 0.059984
#
#
# Mechanical properties :
#
#
# Convention : Reuss Voigt Hill
#
# Bulk Modulus (GPa) = 15.86572 60.35004 38.10788
# Shear Modulus (GPa) = 15.78786 25.43843 20.61314
#
# Velocity S-wave (km/s) = 3.04279 3.86238 3.47682
# Velocity P-wave (km/s) = 4.65285 7.43519 6.20206
#
# Compressibility (1/GPa) = 0.06302896
#
# Stress axis : x y z
#
# Youngs Moduli (GPa) = 11.83406 65.49071 116.87830
#
# Poissons Ratio (x) = 0.66698 0.88252
# Poissons Ratio (y) = 0.12052 0.57435
# Poissons Ratio (z) = 0.08936 0.32182
#
# Static dielectric constant tensor:
#      x y z
#    x 2.655790 0.000000 0.000000 
#    y 0.000000 3.113270 0.000000 
#    z 0.000000 0.000000 3.772840 
# 
# 
# High freq. dielectric constant tensor:
#      x y z
#    x 1.602000 0.000000 0.000000 
#    y 0.000000 1.632460 0.000000 
#    z 0.000000 0.000000 1.683770 
# 
# From -- ./inp_files/14080.got.cif
#   From: 2010.03.12/outbox.cif.g09.slc.cpg/sg36_8_cif.got.tgz:14080.got - 2010.04.14 02:13:53.
