data_PCOD8174454
_publ_section_title
;
Structure prediction by ZEFSAII (Michael W. Deem and Ramdas Pophale) SiO2 
 PCOD8174454
Probable space group: C M C 21
;
_chemical_formula_sum "Si O2"
_cell_formula_units_Z 40
_cell_length_a 17.675458
_cell_length_b 9.065241
_cell_length_c 13.603880
_cell_angle_alpha 90.000000
_cell_angle_beta 90.000000
_cell_angle_gamma 90.000000
_cell_volume 2179.780798
_symmetry_space_group_name_H-M "C M C 21"
_symmetry_group_IT_number 36
_symmetry_cell_setting 'orthorhombic'
loop_
_space_group_symop_operation_xyz
x,y,z
-x,-y,1/2+z
x,-y,1/2+z
-x,y,z
1/2+x,1/2+y,z
1/2-x,1/2-y,1/2+z
1/2+x,1/2-y,1/2+z
1/2-x,1/2+y,z
loop_
_atom_site_type_symbol
_atom_site_label
_atom_site_fract_x
_atom_site_fract_y
_atom_site_fract_z
Si Si1 0.164038 0.703235 0.788110
Si Si2 0.587701 0.022994 0.167451
Si Si3 0.087384 0.724884 0.353320
Si Si4 0.161633 0.521974 0.966486
Si Si5 0.701342 0.475621 0.340148
O O1 0.105315 0.643206 0.706357
O O2 0.133714 0.657338 0.897059
O O3 0.244154 0.619726 0.768554
O O4 0.175099 0.877942 0.782903
O O5 0.500000 0.031807 0.135413
O O6 0.607404 0.140568 0.252261
O O7 0.643987 0.064430 0.078367
O O8 0.114124 0.625240 0.443963
O O9 0.000000 0.758286 0.362981
O O10 0.127057 0.882466 0.362776
O O11 0.250901 0.489055 0.941146
#
# Coordination Sequence:
#
# PCOD8174454 Si02
#       5
#     8   8   8   8   8
#     4   9  19  36  56  82 111 149 193 231 279 341
#     4  10  20  36  60  86 112 154 191 233 289 338
#     4  10  20  37  58  83 118 150 187 241 288 333
#     4   9  18  37  56  83 113 148 192 230 275 350
#     4  10  18  40  55  84 114 147 195 229 288 334
#
# _framework density 18.350470000000001
#
# number of rings (size 3 to 8) (size 9 to 14) (size 15 to 20)
#    1.200    1.200    2.000    0.600    0.000    1.600 
#   14.400    0.000    0.000    2.400    0.000    0.000 
#    0.000    0.000    0.000    0.000    0.000    0.000 
#
# Total GULP energy -247815.015129 kJ/mol
# GULP energy per Si atom -12390.750756 kJ/mol
# Density = 1.830870 g / cm^3
# Si number density = 18.350470 Si / 1000 Ang^3
#
#
#
# Elastic Constant Matrix: (Units=GPa)
#
#
# Indices 1 2 3 4 5 6 
#
# 1 88.9957 18.7422 34.1590 0.0000 0.0000 0.0000
# 2 18.7422 65.0242 18.0285 0.0000 0.0000 0.0000
# 3 34.1590 18.0285 71.2357 0.0000 0.0000 0.0000
# 4 0.0000 0.0000 0.0000 9.4795 0.0000 0.0000
# 5 0.0000 0.0000 0.0000 0.0000 22.1840 0.0000
# 6 0.0000 0.0000 0.0000 0.0000 0.0000 35.3948
#
#
#
# Elastic Compliance Matrix: (Units=1/GPa)
#
#
# Indices 1 2 3 4 5 6 
#
# 1 0.014098 -0.002354 -0.006165 0.000000 0.000000 0.000000
# 2 -0.002354 0.016933 -0.003156 0.000000 0.000000 0.000000
# 3 -0.006165 -0.003156 0.017793 0.000000 0.000000 0.000000
# 4 0.000000 0.000000 0.000000 0.105490 0.000000 0.000000
# 5 0.000000 0.000000 0.000000 0.000000 0.045077 0.000000
# 6 0.000000 0.000000 0.000000 0.000000 0.000000 0.028253
#
#
# Mechanical properties :
#
#
# Convention : Reuss Voigt Hill
#
# Bulk Modulus (GPa) = 39.25720 40.79055 40.02387
# Shear Modulus (GPa) = 19.26883 23.70007 21.48445
#
# Velocity S-wave (km/s) = 3.24396 3.59768 3.42539
# Velocity P-wave (km/s) = 5.95571 6.28765 6.12393
#
# Compressibility (1/GPa) = 0.02547304
#
# Stress axis : x y z
#
# Youngs Moduli (GPa) = 70.92956 59.05750 56.20256
#
# Poissons Ratio (x) = 0.13905 0.34647
# Poissons Ratio (y) = 0.16700 0.17739
# Poissons Ratio (z) = 0.43726 0.18641
#
# Static dielectric constant tensor:
#      x y z
#    x 3.326520 0.000000 0.000000 
#    y 0.000000 3.179990 0.000000 
#    z 0.000000 0.000000 3.056940 
# 
# 
# High freq. dielectric constant tensor:
#      x y z
#    x 1.707940 0.000000 0.000000 
#    y 0.000000 1.699860 0.000000 
#    z 0.000000 0.000000 1.682570 
# 
# From -- ./inp_files/12431.got.cif
#   From: 2010.03.12/outbox.cif.g09.slc.cpg/sg36_7_cif.got.tgz:12431.got - 2010.04.14 02:13:53.
