data_PCOD8174996
_publ_section_title
;
Structure prediction by ZEFSAII (Michael W. Deem and Ramdas Pophale) SiO2 
 PCOD8174996
Probable space group: C M C 21
;
_chemical_formula_sum "Si O2"
_cell_formula_units_Z 64
_cell_length_a 20.303974
_cell_length_b 18.107289
_cell_length_c 8.343284
_cell_angle_alpha 90.000000
_cell_angle_beta 90.000000
_cell_angle_gamma 90.000000
_cell_volume 3067.407737
_symmetry_space_group_name_H-M "C M C 21"
_symmetry_group_IT_number 36
_symmetry_cell_setting 'orthorhombic'
loop_
_space_group_symop_operation_xyz
x,y,z
-x,-y,1/2+z
x,-y,1/2+z
-x,y,z
1/2+x,1/2+y,z
1/2-x,1/2-y,1/2+z
1/2+x,1/2-y,1/2+z
1/2-x,1/2+y,z
loop_
_atom_site_type_symbol
_atom_site_label
_atom_site_fract_x
_atom_site_fract_y
_atom_site_fract_z
Si Si1 0.156862 0.718069 0.337960
Si Si2 0.926971 0.803321 0.091712
Si Si3 0.309117 0.402871 0.051269
Si Si4 0.248843 0.520978 0.268192
Si Si5 0.225672 0.264528 0.153186
Si Si6 0.152479 0.546417 0.012215
Si Si7 0.075227 0.395854 0.022967
Si Si8 0.392432 0.815133 0.344727
O O1 0.100938 0.766355 0.253250
O O2 0.185141 0.762137 0.495365
O O3 0.217429 0.707477 0.210737
O O4 0.123058 0.641215 0.390724
O O5 0.000000 0.831271 0.130326
O O6 0.883928 0.875438 0.052584
O O7 0.931523 0.748420 0.938735
O O8 0.291372 0.421126 0.868307
O O9 0.300214 0.474978 0.160615
O O10 0.257837 0.342447 0.110280
O O11 0.205133 0.466068 0.373205
O O12 0.195704 0.566566 0.166224
O O13 0.178037 0.278907 0.304164
O O14 0.104837 0.477011 0.053039
O O15 0.109525 0.617406 0.969956
O O16 0.000000 0.402635 0.960256
O O17 0.073603 0.345430 0.182982
#
# Coordination Sequence:
#
# PCOD8174996 Si02
#       8
#     8   8   8   8   8   8   8   8
#     4  10  21  38  61  88 121 161 203 256 308 357
#     4  11  25  42  60  88 126 164 210 251 302 377
#     4  10  21  39  62  92 120 156 192 258 317 372
#     4  10  19  39  63  88 120 145 198 262 323 356
#     4  10  19  38  59  94 121 152 207 254 318 359
#     4  11  21  38  58  91 123 160 206 259 296 353
#     4  11  24  41  58  86 132 179 213 239 290 371
#     4  11  22  39  61  87 123 171 205 261 298 355
#
# _framework density 20.864523999999999
#
# number of rings (size 3 to 8) (size 9 to 14) (size 15 to 20)
#    0.000    1.500    2.500    4.500    3.500    1.000 
#    4.500    0.625    0.000    0.000    0.000    0.000 
#    0.000    0.000    0.000    0.000    0.000    0.000 
#
# Total GULP energy -396693.493857 kJ/mol
# GULP energy per Si atom -12396.671683 kJ/mol
# Density = 2.081704 g / cm^3
# Si number density = 20.864524 Si / 1000 Ang^3
#
#
#
# Elastic Constant Matrix: (Units=GPa)
#
#
# Indices 1 2 3 4 5 6 
#
# 1 145.5618 39.6914 44.5525 0.0000 0.0000 0.0000
# 2 39.6914 56.1915 20.6503 0.0000 0.0000 0.0000
# 3 44.5525 20.6503 100.6739 0.0000 0.0000 0.0000
# 4 0.0000 0.0000 0.0000 27.3428 0.0000 0.0000
# 5 0.0000 0.0000 0.0000 0.0000 22.0531 0.0000
# 6 0.0000 0.0000 0.0000 0.0000 0.0000 21.4775
#
#
#
# Elastic Compliance Matrix: (Units=1/GPa)
#
#
# Indices 1 2 3 4 5 6 
#
# 1 0.009270 -0.005451 -0.002984 0.000000 0.000000 0.000000
# 2 -0.005451 0.022453 -0.002193 0.000000 0.000000 0.000000
# 3 -0.002984 -0.002193 0.011704 0.000000 0.000000 0.000000
# 4 0.000000 0.000000 0.000000 0.036573 0.000000 0.000000
# 5 0.000000 0.000000 0.000000 0.000000 0.045345 0.000000
# 6 0.000000 0.000000 0.000000 0.000000 0.000000 0.046560
#
#
# Mechanical properties :
#
#
# Convention : Reuss Voigt Hill
#
# Bulk Modulus (GPa) = 45.10766 56.91286 51.01026
# Shear Modulus (GPa) = 24.93137 27.34354 26.13746
#
# Velocity S-wave (km/s) = 3.46051 3.62405 3.54322
# Velocity P-wave (km/s) = 6.13458 6.69688 6.42189
#
# Compressibility (1/GPa) = 0.02216919
#
# Stress axis : x y z
#
# Youngs Moduli (GPa) = 107.87878 44.53806 85.44438
#
# Poissons Ratio (x) = 0.24278 0.25497
# Poissons Ratio (y) = 0.58805 0.18740
# Poissons Ratio (z) = 0.32192 0.09768
#
# Static dielectric constant tensor:
#      x y z
#    x 3.688040 0.000000 0.000000 
#    y 0.000000 3.543730 0.000000 
#    z 0.000000 0.000000 4.315910 
# 
# 
# High freq. dielectric constant tensor:
#      x y z
#    x 1.801810 0.000000 0.000000 
#    y 0.000000 1.796020 0.000000 
#    z 0.000000 0.000000 1.834000 
# 
# From -- ./inp_files/5322.got.cif
#   From: 2010.03.12/outbox.cif.g09.slc.cpg/sg36_3_cif.got.tgz:5322.got - 2010.04.14 02:13:53.
