data_PCOD8174351
_publ_section_title
;
Structure prediction by ZEFSAII (Michael W. Deem and Ramdas Pophale) SiO2 
 PCOD8174351
Probable space group: C M C 21
;
_chemical_formula_sum "Si O2"
_cell_formula_units_Z 64
_cell_length_a 9.570744
_cell_length_b 28.928917
_cell_length_c 12.508423
_cell_angle_alpha 90.000000
_cell_angle_beta 90.000000
_cell_angle_gamma 90.000000
_cell_volume 3463.222822
_symmetry_space_group_name_H-M "C M C 21"
_symmetry_group_IT_number 36
_symmetry_cell_setting 'orthorhombic'
loop_
_space_group_symop_operation_xyz
x,y,z
-x,-y,1/2+z
x,-y,1/2+z
-x,y,z
1/2+x,1/2+y,z
1/2-x,1/2-y,1/2+z
1/2+x,1/2-y,1/2+z
1/2-x,1/2+y,z
loop_
_atom_site_type_symbol
_atom_site_label
_atom_site_fract_x
_atom_site_fract_y
_atom_site_fract_z
Si Si1 0.338216 0.070913 0.613250
Si Si2 0.161615 0.532245 0.167294
Si Si3 0.335271 0.085751 0.375036
Si Si4 0.153459 0.178785 0.097910
Si Si5 0.665445 0.815734 0.799534
Si Si6 0.664647 0.718953 0.880376
Si Si7 0.846384 0.920573 0.495636
Si Si8 0.665693 0.375430 0.278823
O O1 0.500000 0.086607 0.614507
O O2 0.284694 0.066698 0.490012
O O3 0.246734 0.109526 0.672383
O O4 0.318392 0.022663 0.674820
O O5 0.226135 0.555669 0.275180
O O6 0.237583 0.548197 0.059287
O O7 0.000000 0.545882 0.153403
O O8 0.500000 0.081141 0.366493
O O9 0.287228 0.139343 0.367057
O O10 0.275773 0.179394 0.182012
O O11 0.139610 0.128337 0.051033
O O12 0.000000 0.193273 0.143764
O O13 0.202343 0.213280 0.004503
O O14 0.500000 0.813528 0.791520
O O15 0.729059 0.768453 0.847571
O O16 0.500000 0.719242 0.865339
O O17 0.721253 0.676076 0.809233
O O18 0.796907 0.911648 0.373716
O O19 0.000000 0.944453 0.496705
O O20 0.500000 0.375466 0.257494
#
# Coordination Sequence:
#
# PCOD8174351 Si02
#       8
#     8   8   8   8   8   8   8   8
#     4  10  22  36  54  79 110 144 178 218 268 321
#     4  10  20  34  55  79 105 138 176 220 264 314
#     4   9  19  35  51  77 110 137 172 218 267 316
#     4   9  17  32  51  74 103 134 173 218 265 309
#     4  10  18  32  55  77 103 139 178 216 262 317
#     4   8  17  33  53  75 102 143 178 211 264 319
#     4   9  18  33  54  76 102 135 174 223 266 311
#     4   9  19  37  55  75 107 140 177 220 266 315
#
# _framework density 18.479897999999999
#
# number of rings (size 3 to 8) (size 9 to 14) (size 15 to 20)
#    0.000    2.750    1.250    1.500    1.750    2.000 
#    0.000    5.625    0.000    0.000    0.000    0.000 
#    0.000    0.000    0.000    0.000    0.000    0.000 
#
# Total GULP energy -396605.560378 kJ/mol
# GULP energy per Si atom -12393.923762 kJ/mol
# Density = 1.843784 g / cm^3
# Si number density = 18.479898 Si / 1000 Ang^3
#
#
#
# Elastic Constant Matrix: (Units=GPa)
#
#
# Indices 1 2 3 4 5 6 
#
# 1 32.5647 27.6944 27.7196 0.0000 0.0000 0.0000
# 2 27.6944 74.3214 46.0814 0.0000 0.0000 0.0000
# 3 27.7196 46.0814 100.3172 0.0000 0.0000 0.0000
# 4 0.0000 0.0000 0.0000 0.8405 0.0000 0.0000
# 5 0.0000 0.0000 0.0000 0.0000 9.4629 0.0000
# 6 0.0000 0.0000 0.0000 0.0000 0.0000 17.6552
#
#
#
# Elastic Compliance Matrix: (Units=1/GPa)
#
#
# Indices 1 2 3 4 5 6 
#
# 1 0.048323 -0.013602 -0.007105 0.000000 0.000000 0.000000
# 2 -0.013602 0.022642 -0.006642 0.000000 0.000000 0.000000
# 3 -0.007105 -0.006642 0.014983 0.000000 0.000000 0.000000
# 4 0.000000 0.000000 0.000000 1.189758 0.000000 0.000000
# 5 0.000000 0.000000 0.000000 0.000000 0.105676 0.000000
# 6 0.000000 0.000000 0.000000 0.000000 0.000000 0.056641
#
#
# Mechanical properties :
#
#
# Convention : Reuss Voigt Hill
#
# Bulk Modulus (GPa) = 31.99941 45.57712 38.78827
# Shear Modulus (GPa) = 3.32638 12.63891 7.98265
#
# Velocity S-wave (km/s) = 1.34310 2.61804 2.08063
# Velocity P-wave (km/s) = 4.44506 5.81854 5.17755
#
# Compressibility (1/GPa) = 0.03125057
#
# Stress axis : x y z
#
# Youngs Moduli (GPa) = 20.69412 44.16602 66.74354
#
# Poissons Ratio (x) = 0.60072 0.47419
# Poissons Ratio (y) = 0.28147 0.44333
# Poissons Ratio (z) = 0.14702 0.29336
#
# Static dielectric constant tensor:
#      x y z
#    x 3.836480 0.000000 0.000000 
#    y 0.000000 3.674770 0.000000 
#    z 0.000000 0.000000 3.706260 
# 
# 
# High freq. dielectric constant tensor:
#      x y z
#    x 1.684680 0.000000 0.000000 
#    y 0.000000 1.717090 0.000000 
#    z 0.000000 0.000000 1.717050 
# 
# From -- ./inp_files/7187.got.cif
#   From: 2010.03.12/outbox.cif.g09.slc.cpg/sg36_4_cif.got.tgz:7187.got - 2010.04.14 02:13:53.
