data_PCOD8174730
_publ_section_title
;
Structure prediction by ZEFSAII (Michael W. Deem and Ramdas Pophale) SiO2 
 PCOD8174730
Probable space group: C M C 21
;
_chemical_formula_sum "Si O2"
_cell_formula_units_Z 64
_cell_length_a 18.009495
_cell_length_b 9.599487
_cell_length_c 19.651383
_cell_angle_alpha 90.000000
_cell_angle_beta 90.000000
_cell_angle_gamma 90.000000
_cell_volume 3397.368689
_symmetry_space_group_name_H-M "C M C 21"
_symmetry_group_IT_number 36
_symmetry_cell_setting 'orthorhombic'
loop_
_space_group_symop_operation_xyz
x,y,z
-x,-y,1/2+z
x,-y,1/2+z
-x,y,z
1/2+x,1/2+y,z
1/2-x,1/2-y,1/2+z
1/2+x,1/2-y,1/2+z
1/2-x,1/2+y,z
loop_
_atom_site_type_symbol
_atom_site_label
_atom_site_fract_x
_atom_site_fract_y
_atom_site_fract_z
Si Si1 0.147296 0.928603 0.125000
Si Si2 0.819781 0.616504 0.615443
Si Si3 0.185754 0.680121 0.768788
Si Si4 0.086403 0.822881 0.377772
Si Si5 0.584876 0.867044 0.649155
Si Si6 0.085549 0.443081 0.803125
Si Si7 0.413055 0.666533 0.033991
Si Si8 0.670230 0.496880 0.775780
O O1 0.232390 0.903864 0.102311
O O2 0.102230 0.786341 0.123995
O O3 0.139782 0.999539 0.198944
O O4 0.105113 0.023109 0.070973
O O5 0.834342 0.683902 0.689086
O O6 0.859755 0.467972 0.608897
O O7 0.857815 0.714595 0.560139
O O8 0.124341 0.593472 0.810887
O O9 0.261702 0.601292 0.781740
O O10 0.191483 0.838299 0.795087
O O11 0.119072 0.671464 0.355362
O O12 0.106784 0.854775 0.455154
O O13 0.111473 0.950993 0.330786
O O14 0.000000 0.811369 0.365091
O O15 0.500000 0.906744 0.632426
O O16 0.601315 0.877809 0.729121
O O17 0.000000 0.473585 0.816626
O O18 0.500000 0.706558 0.044581
#
# Coordination Sequence:
#
# PCOD8174730 Si02
#       8
#     8   8   8   8   8   8   8   8
#     4  11  21  36  61  89 118 156 198 254 298 357
#     4  10  21  37  59  88 119 151 195 246 304 354
#     4  10  21  35  61  90 115 151 192 256 293 360
#     4  10  22  40  60  83 123 166 200 245 304 365
#     4  10  19  33  57  86 115 147 192 244 296 349
#     4   9  18  35  56  84 115 149 193 242 295 351
#     4  11  23  41  60  87 124 164 203 247 305 367
#     4  11  21  37  60  87 121 152 201 248 307 347
#
# _framework density 18.838107999999998
#
# number of rings (size 3 to 8) (size 9 to 14) (size 15 to 20)
#    0.000    1.750    2.500    2.250    7.000    1.500 
#    4.500    1.250    0.000    3.000    0.000    0.000 
#    0.000    0.000    0.000    0.000    0.000    0.000 
#
# Total GULP energy -396809.705721 kJ/mol
# GULP energy per Si atom -12400.303304 kJ/mol
# Density = 1.879523 g / cm^3
# Si number density = 18.838108 Si / 1000 Ang^3
#
#
#
# Elastic Constant Matrix: (Units=GPa)
#
#
# Indices 1 2 3 4 5 6 
#
# 1 61.7629 23.7364 41.4470 0.0000 0.0000 0.0000
# 2 23.7364 132.3910 46.5096 0.0000 0.0000 0.0000
# 3 41.4470 46.5096 84.0404 0.0000 0.0000 0.0000
# 4 0.0000 0.0000 0.0000 23.3908 0.0000 0.0000
# 5 0.0000 0.0000 0.0000 0.0000 24.2170 0.0000
# 6 0.0000 0.0000 0.0000 0.0000 0.0000 33.4767
#
#
#
# Elastic Compliance Matrix: (Units=1/GPa)
#
#
# Indices 1 2 3 4 5 6 
#
# 1 0.024204 -0.000181 -0.011836 0.000000 0.000000 0.000000
# 2 -0.000181 0.009378 -0.005100 0.000000 0.000000 0.000000
# 3 -0.011836 -0.005100 0.020559 0.000000 0.000000 0.000000
# 4 0.000000 0.000000 0.000000 0.042752 0.000000 0.000000
# 5 0.000000 0.000000 0.000000 0.000000 0.041293 0.000000
# 6 0.000000 0.000000 0.000000 0.000000 0.000000 0.029871
#
#
# Mechanical properties :
#
#
# Convention : Reuss Voigt Hill
#
# Bulk Modulus (GPa) = 50.24034 55.73115 52.98574
# Shear Modulus (GPa) = 23.93168 27.31699 25.62434
#
# Velocity S-wave (km/s) = 3.56812 3.81214 3.69214
# Velocity P-wave (km/s) = 6.61080 7.00179 6.80910
#
# Compressibility (1/GPa) = 0.01990433
#
# Stress axis : x y z
#
# Youngs Moduli (GPa) = 41.31607 106.63624 48.64014
#
# Poissons Ratio (x) = 0.01933 0.57572
# Poissons Ratio (y) = 0.00749 0.24808
# Poissons Ratio (z) = 0.48903 0.54389
#
# Static dielectric constant tensor:
#      x y z
#    x 3.508070 0.000000 0.000000 
#    y 0.000000 3.556490 0.000000 
#    z 0.000000 0.000000 3.312700 
# 
# 
# High freq. dielectric constant tensor:
#      x y z
#    x 1.738550 0.000000 0.000000 
#    y 0.000000 1.743170 0.000000 
#    z 0.000000 0.000000 1.700910 
# 
# From -- ./inp_files/15036.got.cif
#   From: 2010.03.12/outbox.cif.g09.slc.cpg/sg36_8_cif.got.tgz:15036.got - 2010.04.14 02:13:53.
