data_PCOD8174967
_publ_section_title
;
Structure prediction by ZEFSAII (Michael W. Deem and Ramdas Pophale) SiO2 
 PCOD8174967
Probable space group: C M C 21
;
_chemical_formula_sum "Si O2"
_cell_formula_units_Z 64
_cell_length_a 8.770792
_cell_length_b 29.094905
_cell_length_c 12.250211
_cell_angle_alpha 90.000000
_cell_angle_beta 90.000000
_cell_angle_gamma 90.000000
_cell_volume 3126.074504
_symmetry_space_group_name_H-M "C M C 21"
_symmetry_group_IT_number 36
_symmetry_cell_setting 'orthorhombic'
loop_
_space_group_symop_operation_xyz
x,y,z
-x,-y,1/2+z
x,-y,1/2+z
-x,y,z
1/2+x,1/2+y,z
1/2-x,1/2-y,1/2+z
1/2+x,1/2-y,1/2+z
1/2-x,1/2+y,z
loop_
_atom_site_type_symbol
_atom_site_label
_atom_site_fract_x
_atom_site_fract_y
_atom_site_fract_z
Si Si1 0.819459 0.225173 0.981460
Si Si2 0.325871 0.064300 0.828423
Si Si3 0.168458 0.432628 0.575288
Si Si4 0.827892 0.334168 0.657877
Si Si5 0.318213 0.165682 0.786164
Si Si6 0.177512 0.879709 0.861329
Si Si7 0.326534 0.473302 0.767706
Si Si8 0.678158 0.315725 0.054755
O O1 0.756855 0.196942 0.878773
O O2 0.000000 0.229572 0.971523
O O3 0.776916 0.203400 0.098916
O O4 0.741476 0.275029 0.978695
O O5 0.500000 0.067539 0.794679
O O6 0.252892 0.113651 0.798610
O O7 0.256565 0.021742 0.764961
O O8 0.300405 0.051421 0.953635
O O9 0.173945 0.377666 0.577551
O O10 0.303206 0.453688 0.646617
O O11 0.000000 0.448998 0.615540
O O12 0.766658 0.346941 0.777413
O O13 0.000000 0.314946 0.670491
O O14 0.500000 0.168113 0.800344
O O15 0.271319 0.183117 0.666868
O O16 0.234438 0.933088 0.850376
O O17 0.000000 0.877444 0.828736
O O18 0.205061 0.862509 0.984809
O O19 0.500000 0.483853 0.792819
O O20 0.500000 0.308563 0.079835
#
# Coordination Sequence:
#
# PCOD8174967 Si02
#       8
#     8   8   8   8   8   8   8   8
#     4  12  25  41  64  93 125 164 209 255 316 380
#     4  10  21  39  62  88 122 164 208 256 312 375
#     4   9  18  36  58  83 115 156 204 254 309 368
#     4  10  19  36  63  90 118 153 203 261 311 365
#     4  11  24  45  67  93 128 163 212 266 318 376
#     4   9  21  41  61  87 126 166 208 259 315 373
#     4  10  21  36  58  91 125 161 208 259 314 373
#     4  11  25  44  65  91 129 171 212 260 319 380
#
# _framework density 20.47296
#
# number of rings (size 3 to 8) (size 9 to 14) (size 15 to 20)
#    0.000    1.750    1.250    2.625    1.750    4.500 
#    0.000    2.500    0.000    0.000    0.000    0.000 
#    0.000    0.000    0.000    0.000    0.000    0.000 
#
# Total GULP energy -396753.743027 kJ/mol
# GULP energy per Si atom -12398.554470 kJ/mol
# Density = 2.042636 g / cm^3
# Si number density = 20.472960 Si / 1000 Ang^3
#
#
#
# Elastic Constant Matrix: (Units=GPa)
#
#
# Indices 1 2 3 4 5 6 
#
# 1 66.5100 26.0547 24.1477 0.0000 0.0000 0.0000
# 2 26.0547 116.2773 31.4400 0.0000 0.0000 0.0000
# 3 24.1477 31.4400 58.5410 0.0000 0.0000 0.0000
# 4 0.0000 0.0000 0.0000 23.9960 0.0000 0.0000
# 5 0.0000 0.0000 0.0000 0.0000 33.2846 0.0000
# 6 0.0000 0.0000 0.0000 0.0000 0.0000 29.4535
#
#
#
# Elastic Compliance Matrix: (Units=1/GPa)
#
#
# Indices 1 2 3 4 5 6 
#
# 1 0.018239 -0.002401 -0.006234 0.000000 0.000000 0.000000
# 2 -0.002401 0.010377 -0.004583 0.000000 0.000000 0.000000
# 3 -0.006234 -0.004583 0.022115 0.000000 0.000000 0.000000
# 4 0.000000 0.000000 0.000000 0.041674 0.000000 0.000000
# 5 0.000000 0.000000 0.000000 0.000000 0.030044 0.000000
# 6 0.000000 0.000000 0.000000 0.000000 0.000000 0.033952
#
#
# Mechanical properties :
#
#
# Convention : Reuss Voigt Hill
#
# Bulk Modulus (GPa) = 41.16007 44.95701 43.05854
# Shear Modulus (GPa) = 26.18689 27.99254 27.08972
#
# Velocity S-wave (km/s) = 3.58033 3.70170 3.64152
# Velocity P-wave (km/s) = 6.10245 6.34642 6.22563
#
# Compressibility (1/GPa) = 0.02429539
#
# Stress axis : x y z
#
# Youngs Moduli (GPa) = 54.82636 96.36397 45.21891
#
# Poissons Ratio (x) = 0.23141 0.28189
# Poissons Ratio (y) = 0.13166 0.20722
# Poissons Ratio (z) = 0.34178 0.44161
#
# Static dielectric constant tensor:
#      x y z
#    x 3.669660 0.000000 0.000000 
#    y 0.000000 3.857840 0.000000 
#    z 0.000000 0.000000 3.509110 
# 
# 
# High freq. dielectric constant tensor:
#      x y z
#    x 1.799070 0.000000 0.000000 
#    y 0.000000 1.805220 0.000000 
#    z 0.000000 0.000000 1.794880 
# 
# From -- ./inp_files/7276.got.cif
#   From: 2010.03.12/outbox.cif.g09.slc.cpg/sg36_4_cif.got.tgz:7276.got - 2010.04.14 02:13:53.
