data_PCOD8174056
_publ_section_title
;
Structure prediction by ZEFSAII (Michael W. Deem and Ramdas Pophale) SiO2 
 PCOD8174056
Probable space group: C M M 2
;
_chemical_formula_sum "Si O2"
_cell_formula_units_Z 40
_cell_length_a 17.545316
_cell_length_b 17.777105
_cell_length_c 5.353530
_cell_angle_alpha 90.000000
_cell_angle_beta 90.000000
_cell_angle_gamma 90.000000
_cell_volume 1669.792372
_symmetry_space_group_name_H-M "C M M 2"
_symmetry_group_IT_number 35
_symmetry_cell_setting 'orthorhombic'
loop_
_space_group_symop_operation_xyz
x,y,z
-x,-y,z
-x,y,z
x,-y,z
1/2+x,1/2+y,z
1/2-x,1/2-y,z
1/2-x,1/2+y,z
1/2+x,1/2-y,z
loop_
_atom_site_type_symbol
_atom_site_label
_atom_site_fract_x
_atom_site_fract_y
_atom_site_fract_z
Si Si1 0.314110 0.300283 0.795960
Si Si2 0.778486 0.081369 0.428581
Si Si3 0.087707 0.329958 0.636682
Si Si4 0.912532 0.916059 0.101420
Si Si5 0.363599 0.913722 0.139464
O O1 0.250000 0.250000 0.945697
O O2 0.260716 0.354417 0.627713
O O3 0.364770 0.247246 0.617494
O O4 0.372757 0.349215 0.952777
O O5 0.868444 0.081387 0.364932
O O6 0.728492 0.094057 0.175885
O O7 0.755573 0.000000 0.544788
O O8 0.099509 0.380238 0.391457
O O9 0.000000 0.307517 0.655462
O O10 0.110625 0.372029 0.891799
O O11 0.000000 0.894762 0.150597
O O12 0.905947 0.000000 0.975599
O O13 0.389632 0.000000 0.116821
#
# Coordination Sequence:
#
# PCOD8174056 Si02
#       5
#     8   8   8   8   8
#     4  12  24  42  67  99 141 188 230 293 360 426
#     4  10  23  43  71 101 136 186 241 292 351 430
#     4  12  27  45  71 109 145 188 240 298 362 426
#     4  10  23  43  69 100 136 182 238 298 362 428
#     4  11  25  48  75 105 143 192 243 293 354 433
#
# _framework density 23.955074
#
# number of rings (size 3 to 8) (size 9 to 14) (size 15 to 20)
#    0.000    1.000    2.000    3.600    2.800    4.800 
#    0.000    2.000    0.000    0.000    0.000    0.000 
#    0.000    0.000    0.000    0.000    0.000    0.000 
#
# Total GULP energy -247865.284236 kJ/mol
# GULP energy per Si atom -12393.264212 kJ/mol
# Density = 2.390055 g / cm^3
# Si number density = 23.955074 Si / 1000 Ang^3
#
#
#
# Elastic Constant Matrix: (Units=GPa)
#
#
# Indices 1 2 3 4 5 6 
#
# 1 135.0018 38.2428 7.8318 0.0000 0.0000 0.0000
# 2 38.2428 124.1032 34.5022 0.0000 0.0000 0.0000
# 3 7.8318 34.5022 97.7944 0.0000 0.0000 0.0000
# 4 0.0000 0.0000 0.0000 16.7757 0.0000 0.0000
# 5 0.0000 0.0000 0.0000 0.0000 14.6673 0.0000
# 6 0.0000 0.0000 0.0000 0.0000 0.0000 33.9973
#
#
#
# Elastic Compliance Matrix: (Units=1/GPa)
#
#
# Indices 1 2 3 4 5 6 
#
# 1 0.008122 -0.002574 0.000258 0.000000 0.000000 0.000000
# 2 -0.002574 0.009750 -0.003234 0.000000 0.000000 0.000000
# 3 0.000258 -0.003234 0.011346 0.000000 0.000000 0.000000
# 4 0.000000 0.000000 0.000000 0.059610 0.000000 0.000000
# 5 0.000000 0.000000 0.000000 0.000000 0.068179 0.000000
# 6 0.000000 0.000000 0.000000 0.000000 0.000000 0.029414
#
#
# Mechanical properties :
#
#
# Convention : Reuss Voigt Hill
#
# Bulk Modulus (GPa) = 55.19686 57.56146 56.37916
# Shear Modulus (GPa) = 24.56281 31.50958 28.03619
#
# Velocity S-wave (km/s) = 3.20561 3.63073 3.42477
# Velocity P-wave (km/s) = 6.06573 6.45425 6.26300
#
# Compressibility (1/GPa) = 0.01811697
#
# Stress axis : x y z
#
# Youngs Moduli (GPa) = 123.12822 102.56276 88.13872
#
# Poissons Ratio (x) = 0.26404 -0.02273
# Poissons Ratio (y) = 0.31698 0.28502
# Poissons Ratio (z) = -0.03175 0.33166
#
# Static dielectric constant tensor:
#      x y z
#    x 4.678270 0.000000 0.000000 
#    y 0.000000 4.767570 0.000000 
#    z 0.000000 0.000000 3.902820 
# 
# 
# High freq. dielectric constant tensor:
#      x y z
#    x 1.967430 0.000000 0.000000 
#    y 0.000000 1.976280 0.000000 
#    z 0.000000 0.000000 1.919620 
# 
# From -- ./inp_files/2347.got.cif
#   From: 2010.03.12/outbox.cif.g09.slc.cpg/sg35_2_cif.got.tgz:2347.got - 2010.04.14 02:02:04.
