data_PCOD8174728
_publ_section_title
;
Structure prediction by ZEFSAII (Michael W. Deem and Ramdas Pophale) SiO2 
 PCOD8174728
Probable space group: C M C 21
;
_chemical_formula_sum "Si O2"
_cell_formula_units_Z 64
_cell_length_a 8.836460
_cell_length_b 19.873854
_cell_length_c 19.555650
_cell_angle_alpha 90.000000
_cell_angle_beta 90.000000
_cell_angle_gamma 90.000000
_cell_volume 3434.256008
_symmetry_space_group_name_H-M "C M C 21"
_symmetry_group_IT_number 36
_symmetry_cell_setting 'orthorhombic'
loop_
_space_group_symop_operation_xyz
x,y,z
-x,-y,1/2+z
x,-y,1/2+z
-x,y,z
1/2+x,1/2+y,z
1/2-x,1/2-y,1/2+z
1/2+x,1/2-y,1/2+z
1/2-x,1/2+y,z
loop_
_atom_site_type_symbol
_atom_site_label
_atom_site_fract_x
_atom_site_fract_y
_atom_site_fract_z
Si Si1 0.825038 0.306773 0.315390
Si Si2 0.176243 0.018571 0.969456
Si Si3 0.321600 0.069679 0.723696
Si Si4 0.175480 0.344176 0.469149
Si Si5 0.676567 0.593911 0.580804
Si Si6 0.322081 0.209780 0.500898
Si Si7 0.179006 0.965201 0.823497
Si Si8 0.676935 0.826399 0.847049
O O1 0.773405 0.359925 0.258301
O O2 0.791737 0.340271 0.388491
O O3 0.726392 0.239747 0.305122
O O4 0.000000 0.286849 0.308197
O O5 0.267249 0.083674 0.995131
O O6 0.236559 0.995999 0.895176
O O7 0.000000 0.036856 0.966916
O O8 0.211265 0.958617 0.021059
O O9 0.500000 0.059230 0.728355
O O10 0.267817 0.069255 0.646213
O O11 0.242865 0.007822 0.761162
O O12 0.267828 0.286557 0.508849
O O13 0.000000 0.335414 0.486627
O O14 0.500000 0.598629 0.598155
O O15 0.736041 0.666603 0.557775
O O16 0.500000 0.205426 0.513893
O O17 0.276176 0.182437 0.426179
O O18 0.000000 0.964609 0.820282
O O19 0.237059 0.889441 0.815277
O O20 0.500000 0.837505 0.838459
#
# Coordination Sequence:
#
# PCOD8174728 Si02
#       8
#     8   8   8   8   8   8   8   8
#     4   9  19  35  55  81 114 148 184 230 285 341
#     4  10  21  36  57  85 117 151 192 239 288 342
#     4  11  23  40  59  85 118 155 195 240 292 351
#     4  10  19  33  57  86 115 146 186 237 287 337
#     4  11  23  40  59  84 117 157 197 238 291 353
#     4  10  20  35  56  84 116 150 188 235 287 342
#     4  11  21  36  59  86 117 154 193 239 291 345
#     4  10  20  33  56  87 116 145 187 238 285 335
#
# _framework density 18.635769
#
# number of rings (size 3 to 8) (size 9 to 14) (size 15 to 20)
#    0.000    1.750    2.500    2.250    0.000    4.000 
#    0.000    1.250    0.000    7.500    0.000    0.000 
#    0.000    0.000    0.000    0.000    0.000    0.000 
#
# Total GULP energy -396985.150793 kJ/mol
# GULP energy per Si atom -12405.785962 kJ/mol
# Density = 1.859335 g / cm^3
# Si number density = 18.635769 Si / 1000 Ang^3
#
#
#
# Elastic Constant Matrix: (Units=GPa)
#
#
# Indices 1 2 3 4 5 6 
#
# 1 60.7476 37.8766 11.8182 0.0000 0.0000 0.0000
# 2 37.8766 103.9497 11.8421 0.0000 0.0000 0.0000
# 3 11.8182 11.8421 42.5876 0.0000 0.0000 0.0000
# 4 0.0000 0.0000 0.0000 22.1590 0.0000 0.0000
# 5 0.0000 0.0000 0.0000 0.0000 28.4066 0.0000
# 6 0.0000 0.0000 0.0000 0.0000 0.0000 38.3285
#
#
#
# Elastic Compliance Matrix: (Units=1/GPa)
#
#
# Indices 1 2 3 4 5 6 
#
# 1 0.021939 -0.007539 -0.003992 0.000000 0.000000 0.000000
# 2 -0.007539 0.012526 -0.001391 0.000000 0.000000 0.000000
# 3 -0.003992 -0.001391 0.024975 0.000000 0.000000 0.000000
# 4 0.000000 0.000000 0.000000 0.045128 0.000000 0.000000
# 5 0.000000 0.000000 0.000000 0.000000 0.035203 0.000000
# 6 0.000000 0.000000 0.000000 0.000000 0.000000 0.026090
#
#
# Mechanical properties :
#
#
# Convention : Reuss Voigt Hill
#
# Bulk Modulus (GPa) = 29.76500 36.70652 33.23576
# Shear Modulus (GPa) = 24.64220 27.49534 26.06877
#
# Velocity S-wave (km/s) = 3.64030 3.84527 3.74419
# Velocity P-wave (km/s) = 5.80307 6.28127 6.04690
#
# Compressibility (1/GPa) = 0.03359651
#
# Stress axis : x y z
#
# Youngs Moduli (GPa) = 45.58117 79.83659 40.03935
#
# Poissons Ratio (x) = 0.60191 0.15982
# Poissons Ratio (y) = 0.34365 0.05569
# Poissons Ratio (z) = 0.18195 0.11103
#
# Static dielectric constant tensor:
#      x y z
#    x 3.424040 0.000000 0.000000 
#    y 0.000000 3.474970 0.000000 
#    z 0.000000 0.000000 3.209170 
# 
# 
# High freq. dielectric constant tensor:
#      x y z
#    x 1.733120 0.000000 0.000000 
#    y 0.000000 1.735730 0.000000 
#    z 0.000000 0.000000 1.695330 
# 
# From -- ./inp_files/13862.got.cif
#   From: 2010.03.12/outbox.cif.g09.slc.cpg/sg36_7_cif.got.tgz:13862.got - 2010.04.14 02:13:53.
