data_PCOD8174074
_publ_section_title
;
Structure prediction by ZEFSAII (Michael W. Deem and Ramdas Pophale) SiO2 
 PCOD8174074
Probable space group: C M M 2
;
_chemical_formula_sum "Si O2"
_cell_formula_units_Z 56
_cell_length_a 8.675425
_cell_length_b 21.754834
_cell_length_c 14.602160
_cell_angle_alpha 90.000000
_cell_angle_beta 90.000000
_cell_angle_gamma 90.000000
_cell_volume 2755.901151
_symmetry_space_group_name_H-M "C M M 2"
_symmetry_group_IT_number 35
_symmetry_cell_setting 'orthorhombic'
loop_
_space_group_symop_operation_xyz
x,y,z
-x,-y,z
-x,y,z
x,-y,z
1/2+x,1/2+y,z
1/2-x,1/2-y,z
1/2-x,1/2+y,z
1/2+x,1/2-y,z
loop_
_atom_site_type_symbol
_atom_site_label
_atom_site_fract_x
_atom_site_fract_y
_atom_site_fract_z
Si Si1 0.816819 0.000000 0.065100
Si Si2 0.816874 0.568748 0.582291
Si Si3 0.819892 0.570075 0.789809
Si Si4 0.818860 0.132057 0.295244
Si Si5 0.181188 0.120346 0.962078
Si Si6 0.319828 0.500000 0.267114
Si Si7 0.682259 0.185862 0.121765
Si Si8 0.181726 0.685494 0.468135
O O1 0.742116 0.000000 0.166332
O O2 0.756957 0.941013 0.010594
O O3 0.000000 0.000000 0.066263
O O4 0.756119 0.500000 0.552476
O O5 0.764836 0.582424 0.686206
O O6 0.750932 0.625415 0.521632
O O7 0.000000 0.567621 0.575987
O O8 0.779118 0.500000 0.816639
O O9 0.730047 0.617425 0.855727
O O10 0.000000 0.582751 0.799904
O O11 0.760801 0.137410 0.190880
O O12 0.729115 0.178098 0.362119
O O13 0.000000 0.145809 0.301577
O O14 0.776761 0.061447 0.323697
O O15 0.000000 0.130911 0.969490
O O16 0.266324 0.174862 0.016664
O O17 0.500000 0.500000 0.246668
O O18 0.500000 0.184296 0.131519
O O19 0.750000 0.250000 0.155235
O O20 0.250000 0.750000 0.506094
O O21 0.000000 0.689188 0.478524
#
# Coordination Sequence:
#
# PCOD8174074 Si02
#       8
#     4   8   8   8   8   4   8   8
#     4   9  16  30  52  79 112 149 181 218 274 326
#     4   8  17  36  61  87 117 152 193 247 305 354
#     4   9  17  32  56  86 116 149 191 238 290 348
#     4  11  22  39  61  86 118 154 191 236 291 351
#     4  11  20  34  56  84 118 155 189 231 282 338
#     4   9  18  34  56  83 116 153 185 228 288 342
#     4  12  25  41  58  80 110 152 200 245 287 341
#     4  11  23  40  62  87 116 154 199 247 298 358
#
# _framework density 20.320032000000001
#
# number of rings (size 3 to 8) (size 9 to 14) (size 15 to 20)
#    0.000    1.857    2.143    3.857    1.000    0.000 
#    0.000    3.929    0.000    3.429    0.000    0.000 
#    0.000    0.000    0.000    0.000    0.000    0.000 
#
# Total GULP energy -347099.995264 kJ/mol
# GULP energy per Si atom -12396.428402 kJ/mol
# Density = 2.027378 g / cm^3
# Si number density = 20.320032 Si / 1000 Ang^3
#
#
#
# Elastic Constant Matrix: (Units=GPa)
#
#
# Indices 1 2 3 4 5 6 
#
# 1 72.4536 35.0030 22.4530 0.0000 0.0000 0.0000
# 2 35.0030 120.4285 43.6158 0.0000 0.0000 0.0000
# 3 22.4530 43.6158 88.7799 0.0000 0.0000 0.0000
# 4 0.0000 0.0000 0.0000 29.7855 0.0000 0.0000
# 5 0.0000 0.0000 0.0000 0.0000 24.5448 0.0000
# 6 0.0000 0.0000 0.0000 0.0000 0.0000 25.3523
#
#
#
# Elastic Compliance Matrix: (Units=1/GPa)
#
#
# Indices 1 2 3 4 5 6 
#
# 1 0.016401 -0.003971 -0.002197 0.000000 0.000000 0.000000
# 2 -0.003971 0.011063 -0.004430 0.000000 0.000000 0.000000
# 3 -0.002197 -0.004430 0.013996 0.000000 0.000000 0.000000
# 4 0.000000 0.000000 0.000000 0.033573 0.000000 0.000000
# 5 0.000000 0.000000 0.000000 0.000000 0.040742 0.000000
# 6 0.000000 0.000000 0.000000 0.000000 0.000000 0.039444
#
#
# Mechanical properties :
#
#
# Convention : Reuss Voigt Hill
#
# Bulk Modulus (GPa) = 49.35254 53.75618 51.55436
# Shear Modulus (GPa) = 27.29687 27.97585 27.63636
#
# Velocity S-wave (km/s) = 3.66915 3.71450 3.69189
# Velocity P-wave (km/s) = 6.50312 6.70141 6.60301
#
# Compressibility (1/GPa) = 0.02026238
#
# Stress axis : x y z
#
# Youngs Moduli (GPa) = 60.97036 90.39486 71.44900
#
# Poissons Ratio (x) = 0.35900 0.15697
# Poissons Ratio (y) = 0.24214 0.31655
# Poissons Ratio (z) = 0.13395 0.40049
#
# Static dielectric constant tensor:
#      x y z
#    x 3.298750 0.000000 0.000000 
#    y 0.000000 3.867730 0.000000 
#    z 0.000000 0.000000 3.662470 
# 
# 
# High freq. dielectric constant tensor:
#      x y z
#    x 1.768670 0.000000 0.000000 
#    y 0.000000 1.793250 0.000000 
#    z 0.000000 0.000000 1.789170 
# 
# From -- ./inp_files/15797.got.cif
#   From: 2010.03.12/outbox.cif.g09.slc.cpg/sg35_8_cif.got.tgz:15797.got - 2010.04.14 02:02:04.
