data_PCOD8174250
_publ_section_title
;
Structure prediction by ZEFSAII (Michael W. Deem and Ramdas Pophale) SiO2 
 PCOD8174250
Probable space group: C M C 21
;
_chemical_formula_sum "Si O2"
_cell_formula_units_Z 64
_cell_length_a 9.566679
_cell_length_b 22.598957
_cell_length_c 16.456338
_cell_angle_alpha 90.000000
_cell_angle_beta 90.000000
_cell_angle_gamma 90.000000
_cell_volume 3557.810369
_symmetry_space_group_name_H-M "C M C 21"
_symmetry_group_IT_number 36
_symmetry_cell_setting 'orthorhombic'
loop_
_space_group_symop_operation_xyz
x,y,z
-x,-y,1/2+z
x,-y,1/2+z
-x,y,z
1/2+x,1/2+y,z
1/2-x,1/2-y,1/2+z
1/2+x,1/2-y,1/2+z
1/2-x,1/2+y,z
loop_
_atom_site_type_symbol
_atom_site_label
_atom_site_fract_x
_atom_site_fract_y
_atom_site_fract_z
Si Si1 0.837609 0.596905 0.662190
Si Si2 0.837722 0.636367 0.836041
Si Si3 0.341676 0.968082 0.724314
Si Si4 0.656698 0.103232 0.068186
Si Si5 0.153267 0.929801 0.871557
Si Si6 0.666581 0.347545 0.014942
Si Si7 0.160709 0.719109 0.977790
Si Si8 0.845315 0.054947 0.936847
O O1 0.816681 0.641981 0.739006
O O2 0.787782 0.530398 0.686792
O O3 0.743794 0.620395 0.589135
O O4 0.000000 0.595646 0.635323
O O5 0.784918 0.692564 0.890518
O O6 0.747698 0.579836 0.863138
O O7 0.000000 0.623878 0.856577
O O8 0.500000 0.978392 0.753262
O O9 0.330161 0.913534 0.661820
O O10 0.256395 0.944161 0.799503
O O11 0.500000 0.088304 0.036390
O O12 0.687714 0.172435 0.050667
O O13 0.770439 0.064731 0.022088
O O14 0.207077 0.877154 0.929033
O O15 0.000000 0.914351 0.835206
O O16 0.140500 0.985362 0.930469
O O17 0.500000 0.350507 0.031679
O O18 0.729272 0.281007 0.005095
O O19 0.000000 0.734040 0.965382
O O20 0.000000 0.084441 0.936018
#
# Coordination Sequence:
#
# PCOD8174250 Si02
#       8
#     8   8   8   8   8   8   8   8
#     4  10  20  34  54  82 108 132 173 223 269 313
#     4   9  17  33  56  77 101 136 176 216 257 308
#     4  10  20  34  54  80 106 133 172 216 264 318
#     4   9  18  33  54  77 100 133 174 215 256 307
#     4  10  21  34  49  74 108 139 169 208 259 317
#     4  10  21  37  54  74 105 146 181 211 259 317
#     4   8  16  34  56  73  97 138 181 211 249 311
#     4  10  18  29  49  77 105 131 164 208 259 311
#
# _framework density 17.988593000000002
#
# number of rings (size 3 to 8) (size 9 to 14) (size 15 to 20)
#    0.000    2.500    1.250    1.875    0.000    2.500 
#    2.250    2.500    0.000    0.000    0.000    0.000 
#    0.000    0.000    0.000    0.000    0.000    0.000 
#
# Total GULP energy -396531.006487 kJ/mol
# GULP energy per Si atom -12391.593953 kJ/mol
# Density = 1.794765 g / cm^3
# Si number density = 17.988593 Si / 1000 Ang^3
#
#
#
# Elastic Constant Matrix: (Units=GPa)
#
#
# Indices 1 2 3 4 5 6 
#
# 1 74.2321 37.8551 51.7420 0.0000 0.0000 0.0000
# 2 37.8551 114.2649 68.9643 0.0000 0.0000 0.0000
# 3 51.7420 68.9643 114.6583 0.0000 0.0000 0.0000
# 4 0.0000 0.0000 0.0000 26.0790 0.0000 0.0000
# 5 0.0000 0.0000 0.0000 0.0000 28.1821 0.0000
# 6 0.0000 0.0000 0.0000 0.0000 0.0000 14.2558
#
#
#
# Elastic Compliance Matrix: (Units=1/GPa)
#
#
# Indices 1 2 3 4 5 6 
#
# 1 0.019897 -0.001841 -0.007872 0.000000 0.000000 0.000000
# 2 -0.001841 0.013909 -0.007536 0.000000 0.000000 0.000000
# 3 -0.007872 -0.007536 0.016806 0.000000 0.000000 0.000000
# 4 0.000000 0.000000 0.000000 0.038345 0.000000 0.000000
# 5 0.000000 0.000000 0.000000 0.000000 0.035484 0.000000
# 6 0.000000 0.000000 0.000000 0.000000 0.000000 0.070147
#
#
# Mechanical properties :
#
#
# Convention : Reuss Voigt Hill
#
# Bulk Modulus (GPa) = 62.04782 68.91978 65.48380
# Shear Modulus (GPa) = 21.32595 23.34296 22.33446
#
# Velocity S-wave (km/s) = 3.44688 3.60620 3.52744
# Velocity P-wave (km/s) = 7.09994 7.46564 7.28508
#
# Compressibility (1/GPa) = 0.01611660
#
# Stress axis : x y z
#
# Youngs Moduli (GPa) = 50.25954 71.89333 59.50145
#
# Poissons Ratio (x) = 0.13233 0.46838
# Poissons Ratio (y) = 0.09251 0.44838
# Poissons Ratio (z) = 0.39563 0.54176
#
# Static dielectric constant tensor:
#      x y z
#    x 3.287400 0.000000 0.000000 
#    y 0.000000 3.436440 0.000000 
#    z 0.000000 0.000000 3.265780 
# 
# 
# High freq. dielectric constant tensor:
#      x y z
#    x 1.684380 0.000000 0.000000 
#    y 0.000000 1.687730 0.000000 
#    z 0.000000 0.000000 1.692050 
# 
# From -- ./inp_files/14099.got.cif
#   From: 2010.03.12/outbox.cif.g09.slc.cpg/sg36_8_cif.got.tgz:14099.got - 2010.04.14 02:13:53.
