data_PCOD8174170
_publ_section_title
;
Structure prediction by ZEFSAII (Michael W. Deem and Ramdas Pophale) SiO2 
 PCOD8174170
Probable space group: C M M 2
;
_chemical_formula_sum "Si O2"
_cell_formula_units_Z 24
_cell_length_a 18.000000
_cell_length_b 9.000000
_cell_length_c 15.000000
_cell_angle_alpha 90.000000
_cell_angle_beta 90.000000
_cell_angle_gamma 90.000000
_cell_volume 2430.000000
_symmetry_space_group_name_H-M "C M M 2"
_symmetry_group_IT_number 35
_symmetry_cell_setting 'orthorhombic'
loop_
_space_group_symop_operation_xyz
x,y,z
-x,-y,z
-x,y,z
x,-y,z
1/2+x,1/2+y,z
1/2-x,1/2-y,z
1/2-x,1/2+y,z
1/2+x,1/2-y,z
loop_
_atom_site_type_symbol
_atom_site_label
_atom_site_fract_x
_atom_site_fract_y
_atom_site_fract_z
Si Si1 0.081247 0.676208 0.056420
Si Si2 0.824768 0.325081 0.217072
Si Si3 0.588006 0.335267 0.746629
Si Si4 0.676160 0.173756 0.414490
Si Si5 0.412732 0.834947 0.579007
Si Si6 0.672995 0.825741 0.892566
O O1 0.076192 0.500000 0.047342
O O2 0.107632 0.724669 0.154333
O O3 0.000000 0.746672 0.039550
O O4 0.140433 0.736977 0.985258
O O5 0.812353 0.500000 0.212741
O O6 0.750000 0.250000 0.181472
O O7 0.844670 0.267814 0.316020
O O8 0.500000 0.338034 0.747200
O O9 0.620175 0.500000 0.765220
O O10 0.618793 0.280108 0.651272
O O11 0.613534 0.216233 0.818341
O O12 0.750000 0.250000 0.451001
O O13 0.610350 0.218787 0.480810
O O14 0.690573 0.000000 0.410639
O O15 0.500000 0.839291 0.582703
O O16 0.380458 0.000000 0.598387
O O17 0.750000 0.750000 0.870009
O O18 0.685058 0.000000 0.894579
#
# Coordination Sequence:
#
# PCOD8174170 Si02
#       6
#     8   8   8   8   8   8
#     4   9  18  32  52  78 104 132 168 209 253 301
#     4   9  17  31  51  74 102 134 168 207 250 298
#     4  10  21  37  56  78 104 135 172 214 261 311
#     4   9  18  31  49  74 102 134 169 207 252 299
#     4   9  18  33  52  74 101 134 172 212 254 301
#     4  11  22  36  55  78 105 137 173 213 258 308
#
# _framework density 9.8765429999999999
#
# number of rings (size 3 to 8) (size 9 to 14) (size 15 to 20)
#    0.000    2.500    0.000    2.000    0.000    3.667 
#    0.000    5.833    0.000    2.500    0.000    4.667 
#    0.000    0.000    0.000    0.000    0.000    0.000 
#
# Total GULP energy -297491.410223 kJ/mol
# GULP energy per Si atom -12395.475426 kJ/mol
# Density = 0.985406 g / cm^3
# Si number density = 9.876543 Si / 1000 Ang^3
#
#
#
# Elastic Constant Matrix: (Units=GPa)
#
#
# Indices 1 2 3 4 5 6 
#
# 1 29.7119 31.2487 37.9939 0.0000 0.0000 0.0000
# 2 31.2487 37.2609 34.3340 0.0000 0.0000 0.0000
# 3 37.9939 34.3340 98.5458 0.0000 0.0000 0.0000
# 4 0.0000 0.0000 0.0000 11.8796 0.0000 0.0000
# 5 0.0000 0.0000 0.0000 0.0000 28.2916 0.0000
# 6 0.0000 0.0000 0.0000 0.0000 0.0000 22.7394
#
#
#
# Elastic Compliance Matrix: (Units=1/GPa)
#
#
# Indices 1 2 3 4 5 6 
#
# 1 0.446346 -0.317775 -0.061372 0.000000 0.000000 0.000000
# 2 -0.317775 0.265766 0.029922 0.000000 0.000000 0.000000
# 3 -0.061372 0.029922 0.023384 0.000000 0.000000 0.000000
# 4 0.000000 0.000000 0.000000 0.084178 0.000000 0.000000
# 5 0.000000 0.000000 0.000000 0.000000 0.035346 0.000000
# 6 0.000000 0.000000 0.000000 0.000000 0.000000 0.043977
#
#
# Mechanical properties :
#
#
# Convention : Reuss Voigt Hill
#
# Bulk Modulus (GPa) = 26.99261 41.40797 34.20029
# Shear Modulus (GPa) = 3.10598 16.71159 9.90879
#
# Velocity S-wave (km/s) = 1.25532 2.91181 2.24214
# Velocity P-wave (km/s) = 3.97439 5.68446 4.90453
#
# Compressibility (1/GPa) = 0.03704717
#
# Stress axis : x y z
#
# Youngs Moduli (GPa) = 2.24041 3.76270 42.76386
#
# Poissons Ratio (x) = 1.19569 2.62450
# Poissons Ratio (y) = 0.71195 -1.27957
# Poissons Ratio (z) = 0.13750 -0.11259
#
# Static dielectric constant tensor:
#      x y z
#    x 3.544140 0.000000 0.000000 
#    y 0.000000 3.579560 0.000000 
#    z 0.000000 0.000000 3.778800 
# 
# 
# High freq. dielectric constant tensor:
#      x y z
#    x 1.749160 0.000000 0.000000 
#    y 0.000000 1.743130 0.000000 
#    z 0.000000 0.000000 1.770820 
# 
# From -- ./inp_files/15114.got.cif
#   From: 2010.03.12/outbox.ucp.g09.slc.cvg/sg35_8_cif.got.tgz:15114.got - 2010.05.04 21:11:10.
