data_PCOD8174022
_publ_section_title
;
Structure prediction by ZEFSAII (Michael W. Deem and Ramdas Pophale) SiO2 
 PCOD8174022
Probable space group: C M M 2
;
_chemical_formula_sum "Si O2"
_cell_formula_units_Z 56
_cell_length_a 23.375042
_cell_length_b 8.572483
_cell_length_c 15.463207
_cell_angle_alpha 90.000000
_cell_angle_beta 90.000000
_cell_angle_gamma 90.000000
_cell_volume 3098.550667
_symmetry_space_group_name_H-M "C M M 2"
_symmetry_group_IT_number 35
_symmetry_cell_setting 'orthorhombic'
loop_
_space_group_symop_operation_xyz
x,y,z
-x,-y,z
-x,y,z
x,-y,z
1/2+x,1/2+y,z
1/2-x,1/2-y,z
1/2-x,1/2+y,z
1/2+x,1/2-y,z
loop_
_atom_site_type_symbol
_atom_site_label
_atom_site_fract_x
_atom_site_fract_y
_atom_site_fract_z
Si Si1 0.812560 0.682786 0.820490
Si Si2 0.500000 0.681805 0.232553
Si Si3 0.877168 0.318838 0.484659
Si Si4 0.500000 0.177373 0.419480
Si Si5 0.382790 0.816268 0.171298
Si Si6 0.687105 0.182252 0.009750
Si Si7 0.185719 0.184051 0.645634
Si Si8 0.812200 0.182457 0.327092
O O1 0.810976 0.500000 0.798368
O O2 0.750000 0.750000 0.830355
O O3 0.841349 0.773427 0.739908
O O4 0.840828 0.716264 0.914574
O O5 0.500000 0.500000 0.221806
O O6 0.500000 0.718321 0.334112
O O7 0.444928 0.745846 0.183909
O O8 0.861933 0.500000 0.468624
O O9 0.855851 0.266168 0.577970
O O10 0.847562 0.211449 0.413628
O O11 0.945076 0.288945 0.479036
O O12 0.500000 0.000000 0.385629
O O13 0.356129 0.750512 0.081787
O O14 0.340925 0.771153 0.248306
O O15 0.389438 0.000000 0.169106
O O16 0.750000 0.250000 0.022687
O O17 0.694817 0.000000 0.023296
O O18 0.250000 0.250000 0.636731
O O19 0.186574 0.000000 0.630733
O O20 0.750000 0.250000 0.342675
O O21 0.809954 0.000000 0.306731
#
# Coordination Sequence:
#
# PCOD8174022 Si02
#       8
#     8   4   8   4   8   8   8   8
#     4   9  16  30  51  78 109 142 179 219 266 324
#     4  12  24  38  58  81 106 141 188 233 274 322
#     4  11  22  38  58  80 106 141 181 226 273 323
#     4  10  22  40  62  79 102 139 184 227 274 324
#     4  11  22  38  57  79 109 145 184 228 274 323
#     4   9  19  33  54  82 112 144 179 221 270 324
#     4  11  21  34  53  81 113 146 180 221 271 325
#     4  12  24  37  53  79 111 145 179 220 272 327
#
# _framework density 18.072966000000001
#
# number of rings (size 3 to 8) (size 9 to 14) (size 15 to 20)
#    0.000    1.429    1.429    6.214    0.000    3.429 
#    0.000    0.000    0.000    0.857    0.000    3.000 
#    0.000    0.000    0.000    0.000    0.000    0.000 
#
# Total GULP energy -347154.928931 kJ/mol
# GULP energy per Si atom -12398.390319 kJ/mol
# Density = 1.803183 g / cm^3
# Si number density = 18.072966 Si / 1000 Ang^3
#
#
#
# Elastic Constant Matrix: (Units=GPa)
#
#
# Indices 1 2 3 4 5 6 
#
# 1 102.1894 36.9235 57.3888 0.0000 0.0000 0.0000
# 2 36.9235 70.9533 24.1130 0.0000 0.0000 0.0000
# 3 57.3888 24.1130 142.2879 0.0000 0.0000 0.0000
# 4 0.0000 0.0000 0.0000 33.7128 0.0000 0.0000
# 5 0.0000 0.0000 0.0000 0.0000 27.3289 0.0000
# 6 0.0000 0.0000 0.0000 0.0000 0.0000 25.4006
#
#
#
# Elastic Compliance Matrix: (Units=1/GPa)
#
#
# Indices 1 2 3 4 5 6 
#
# 1 0.014710 -0.005983 -0.004919 0.000000 0.000000 0.000000
# 2 -0.005983 0.017389 -0.000534 0.000000 0.000000 0.000000
# 3 -0.004919 -0.000534 0.009102 0.000000 0.000000 0.000000
# 4 0.000000 0.000000 0.000000 0.029662 0.000000 0.000000
# 5 0.000000 0.000000 0.000000 0.000000 0.036591 0.000000
# 6 0.000000 0.000000 0.000000 0.000000 0.000000 0.039369
#
#
# Mechanical properties :
#
#
# Convention : Reuss Voigt Hill
#
# Bulk Modulus (GPa) = 54.55698 61.36457 57.96078
# Shear Modulus (GPa) = 28.44047 30.42216 29.43131
#
# Velocity S-wave (km/s) = 3.97123 4.10725 4.03981
# Velocity P-wave (km/s) = 7.16101 7.51799 7.34167
#
# Compressibility (1/GPa) = 0.01832946
#
# Stress axis : x y z
#
# Youngs Moduli (GPa) = 67.98016 57.50837 109.86087
#
# Poissons Ratio (x) = 0.34409 0.54041
# Poissons Ratio (y) = 0.40675 0.05862
# Poissons Ratio (z) = 0.33440 0.03068
#
# Static dielectric constant tensor:
#      x y z
#    x 3.304650 0.000000 0.000000 
#    y 0.000000 3.474820 0.000000 
#    z 0.000000 0.000000 3.961270 
# 
# 
# High freq. dielectric constant tensor:
#      x y z
#    x 1.675220 0.000000 0.000000 
#    y 0.000000 1.714180 0.000000 
#    z 0.000000 0.000000 1.712610 
# 
# From -- ./inp_files/17493.got.cif
#   From: 2010.03.12/outbox.cif.g09.slc.cpg/sg35_9_cif.got.tgz:17493.got - 2010.04.14 02:02:04.
