data_PCOD8174319
_publ_section_title
;
Structure prediction by ZEFSAII (Michael W. Deem and Ramdas Pophale) SiO2 
 PCOD8174319
Probable space group: C M C 21
;
_chemical_formula_sum "Si O2"
_cell_formula_units_Z 64
_cell_length_a 9.389724
_cell_length_b 21.117210
_cell_length_c 16.830696
_cell_angle_alpha 90.000000
_cell_angle_beta 90.000000
_cell_angle_gamma 90.000000
_cell_volume 3337.270745
_symmetry_space_group_name_H-M "C M C 21"
_symmetry_group_IT_number 36
_symmetry_cell_setting 'orthorhombic'
loop_
_space_group_symop_operation_xyz
x,y,z
-x,-y,1/2+z
x,-y,1/2+z
-x,y,z
1/2+x,1/2+y,z
1/2-x,1/2-y,1/2+z
1/2+x,1/2-y,1/2+z
1/2-x,1/2+y,z
loop_
_atom_site_type_symbol
_atom_site_label
_atom_site_fract_x
_atom_site_fract_y
_atom_site_fract_z
Si Si1 0.842151 0.917377 0.471550
Si Si2 0.337096 0.802397 0.860412
Si Si3 0.833538 0.899937 0.156063
Si Si4 0.831182 0.160463 0.821956
Si Si5 0.834145 0.812532 0.005820
Si Si6 0.841861 0.353053 0.692923
Si Si7 0.155846 0.794130 0.573580
Si Si8 0.165440 0.519228 0.099947
O O1 0.776644 0.889486 0.389164
O O2 0.861054 0.861481 0.533591
O O3 0.737141 0.968327 0.513148
O O4 0.000000 0.947871 0.457246
O O5 0.500000 0.796478 0.891029
O O6 0.276900 0.732204 0.837571
O O7 0.238831 0.837947 0.925384
O O8 0.327124 0.850890 0.787278
O O9 0.781139 0.863399 0.235214
O O10 0.000000 0.917734 0.161672
O O11 0.741528 0.962482 0.145646
O O12 0.801843 0.856597 0.080291
O O13 0.000000 0.162253 0.826353
O O14 0.000000 0.802046 0.991953
O O15 0.756763 0.745832 0.016991
O O16 0.730695 0.302287 0.658596
O O17 0.813819 0.422913 0.660456
O O18 0.000000 0.330203 0.667301
O O19 0.000000 0.762678 0.585239
O O20 0.000000 0.503762 0.084985
#
# Coordination Sequence:
#
# PCOD8174319 Si02
#       8
#     8   8   8   8   8   8   8   8
#     4   9  17  33  58  84 109 143 188 229 269 335
#     4  10  19  36  59  84 115 149 184 225 287 352
#     4  10  22  40  59  79 109 154 196 234 279 332
#     4   9  17  34  60  85 108 143 190 231 274 336
#     4  11  22  35  53  81 117 149 187 234 282 335
#     4   9  19  35  57  82 111 146 182 228 282 337
#     4  10  18  31  55  84 113 145 182 222 276 339
#     4  10  21  38  57  81 112 147 189 233 283 334
#
# _framework density 19.177347999999999
#
# number of rings (size 3 to 8) (size 9 to 14) (size 15 to 20)
#    0.000    2.250    1.250    1.875    0.000    4.500 
#    2.250    1.250    0.000    0.000    0.000    0.000 
#    0.000    0.000    0.000    0.000    0.000    0.000 
#
# Total GULP energy -396659.015750 kJ/mol
# GULP energy per Si atom -12395.594242 kJ/mol
# Density = 1.913370 g / cm^3
# Si number density = 19.177348 Si / 1000 Ang^3
#
#
#
# Elastic Constant Matrix: (Units=GPa)
#
#
# Indices 1 2 3 4 5 6 
#
# 1 100.7606 34.8739 62.6623 0.0000 0.0000 0.0000
# 2 34.8739 43.2779 38.3138 0.0000 0.0000 0.0000
# 3 62.6623 38.3138 135.7021 0.0000 0.0000 0.0000
# 4 0.0000 0.0000 0.0000 25.3057 0.0000 0.0000
# 5 0.0000 0.0000 0.0000 0.0000 30.2582 0.0000
# 6 0.0000 0.0000 0.0000 0.0000 0.0000 19.5961
#
#
#
# Elastic Compliance Matrix: (Units=1/GPa)
#
#
# Indices 1 2 3 4 5 6 
#
# 1 0.015941 -0.008438 -0.004979 0.000000 0.000000 0.000000
# 2 -0.008438 0.035273 -0.006063 0.000000 0.000000 0.000000
# 3 -0.004979 -0.006063 0.011380 0.000000 0.000000 0.000000
# 4 0.000000 0.000000 0.000000 0.039517 0.000000 0.000000
# 5 0.000000 0.000000 0.000000 0.000000 0.033049 0.000000
# 6 0.000000 0.000000 0.000000 0.000000 0.000000 0.051031
#
#
# Mechanical properties :
#
#
# Convention : Reuss Voigt Hill
#
# Bulk Modulus (GPa) = 42.30916 61.27118 51.79017
# Shear Modulus (GPa) = 21.45670 24.62470 23.04070
#
# Velocity S-wave (km/s) = 3.34856 3.58725 3.46996
# Velocity P-wave (km/s) = 6.08773 7.01263 6.56648
#
# Compressibility (1/GPa) = 0.02363554
#
# Stress axis : x y z
#
# Youngs Moduli (GPa) = 62.73061 28.35020 87.87542
#
# Poissons Ratio (x) = 0.23922 0.43750
# Poissons Ratio (y) = 0.52932 0.53275
# Poissons Ratio (z) = 0.31232 0.17187
#
# Static dielectric constant tensor:
#      x y z
#    x 3.710920 0.000000 0.000000 
#    y 0.000000 3.268970 0.000000 
#    z 0.000000 0.000000 3.714900 
# 
# 
# High freq. dielectric constant tensor:
#      x y z
#    x 1.737310 0.000000 0.000000 
#    y 0.000000 1.721910 0.000000 
#    z 0.000000 0.000000 1.753240 
# 
# From -- ./inp_files/13868.got.cif
#   From: 2010.03.12/outbox.cif.g09.slc.cpg/sg36_7_cif.got.tgz:13868.got - 2010.04.14 02:13:53.
