data_PCOD8174244
_publ_section_title
;
Structure prediction by ZEFSAII (Michael W. Deem and Ramdas Pophale) SiO2 
 PCOD8174244
Probable space group: C M C 21
;
_chemical_formula_sum "Si O2"
_cell_formula_units_Z 48
_cell_length_a 8.556094
_cell_length_b 19.399426
_cell_length_c 15.771675
_cell_angle_alpha 90.000000
_cell_angle_beta 90.000000
_cell_angle_gamma 90.000000
_cell_volume 2617.834859
_symmetry_space_group_name_H-M "C M C 21"
_symmetry_group_IT_number 36
_symmetry_cell_setting 'orthorhombic'
loop_
_space_group_symop_operation_xyz
x,y,z
-x,-y,1/2+z
x,-y,1/2+z
-x,y,z
1/2+x,1/2+y,z
1/2-x,1/2-y,1/2+z
1/2+x,1/2-y,1/2+z
1/2-x,1/2+y,z
loop_
_atom_site_type_symbol
_atom_site_label
_atom_site_fract_x
_atom_site_fract_y
_atom_site_fract_z
Si Si1 0.185184 0.460152 0.634500
Si Si2 0.818568 0.955524 0.459651
Si Si3 0.315842 0.943723 0.287220
Si Si4 0.314631 0.291591 0.296592
Si Si5 0.818360 0.307092 0.465330
Si Si6 0.181548 0.694610 0.150452
O O1 0.251748 0.489863 0.545595
O O2 0.242663 0.509663 0.709364
O O3 0.251350 0.382967 0.652722
O O4 0.000000 0.457850 0.626586
O O5 0.733106 0.982760 0.374324
O O6 0.788627 0.874364 0.464007
O O7 0.000000 0.972443 0.452055
O O8 0.500000 0.932965 0.285119
O O9 0.233855 0.869908 0.278761
O O10 0.500000 0.286694 0.302037
O O11 0.239348 0.262406 0.384767
O O12 0.243177 0.243853 0.221639
O O13 0.791532 0.271049 0.556843
O O14 0.000000 0.328021 0.454643
O O15 0.000000 0.689132 0.170861
#
# Coordination Sequence:
#
# PCOD8174244 Si02
#       6
#     8   8   8   8   8   8
#     4   9  18  34  53  70  92 126 165 198 231 278
#     4  10  18  29  48  72  97 124 156 196 239 282
#     4  10  19  32  51  72  96 127 161 195 232 281
#     4  10  18  30  49  72  97 122 153 195 240 281
#     4   9  16  30  49  67  91 125 163 192 224 280
#     4   8  16  31  50  69  91 122 156 192 234 276
#
# _framework density 18.335763
#
# number of rings (size 3 to 8) (size 9 to 14) (size 15 to 20)
#    0.000    2.667    0.000    6.000    0.000    1.333 
#    0.000   10.000    0.000    6.000    0.000    0.000 
#    0.000    0.000    0.000    0.000    0.000    0.000 
#
# Total GULP energy -297387.615105 kJ/mol
# GULP energy per Si atom -12391.150629 kJ/mol
# Density = 1.829403 g / cm^3
# Si number density = 18.335763 Si / 1000 Ang^3
#
#
#
# Elastic Constant Matrix: (Units=GPa)
#
#
# Indices 1 2 3 4 5 6 
#
# 1 42.1110 9.7075 20.4544 0.0000 0.0000 0.0000
# 2 9.7075 41.9598 37.8646 0.0000 0.0000 0.0000
# 3 20.4544 37.8646 146.0592 0.0000 0.0000 0.0000
# 4 0.0000 0.0000 0.0000 36.3581 0.0000 0.0000
# 5 0.0000 0.0000 0.0000 0.0000 29.4418 0.0000
# 6 0.0000 0.0000 0.0000 0.0000 0.0000 14.5850
#
#
#
# Elastic Compliance Matrix: (Units=1/GPa)
#
#
# Indices 1 2 3 4 5 6 
#
# 1 0.025878 -0.003546 -0.002705 0.000000 0.000000 0.000000
# 2 -0.003546 0.031596 -0.007694 0.000000 0.000000 0.000000
# 3 -0.002705 -0.007694 0.009220 0.000000 0.000000 0.000000
# 4 0.000000 0.000000 0.000000 0.027504 0.000000 0.000000
# 5 0.000000 0.000000 0.000000 0.000000 0.033965 0.000000
# 6 0.000000 0.000000 0.000000 0.000000 0.000000 0.068563
#
#
# Mechanical properties :
#
#
# Convention : Reuss Voigt Hill
#
# Bulk Modulus (GPa) = 25.77084 40.68702 33.22893
# Shear Modulus (GPa) = 21.04799 26.88388 23.96593
#
# Velocity S-wave (km/s) = 3.39177 3.83325 3.61925
# Velocity P-wave (km/s) = 5.42442 6.46760 5.96884
#
# Compressibility (1/GPa) = 0.03880354
#
# Stress axis : x y z
#
# Youngs Moduli (GPa) = 38.64288 31.64935 108.45951
#
# Poissons Ratio (x) = 0.11224 0.29335
# Poissons Ratio (y) = 0.13704 0.83454
# Poissons Ratio (z) = 0.10452 0.24352
#
# Static dielectric constant tensor:
#      x y z
#    x 3.207880 0.000000 0.000000 
#    y 0.000000 3.110580 0.000000 
#    z 0.000000 0.000000 4.177130 
# 
# 
# High freq. dielectric constant tensor:
#      x y z
#    x 1.702150 0.000000 0.000000 
#    y 0.000000 1.655630 0.000000 
#    z 0.000000 0.000000 1.739920 
# 
# From -- ./inp_files/10463.got.cif
#   From: 2010.03.12/outbox.cif.g09.slc.cpg/sg36_6_cif.got.tgz:10463.got - 2010.04.14 02:13:53.
