data_PCOD8174092
_publ_section_title
;
Structure prediction by ZEFSAII (Michael W. Deem and Ramdas Pophale) SiO2 
 PCOD8174092
Probable space group: C M M 2
;
_chemical_formula_sum "Si O2"
_cell_formula_units_Z 48
_cell_length_a 28.265705
_cell_length_b 8.574005
_cell_length_c 10.260295
_cell_angle_alpha 90.000000
_cell_angle_beta 90.000000
_cell_angle_gamma 90.000000
_cell_volume 2486.585530
_symmetry_space_group_name_H-M "C M M 2"
_symmetry_group_IT_number 35
_symmetry_cell_setting 'orthorhombic'
loop_
_space_group_symop_operation_xyz
x,y,z
-x,-y,z
-x,y,z
x,-y,z
1/2+x,1/2+y,z
1/2-x,1/2-y,z
1/2-x,1/2+y,z
1/2+x,1/2-y,z
loop_
_atom_site_type_symbol
_atom_site_label
_atom_site_fract_x
_atom_site_fract_y
_atom_site_fract_z
Si Si1 0.051573 0.685684 0.789880
Si Si2 0.198414 0.315460 0.639996
Si Si3 0.856191 0.818674 0.401098
Si Si4 0.302232 0.183485 0.159288
Si Si5 0.147764 0.315349 0.902528
Si Si6 0.053466 0.319131 0.493345
O O1 0.052266 0.500000 0.789589
O O2 0.094525 0.751873 0.878462
O O3 0.058675 0.741832 0.641463
O O4 0.000000 0.744336 0.841853
O O5 0.197471 0.500000 0.619161
O O6 0.250000 0.250000 0.613069
O O7 0.162942 0.235623 0.540113
O O8 0.182010 0.266810 0.784321
O O9 0.830118 0.724026 0.289055
O O10 0.912078 0.779817 0.399700
O O11 0.847121 0.000000 0.378013
O O12 0.250000 0.250000 0.165077
O O13 0.298075 0.000000 0.144960
O O14 0.330519 0.254954 0.035226
O O15 0.144413 0.500000 0.912393
O O16 0.067900 0.500000 0.484478
O O17 0.000000 0.293516 0.443485
#
# Coordination Sequence:
#
# PCOD8174092 Si02
#       6
#     8   8   8   8   8   8
#     4   8  13  26  53  87 116 141 175 223 278 331
#     4  11  21  36  57  83 113 142 185 240 290 343
#     4  12  24  38  56  82 115 154 192 232 284 339
#     4  11  23  40  59  80 111 152 195 239 288 346
#     4   9  18  33  56  84 113 145 184 233 288 339
#     4   9  17  33  60  89 116 148 187 233 283 334
#
# _framework density 19.303578000000002
#
# number of rings (size 3 to 8) (size 9 to 14) (size 15 to 20)
#    0.000    2.000    1.667    4.500    0.000    0.333 
#    0.000    3.333    0.000    3.000    0.000    0.000 
#    0.000    0.000    0.000    0.000    0.000    0.000 
#
# Total GULP energy -297567.295224 kJ/mol
# GULP energy per Si atom -12398.637301 kJ/mol
# Density = 1.925964 g / cm^3
# Si number density = 19.303578 Si / 1000 Ang^3
#
#
#
# Elastic Constant Matrix: (Units=GPa)
#
#
# Indices 1 2 3 4 5 6 
#
# 1 151.1897 20.4806 49.2674 0.0000 0.0000 0.0000
# 2 20.4806 39.7368 14.0154 0.0000 0.0000 0.0000
# 3 49.2674 14.0154 83.5955 0.0000 0.0000 0.0000
# 4 0.0000 0.0000 0.0000 12.9989 0.0000 0.0000
# 5 0.0000 0.0000 0.0000 0.0000 33.8709 0.0000
# 6 0.0000 0.0000 0.0000 0.0000 0.0000 25.7804
#
#
#
# Elastic Compliance Matrix: (Units=1/GPa)
#
#
# Indices 1 2 3 4 5 6 
#
# 1 0.008463 -0.002766 -0.004524 0.000000 0.000000 0.000000
# 2 -0.002766 0.027651 -0.003006 0.000000 0.000000 0.000000
# 3 -0.004524 -0.003006 0.015133 0.000000 0.000000 0.000000
# 4 0.000000 0.000000 0.000000 0.076930 0.000000 0.000000
# 5 0.000000 0.000000 0.000000 0.000000 0.029524 0.000000
# 6 0.000000 0.000000 0.000000 0.000000 0.000000 0.038789
#
#
# Mechanical properties :
#
#
# Convention : Reuss Voigt Hill
#
# Bulk Modulus (GPa) = 32.62088 49.11655 40.86872
# Shear Modulus (GPa) = 21.99734 27.24726 24.62230
#
# Velocity S-wave (km/s) = 3.37938 3.76109 3.57533
# Velocity P-wave (km/s) = 5.67120 6.66037 6.18559
#
# Compressibility (1/GPa) = 0.03065521
#
# Stress axis : x y z
#
# Youngs Moduli (GPa) = 118.15919 36.16447 66.08283
#
# Poissons Ratio (x) = 0.10004 0.29896
# Poissons Ratio (y) = 0.32687 0.19862
# Poissons Ratio (z) = 0.53455 0.10870
#
# Static dielectric constant tensor:
#      x y z
#    x 3.959660 0.000000 0.000000 
#    y 0.000000 3.207880 0.000000 
#    z 0.000000 0.000000 3.541280 
# 
# 
# High freq. dielectric constant tensor:
#      x y z
#    x 1.774560 0.000000 0.000000 
#    y 0.000000 1.719130 0.000000 
#    z 0.000000 0.000000 1.734380 
# 
# From -- ./inp_files/5331.got.cif
#   From: 2010.03.12/outbox.cif.g09.slc.cpg/sg35_3_cif.got.tgz:5331.got - 2010.04.14 02:02:04.
