data_PCOD8174109
_publ_section_title
;
Structure prediction by ZEFSAII (Michael W. Deem and Ramdas Pophale) SiO2 
 PCOD8174109
Probable space group: C M M 2
;
_chemical_formula_sum "Si O2"
_cell_formula_units_Z 64
_cell_length_a 18.927780
_cell_length_b 20.358482
_cell_length_c 9.475069
_cell_angle_alpha 90.000000
_cell_angle_beta 90.000000
_cell_angle_gamma 90.000000
_cell_volume 3651.131317
_symmetry_space_group_name_H-M "C M M 2"
_symmetry_group_IT_number 35
_symmetry_cell_setting 'orthorhombic'
loop_
_space_group_symop_operation_xyz
x,y,z
-x,-y,z
-x,y,z
x,-y,z
1/2+x,1/2+y,z
1/2-x,1/2-y,z
1/2-x,1/2+y,z
1/2+x,1/2-y,z
loop_
_atom_site_type_symbol
_atom_site_label
_atom_site_fract_x
_atom_site_fract_y
_atom_site_fract_z
Si Si1 0.778373 0.682574 0.022160
Si Si2 0.220870 0.182181 0.336650
Si Si3 0.712659 0.924926 0.531160
Si Si4 0.079393 0.347864 0.598246
Si Si5 0.420567 0.789927 0.903232
Si Si6 0.079052 0.849402 0.773045
Si Si7 0.420196 0.291338 0.468301
Si Si8 0.286311 0.425094 0.827635
O O1 0.750000 0.750000 0.949275
O O2 0.745784 0.677401 0.176569
O O3 0.864206 0.686559 0.021286
O O4 0.755565 0.618853 0.937807
O O5 0.250000 0.250000 0.405751
O O6 0.250654 0.118800 0.413372
O O7 0.135353 0.184080 0.350003
O O8 0.631072 0.905530 0.550042
O O9 0.753640 0.913373 0.675309
O O10 0.716404 0.000000 0.480789
O O11 0.096095 0.327621 0.758380
O O12 0.088991 0.286058 0.494681
O O13 0.000000 0.375321 0.586990
O O14 0.500000 0.806114 0.956849
O O15 0.412709 0.712494 0.876584
O O16 0.096109 0.829113 0.613105
O O17 0.131429 0.906152 0.823542
O O18 0.000000 0.877857 0.783097
O O19 0.500000 0.306532 0.415515
O O20 0.279224 0.500000 0.877471
#
# Coordination Sequence:
#
# PCOD8174109 Si02
#       8
#     8   8   8   8   8   8   8   8
#     4  11  22  36  56  83 111 145 187 224 273 331
#     4  11  22  36  56  83 111 145 187 224 273 331
#     4  11  22  35  55  82 111 146 184 227 278 324
#     4   9  17  31  55  84 108 140 181 230 283 321
#     4   9  17  32  56  83 110 140 180 230 281 323
#     4   9  17  31  55  84 108 140 181 230 283 321
#     4   9  17  32  56  83 110 140 180 230 281 323
#     4  11  22  35  55  82 111 146 184 227 278 324
#
# _framework density 17.528813
#
# number of rings (size 3 to 8) (size 9 to 14) (size 15 to 20)
#    0.000    2.000    5.000    1.500    0.000    1.500 
#    0.000    3.750    0.000    0.750    0.000    0.000 
#    0.000    0.000    0.000    0.000    0.000    0.000 
#
# Total GULP energy -396739.294259 kJ/mol
# GULP energy per Si atom -12398.102946 kJ/mol
# Density = 1.748892 g / cm^3
# Si number density = 17.528813 Si / 1000 Ang^3
#
#
#
# Elastic Constant Matrix: (Units=GPa)
#
#
# Indices 1 2 3 4 5 6 
#
# 1 122.5085 36.8426 16.0727 0.0000 0.0000 0.0000
# 2 36.8426 96.2408 23.8089 0.0000 0.0000 0.0000
# 3 16.0727 23.8089 31.1123 0.0000 0.0000 0.0000
# 4 0.0000 0.0000 0.0000 164.9381 0.0000 0.0000
# 5 0.0000 0.0000 0.0000 0.0000 28.4109 0.0000
# 6 0.0000 0.0000 0.0000 0.0000 0.0000 24.4238
#
#
#
# Elastic Compliance Matrix: (Units=1/GPa)
#
#
# Indices 1 2 3 4 5 6 
#
# 1 0.009391 -0.002954 -0.002591 0.000000 0.000000 0.000000
# 2 -0.002954 0.013746 -0.008993 0.000000 0.000000 0.000000
# 3 -0.002591 -0.008993 0.040362 0.000000 0.000000 0.000000
# 4 0.000000 0.000000 0.000000 0.006063 0.000000 0.000000
# 5 0.000000 0.000000 0.000000 0.000000 0.035198 0.000000
# 6 0.000000 0.000000 0.000000 0.000000 0.000000 0.040944
#
#
# Mechanical properties :
#
#
# Convention : Reuss Voigt Hill
#
# Bulk Modulus (GPa) = 29.05025 44.81223 36.93124
# Shear Modulus (GPa) = 26.84492 55.09705 40.97098
#
# Velocity S-wave (km/s) = 3.91765 5.61253 4.83986
# Velocity P-wave (km/s) = 6.08875 8.22320 7.23512
#
# Compressibility (1/GPa) = 0.03442311
#
# Stress axis : x y z
#
# Youngs Moduli (GPa) = 106.48488 72.74648 24.77558
#
# Poissons Ratio (x) = 0.21490 0.06419
# Poissons Ratio (y) = 0.31457 0.22282
# Poissons Ratio (z) = 0.27588 0.65424
#
# Static dielectric constant tensor:
#      x y z
#    x 3.452020 0.000000 0.000000 
#    y 0.000000 3.087750 0.000000 
#    z 0.000000 0.000000 3.018780 
# 
# 
# High freq. dielectric constant tensor:
#      x y z
#    x 1.696650 0.000000 0.000000 
#    y 0.000000 1.659140 0.000000 
#    z 0.000000 0.000000 1.648970 
# 
# From -- ./inp_files/8753.got.cif
#   From: 2010.03.12/outbox.cif.g09.slc.cpg/sg35_5_cif.got.tgz:8753.got - 2010.04.14 02:02:04.
