data_PCOD8174579
_publ_section_title
;
Structure prediction by ZEFSAII (Michael W. Deem and Ramdas Pophale) SiO2 
 PCOD8174579
Probable space group: C M C 21
;
_chemical_formula_sum "Si O2"
_cell_formula_units_Z 40
_cell_length_a 7.858429
_cell_length_b 27.901775
_cell_length_c 8.932754
_cell_angle_alpha 90.000000
_cell_angle_beta 90.000000
_cell_angle_gamma 90.000000
_cell_volume 1958.632425
_symmetry_space_group_name_H-M "C M C 21"
_symmetry_group_IT_number 36
_symmetry_cell_setting 'orthorhombic'
loop_
_space_group_symop_operation_xyz
x,y,z
-x,-y,1/2+z
x,-y,1/2+z
-x,y,z
1/2+x,1/2+y,z
1/2-x,1/2-y,1/2+z
1/2+x,1/2-y,1/2+z
1/2-x,1/2+y,z
loop_
_atom_site_type_symbol
_atom_site_label
_atom_site_fract_x
_atom_site_fract_y
_atom_site_fract_z
Si Si1 0.302353 0.189054 0.807720
Si Si2 0.500000 0.934722 0.822068
Si Si3 0.000000 0.531024 0.663369
Si Si4 0.310745 0.626914 0.384470
Si Si5 0.811991 0.092182 0.721749
Si Si6 0.799694 0.723605 0.488305
O O1 0.500000 0.177968 0.794005
O O2 0.211795 0.137640 0.832421
O O3 0.261380 0.223281 0.946440
O O4 0.235177 0.214820 0.657046
O O5 0.332343 0.902291 0.793683
O O6 0.500000 0.974445 0.692572
O O7 0.500000 0.959170 0.986050
O O8 0.167952 0.552136 0.745344
O O9 0.500000 0.614666 0.322604
O O10 0.290865 0.612512 0.556188
O O11 0.281445 0.684191 0.375808
O O12 0.000000 0.069698 0.748471
O O13 0.000000 0.718875 0.475788
#
# Coordination Sequence:
#
# PCOD8174579 Si02
#       6
#     8   4   4   8   8   8
#     4  10  19  32  51  77 107 139 177 217 257 310
#     4  10  20  36  56  78 102 134 176 218 261 312
#     4  10  20  36  56  78 102 134 176 218 261 312
#     4   9  17  32  54  76 102 137 174 211 255 312
#     4   9  17  32  54  76 102 137 174 211 255 312
#     4  10  19  32  51  77 107 139 177 217 257 310
#
# _framework density 20.422411
#
# number of rings (size 3 to 8) (size 9 to 14) (size 15 to 20)
#    0.000    2.400    2.000    1.200    0.000    3.200 
#    0.000    2.000    0.000    2.400    0.000    0.000 
#    0.000    0.000    0.000    0.000    0.000    0.000 
#
# Total GULP energy -247960.827041 kJ/mol
# GULP energy per Si atom -12398.041352 kJ/mol
# Density = 2.037593 g / cm^3
# Si number density = 20.422411 Si / 1000 Ang^3
#
#
#
# Elastic Constant Matrix: (Units=GPa)
#
#
# Indices 1 2 3 4 5 6 
#
# 1 124.1753 17.0798 -1.7877 0.0000 0.0000 0.0000
# 2 17.0798 29.9194 -10.5701 0.0000 0.0000 0.0000
# 3 -1.7877 -10.5701 14.4780 0.0000 0.0000 0.0000
# 4 0.0000 0.0000 0.0000 31.3167 0.0000 0.0000
# 5 0.0000 0.0000 0.0000 0.0000 14.4688 0.0000
# 6 0.0000 0.0000 0.0000 0.0000 0.0000 26.0899
#
#
#
# Elastic Compliance Matrix: (Units=1/GPa)
#
#
# Indices 1 2 3 4 5 6 
#
# 1 0.008869 -0.006302 -0.003506 0.000000 0.000000 0.000000
# 2 -0.006302 0.049518 0.035374 0.000000 0.000000 0.000000
# 3 -0.003506 0.035374 0.094463 0.000000 0.000000 0.000000
# 4 0.000000 0.000000 0.000000 0.031932 0.000000 0.000000
# 5 0.000000 0.000000 0.000000 0.000000 0.069114 0.000000
# 6 0.000000 0.000000 0.000000 0.000000 0.000000 0.038329
#
#
# Mechanical properties :
#
#
# Convention : Reuss Voigt Hill
#
# Bulk Modulus (GPa) = 4.90236 19.77964 12.34100
# Shear Modulus (GPa) = 16.17667 25.29845 20.73756
#
# Velocity S-wave (km/s) = 2.81749 3.52342 3.19004
# Velocity P-wave (km/s) = 3.60416 5.12435 4.42995
#
# Compressibility (1/GPa) = 0.20398352
#
# Stress axis : x y z
#
# Youngs Moduli (GPa) = 112.74664 20.19479 10.58612
#
# Poissons Ratio (x) = 0.12726 0.03711
# Poissons Ratio (y) = 0.71050 -0.37447
# Poissons Ratio (z) = 0.39525 -0.71437
#
# Static dielectric constant tensor:
#      x y z
#    x 3.884920 0.000000 0.000000 
#    y 0.000000 3.627750 0.000000 
#    z 0.000000 0.000000 3.417920 
# 
# 
# High freq. dielectric constant tensor:
#      x y z
#    x 1.814690 0.000000 0.000000 
#    y 0.000000 1.790670 0.000000 
#    z 0.000000 0.000000 1.741700 
# 
# From -- ./inp_files/2460.got.cif
#   From: 2010.03.12/outbox.cif.g09.slc.cpg/sg36_2_cif.got.tgz:2460.got - 2010.04.14 02:13:53.
