data_PCOD8174580
_publ_section_title
;
Structure prediction by ZEFSAII (Michael W. Deem and Ramdas Pophale) SiO2 
 PCOD8174580
Probable space group: C M C 21
;
_chemical_formula_sum "Si O2"
_cell_formula_units_Z 64
_cell_length_a 8.981935
_cell_length_b 23.670339
_cell_length_c 17.055908
_cell_angle_alpha 90.000000
_cell_angle_beta 90.000000
_cell_angle_gamma 90.000000
_cell_volume 3626.178933
_symmetry_space_group_name_H-M "C M C 21"
_symmetry_group_IT_number 36
_symmetry_cell_setting 'orthorhombic'
loop_
_space_group_symop_operation_xyz
x,y,z
-x,-y,1/2+z
x,-y,1/2+z
-x,y,z
1/2+x,1/2+y,z
1/2-x,1/2-y,1/2+z
1/2+x,1/2-y,1/2+z
1/2-x,1/2+y,z
loop_
_atom_site_type_symbol
_atom_site_label
_atom_site_fract_x
_atom_site_fract_y
_atom_site_fract_z
Si Si1 0.323545 0.636366 0.681800
Si Si2 0.668729 0.917761 0.595390
Si Si3 0.177347 0.008778 0.681800
Si Si4 0.673519 0.710241 0.826326
Si Si5 0.173520 0.789759 0.037273
Si Si6 0.173170 0.823093 0.862224
Si Si7 0.831271 0.582239 0.268209
Si Si8 0.173169 0.823093 0.501376
O O1 0.500000 0.634167 0.681799
O O2 0.261797 0.572702 0.681800
O O3 0.266282 0.668612 0.759089
O O4 0.266281 0.668612 0.604511
O O5 0.500000 0.929630 0.567925
O O6 0.670171 0.887957 0.681800
O O7 0.748203 0.879298 0.531556
O O8 0.757548 0.977414 0.603978
O O9 0.000000 0.005332 0.681800
O O10 0.242452 0.977413 0.759621
O O11 0.500000 0.724372 0.816052
O O12 0.761539 0.768664 0.818352
O O13 0.705421 0.680342 0.908975
O O14 0.261535 0.731336 0.045248
O O15 0.000000 0.775630 0.047545
O O16 0.205428 0.819658 0.954625
O O17 0.251797 0.879298 0.832043
O O18 0.000000 0.826837 0.842796
O O19 0.000000 0.570370 0.295674
O O20 0.000000 0.826836 0.520808
#
# Coordination Sequence:
#
# PCOD8174580 Si02
#       8
#     8   8   8   8   8   8   8   8
#     4   9  18  34  55  74  97 134 172 203 248 305
#     4   9  19  33  52  73  98 134 167 204 254 300
#     4   9  17  32  53  76  97 124 170 219 248 289
#     4   9  19  34  52  75 106 138 167 204 254 307
#     4   9  19  34  52  75 106 138 167 204 254 307
#     4  10  19  32  51  78 106 132 168 212 251 294
#     4   9  19  33  52  73  98 134 167 204 254 300
#     4  10  19  32  51  78 106 132 168 212 251 294
#
# _framework density 17.649431
#
# number of rings (size 3 to 8) (size 9 to 14) (size 15 to 20)
#    0.750    2.000    0.000    1.500    1.750    1.000 
#    0.000    3.750    0.000    7.500    0.000    0.000 
#    0.000    0.000    0.000    0.000    0.000    0.000 
#
# Total GULP energy -396670.724623 kJ/mol
# GULP energy per Si atom -12395.960144 kJ/mol
# Density = 1.760926 g / cm^3
# Si number density = 17.649431 Si / 1000 Ang^3
#
#
#
# Elastic Constant Matrix: (Units=GPa)
#
#
# Indices 1 2 3 4 5 6 
#
# 1 90.4922 58.6800 37.4786 0.0000 0.0000 0.0000
# 2 58.6800 146.9014 71.6532 0.0000 0.0000 0.0000
# 3 37.4786 71.6532 80.7366 0.0000 0.0000 0.0000
# 4 0.0000 0.0000 0.0000 18.4054 0.0000 0.0000
# 5 0.0000 0.0000 0.0000 0.0000 23.1152 0.0000
# 6 0.0000 0.0000 0.0000 0.0000 0.0000 26.5497
#
#
#
# Elastic Compliance Matrix: (Units=1/GPa)
#
#
# Indices 1 2 3 4 5 6 
#
# 1 0.015305 -0.004670 -0.002960 0.000000 0.000000 0.000000
# 2 -0.004670 0.013428 -0.009750 0.000000 0.000000 0.000000
# 3 -0.002960 -0.009750 0.022413 0.000000 0.000000 0.000000
# 4 0.000000 0.000000 0.000000 0.054332 0.000000 0.000000
# 5 0.000000 0.000000 0.000000 0.000000 0.043262 0.000000
# 6 0.000000 0.000000 0.000000 0.000000 0.000000 0.037665
#
#
# Mechanical properties :
#
#
# Convention : Reuss Voigt Hill
#
# Bulk Modulus (GPa) = 61.02566 72.63930 66.83248
# Shear Modulus (GPa) = 22.06276 23.63527 22.84902
#
# Velocity S-wave (km/s) = 3.53945 3.66341 3.60196
# Velocity P-wave (km/s) = 7.16625 7.69027 7.43288
#
# Compressibility (1/GPa) = 0.01638655
#
# Stress axis : x y z
#
# Youngs Moduli (GPa) = 65.33924 74.47066 44.61691
#
# Poissons Ratio (x) = 0.34774 0.13208
# Poissons Ratio (y) = 0.30510 0.43500
# Poissons Ratio (z) = 0.19343 0.72607
#
# Static dielectric constant tensor:
#      x y z
#    x 3.222100 0.000000 0.000000 
#    y 0.000000 3.227950 0.000000 
#    z 0.000000 0.000000 3.185910 
# 
# 
# High freq. dielectric constant tensor:
#      x y z
#    x 1.682510 0.000000 0.000000 
#    y 0.000000 1.674400 0.000000 
#    z 0.000000 0.000000 1.668530 
# 
# From -- ./inp_files/14094.got.cif
#   From: 2010.03.12/outbox.cif.g09.slc.cpg/sg36_8_cif.got.tgz:14094.got - 2010.04.14 02:13:53.
