data_PCOD8174577
_publ_section_title
;
Structure prediction by ZEFSAII (Michael W. Deem and Ramdas Pophale) SiO2 
 PCOD8174577
Probable space group: C M C 21
;
_chemical_formula_sum "Si O2"
_cell_formula_units_Z 64
_cell_length_a 9.281003
_cell_length_b 23.598986
_cell_length_c 14.669697
_cell_angle_alpha 90.000000
_cell_angle_beta 90.000000
_cell_angle_gamma 90.000000
_cell_volume 3212.990188
_symmetry_space_group_name_H-M "C M C 21"
_symmetry_group_IT_number 36
_symmetry_cell_setting 'orthorhombic'
loop_
_space_group_symop_operation_xyz
x,y,z
-x,-y,1/2+z
x,-y,1/2+z
-x,y,z
1/2+x,1/2+y,z
1/2-x,1/2-y,1/2+z
1/2+x,1/2-y,1/2+z
1/2-x,1/2+y,z
loop_
_atom_site_type_symbol
_atom_site_label
_atom_site_fract_x
_atom_site_fract_y
_atom_site_fract_z
Si Si1 0.329712 0.455811 0.627850
Si Si2 0.670282 0.805853 0.035805
Si Si3 0.170705 0.707293 0.927590
Si Si4 0.839672 0.844935 0.729722
Si Si5 0.337768 0.218347 0.726547
Si Si6 0.667084 0.078320 0.957219
Si Si7 0.667758 0.002261 0.794218
Si Si8 0.334307 0.112563 0.384638
O O1 0.500000 0.467065 0.621434
O O2 0.287073 0.392142 0.658572
O O3 0.259406 0.460000 0.527678
O O4 0.260620 0.499875 0.700908
O O5 0.500000 0.791383 0.035776
O O6 0.727690 0.815588 0.139917
O O7 0.751598 0.753634 0.989008
O O8 0.701414 0.866189 0.986816
O O9 0.237911 0.710225 0.824453
O O10 0.204095 0.644677 0.966019
O O11 0.000000 0.720409 0.927635
O O12 0.831603 0.782619 0.687924
O O13 0.744038 0.843142 0.819521
O O14 0.000000 0.860932 0.761254
O O15 0.500000 0.197391 0.742721
O O16 0.500000 0.066269 0.978863
O O17 0.700974 0.058718 0.852842
O O18 0.500000 0.998440 0.766688
O O19 0.714595 0.951346 0.863009
O O20 0.500000 0.119526 0.362453
#
# Coordination Sequence:
#
# PCOD8174577 Si02
#       8
#     8   8   8   8   8   8   8   8
#     4  10  20  34  57  85 107 141 185 225 274 323
#     4  10  19  32  51  77 105 137 174 217 271 324
#     4  10  20  35  54  78 108 144 180 219 265 320
#     4   9  16  29  50  72  99 136 172 211 259 312
#     4   9  17  30  48  72 104 137 170 208 259 319
#     4  10  21  37  56  81 111 146 183 223 273 324
#     4   9  19  37  56  79 109 141 181 228 272 319
#     4   9  17  30  50  74  99 128 169 219 265 307
#
# _framework density 19.919139000000001
#
# number of rings (size 3 to 8) (size 9 to 14) (size 15 to 20)
#    0.000    2.500    1.250    1.125    0.000    2.500 
#    2.250    1.250    0.000    0.000    0.000    0.000 
#    0.000    0.000    0.000    0.000    0.000    0.000 
#
# Total GULP energy -396508.765296 kJ/mol
# GULP energy per Si atom -12390.898915 kJ/mol
# Density = 1.987380 g / cm^3
# Si number density = 19.919139 Si / 1000 Ang^3
#
#
#
# Elastic Constant Matrix: (Units=GPa)
#
#
# Indices 1 2 3 4 5 6 
#
# 1 45.7349 12.4145 26.8491 0.0000 0.0000 0.0000
# 2 12.4145 30.1209 1.4919 0.0000 0.0000 0.0000
# 3 26.8491 1.4919 102.0023 0.0000 0.0000 0.0000
# 4 0.0000 0.0000 0.0000 24.4313 0.0000 0.0000
# 5 0.0000 0.0000 0.0000 0.0000 25.7251 0.0000
# 6 0.0000 0.0000 0.0000 0.0000 0.0000 20.2667
#
#
#
# Elastic Compliance Matrix: (Units=1/GPa)
#
#
# Indices 1 2 3 4 5 6 
#
# 1 0.029528 -0.011794 -0.007600 0.000000 0.000000 0.000000
# 2 -0.011794 0.037934 0.002550 0.000000 0.000000 0.000000
# 3 -0.007600 0.002550 0.011767 0.000000 0.000000 0.000000
# 4 0.000000 0.000000 0.000000 0.040931 0.000000 0.000000
# 5 0.000000 0.000000 0.000000 0.000000 0.038873 0.000000
# 6 0.000000 0.000000 0.000000 0.000000 0.000000 0.049342
#
#
# Mechanical properties :
#
#
# Convention : Reuss Voigt Hill
#
# Bulk Modulus (GPa) = 21.95831 28.81878 25.38854
# Shear Modulus (GPa) = 19.43684 23.22479 21.33081
#
# Velocity S-wave (km/s) = 3.12715 3.41831 3.27597
# Velocity P-wave (km/s) = 4.90779 5.48444 5.20411
#
# Compressibility (1/GPa) = 0.04554085
#
# Stress axis : x y z
#
# Youngs Moduli (GPa) = 33.86605 26.36144 84.98447
#
# Poissons Ratio (x) = 0.31090 0.64587
# Poissons Ratio (y) = 0.39941 -0.21667
# Poissons Ratio (z) = 0.25738 -0.06721
#
# Static dielectric constant tensor:
#      x y z
#    x 3.418090 0.000000 0.000000 
#    y 0.000000 3.539920 0.000000 
#    z 0.000000 0.000000 3.762580 
# 
# 
# High freq. dielectric constant tensor:
#      x y z
#    x 1.750290 0.000000 0.000000 
#    y 0.000000 1.761950 0.000000 
#    z 0.000000 0.000000 1.783420 
# 
# From -- ./inp_files/11080.got.cif
#   From: 2010.03.12/outbox.cif.g09.slc.cpg/sg36_6_cif.got.tgz:11080.got - 2010.04.14 02:13:53.
