data_PCOD8174699
_publ_section_title
;
Structure prediction by ZEFSAII (Michael W. Deem and Ramdas Pophale) SiO2 
 PCOD8174699
Probable space group: C M C 21
;
_chemical_formula_sum "Si O2"
_cell_formula_units_Z 48
_cell_length_a 8.865096
_cell_length_b 27.512336
_cell_length_c 10.114247
_cell_angle_alpha 90.000000
_cell_angle_beta 90.000000
_cell_angle_gamma 90.000000
_cell_volume 2466.859784
_symmetry_space_group_name_H-M "C M C 21"
_symmetry_group_IT_number 36
_symmetry_cell_setting 'orthorhombic'
loop_
_space_group_symop_operation_xyz
x,y,z
-x,-y,1/2+z
x,-y,1/2+z
-x,y,z
1/2+x,1/2+y,z
1/2-x,1/2-y,1/2+z
1/2+x,1/2-y,1/2+z
1/2-x,1/2+y,z
loop_
_atom_site_type_symbol
_atom_site_label
_atom_site_fract_x
_atom_site_fract_y
_atom_site_fract_z
Si Si1 0.821317 0.716232 0.135990
Si Si2 0.679540 0.069309 0.498225
Si Si3 0.324074 0.111203 0.773979
Si Si4 0.820037 0.389151 0.723964
Si Si5 0.823568 0.539014 0.002192
Si Si6 0.177840 0.790419 0.360858
O O1 0.760185 0.664024 0.185070
O O2 0.767572 0.756218 0.241350
O O3 0.000000 0.715530 0.119372
O O4 0.749266 0.729772 0.995650
O O5 0.500000 0.065857 0.493754
O O6 0.731557 0.099679 0.625990
O O7 0.741448 0.096985 0.369070
O O8 0.748570 0.014824 0.503127
O O9 0.500000 0.125370 0.779560
O O10 0.229524 0.155069 0.833047
O O11 0.291851 0.063380 0.860689
O O12 0.753932 0.428059 0.619288
O O13 0.000000 0.389327 0.721601
O O14 0.000000 0.534332 0.029032
O O15 0.000000 0.788679 0.376552
#
# Coordination Sequence:
#
# PCOD8174699 Si02
#       6
#     8   8   8   8   8   8
#     4  10  22  40  59  81 109 146 186 229 279 328
#     4   9  17  26  47  83 113 139 178 227 272 318
#     4  10  19  33  55  81 112 147 181 225 280 330
#     4   9  16  29  48  73 108 139 170 219 272 320
#     4   9  15  27  48  78 111 141 178 226 274 318
#     4  11  24  39  59  84 111 144 185 232 279 334
#
# _framework density 19.457936
#
# number of rings (size 3 to 8) (size 9 to 14) (size 15 to 20)
#    0.000    2.333    1.667    1.500    2.333    5.333 
#    0.000    0.000    0.000    1.000    0.000    0.000 
#    0.000    0.000    0.000    0.000    0.000    0.000 
#
# Total GULP energy -297612.524484 kJ/mol
# GULP energy per Si atom -12400.521853 kJ/mol
# Density = 1.941365 g / cm^3
# Si number density = 19.457936 Si / 1000 Ang^3
#
#
#
# Elastic Constant Matrix: (Units=GPa)
#
#
# Indices 1 2 3 4 5 6 
#
# 1 21.0233 21.1721 26.9291 0.0000 0.0000 0.0000
# 2 21.1721 90.3516 41.4813 0.0000 0.0000 0.0000
# 3 26.9291 41.4813 161.7682 0.0000 0.0000 0.0000
# 4 0.0000 0.0000 0.0000 37.2550 0.0000 0.0000
# 5 0.0000 0.0000 0.0000 0.0000 18.9220 0.0000
# 6 0.0000 0.0000 0.0000 0.0000 0.0000 15.0775
#
#
#
# Elastic Compliance Matrix: (Units=1/GPa)
#
#
# Indices 1 2 3 4 5 6 
#
# 1 0.071495 -0.012796 -0.008620 0.000000 0.000000 0.000000
# 2 -0.012796 0.014835 -0.001674 0.000000 0.000000 0.000000
# 3 -0.008620 -0.001674 0.008046 0.000000 0.000000 0.000000
# 4 0.000000 0.000000 0.000000 0.026842 0.000000 0.000000
# 5 0.000000 0.000000 0.000000 0.000000 0.052849 0.000000
# 6 0.000000 0.000000 0.000000 0.000000 0.000000 0.066324
#
#
# Mechanical properties :
#
#
# Convention : Reuss Voigt Hill
#
# Bulk Modulus (GPa) = 20.74889 50.25646 35.50267
# Shear Modulus (GPa) = 16.52154 26.48826 21.50490
#
# Velocity S-wave (km/s) = 2.91708 3.69359 3.32806
# Velocity P-wave (km/s) = 4.69387 6.63886 5.74921
#
# Compressibility (1/GPa) = 0.04819536
#
# Stress axis : x y z
#
# Youngs Moduli (GPa) = 13.98707 67.40909 124.28628
#
# Poissons Ratio (x) = 0.86254 1.07140
# Poissons Ratio (y) = 0.17897 0.20805
# Poissons Ratio (z) = 0.12057 0.11284
#
# Static dielectric constant tensor:
#      x y z
#    x 2.918980 0.000000 0.000000 
#    y 0.000000 3.705700 0.000000 
#    z 0.000000 0.000000 3.850860 
# 
# 
# High freq. dielectric constant tensor:
#      x y z
#    x 1.689590 0.000000 0.000000 
#    y 0.000000 1.768390 0.000000 
#    z 0.000000 0.000000 1.778540 
# 
# From -- ./inp_files/2660.got.cif
#   From: 2010.03.12/outbox.cif.g09.slc.cpg/sg36_2_cif.got.tgz:2660.got - 2010.04.14 02:13:53.
