data_PCOD8174200
_publ_section_title
;
Structure prediction by ZEFSAII (Michael W. Deem and Ramdas Pophale) SiO2 
 PCOD8174200
Probable space group: C M C 21
;
_chemical_formula_sum "Si O2"
_cell_formula_units_Z 56
_cell_length_a 30.164845
_cell_length_b 13.962390
_cell_length_c 8.727139
_cell_angle_alpha 90.000000
_cell_angle_beta 90.000000
_cell_angle_gamma 90.000000
_cell_volume 3675.638196
_symmetry_space_group_name_H-M "C M C 21"
_symmetry_group_IT_number 36
_symmetry_cell_setting 'orthorhombic'
loop_
_space_group_symop_operation_xyz
x,y,z
-x,-y,1/2+z
x,-y,1/2+z
-x,y,z
1/2+x,1/2+y,z
1/2-x,1/2-y,1/2+z
1/2+x,1/2-y,1/2+z
1/2-x,1/2+y,z
loop_
_atom_site_type_symbol
_atom_site_label
_atom_site_fract_x
_atom_site_fract_y
_atom_site_fract_z
Si Si1 0.595730 0.430875 0.489720
Si Si2 0.500000 0.372493 0.851175
Si Si3 0.175339 0.126242 0.795473
Si Si4 0.903691 0.869253 0.834966
Si Si5 0.678944 0.287667 0.971819
Si Si6 0.500000 0.554105 0.022588
Si Si7 0.258743 0.883764 0.476156
Si Si8 0.270012 0.448174 0.799071
O O1 0.628640 0.370290 0.383797
O O2 0.600665 0.544382 0.457786
O O3 0.606350 0.411365 0.667222
O O4 0.544841 0.398403 0.453044
O O5 0.452582 0.316745 0.846325
O O6 0.500000 0.442330 0.705180
O O7 0.500000 0.440274 0.998197
O O8 0.170854 0.195526 0.651240
O O9 0.188603 0.016574 0.746623
O O10 0.213863 0.165759 0.909337
O O11 0.867131 0.790280 0.878395
O O12 0.699138 0.182822 0.944572
O O13 0.712923 0.367547 0.913768
O O14 0.253511 0.898703 0.656787
O O15 0.265710 0.986261 0.391468
#
# Coordination Sequence:
#
# PCOD8174200 Si02
#       8
#     8   4   8   8   8   4   8   8
#     4  10  17  28  43  61  89 124 156 189 220 262
#     4   8  16  28  38  58  86 118 147 188 224 256
#     4  10  19  31  43  63  88 121 152 188 227 257
#     4  10  18  27  43  62  89 119 156 188 222 268
#     4  12  20  31  48  68  88 121 161 186 226 275
#     4   8  16  26  40  60  82 118 161 182 212 264
#     4  10  21  33  49  65  87 119 158 191 231 273
#     4  10  19  35  45  63  91 118 150 195 228 262
#
# _framework density 15.235448999999999
#
# number of rings (size 3 to 8) (size 9 to 14) (size 15 to 20)
#    0.857    1.143    2.857    2.571    0.000    1.143 
#    0.000    0.000    0.000    0.000    0.000    0.000 
#    0.000    1.143    0.000    1.571    0.000    1.429 
#
# Total GULP energy -346909.767016 kJ/mol
# GULP energy per Si atom -12389.634536 kJ/mol
# Density = 1.520077 g / cm^3
# Si number density = 15.235449 Si / 1000 Ang^3
#
#
#
# Elastic Constant Matrix: (Units=GPa)
#
#
# Indices 1 2 3 4 5 6 
#
# 1 122.9220 44.8366 46.4867 0.0000 0.0000 0.0000
# 2 44.8366 43.0209 24.3626 0.0000 0.0000 0.0000
# 3 46.4867 24.3626 73.8360 0.0000 0.0000 0.0000
# 4 0.0000 0.0000 0.0000 13.0563 0.0000 0.0000
# 5 0.0000 0.0000 0.0000 0.0000 23.2610 0.0000
# 6 0.0000 0.0000 0.0000 0.0000 0.0000 18.6790
#
#
#
# Elastic Compliance Matrix: (Units=1/GPa)
#
#
# Indices 1 2 3 4 5 6 
#
# 1 0.014539 -0.012260 -0.005109 0.000000 0.000000 0.000000
# 2 -0.012260 0.038924 -0.005124 0.000000 0.000000 0.000000
# 3 -0.005109 -0.005124 0.018451 0.000000 0.000000 0.000000
# 4 0.000000 0.000000 0.000000 0.076592 0.000000 0.000000
# 5 0.000000 0.000000 0.000000 0.000000 0.042990 0.000000
# 6 0.000000 0.000000 0.000000 0.000000 0.000000 0.053536
#
#
# Mechanical properties :
#
#
# Convention : Reuss Voigt Hill
#
# Bulk Modulus (GPa) = 37.13612 52.35010 44.74311
# Shear Modulus (GPa) = 16.72283 19.27212 17.99748
#
# Velocity S-wave (km/s) = 3.31664 3.56048 3.44072
# Velocity P-wave (km/s) = 6.25256 7.16505 6.72430
#
# Compressibility (1/GPa) = 0.02692796
#
# Stress axis : x y z
#
# Youngs Moduli (GPa) = 68.78063 25.69139 54.19864
#
# Poissons Ratio (x) = 0.31497 0.27687
# Poissons Ratio (y) = 0.84323 0.27774
# Poissons Ratio (z) = 0.35137 0.13165
#
# Static dielectric constant tensor:
#      x y z
#    x 3.120510 0.000000 0.000000 
#    y 0.000000 2.421490 0.000000 
#    z 0.000000 0.000000 2.964660 
# 
# 
# High freq. dielectric constant tensor:
#      x y z
#    x 1.584060 0.000000 0.000000 
#    y 0.000000 1.512820 0.000000 
#    z 0.000000 0.000000 1.600650 
# 
# From -- ./inp_files/6116.got.cif
#   From: 2010.03.12/outbox.cif.g09.slc.cpg/sg36_4_cif.got.tgz:6116.got - 2010.04.14 02:13:53.
