data_PCOD8174591
_publ_section_title
;
Structure prediction by ZEFSAII (Michael W. Deem and Ramdas Pophale) SiO2 
 PCOD8174591
Probable space group: C M C 21
;
_chemical_formula_sum "Si O2"
_cell_formula_units_Z 56
_cell_length_a 13.869888
_cell_length_b 5.083307
_cell_length_c 36.803340
_cell_angle_alpha 90.000000
_cell_angle_beta 90.000000
_cell_angle_gamma 90.000000
_cell_volume 2594.815761
_symmetry_space_group_name_H-M "C M C 21"
_symmetry_group_IT_number 36
_symmetry_cell_setting 'orthorhombic'
loop_
_space_group_symop_operation_xyz
x,y,z
-x,-y,1/2+z
x,-y,1/2+z
-x,y,z
1/2+x,1/2+y,z
1/2-x,1/2-y,1/2+z
1/2+x,1/2-y,1/2+z
1/2-x,1/2+y,z
loop_
_atom_site_type_symbol
_atom_site_label
_atom_site_fract_x
_atom_site_fract_y
_atom_site_fract_z
Si Si1 0.689309 0.925567 0.465700
Si Si2 0.187991 0.978079 0.740995
Si Si3 0.889505 0.467535 0.618741
Si Si4 0.115300 0.033260 0.160013
Si Si5 0.500000 0.944979 0.336374
Si Si6 0.816617 0.488868 0.886831
Si Si7 0.500000 0.554950 0.788789
Si Si8 0.687309 0.048505 0.541674
O O1 0.716629 0.617635 0.466537
O O2 0.636509 0.988825 0.427537
O O3 0.631157 0.995294 0.503066
O O4 0.233176 0.697293 0.750780
O O5 0.161154 0.003308 0.699102
O O6 0.093610 0.011940 0.764732
O O7 0.841716 0.706536 0.640986
O O8 0.881420 0.492852 0.575466
O O9 0.000000 0.471751 0.629207
O O10 0.845548 0.196900 0.633630
O O11 0.000000 0.036353 0.163462
O O12 0.596151 0.989204 0.359269
O O13 0.500000 0.647250 0.322204
O O14 0.500000 0.147464 0.303065
O O15 0.764042 0.211478 0.880678
O O16 0.778224 0.849857 0.543373
#
# Coordination Sequence:
#
# PCOD8174591 Si02
#       8
#     8   8   8   8   4   8   4   8
#     4   8  16  32  54  79 113 157 194 241 302 344
#     4  12  26  44  70  95 121 167 209 244 312 374
#     4  10  21  34  54  82 117 158 194 246 309 344
#     4  10  21  40  59  80 120 158 197 257 305 348
#     4  12  26  42  70  98 122 168 204 238 318 376
#     4  10  21  40  65  93 128 163 206 256 299 361
#     4  12  28  48  64  96 138 152 196 266 300 368
#     4  10  19  32  52  78 114 154 197 247 295 345
#
# _framework density 21.581492000000001
#
# number of rings (size 3 to 8) (size 9 to 14) (size 15 to 20)
#    0.000    1.714    0.714    3.429    0.000    6.857 
#    1.286    0.000    0.000    0.000    0.000    0.000 
#    0.000    0.000    0.000    0.000    0.000    0.000 
#
# Total GULP energy -347082.816276 kJ/mol
# GULP energy per Si atom -12395.814867 kJ/mol
# Density = 2.153237 g / cm^3
# Si number density = 21.581492 Si / 1000 Ang^3
#
#
#
# Elastic Constant Matrix: (Units=GPa)
#
#
# Indices 1 2 3 4 5 6 
#
# 1 60.4017 5.0729 38.2717 0.0000 0.0000 0.0000
# 2 5.0729 106.8102 13.6187 0.0000 0.0000 0.0000
# 3 38.2717 13.6187 127.0949 0.0000 0.0000 0.0000
# 4 0.0000 0.0000 0.0000 37.0090 0.0000 0.0000
# 5 0.0000 0.0000 0.0000 0.0000 32.8430 0.0000
# 6 0.0000 0.0000 0.0000 0.0000 0.0000 10.2110
#
#
#
# Elastic Compliance Matrix: (Units=1/GPa)
#
#
# Indices 1 2 3 4 5 6 
#
# 1 0.020463 -0.000189 -0.006142 0.000000 0.000000 0.000000
# 2 -0.000189 0.009494 -0.000960 0.000000 0.000000 0.000000
# 3 -0.006142 -0.000960 0.009821 0.000000 0.000000 0.000000
# 4 0.000000 0.000000 0.000000 0.027020 0.000000 0.000000
# 5 0.000000 0.000000 0.000000 0.000000 0.030448 0.000000
# 6 0.000000 0.000000 0.000000 0.000000 0.000000 0.097934
#
#
# Mechanical properties :
#
#
# Convention : Reuss Voigt Hill
#
# Bulk Modulus (GPa) = 39.68964 45.35928 42.52446
# Shear Modulus (GPa) = 22.91890 31.83550 27.37720
#
# Velocity S-wave (km/s) = 3.26232 3.84491 3.56553
# Velocity P-wave (km/s) = 5.71147 6.38548 6.05786
#
# Compressibility (1/GPa) = 0.02519549
#
# Stress axis : x y z
#
# Youngs Moduli (GPa) = 48.86808 105.33161 101.82766
#
# Poissons Ratio (x) = 0.01989 0.62541
# Poissons Ratio (y) = 0.00923 0.09780
# Poissons Ratio (z) = 0.30014 0.10117
#
# Static dielectric constant tensor:
#      x y z
#    x 3.507170 0.000000 0.000000 
#    y 0.000000 4.302140 0.000000 
#    z 0.000000 0.000000 4.223770 
# 
# 
# High freq. dielectric constant tensor:
#      x y z
#    x 1.812990 0.000000 0.000000 
#    y 0.000000 1.869320 0.000000 
#    z 0.000000 0.000000 1.868180 
# 
# From -- ./inp_files/17410.got.cif
#   From: 2010.03.12/outbox.cif.g09.slc.cpg/sg36_9_cif.got.tgz:17410.got - 2010.04.14 02:13:53.
