data_PCOD8174471
_publ_section_title
;
Structure prediction by ZEFSAII (Michael W. Deem and Ramdas Pophale) SiO2 
 PCOD8174471
Probable space group: C M C 21
;
_chemical_formula_sum "Si O2"
_cell_formula_units_Z 44
_cell_length_a 9.426692
_cell_length_b 35.762682
_cell_length_c 7.424064
_cell_angle_alpha 90.000000
_cell_angle_beta 90.000000
_cell_angle_gamma 90.000000
_cell_volume 2502.828580
_symmetry_space_group_name_H-M "C M C 21"
_symmetry_group_IT_number 36
_symmetry_cell_setting 'orthorhombic'
loop_
_space_group_symop_operation_xyz
x,y,z
-x,-y,1/2+z
x,-y,1/2+z
-x,y,z
1/2+x,1/2+y,z
1/2-x,1/2-y,1/2+z
1/2+x,1/2-y,1/2+z
1/2-x,1/2+y,z
loop_
_atom_site_type_symbol
_atom_site_label
_atom_site_fract_x
_atom_site_fract_y
_atom_site_fract_z
Si Si1 0.332075 0.959541 0.422340
Si Si2 0.500000 0.700608 0.518716
Si Si3 0.000000 0.727896 0.222266
Si Si4 0.000000 0.200605 0.925806
Si Si5 0.168591 0.403101 0.722546
Si Si6 0.220397 0.820737 0.722266
Si Si7 0.332080 0.959484 0.022931
O O1 0.500000 0.962609 0.440826
O O2 0.278100 0.926694 0.550976
O O3 0.283747 0.948486 0.222667
O O4 0.266463 0.000036 0.472488
O O5 0.500000 0.745778 0.543659
O O6 0.500000 0.682400 0.722258
O O7 0.362248 0.688914 0.405655
O O8 0.864391 0.701888 0.222266
O O9 0.000000 0.754225 0.400867
O O10 0.862247 0.188908 0.038865
O O11 0.251145 0.364572 0.722274
O O12 0.000000 0.396199 0.722435
O O13 0.221814 0.426590 0.894499
O O14 0.500000 0.962565 0.004455
#
# Coordination Sequence:
#
# PCOD8174471 Si02
#       7
#     8   4   4   4   8   8   8
#     4   9  15  25  42  66 103 148 182 211 266 335
#     4   9  23  38  61  81 110 153 192 215 289 349
#     4  10  20  40  64  84 112 144 186 242 278 344
#     4   9  23  38  61  81 110 153 192 215 289 349
#     4  10  19  29  48  77 113 144 180 233 278 317
#     4  11  20  39  58  87 116 145 186 240 283 328
#     4   9  15  25  42  66 103 148 182 211 266 335
#
# _framework density 17.580109
#
# number of rings (size 3 to 8) (size 9 to 14) (size 15 to 20)
#    0.545    1.818    2.727    1.091    0.000    1.455 
#    0.000    0.000    0.000    0.000    0.000    5.091 
#    0.000    0.000    0.000    0.000    0.000    0.000 
#
# Total GULP energy -272656.363255 kJ/mol
# GULP energy per Si atom -12393.471057 kJ/mol
# Density = 1.754010 g / cm^3
# Si number density = 17.580109 Si / 1000 Ang^3
#
#
#
# Elastic Constant Matrix: (Units=GPa)
#
#
# Indices 1 2 3 4 5 6 
#
# 1 80.3023 55.1651 50.7749 0.0000 0.0000 0.0000
# 2 55.1651 170.2420 84.0910 0.0000 0.0000 0.0000
# 3 50.7749 84.0910 171.8891 0.0000 0.0000 0.0000
# 4 0.0000 0.0000 0.0000 20.4701 0.0000 0.0000
# 5 0.0000 0.0000 0.0000 0.0000 15.8833 0.0000
# 6 0.0000 0.0000 0.0000 0.0000 0.0000 4.8018
#
#
#
# Elastic Compliance Matrix: (Units=1/GPa)
#
#
# Indices 1 2 3 4 5 6 
#
# 1 0.017188 -0.004037 -0.003102 0.000000 0.000000 0.000000
# 2 -0.004037 0.008694 -0.003061 0.000000 0.000000 0.000000
# 3 -0.003102 -0.003061 0.008231 0.000000 0.000000 0.000000
# 4 0.000000 0.000000 0.000000 0.048852 0.000000 0.000000
# 5 0.000000 0.000000 0.000000 0.000000 0.062959 0.000000
# 6 0.000000 0.000000 0.000000 0.000000 0.000000 0.208257
#
#
# Mechanical properties :
#
#
# Convention : Reuss Voigt Hill
#
# Bulk Modulus (GPa) = 72.92243 89.16616 81.04429
# Shear Modulus (GPa) = 13.18733 23.72454 18.45594
#
# Velocity S-wave (km/s) = 2.74182 3.67755 3.24361
# Velocity P-wave (km/s) = 7.18286 8.29835 7.76067
#
# Compressibility (1/GPa) = 0.01371320
#
# Stress axis : x y z
#
# Youngs Moduli (GPa) = 58.18066 115.02113 121.48639
#
# Poissons Ratio (x) = 0.46437 0.37686
# Poissons Ratio (y) = 0.23489 0.37183
# Poissons Ratio (z) = 0.18048 0.35204
#
# Static dielectric constant tensor:
#      x y z
#    x 2.743920 0.000000 0.000000 
#    y 0.000000 3.287480 0.000000 
#    z 0.000000 0.000000 3.448260 
# 
# 
# High freq. dielectric constant tensor:
#      x y z
#    x 1.634860 0.000000 0.000000 
#    y 0.000000 1.684830 0.000000 
#    z 0.000000 0.000000 1.691460 
# 
# From -- ./inp_files/2603.got.cif
#   From: 2010.03.12/outbox.cif.g09.slc.cpg/sg36_2_cif.got.tgz:2603.got - 2010.04.14 02:13:53.
