data_PCOD8174789
_publ_section_title
;
Structure prediction by ZEFSAII (Michael W. Deem and Ramdas Pophale) SiO2 
 PCOD8174789
Probable space group: C M C 21
;
_chemical_formula_sum "Si O2"
_cell_formula_units_Z 64
_cell_length_a 9.042399
_cell_length_b 20.586183
_cell_length_c 18.242962
_cell_angle_alpha 90.000000
_cell_angle_beta 90.000000
_cell_angle_gamma 90.000000
_cell_volume 3395.899657
_symmetry_space_group_name_H-M "C M C 21"
_symmetry_group_IT_number 36
_symmetry_cell_setting 'orthorhombic'
loop_
_space_group_symop_operation_xyz
x,y,z
-x,-y,1/2+z
x,-y,1/2+z
-x,y,z
1/2+x,1/2+y,z
1/2-x,1/2-y,1/2+z
1/2+x,1/2-y,1/2+z
1/2-x,1/2+y,z
loop_
_atom_site_type_symbol
_atom_site_label
_atom_site_fract_x
_atom_site_fract_y
_atom_site_fract_z
Si Si1 0.175255 0.379275 0.173460
Si Si2 0.175712 0.614130 0.838534
Si Si3 0.174148 0.607217 0.195801
Si Si4 0.336622 0.746771 0.357242
Si Si5 0.828074 0.622246 0.363831
Si Si6 0.823869 0.002504 0.601606
Si Si7 0.336126 0.734005 0.183617
Si Si8 0.324775 0.004111 0.949690
O O1 0.232351 0.396209 0.255546
O O2 0.262857 0.425548 0.118090
O O3 0.214415 0.304416 0.152589
O O4 0.000000 0.391605 0.165619
O O5 0.234640 0.682239 0.873266
O O6 0.228956 0.555662 0.889167
O O7 0.000000 0.619489 0.834475
O O8 0.218955 0.604508 0.281174
O O9 0.261405 0.548146 0.160112
O O10 0.224050 0.676384 0.160573
O O11 0.000000 0.598157 0.182940
O O12 0.500000 0.741521 0.391360
O O13 0.242289 0.689128 0.392737
O O14 0.342689 0.739623 0.270396
O O15 0.778721 0.565967 0.418921
O O16 0.000000 0.633581 0.366224
O O17 0.000000 0.002276 0.603317
O O18 0.765644 0.980811 0.522440
O O19 0.500000 0.716756 0.153645
O O20 0.500000 0.009424 0.964442
#
# Coordination Sequence:
#
# PCOD8174789 Si02
#       8
#     8   8   8   8   8   8   8   8
#     4   9  17  34  59  82 105 135 170 209 259 313
#     4   8  15  31  57  82 100 127 170 211 249 304
#     4  10  19  34  57  81 105 135 171 210 256 309
#     4   8  14  27  50  79 107 130 155 198 254 305
#     4   9  18  32  54  81 103 128 166 209 251 304
#     4  12  25  37  49  72 106 140 179 221 258 301
#     4   8  15  29  52  82 110 132 160 205 257 307
#     4  10  20  36  54  71  98 137 177 213 254 303
#
# _framework density 18.846257999999999
#
# number of rings (size 3 to 8) (size 9 to 14) (size 15 to 20)
#    0.000    2.750    0.000    3.750    0.000    3.500 
#    0.000    5.625    0.000    3.000    0.000    0.000 
#    0.000    0.000    0.000    0.000    0.000    0.000 
#
# Total GULP energy -396673.656672 kJ/mol
# GULP energy per Si atom -12396.051771 kJ/mol
# Density = 1.880336 g / cm^3
# Si number density = 18.846258 Si / 1000 Ang^3
#
#
#
# Elastic Constant Matrix: (Units=GPa)
#
#
# Indices 1 2 3 4 5 6 
#
# 1 60.5676 31.8258 18.7804 0.0000 0.0000 0.0000
# 2 31.8258 92.0030 9.6070 0.0000 0.0000 0.0000
# 3 18.7804 9.6070 38.3673 0.0000 0.0000 0.0000
# 4 0.0000 0.0000 0.0000 9.2145 0.0000 0.0000
# 5 0.0000 0.0000 0.0000 0.0000 18.9588 0.0000
# 6 0.0000 0.0000 0.0000 0.0000 0.0000 33.1724
#
#
#
# Elastic Compliance Matrix: (Units=1/GPa)
#
#
# Indices 1 2 3 4 5 6 
#
# 1 0.023167 -0.007013 -0.009584 0.000000 0.000000 0.000000
# 2 -0.007013 0.013284 0.000107 0.000000 0.000000 0.000000
# 3 -0.009584 0.000107 0.030728 0.000000 0.000000 0.000000
# 4 0.000000 0.000000 0.000000 0.108524 0.000000 0.000000
# 5 0.000000 0.000000 0.000000 0.000000 0.052746 0.000000
# 6 0.000000 0.000000 0.000000 0.000000 0.000000 0.030146
#
#
# Mechanical properties :
#
#
# Convention : Reuss Voigt Hill
#
# Bulk Modulus (GPa) = 29.24107 34.59604 31.91855
# Shear Modulus (GPa) = 16.50290 20.98412 18.74351
#
# Velocity S-wave (km/s) = 2.96236 3.34044 3.15707
# Velocity P-wave (km/s) = 5.22016 5.76844 5.50113
#
# Compressibility (1/GPa) = 0.03419848
#
# Stress axis : x y z
#
# Youngs Moduli (GPa) = 43.16400 75.27781 32.54314
#
# Poissons Ratio (x) = 0.52795 0.31190
# Poissons Ratio (y) = 0.30272 -0.00347
# Poissons Ratio (z) = 0.41369 -0.00803
#
# Static dielectric constant tensor:
#      x y z
#    x 3.325130 0.000000 0.000000 
#    y 0.000000 3.918760 0.000000 
#    z 0.000000 0.000000 3.239410 
# 
# 
# High freq. dielectric constant tensor:
#      x y z
#    x 1.709110 0.000000 0.000000 
#    y 0.000000 1.752370 0.000000 
#    z 0.000000 0.000000 1.697820 
# 
# From -- ./inp_files/13771.got.cif
#   From: 2010.03.12/outbox.cif.g09.slc.cpg/sg36_7_cif.got.tgz:13771.got - 2010.04.14 02:13:53.
