data_PCOD8174069
_publ_section_title
;
Structure prediction by ZEFSAII (Michael W. Deem and Ramdas Pophale) SiO2 
 PCOD8174069
Probable space group: C M M 2
;
_chemical_formula_sum "Si O2"
_cell_formula_units_Z 32
_cell_length_a 7.977663
_cell_length_b 33.545887
_cell_length_c 4.923449
_cell_angle_alpha 90.000000
_cell_angle_beta 90.000000
_cell_angle_gamma 90.000000
_cell_volume 1317.602499
_symmetry_space_group_name_H-M "C M M 2"
_symmetry_group_IT_number 35
_symmetry_cell_setting 'orthorhombic'
loop_
_space_group_symop_operation_xyz
x,y,z
-x,-y,z
-x,y,z
x,-y,z
1/2+x,1/2+y,z
1/2-x,1/2-y,z
1/2-x,1/2+y,z
1/2+x,1/2-y,z
loop_
_atom_site_type_symbol
_atom_site_label
_atom_site_fract_x
_atom_site_fract_y
_atom_site_fract_z
Si Si1 0.191434 0.409070 0.553590
Si Si2 0.500000 0.789934 0.191701
Si Si3 0.306634 0.454976 0.051780
Si Si4 0.500000 0.736540 0.685301
Si Si5 0.816637 0.825677 0.386992
O O1 0.284319 0.440181 0.358446
O O2 0.277884 0.366136 0.545305
O O3 0.000000 0.404438 0.465080
O O4 0.202471 0.425861 0.857631
O O5 0.500000 0.775987 0.502756
O O6 0.671128 0.815952 0.164340
O O7 0.500000 0.751217 0.997521
O O8 0.500000 0.453308 0.968554
O O9 0.237628 0.500000 0.029496
O O10 0.665451 0.709740 0.614147
O O11 0.000000 0.829685 0.237112
#
# Coordination Sequence:
#
# PCOD8174069 Si02
#       5
#     8   4   8   4   8
#     4  12  25  46  74 109 150 194 248 309 363 444
#     4  12  24  52  68 108 145 180 249 308 366 446
#     4  11  25  45  73 108 150 197 248 301 366 443
#     4  10  28  44  76 104 141 190 241 304 374 436
#     4  10  25  49  73 109 141 196 241 305 370 444
#
# _framework density 24.286535000000001
#
# number of rings (size 3 to 8) (size 9 to 14) (size 15 to 20)
#    0.750    0.250    1.250    4.500    0.000   13.000 
#    2.250    0.000    0.000    0.000    0.000    0.000 
#    0.000    0.000    0.000    0.000    0.000    0.000 
#
# Total GULP energy -198405.838778 kJ/mol
# GULP energy per Si atom -12400.364924 kJ/mol
# Density = 2.423126 g / cm^3
# Si number density = 24.286535 Si / 1000 Ang^3
#
#
#
# Elastic Constant Matrix: (Units=GPa)
#
#
# Indices 1 2 3 4 5 6 
#
# 1 149.8387 36.1718 23.8954 0.0000 0.0000 0.0000
# 2 36.1718 98.3560 7.7026 0.0000 0.0000 0.0000
# 3 23.8954 7.7026 66.7746 0.0000 0.0000 0.0000
# 4 0.0000 0.0000 0.0000 38.2778 0.0000 0.0000
# 5 0.0000 0.0000 0.0000 0.0000 28.9306 0.0000
# 6 0.0000 0.0000 0.0000 0.0000 0.0000 31.5354
#
#
#
# Elastic Compliance Matrix: (Units=1/GPa)
#
#
# Indices 1 2 3 4 5 6 
#
# 1 0.007702 -0.002641 -0.002452 0.000000 0.000000 0.000000
# 2 -0.002641 0.011165 -0.000343 0.000000 0.000000 0.000000
# 3 -0.002452 -0.000343 0.015893 0.000000 0.000000 0.000000
# 4 0.000000 0.000000 0.000000 0.026125 0.000000 0.000000
# 5 0.000000 0.000000 0.000000 0.000000 0.034566 0.000000
# 6 0.000000 0.000000 0.000000 0.000000 0.000000 0.031710
#
#
# Mechanical properties :
#
#
# Convention : Reuss Voigt Hill
#
# Bulk Modulus (GPa) = 41.85933 50.05653 45.95793
# Shear Modulus (GPa) = 34.24786 36.22872 35.23829
#
# Velocity S-wave (km/s) = 3.75928 3.86647 3.81325
# Velocity P-wave (km/s) = 6.00966 6.37090 6.19291
#
# Compressibility (1/GPa) = 0.02388954
#
# Stress axis : x y z
#
# Youngs Moduli (GPa) = 129.83169 89.56456 62.92216
#
# Poissons Ratio (x) = 0.23651 0.15426
# Poissons Ratio (y) = 0.34284 0.02158
# Poissons Ratio (z) = 0.31830 0.03072
#
# Static dielectric constant tensor:
#      x y z
#    x 4.480190 0.000000 0.000000 
#    y 0.000000 4.351650 0.000000 
#    z 0.000000 0.000000 3.775850 
# 
# 
# High freq. dielectric constant tensor:
#      x y z
#    x 1.979600 0.000000 0.000000 
#    y 0.000000 1.974170 0.000000 
#    z 0.000000 0.000000 1.935990 
# 
# From -- ./inp_files/600.got.cif
#   From: 2010.03.12/outbox.cif.g09.slc.cpg/sg35_1_cif.got.tgz:600.got - 2010.04.14 02:02:04.
