data_PCOD8174450
_publ_section_title
;
Structure prediction by ZEFSAII (Michael W. Deem and Ramdas Pophale) SiO2 
 PCOD8174450
Probable space group: C M C 21
;
_chemical_formula_sum "Si O2"
_cell_formula_units_Z 56
_cell_length_a 16.053412
_cell_length_b 12.056475
_cell_length_c 14.391143
_cell_angle_alpha 90.000000
_cell_angle_beta 90.000000
_cell_angle_gamma 90.000000
_cell_volume 2785.370620
_symmetry_space_group_name_H-M "C M C 21"
_symmetry_group_IT_number 36
_symmetry_cell_setting 'orthorhombic'
loop_
_space_group_symop_operation_xyz
x,y,z
-x,-y,1/2+z
x,-y,1/2+z
-x,y,z
1/2+x,1/2+y,z
1/2-x,1/2-y,1/2+z
1/2+x,1/2-y,1/2+z
1/2-x,1/2+y,z
loop_
_atom_site_type_symbol
_atom_site_label
_atom_site_fract_x
_atom_site_fract_y
_atom_site_fract_z
Si Si1 0.905613 0.645509 0.932150
Si Si2 0.690954 0.000218 0.801793
Si Si3 0.092955 0.838644 0.181784
Si Si4 0.756520 0.186624 0.422275
Si Si5 0.682027 0.508263 0.545617
Si Si6 0.331545 0.114719 0.121412
Si Si7 0.656389 0.619629 0.870691
O O1 0.884718 0.540655 0.866465
O O2 0.845469 0.750511 0.914056
O O3 0.000000 0.683988 0.914141
O O4 0.896157 0.600637 0.037286
O O5 0.762312 0.093484 0.806478
O O6 0.737595 0.887763 0.832357
O O7 0.653295 0.979381 0.699475
O O8 0.119272 0.949254 0.124790
O O9 0.157034 0.738176 0.163030
O O10 0.085824 0.864473 0.292678
O O11 0.000000 0.805280 0.149308
O O12 0.758045 0.110211 0.514658
O O13 0.678655 0.270258 0.429191
O O14 0.737705 0.405104 0.582100
O O15 0.633991 0.471544 0.449881
#
# Coordination Sequence:
#
# PCOD8174450 Si02
#       7
#     8   8   8   8   8   8   8
#     4  11  23  38  59  93 125 153 199 255 306 348
#     4  10  21  37  62  88 119 159 205 242 295 365
#     4  12  25  38  61  95 123 153 202 261 309 350
#     4  10  18  38  59  86 117 157 199 236 298 360
#     4  11  21  38  63  90 118 164 205 246 295 370
#     4  12  21  37  64  92 118 160 208 250 292 368
#     4  10  20  38  61  88 116 162 204 244 296 367
#
# _framework density 20.105043999999999
#
# number of rings (size 3 to 8) (size 9 to 14) (size 15 to 20)
#    0.000    1.143    8.571    0.429    0.000    1.714 
#    0.000    2.143    0.000    0.000    0.000    0.000 
#    0.000    0.000    0.000    0.000    0.000    0.000 
#
# Total GULP energy -346921.861098 kJ/mol
# GULP energy per Si atom -12390.066468 kJ/mol
# Density = 2.005928 g / cm^3
# Si number density = 20.105044 Si / 1000 Ang^3
#
#
#
# Elastic Constant Matrix: (Units=GPa)
#
#
# Indices 1 2 3 4 5 6 
#
# 1 85.3080 33.6738 25.6897 0.0000 0.0000 0.0000
# 2 33.6738 83.5650 43.4155 0.0000 0.0000 0.0000
# 3 25.6897 43.4155 123.7683 0.0000 0.0000 0.0000
# 4 0.0000 0.0000 0.0000 33.4720 0.0000 0.0000
# 5 0.0000 0.0000 0.0000 0.0000 19.7764 0.0000
# 6 0.0000 0.0000 0.0000 0.0000 0.0000 20.1193
#
#
#
# Elastic Compliance Matrix: (Units=1/GPa)
#
#
# Indices 1 2 3 4 5 6 
#
# 1 0.014070 -0.005078 -0.001139 0.000000 0.000000 0.000000
# 2 -0.005078 0.016466 -0.004722 0.000000 0.000000 0.000000
# 3 -0.001139 -0.004722 0.009972 0.000000 0.000000 0.000000
# 4 0.000000 0.000000 0.000000 0.029876 0.000000 0.000000
# 5 0.000000 0.000000 0.000000 0.000000 0.050565 0.000000
# 6 0.000000 0.000000 0.000000 0.000000 0.000000 0.049704
#
#
# Mechanical properties :
#
#
# Convention : Reuss Voigt Hill
#
# Bulk Modulus (GPa) = 53.67582 55.35547 54.51565
# Shear Modulus (GPa) = 25.15837 27.33102 26.24470
#
# Velocity S-wave (km/s) = 3.54128 3.69102 3.61692
# Velocity P-wave (km/s) = 6.59367 6.76445 6.67960
#
# Compressibility (1/GPa) = 0.01863036
#
# Stress axis : x y z
#
# Youngs Moduli (GPa) = 71.07513 60.73052 100.27605
#
# Poissons Ratio (x) = 0.30837 0.11423
# Poissons Ratio (y) = 0.36090 0.47351
# Poissons Ratio (z) = 0.08097 0.28677
#
# Static dielectric constant tensor:
#      x y z
#    x 3.243730 0.000000 0.000000 
#    y 0.000000 3.768570 0.000000 
#    z 0.000000 0.000000 3.849680 
# 
# 
# High freq. dielectric constant tensor:
#      x y z
#    x 1.740020 0.000000 0.000000 
#    y 0.000000 1.785800 0.000000 
#    z 0.000000 0.000000 1.796540 
# 
# From -- ./inp_files/12172.got.cif
#   From: 2010.03.12/outbox.cif.g09.slc.cpg/sg36_7_cif.got.tgz:12172.got - 2010.04.14 02:13:53.
