data_PCOD8174966
_publ_section_title
;
Structure prediction by ZEFSAII (Michael W. Deem and Ramdas Pophale) SiO2 
 PCOD8174966
Probable space group: C M C 21
;
_chemical_formula_sum "Si O2"
_cell_formula_units_Z 64
_cell_length_a 8.969509
_cell_length_b 23.544880
_cell_length_c 15.299921
_cell_angle_alpha 90.000000
_cell_angle_beta 90.000000
_cell_angle_gamma 90.000000
_cell_volume 3231.129316
_symmetry_space_group_name_H-M "C M C 21"
_symmetry_group_IT_number 36
_symmetry_cell_setting 'orthorhombic'
loop_
_space_group_symop_operation_xyz
x,y,z
-x,-y,1/2+z
x,-y,1/2+z
-x,y,z
1/2+x,1/2+y,z
1/2-x,1/2-y,1/2+z
1/2+x,1/2-y,1/2+z
1/2-x,1/2+y,z
loop_
_atom_site_type_symbol
_atom_site_label
_atom_site_fract_x
_atom_site_fract_y
_atom_site_fract_z
Si Si1 0.824196 0.127238 0.200950
Si Si2 0.672049 0.134794 0.023933
Si Si3 0.828207 0.558796 0.349455
Si Si4 0.669293 0.743149 0.456553
Si Si5 0.327002 0.073931 0.849315
Si Si6 0.672614 0.751856 0.254873
Si Si7 0.823574 0.862499 0.192433
Si Si8 0.174808 0.631998 0.514445
O O1 0.763903 0.111248 0.105633
O O2 0.766985 0.080917 0.268752
O O3 0.767908 0.189625 0.229284
O O4 0.000000 0.124658 0.200224
O O5 0.500000 0.119396 0.038816
O O6 0.696700 0.202219 0.016668
O O7 0.731578 0.103804 0.937226
O O8 0.799659 0.492469 0.360048
O O9 0.775538 0.589007 0.438372
O O10 0.000000 0.572926 0.330475
O O11 0.500000 0.720137 0.466838
O O12 0.698222 0.761804 0.357297
O O13 0.784695 0.695677 0.485929
O O14 0.500000 0.089155 0.832989
O O15 0.233191 0.096846 0.768597
O O16 0.500000 0.759685 0.229268
O O17 0.767885 0.797931 0.202641
O O18 0.762335 0.886764 0.101086
O O19 0.000000 0.862779 0.191171
O O20 0.000000 0.628625 0.533484
#
# Coordination Sequence:
#
# PCOD8174966 Si02
#       8
#     8   8   8   8   8   8   8   8
#     4  11  23  38  61  91 126 159 194 243 303 357
#     4  10  21  38  62  88 118 155 202 248 296 357
#     4  10  23  42  65  88 114 156 209 252 295 355
#     4  10  19  36  62  91 121 157 197 247 304 354
#     4  10  22  44  66  85 115 159 206 253 300 352
#     4  10  20  38  62  89 123 163 198 241 302 361
#     4  12  25  39  61  93 125 159 200 248 302 360
#     4  11  23  39  61  91 124 160 202 246 298 362
#
# _framework density 19.807317000000001
#
# number of rings (size 3 to 8) (size 9 to 14) (size 15 to 20)
#    0.000    1.500    2.500    2.625    0.000    6.500 
#    0.000    2.500    0.000    0.000    0.000    0.000 
#    0.000    0.000    0.000    0.000    0.000    0.000 
#
# Total GULP energy -397008.869681 kJ/mol
# GULP energy per Si atom -12406.527178 kJ/mol
# Density = 1.976223 g / cm^3
# Si number density = 19.807317 Si / 1000 Ang^3
#
#
#
# Elastic Constant Matrix: (Units=GPa)
#
#
# Indices 1 2 3 4 5 6 
#
# 1 82.2681 37.7816 56.0384 0.0000 0.0000 0.0000
# 2 37.7816 88.8628 45.3387 0.0000 0.0000 0.0000
# 3 56.0384 45.3387 128.5317 0.0000 0.0000 0.0000
# 4 0.0000 0.0000 0.0000 10.9939 0.0000 0.0000
# 5 0.0000 0.0000 0.0000 0.0000 29.1757 0.0000
# 6 0.0000 0.0000 0.0000 0.0000 0.0000 28.8378
#
#
#
# Elastic Compliance Matrix: (Units=1/GPa)
#
#
# Indices 1 2 3 4 5 6 
#
# 1 0.018733 -0.004631 -0.006534 0.000000 0.000000 0.000000
# 2 -0.004631 0.014868 -0.003226 0.000000 0.000000 0.000000
# 3 -0.006534 -0.003226 0.011767 0.000000 0.000000 0.000000
# 4 0.000000 0.000000 0.000000 0.090960 0.000000 0.000000
# 5 0.000000 0.000000 0.000000 0.000000 0.034275 0.000000
# 6 0.000000 0.000000 0.000000 0.000000 0.000000 0.034677
#
#
# Mechanical properties :
#
#
# Convention : Reuss Voigt Hill
#
# Bulk Modulus (GPa) = 60.28876 64.22000 62.25438
# Shear Modulus (GPa) = 20.86913 24.50172 22.68542
#
# Velocity S-wave (km/s) = 3.24945 3.52092 3.38791
# Velocity P-wave (km/s) = 6.67700 7.00157 6.84121
#
# Compressibility (1/GPa) = 0.01658684
#
# Stress axis : x y z
#
# Youngs Moduli (GPa) = 53.38254 67.25883 84.98645
#
# Poissons Ratio (x) = 0.31147 0.55528
# Poissons Ratio (y) = 0.24721 0.27412
# Poissons Ratio (z) = 0.34879 0.21694
#
# Static dielectric constant tensor:
#      x y z
#    x 3.505170 0.000000 0.000000 
#    y 0.000000 3.559980 0.000000 
#    z 0.000000 0.000000 3.756800 
# 
# 
# High freq. dielectric constant tensor:
#      x y z
#    x 1.764330 0.000000 0.000000 
#    y 0.000000 1.768670 0.000000 
#    z 0.000000 0.000000 1.788460 
# 
# From -- ./inp_files/10915.got.cif
#   From: 2010.03.12/outbox.cif.g09.slc.cpg/sg36_6_cif.got.tgz:10915.got - 2010.04.14 02:13:53.
