data_PCOD8174287
_publ_section_title
;
Structure prediction by ZEFSAII (Michael W. Deem and Ramdas Pophale) SiO2 
 PCOD8174287
Probable space group: C M C 21
;
_chemical_formula_sum "Si O2"
_cell_formula_units_Z 48
_cell_length_a 14.120168
_cell_length_b 21.949853
_cell_length_c 9.622852
_cell_angle_alpha 90.000000
_cell_angle_beta 90.000000
_cell_angle_gamma 90.000000
_cell_volume 2982.464523
_symmetry_space_group_name_H-M "C M C 21"
_symmetry_group_IT_number 36
_symmetry_cell_setting 'orthorhombic'
loop_
_space_group_symop_operation_xyz
x,y,z
-x,-y,1/2+z
x,-y,1/2+z
-x,y,z
1/2+x,1/2+y,z
1/2-x,1/2-y,1/2+z
1/2+x,1/2-y,1/2+z
1/2-x,1/2+y,z
loop_
_atom_site_type_symbol
_atom_site_label
_atom_site_fract_x
_atom_site_fract_y
_atom_site_fract_z
Si Si1 0.500000 0.570520 0.123621
Si Si2 0.889864 0.700770 0.645953
Si Si3 0.235956 0.690506 0.886757
Si Si4 0.675254 0.341095 0.651601
Si Si5 0.234888 0.826916 0.948188
Si Si6 0.000000 0.955562 0.311008
Si Si7 0.105057 0.149687 0.692831
O O1 0.408873 0.612100 0.137332
O O2 0.500000 0.522217 0.246986
O O3 0.500000 0.536133 0.976521
O O4 0.850115 0.668918 0.787411
O O5 0.866082 0.772579 0.646817
O O6 0.839345 0.667195 0.515637
O O7 0.000000 0.688365 0.633384
O O8 0.207832 0.756379 0.942163
O O9 0.332277 0.692407 0.793780
O O10 0.252369 0.648426 0.022448
O O11 0.731785 0.355255 0.793930
O O12 0.155057 0.858640 0.043774
O O13 0.093156 0.917571 0.261342
O O14 0.000000 0.179742 0.675499
#
# Coordination Sequence:
#
# PCOD8174287 Si02
#       7
#     4   8   8   8   8   4   8
#     4  12  22  34  52  72 106 138 176 204 247 310
#     4   9  17  31  48  70  98 137 176 200 251 297
#     4   9  17  31  45  68  95 132 180 194 243 307
#     4  10  18  31  47  69 101 140 163 210 249 295
#     4   9  19  27  47  72  95 129 176 204 236 315
#     4  10  24  34  50  74  98 144 172 206 245 304
#     4   9  18  34  47  64 103 137 160 203 253 289
#
# _framework density 16.094072000000001
#
# number of rings (size 3 to 8) (size 9 to 14) (size 15 to 20)
#    0.500    2.000    2.500    1.000    3.500    1.333 
#    0.000    0.833    0.000    0.000    0.000    0.000 
#    0.000   21.333    0.000    0.000    0.000    0.000 
#
# Total GULP energy -297373.603401 kJ/mol
# GULP energy per Si atom -12390.566808 kJ/mol
# Density = 1.605744 g / cm^3
# Si number density = 16.094072 Si / 1000 Ang^3
#
#
#
# Elastic Constant Matrix: (Units=GPa)
#
#
# Indices 1 2 3 4 5 6 
#
# 1 107.0369 13.5445 61.7266 0.0000 0.0000 0.0000
# 2 13.5445 41.2270 23.9782 0.0000 0.0000 0.0000
# 3 61.7266 23.9782 155.3048 0.0000 0.0000 0.0000
# 4 0.0000 0.0000 0.0000 22.1464 0.0000 0.0000
# 5 0.0000 0.0000 0.0000 0.0000 18.8876 0.0000
# 6 0.0000 0.0000 0.0000 0.0000 0.0000 5.3030
#
#
#
# Elastic Compliance Matrix: (Units=1/GPa)
#
#
# Indices 1 2 3 4 5 6 
#
# 1 0.012184 -0.001303 -0.004641 0.000000 0.000000 0.000000
# 2 -0.001303 0.026788 -0.003618 0.000000 0.000000 0.000000
# 3 -0.004641 -0.003618 0.008842 0.000000 0.000000 0.000000
# 4 0.000000 0.000000 0.000000 0.045154 0.000000 0.000000
# 5 0.000000 0.000000 0.000000 0.000000 0.052945 0.000000
# 6 0.000000 0.000000 0.000000 0.000000 0.000000 0.188571
#
#
# Mechanical properties :
#
#
# Convention : Reuss Voigt Hill
#
# Bulk Modulus (GPa) = 34.85615 55.78525 45.32070
# Shear Modulus (GPa) = 13.76754 22.88870 18.32812
#
# Velocity S-wave (km/s) = 2.92797 3.77527 3.37829
# Velocity P-wave (km/s) = 5.75634 7.33081 6.59076
#
# Compressibility (1/GPa) = 0.02868934
#
# Stress axis : x y z
#
# Youngs Moduli (GPa) = 82.07392 37.32959 113.09290
#
# Poissons Ratio (x) = 0.04866 0.52491
# Poissons Ratio (y) = 0.10698 0.40916
# Poissons Ratio (z) = 0.38094 0.13506
#
# Static dielectric constant tensor:
#      x y z
#    x 2.983990 0.000000 0.000000 
#    y 0.000000 2.606590 0.000000 
#    z 0.000000 0.000000 3.516750 
# 
# 
# High freq. dielectric constant tensor:
#      x y z
#    x 1.603920 0.000000 0.000000 
#    y 0.000000 1.561210 0.000000 
#    z 0.000000 0.000000 1.645820 
# 
# From -- ./inp_files/4093.got.cif
#   From: 2010.03.12/outbox.cif.g09.slc.cpg/sg36_3_cif.got.tgz:4093.got - 2010.04.14 02:13:53.
