data_PCOD8174936
_publ_section_title
;
Structure prediction by ZEFSAII (Michael W. Deem and Ramdas Pophale) SiO2 
 PCOD8174936
Probable space group: C M C 21
;
_chemical_formula_sum "Si O2"
_cell_formula_units_Z 64
_cell_length_a 8.534574
_cell_length_b 20.318098
_cell_length_c 19.308868
_cell_angle_alpha 90.000000
_cell_angle_beta 90.000000
_cell_angle_gamma 90.000000
_cell_volume 3348.279568
_symmetry_space_group_name_H-M "C M C 21"
_symmetry_group_IT_number 36
_symmetry_cell_setting 'orthorhombic'
loop_
_space_group_symop_operation_xyz
x,y,z
-x,-y,1/2+z
x,-y,1/2+z
-x,y,z
1/2+x,1/2+y,z
1/2-x,1/2-y,1/2+z
1/2+x,1/2-y,1/2+z
1/2-x,1/2+y,z
loop_
_atom_site_type_symbol
_atom_site_label
_atom_site_fract_x
_atom_site_fract_y
_atom_site_fract_z
Si Si1 0.682664 0.107349 0.256870
Si Si2 0.818876 0.306858 0.114640
Si Si3 0.318010 0.060797 0.540438
Si Si4 0.683540 0.756871 0.408138
Si Si5 0.817719 0.316645 0.545053
Si Si6 0.818811 0.060434 0.119322
Si Si7 0.184253 0.890622 0.903546
Si Si8 0.319577 0.748711 0.256673
O O1 0.500000 0.094807 0.248446
O O2 0.769632 0.063224 0.199515
O O3 0.737570 0.083683 0.332632
O O4 0.717563 0.184038 0.242448
O O5 0.766352 0.378617 0.089295
O O6 0.705062 0.253995 0.080325
O O7 0.793299 0.303230 0.197702
O O8 0.000000 0.291860 0.095878
O O9 0.500000 0.063872 0.523267
O O10 0.227857 0.062280 0.467260
O O11 0.280722 0.994156 0.579947
O O12 0.500000 0.752601 0.420288
O O13 0.745604 0.808275 0.465687
O O14 0.750540 0.682902 0.419303
O O15 0.727442 0.781204 0.330663
O O16 0.711579 0.369848 0.582831
O O17 0.000000 0.337295 0.549608
O O18 0.000000 0.042267 0.113869
O O19 0.000000 0.890321 0.891462
O O20 0.500000 0.724760 0.259779
#
# Coordination Sequence:
#
# PCOD8174936 Si02
#       8
#     8   8   8   8   8   8   8   8
#     4  11  21  35  57  87 115 148 192 244 291 344
#     4  10  20  34  57  85 116 149 187 237 293 347
#     4  11  23  39  58  87 120 155 199 247 292 348
#     4   8  16  30  53  83 114 147 185 229 284 346
#     4  11  20  34  57  85 115 148 191 241 291 345
#     4  12  25  41  58  81 116 161 202 245 296 349
#     4  10  19  36  59  85 115 153 192 234 290 354
#     4   9  17  33  55  83 115 149 186 231 289 353
#
# _framework density 19.114294000000001
#
# number of rings (size 3 to 8) (size 9 to 14) (size 15 to 20)
#    0.000    1.750    2.500    4.125    0.000    0.500 
#    0.000    1.875    0.000    3.000    0.000    0.000 
#    0.000    0.000    0.000    0.000    0.000    0.000 
#
# Total GULP energy -396794.632177 kJ/mol
# GULP energy per Si atom -12399.832256 kJ/mol
# Density = 1.907079 g / cm^3
# Si number density = 19.114294 Si / 1000 Ang^3
#
#
#
# Elastic Constant Matrix: (Units=GPa)
#
#
# Indices 1 2 3 4 5 6 
#
# 1 50.4117 6.2524 14.7804 0.0000 0.0000 0.0000
# 2 6.2524 57.2091 35.6172 0.0000 0.0000 0.0000
# 3 14.7804 35.6172 145.5753 0.0000 0.0000 0.0000
# 4 0.0000 0.0000 0.0000 29.2415 0.0000 0.0000
# 5 0.0000 0.0000 0.0000 0.0000 27.8194 0.0000
# 6 0.0000 0.0000 0.0000 0.0000 0.0000 24.2609
#
#
#
# Elastic Compliance Matrix: (Units=1/GPa)
#
#
# Indices 1 2 3 4 5 6 
#
# 1 0.020505 -0.001115 -0.001809 0.000000 0.000000 0.000000
# 2 -0.001115 0.020681 -0.004947 0.000000 0.000000 0.000000
# 3 -0.001809 -0.004947 0.008263 0.000000 0.000000 0.000000
# 4 0.000000 0.000000 0.000000 0.034198 0.000000 0.000000
# 5 0.000000 0.000000 0.000000 0.000000 0.035946 0.000000
# 6 0.000000 0.000000 0.000000 0.000000 0.000000 0.041219
#
#
# Mechanical properties :
#
#
# Convention : Reuss Voigt Hill
#
# Bulk Modulus (GPa) = 29.66601 40.72178 35.19389
# Shear Modulus (GPa) = 26.62542 29.36742 27.99642
#
# Velocity S-wave (km/s) = 3.73629 3.92396 3.83127
# Velocity P-wave (km/s) = 5.84527 6.47152 6.16635
#
# Compressibility (1/GPa) = 0.03370861
#
# Stress axis : x y z
#
# Youngs Moduli (GPa) = 48.76774 48.35275 121.01696
#
# Poissons Ratio (x) = 0.05390 0.21894
# Poissons Ratio (y) = 0.05436 0.59865
# Poissons Ratio (z) = 0.08823 0.23919
#
# Static dielectric constant tensor:
#      x y z
#    x 3.356240 0.000000 0.000000 
#    y 0.000000 3.194520 0.000000 
#    z 0.000000 0.000000 3.942390 
# 
# 
# High freq. dielectric constant tensor:
#      x y z
#    x 1.737790 0.000000 0.000000 
#    y 0.000000 1.703870 0.000000 
#    z 0.000000 0.000000 1.765830 
# 
# From -- ./inp_files/13913.got.cif
#   From: 2010.03.12/outbox.cif.g09.slc.cpg/sg36_7_cif.got.tgz:13913.got - 2010.04.14 02:13:53.
