data_PCOD8174216
_publ_section_title
;
Structure prediction by ZEFSAII (Michael W. Deem and Ramdas Pophale) SiO2 
 PCOD8174216
Probable space group: C M C 21
;
_chemical_formula_sum "Si O2"
_cell_formula_units_Z 64
_cell_length_a 8.510408
_cell_length_b 22.885896
_cell_length_c 16.714392
_cell_angle_alpha 90.000000
_cell_angle_beta 90.000000
_cell_angle_gamma 90.000000
_cell_volume 3255.433923
_symmetry_space_group_name_H-M "C M C 21"
_symmetry_group_IT_number 36
_symmetry_cell_setting 'orthorhombic'
loop_
_space_group_symop_operation_xyz
x,y,z
-x,-y,1/2+z
x,-y,1/2+z
-x,y,z
1/2+x,1/2+y,z
1/2-x,1/2-y,1/2+z
1/2+x,1/2-y,1/2+z
1/2-x,1/2+y,z
loop_
_atom_site_type_symbol
_atom_site_label
_atom_site_fract_x
_atom_site_fract_y
_atom_site_fract_z
Si Si1 0.325061 0.426476 0.578780
Si Si2 0.325707 0.451581 0.144411
Si Si3 0.686942 0.398004 0.873274
Si Si4 0.316569 0.472580 0.415806
Si Si5 0.186208 0.364924 0.033478
Si Si6 0.311458 0.341074 0.707987
Si Si7 0.813998 0.288506 0.182051
Si Si8 0.820660 0.394034 0.285670
O O1 0.500000 0.405909 0.554080
O O2 0.333736 0.479175 0.641408
O O3 0.236607 0.448486 0.498219
O O4 0.243472 0.374344 0.629023
O O5 0.500000 0.427642 0.167311
O O6 0.271159 0.425282 0.059310
O O7 0.193820 0.435075 0.208376
O O8 0.500000 0.396256 0.875685
O O9 0.751721 0.464846 0.885367
O O10 0.749794 0.371895 0.789228
O O11 0.755024 0.355088 0.942678
O O12 0.500000 0.482342 0.430871
O O13 0.290126 0.420353 0.353422
O O14 0.242942 0.314092 0.095708
O O15 0.000000 0.371636 0.035823
O O16 0.500000 0.342644 0.707299
O O17 0.244017 0.275360 0.700165
O O18 0.762819 0.329943 0.256488
O O19 0.000000 0.285694 0.179498
O O20 0.000000 0.393526 0.315667
#
# Coordination Sequence:
#
# PCOD8174216 Si02
#       8
#     8   8   8   8   8   8   8   8
#     4   9  17  30  51  76 104 132 168 218 266 305
#     4  10  17  31  54  79 104 132 170 219 260 305
#     4  10  19  33  55  81 105 132 177 226 268 313
#     4  10  19  33  51  80 110 131 168 222 267 313
#     4  10  19  32  52  78 107 139 171 212 264 318
#     4   9  17  32  54  76 100 140 180 216 263 311
#     4   8  17  34  51  70 101 138 179 212 248 315
#     4  10  20  33  50  76 105 140 173 209 260 314
#
# _framework density 19.659437
#
# number of rings (size 3 to 8) (size 9 to 14) (size 15 to 20)
#    0.000    2.500    1.250    2.625    0.000    2.500 
#    2.250    0.000    0.000    4.500    0.000    0.000 
#    0.000    0.000    0.000    0.000    0.000    0.000 
#
# Total GULP energy -396486.495196 kJ/mol
# GULP energy per Si atom -12390.202975 kJ/mol
# Density = 1.961469 g / cm^3
# Si number density = 19.659437 Si / 1000 Ang^3
#
#
#
# Elastic Constant Matrix: (Units=GPa)
#
#
# Indices 1 2 3 4 5 6 
#
# 1 21.8548 13.2775 3.9846 0.0000 0.0000 0.0000
# 2 13.2775 141.9755 79.1018 0.0000 0.0000 0.0000
# 3 3.9846 79.1018 122.3276 0.0000 0.0000 0.0000
# 4 0.0000 0.0000 0.0000 29.5056 0.0000 0.0000
# 5 0.0000 0.0000 0.0000 0.0000 25.3462 0.0000
# 6 0.0000 0.0000 0.0000 0.0000 0.0000 15.2621
#
#
#
# Elastic Compliance Matrix: (Units=1/GPa)
#
#
# Indices 1 2 3 4 5 6 
#
# 1 0.048866 -0.005757 0.002131 0.000000 0.000000 0.000000
# 2 -0.005757 0.011688 -0.007371 0.000000 0.000000 0.000000
# 3 0.002131 -0.007371 0.012872 0.000000 0.000000 0.000000
# 4 0.000000 0.000000 0.000000 0.033892 0.000000 0.000000
# 5 0.000000 0.000000 0.000000 0.000000 0.039454 0.000000
# 6 0.000000 0.000000 0.000000 0.000000 0.000000 0.065522
#
#
# Mechanical properties :
#
#
# Convention : Reuss Voigt Hill
#
# Bulk Modulus (GPa) = 19.44308 53.20951 36.32630
# Shear Modulus (GPa) = 19.88620 26.67572 23.28096
#
# Velocity S-wave (km/s) = 3.18391 3.68760 3.44497
# Velocity P-wave (km/s) = 4.84023 6.72722 5.86018
#
# Compressibility (1/GPa) = 0.05143217
#
# Stress axis : x y z
#
# Youngs Moduli (GPa) = 20.46422 85.55429 77.69078
#
# Poissons Ratio (x) = 0.49256 -0.16557
# Poissons Ratio (y) = 0.11782 0.57264
# Poissons Ratio (z) = -0.04361 0.63060
#
# Static dielectric constant tensor:
#      x y z
#    x 3.137130 0.000000 0.000000 
#    y 0.000000 3.767140 0.000000 
#    z 0.000000 0.000000 3.747130 
# 
# 
# High freq. dielectric constant tensor:
#      x y z
#    x 1.720890 0.000000 0.000000 
#    y 0.000000 1.754550 0.000000 
#    z 0.000000 0.000000 1.772320 
# 
# From -- ./inp_files/13957.got.cif
#   From: 2010.03.12/outbox.cif.g09.slc.cpg/sg36_7_cif.got.tgz:13957.got - 2010.04.14 02:13:53.
