data_PCOD8174415
_publ_section_title
;
Structure prediction by ZEFSAII (Michael W. Deem and Ramdas Pophale) SiO2 
 PCOD8174415
Probable space group: C M C 21
;
_chemical_formula_sum "Si O2"
_cell_formula_units_Z 64
_cell_length_a 27.336872
_cell_length_b 21.843033
_cell_length_c 5.494321
_cell_angle_alpha 90.000000
_cell_angle_beta 90.000000
_cell_angle_gamma 90.000000
_cell_volume 3280.770039
_symmetry_space_group_name_H-M "C M C 21"
_symmetry_group_IT_number 36
_symmetry_cell_setting 'orthorhombic'
loop_
_space_group_symop_operation_xyz
x,y,z
-x,-y,1/2+z
x,-y,1/2+z
-x,y,z
1/2+x,1/2+y,z
1/2-x,1/2-y,1/2+z
1/2+x,1/2-y,1/2+z
1/2-x,1/2+y,z
loop_
_atom_site_type_symbol
_atom_site_label
_atom_site_fract_x
_atom_site_fract_y
_atom_site_fract_z
Si Si1 0.605553 0.750000 0.708120
Si Si2 0.219986 0.250000 0.208119
Si Si3 0.147014 0.841330 0.571580
Si Si4 0.807489 0.465898 0.461584
Si Si5 0.446317 0.316370 0.828455
Si Si6 0.807489 0.034102 0.954655
Si Si7 0.352986 0.841330 0.344659
Si Si8 0.053683 0.683631 0.587788
O O1 0.570567 0.696175 0.603852
O O2 0.640910 0.783187 0.520699
O O3 0.640911 0.716813 0.895540
O O4 0.570566 0.803823 0.812390
O O5 0.250000 0.258318 0.458119
O O6 0.188024 0.187137 0.251626
O O7 0.188024 0.312862 0.164613
O O8 0.095121 0.857850 0.700004
O O9 0.165215 0.901403 0.434414
O O10 0.823214 0.502351 0.705954
O O11 0.750000 0.454383 0.458119
O O12 0.834785 0.401403 0.481826
O O13 0.500000 0.348288 0.819585
O O14 0.448509 0.249999 0.708127
O O15 0.823213 0.997649 0.710285
O O16 0.404879 0.857850 0.216233
O O17 0.000000 0.651712 0.596655
#
# Coordination Sequence:
#
# PCOD8174415 Si02
#       8
#     8   8   8   8   8   8   8   8
#     4  10  18  34  57  92 124 157 190 243 313 366
#     4  12  25  36  56  90 127 157 186 241 314 366
#     4  11  22  37  59  87 123 155 200 245 307 365
#     4  10  24  42  61  84 114 162 213 251 289 347
#     4   9  18  33  56  87 122 154 193 240 301 371
#     4  10  24  42  61  84 114 162 213 251 289 347
#     4  11  22  37  59  87 123 155 200 245 307 365
#     4   9  18  33  56  87 122 154 193 240 301 371
#
# _framework density 19.507614
#
# number of rings (size 3 to 8) (size 9 to 14) (size 15 to 20)
#    0.000    1.750    3.750    1.875    3.500    4.000 
#    0.000    0.000    0.000    1.500    0.000    0.000 
#    0.000    0.000    0.000    0.000    0.000    0.000 
#
# Total GULP energy -396480.012056 kJ/mol
# GULP energy per Si atom -12390.000377 kJ/mol
# Density = 1.946321 g / cm^3
# Si number density = 19.507614 Si / 1000 Ang^3
#
#
#
# Elastic Constant Matrix: (Units=GPa)
#
#
# Indices 1 2 3 4 5 6 
#
# 1 107.0570 46.6740 35.2519 0.0000 0.0000 0.0000
# 2 46.6740 72.8380 29.1038 0.0000 0.0000 0.0000
# 3 35.2519 29.1038 107.2332 0.0000 0.0000 0.0000
# 4 0.0000 0.0000 0.0000 24.8261 0.0000 0.0000
# 5 0.0000 0.0000 0.0000 0.0000 14.9715 0.0000
# 6 0.0000 0.0000 0.0000 0.0000 0.0000 13.8931
#
#
#
# Elastic Compliance Matrix: (Units=1/GPa)
#
#
# Indices 1 2 3 4 5 6 
#
# 1 0.013465 -0.007694 -0.002338 0.000000 0.000000 0.000000
# 2 -0.007694 0.019795 -0.002843 0.000000 0.000000 0.000000
# 3 -0.002338 -0.002843 0.010866 0.000000 0.000000 0.000000
# 4 0.000000 0.000000 0.000000 0.040280 0.000000 0.000000
# 5 0.000000 0.000000 0.000000 0.000000 0.066794 0.000000
# 6 0.000000 0.000000 0.000000 0.000000 0.000000 0.071978
#
#
# Mechanical properties :
#
#
# Convention : Reuss Voigt Hill
#
# Bulk Modulus (GPa) = 54.42122 56.57641 55.49881
# Shear Modulus (GPa) = 19.60361 22.47803 21.04082
#
# Velocity S-wave (km/s) = 3.17349 3.39819 3.28776
# Velocity P-wave (km/s) = 6.43320 6.66799 6.55165
#
# Compressibility (1/GPa) = 0.01837519
#
# Stress axis : x y z
#
# Youngs Moduli (GPa) = 74.26549 50.51659 92.03136
#
# Poissons Ratio (x) = 0.38868 0.21520
# Poissons Ratio (y) = 0.57140 0.26167
# Poissons Ratio (z) = 0.17366 0.14363
#
# Static dielectric constant tensor:
#      x y z
#    x 3.943190 0.000000 0.000000 
#    y 0.000000 3.116800 0.000000 
#    z 0.000000 0.000000 3.898090 
# 
# 
# High freq. dielectric constant tensor:
#      x y z
#    x 1.767360 0.000000 0.000000 
#    y 0.000000 1.706990 0.000000 
#    z 0.000000 0.000000 1.769180 
# 
# From -- ./inp_files/1816.got.cif
#   From: 2010.03.12/outbox.cif.g09.slc.cpg/sg36_1_cif.got.tgz:1816.got - 2010.04.14 02:13:53.
