data_PCOD8174923
_publ_section_title
;
Structure prediction by ZEFSAII (Michael W. Deem and Ramdas Pophale) SiO2 
 PCOD8174923
Probable space group: C M C 21
;
_chemical_formula_sum "Si O2"
_cell_formula_units_Z 64
_cell_length_a 15.326478
_cell_length_b 10.003873
_cell_length_c 22.074911
_cell_angle_alpha 90.000000
_cell_angle_beta 90.000000
_cell_angle_gamma 90.000000
_cell_volume 3384.616732
_symmetry_space_group_name_H-M "C M C 21"
_symmetry_group_IT_number 36
_symmetry_cell_setting 'orthorhombic'
loop_
_space_group_symop_operation_xyz
x,y,z
-x,-y,1/2+z
x,-y,1/2+z
-x,y,z
1/2+x,1/2+y,z
1/2-x,1/2-y,1/2+z
1/2+x,1/2-y,1/2+z
1/2-x,1/2+y,z
loop_
_atom_site_type_symbol
_atom_site_label
_atom_site_fract_x
_atom_site_fract_y
_atom_site_fract_z
Si Si1 0.667831 0.726189 0.613120
Si Si2 0.246177 0.108484 0.821459
Si Si3 0.750964 0.140867 0.403335
Si Si4 0.098703 0.531926 0.742954
Si Si5 0.402134 0.723680 0.742463
Si Si6 0.901119 0.468071 0.982810
Si Si7 0.670426 0.969231 0.112927
Si Si8 0.597925 0.277605 0.983706
O O1 0.607064 0.701605 0.670860
O O2 0.747852 0.626738 0.614775
O O3 0.608490 0.697261 0.555020
O O4 0.704170 0.877862 0.612117
O O5 0.246440 0.211862 0.876114
O O6 0.335147 0.121257 0.782429
O O7 0.164231 0.128885 0.777633
O O8 0.237197 0.961753 0.848902
O O9 0.662879 0.118444 0.441269
O O10 0.834153 0.130126 0.447618
O O11 0.116715 0.377473 0.759364
O O12 0.111059 0.557770 0.671585
O O13 0.000000 0.572638 0.760252
O O14 0.500000 0.683539 0.761364
O O15 0.884403 0.623025 0.967954
O O16 0.000000 0.427253 0.966466
O O17 0.886420 0.437734 0.053598
O O18 0.500000 0.319004 0.965057
#
# Coordination Sequence:
#
# PCOD8174923 Si02
#       8
#     8   8   8   8   8   8   8   8
#     4  10  19  35  65  90 116 150 191 239 305 356
#     4  12  24  39  61  86 118 161 204 240 287 344
#     4  12  24  39  61  86 118 161 204 240 287 344
#     4  10  21  39  64  90 117 155 198 242 293 356
#     4  10  21  39  63  90 118 153 197 245 296 354
#     4  10  21  39  64  90 117 155 198 242 293 356
#     4  10  19  35  65  92 116 148 191 243 299 358
#     4  10  21  39  63  90 118 153 197 245 296 354
#
# _framework density 18.909082999999999
#
# number of rings (size 3 to 8) (size 9 to 14) (size 15 to 20)
#    0.000    1.500    5.000    0.750    0.000    5.000 
#    0.000    0.000    0.000    1.500    0.000    0.000 
#    0.000    0.000    0.000    0.000    0.000    0.000 
#
# Total GULP energy -396904.824778 kJ/mol
# GULP energy per Si atom -12403.275774 kJ/mol
# Density = 1.886605 g / cm^3
# Si number density = 18.909083 Si / 1000 Ang^3
#
#
#
# Elastic Constant Matrix: (Units=GPa)
#
#
# Indices 1 2 3 4 5 6 
#
# 1 160.4773 41.8917 60.3772 0.0000 0.0000 0.0000
# 2 41.8917 42.8824 25.8727 0.0000 0.0000 0.0000
# 3 60.3772 25.8727 105.4415 0.0000 0.0000 0.0000
# 4 0.0000 0.0000 0.0000 31.3211 0.0000 0.0000
# 5 0.0000 0.0000 0.0000 0.0000 17.6638 0.0000
# 6 0.0000 0.0000 0.0000 0.0000 0.0000 31.3710
#
#
#
# Elastic Compliance Matrix: (Units=1/GPa)
#
#
# Indices 1 2 3 4 5 6 
#
# 1 0.009448 -0.007003 -0.003692 0.000000 0.000000 0.000000
# 2 -0.007003 0.032562 -0.003980 0.000000 0.000000 0.000000
# 3 -0.003692 -0.003980 0.012575 0.000000 0.000000 0.000000
# 4 0.000000 0.000000 0.000000 0.031927 0.000000 0.000000
# 5 0.000000 0.000000 0.000000 0.000000 0.056613 0.000000
# 6 0.000000 0.000000 0.000000 0.000000 0.000000 0.031877
#
#
# Mechanical properties :
#
#
# Convention : Reuss Voigt Hill
#
# Bulk Modulus (GPa) = 39.62678 62.78713 51.20696
# Shear Modulus (GPa) = 23.50031 28.11516 25.80773
#
# Velocity S-wave (km/s) = 3.52917 3.86017 3.69837
# Velocity P-wave (km/s) = 6.13259 7.29004 6.73622
#
# Compressibility (1/GPa) = 0.02523546
#
# Stress axis : x y z
#
# Youngs Moduli (GPa) = 105.83699 30.71087 79.52511
#
# Poissons Ratio (x) = 0.21506 0.29361
# Poissons Ratio (y) = 0.74114 0.31651
# Poissons Ratio (z) = 0.39076 0.12223
#
# Static dielectric constant tensor:
#      x y z
#    x 3.530120 0.000000 0.000000 
#    y 0.000000 3.306640 0.000000 
#    z 0.000000 0.000000 3.622840 
# 
# 
# High freq. dielectric constant tensor:
#      x y z
#    x 1.738510 0.000000 0.000000 
#    y 0.000000 1.712180 0.000000 
#    z 0.000000 0.000000 1.750740 
# 
# From -- ./inp_files/16963.got.cif
#   From: 2010.03.12/outbox.cif.g09.slc.cpg/sg36_9_cif.got.tgz:16963.got - 2010.04.14 02:13:53.
