data_PCOD8174127
_publ_section_title
;
Structure prediction by ZEFSAII (Michael W. Deem and Ramdas Pophale) SiO2 
 PCOD8174127
Probable space group: C M M 2
;
_chemical_formula_sum "Si O2"
_cell_formula_units_Z 40
_cell_length_a 8.763804
_cell_length_b 16.112910
_cell_length_c 14.276268
_cell_angle_alpha 90.000000
_cell_angle_beta 90.000000
_cell_angle_gamma 90.000000
_cell_volume 2015.957302
_symmetry_space_group_name_H-M "C M M 2"
_symmetry_group_IT_number 35
_symmetry_cell_setting 'orthorhombic'
loop_
_space_group_symop_operation_xyz
x,y,z
-x,-y,z
-x,y,z
x,-y,z
1/2+x,1/2+y,z
1/2-x,1/2-y,z
1/2-x,1/2+y,z
1/2+x,1/2-y,z
loop_
_atom_site_type_symbol
_atom_site_label
_atom_site_fract_x
_atom_site_fract_y
_atom_site_fract_z
Si Si1 0.319159 0.500000 0.456780
Si Si2 0.329940 0.908137 0.610452
Si Si3 0.319690 0.335883 0.785369
Si Si4 0.318874 0.500000 0.243907
Si Si5 0.325363 0.093921 0.958312
Si Si6 0.319051 0.663815 0.136246
O O1 0.500000 0.500000 0.463586
O O2 0.253410 0.582645 0.509065
O O3 0.260456 0.500000 0.350634
O O4 0.500000 0.870474 0.597440
O O5 0.232222 0.850841 0.678753
O O6 0.340472 0.000000 0.656252
O O7 0.500000 0.335246 0.789306
O O8 0.250000 0.250000 0.821024
O O9 0.253322 0.403941 0.856386
O O10 0.500000 0.500000 0.238720
O O11 0.257548 0.584483 0.195419
O O12 0.500000 0.123891 0.950942
O O13 0.314990 0.000000 0.995316
O O14 0.235459 0.153160 0.029508
O O15 0.500000 0.669671 0.140226
O O16 0.250000 0.750000 0.176689
#
# Coordination Sequence:
#
# PCOD8174127 Si02
#       6
#     4   8   8   4   8   8
#     4   9  17  35  62  87 110 149 197 242 296 357
#     4   9  19  36  57  83 113 146 187 237 288 346
#     4  12  24  37  56  82 117 158 199 243 296 356
#     4   9  20  39  64  89 120 159 205 252 308 369
#     4  11  23  39  59  86 119 157 201 248 298 357
#     4  11  22  40  62  90 124 162 205 253 304 361
#
# _framework density 19.84169
#
# number of rings (size 3 to 8) (size 9 to 14) (size 15 to 20)
#    0.600    1.000    1.000    4.800    0.000    3.600 
#    0.000    5.000    0.000    2.400    0.000    0.000 
#    0.000    0.000    0.000    0.000    0.000    0.000 
#
# Total GULP energy -247955.580785 kJ/mol
# GULP energy per Si atom -12397.779039 kJ/mol
# Density = 1.979653 g / cm^3
# Si number density = 19.841690 Si / 1000 Ang^3
#
#
#
# Elastic Constant Matrix: (Units=GPa)
#
#
# Indices 1 2 3 4 5 6 
#
# 1 139.7236 41.4779 45.3125 0.0000 0.0000 0.0000
# 2 41.4779 102.1813 43.8124 0.0000 0.0000 0.0000
# 3 45.3125 43.8124 126.5652 0.0000 0.0000 0.0000
# 4 0.0000 0.0000 0.0000 20.0774 0.0000 0.0000
# 5 0.0000 0.0000 0.0000 0.0000 25.3433 0.0000
# 6 0.0000 0.0000 0.0000 0.0000 0.0000 30.8241
#
#
#
# Elastic Compliance Matrix: (Units=1/GPa)
#
#
# Indices 1 2 3 4 5 6 
#
# 1 0.008631 -0.002558 -0.002205 0.000000 0.000000 0.000000
# 2 -0.002558 0.012251 -0.003325 0.000000 0.000000 0.000000
# 3 -0.002205 -0.003325 0.009841 0.000000 0.000000 0.000000
# 4 0.000000 0.000000 0.000000 0.049807 0.000000 0.000000
# 5 0.000000 0.000000 0.000000 0.000000 0.039458 0.000000
# 6 0.000000 0.000000 0.000000 0.000000 0.000000 0.032442
#
#
# Mechanical properties :
#
#
# Convention : Reuss Voigt Hill
#
# Bulk Modulus (GPa) = 68.73913 69.96397 69.35155
# Shear Modulus (GPa) = 28.82582 31.10678 29.96630
#
# Velocity S-wave (km/s) = 3.81568 3.96378 3.89043
# Velocity P-wave (km/s) = 7.35742 7.50242 7.43027
#
# Compressibility (1/GPa) = 0.01454776
#
# Stress axis : x y z
#
# Youngs Moduli (GPa) = 115.85579 81.62844 101.61309
#
# Poissons Ratio (x) = 0.20884 0.22401
# Poissons Ratio (y) = 0.29641 0.33784
# Poissons Ratio (z) = 0.25541 0.27140
#
# Static dielectric constant tensor:
#      x y z
#    x 3.533990 0.000000 0.000000 
#    y 0.000000 3.546520 0.000000 
#    z 0.000000 0.000000 3.478890 
# 
# 
# High freq. dielectric constant tensor:
#      x y z
#    x 1.779400 0.000000 0.000000 
#    y 0.000000 1.763680 0.000000 
#    z 0.000000 0.000000 1.761480 
# 
# From -- ./inp_files/14768.got.cif
#   From: 2010.03.12/outbox.cif.g09.slc.cpg/sg35_8_cif.got.tgz:14768.got - 2010.04.14 02:02:04.
