data_PCOD8174474
_publ_section_title
;
Structure prediction by ZEFSAII (Michael W. Deem and Ramdas Pophale) SiO2 
 PCOD8174474
Probable space group: C M C 21
;
_chemical_formula_sum "Si O2"
_cell_formula_units_Z 64
_cell_length_a 25.182650
_cell_length_b 28.505169
_cell_length_c 5.221544
_cell_angle_alpha 90.000000
_cell_angle_beta 90.000000
_cell_angle_gamma 90.000000
_cell_volume 3748.210662
_symmetry_space_group_name_H-M "C M C 21"
_symmetry_group_IT_number 36
_symmetry_cell_setting 'orthorhombic'
loop_
_space_group_symop_operation_xyz
x,y,z
-x,-y,1/2+z
x,-y,1/2+z
-x,y,z
1/2+x,1/2+y,z
1/2-x,1/2-y,1/2+z
1/2+x,1/2-y,1/2+z
1/2-x,1/2+y,z
loop_
_atom_site_type_symbol
_atom_site_label
_atom_site_fract_x
_atom_site_fract_y
_atom_site_fract_z
Si Si1 0.559211 0.470258 0.108250
Si Si2 0.199107 0.116511 0.622858
Si Si3 0.364589 0.569687 0.241872
Si Si4 0.893724 0.184742 0.632047
Si Si5 0.708505 0.515139 0.761706
Si Si6 0.560645 0.644539 0.108315
Si Si7 0.181959 0.734249 0.121654
Si Si8 0.278895 0.806332 0.122238
O O1 0.566782 0.487046 0.400676
O O2 0.500000 0.448903 0.076012
O O3 0.602329 0.432115 0.015589
O O4 0.186243 0.100691 0.329241
O O5 0.156708 0.153925 0.721040
O O6 0.196858 0.070272 0.812019
O O7 0.257122 0.140178 0.625288
O O8 0.343852 0.517028 0.158389
O O9 0.404157 0.597224 0.049802
O O10 0.917583 0.170971 0.358224
O O11 0.874264 0.238564 0.617939
O O12 0.936075 0.178519 0.861251
O O13 0.740593 0.510164 0.492119
O O14 0.500000 0.629378 0.148810
O O15 0.229918 0.770851 0.113297
O O16 0.184900 0.701596 0.372300
O O17 0.185061 0.701311 0.872107
#
# Coordination Sequence:
#
# PCOD8174474 Si02
#       8
#     8   8   8   8   8   8   8   8
#     4  10  20  32  44  56  71  97 139 190 235 270
#     4   9  19  31  47  65  85 111 142 183 229 273
#     4  10  20  33  45  60  83 115 149 184 226 267
#     4  10  20  34  50  65  85 111 138 173 229 286
#     4  10  19  30  43  58  79 110 148 183 219 258
#     4  11  22  34  48  66  87 113 150 193 231 268
#     4   9  17  30  47  66  86 106 127 162 218 285
#     4   9  17  28  45  68  88 103 129 168 218 275
#
# _framework density 17.074815000000001
#
# number of rings (size 3 to 8) (size 9 to 14) (size 15 to 20)
#    0.000    2.250    0.000    3.750    0.000   10.000 
#    0.000    3.750    0.000    1.500    0.000    0.000 
#    0.000    0.000    0.000    0.000    0.000    0.000 
#
# Total GULP energy -396423.038359 kJ/mol
# GULP energy per Si atom -12388.219949 kJ/mol
# Density = 1.703595 g / cm^3
# Si number density = 17.074815 Si / 1000 Ang^3
#
#
#
# Elastic Constant Matrix: (Units=GPa)
#
#
# Indices 1 2 3 4 5 6 
#
# 1 31.0945 40.6002 18.8041 0.0000 0.0000 0.0000
# 2 40.6002 83.6308 26.3618 0.0000 0.0000 0.0000
# 3 18.8041 26.3618 95.9506 0.0000 0.0000 0.0000
# 4 0.0000 0.0000 0.0000 25.1725 0.0000 0.0000
# 5 0.0000 0.0000 0.0000 0.0000 17.4833 0.0000
# 6 0.0000 0.0000 0.0000 0.0000 0.0000 22.8326
#
#
#
# Elastic Compliance Matrix: (Units=1/GPa)
#
#
# Indices 1 2 3 4 5 6 
#
# 1 0.091135 -0.042274 -0.006246 0.000000 0.000000 0.000000
# 2 -0.042274 0.032701 -0.000700 0.000000 0.000000 0.000000
# 3 -0.006246 -0.000700 0.011838 0.000000 0.000000 0.000000
# 4 0.000000 0.000000 0.000000 0.039726 0.000000 0.000000
# 5 0.000000 0.000000 0.000000 0.000000 0.057198 0.000000
# 6 0.000000 0.000000 0.000000 0.000000 0.000000 0.043797
#
#
# Mechanical properties :
#
#
# Convention : Reuss Voigt Hill
#
# Bulk Modulus (GPa) = 26.85680 42.46756 34.66218
# Shear Modulus (GPa) = 12.91174 21.42499 17.16836
#
# Velocity S-wave (km/s) = 2.75287 3.54612 3.17437
# Velocity P-wave (km/s) = 5.08600 6.45694 5.81203
#
# Compressibility (1/GPa) = 0.03723451
#
# Stress axis : x y z
#
# Youngs Moduli (GPa) = 10.97278 30.58038 84.47213
#
# Poissons Ratio (x) = 1.29276 0.52758
# Poissons Ratio (y) = 0.46387 0.05909
# Poissons Ratio (z) = 0.06853 0.02139
#
# Static dielectric constant tensor:
#      x y z
#    x 2.810790 0.000000 0.000000 
#    y 0.000000 3.189010 0.000000 
#    z 0.000000 0.000000 3.445240 
# 
# 
# High freq. dielectric constant tensor:
#      x y z
#    x 1.581300 0.000000 0.000000 
#    y 0.000000 1.631310 0.000000 
#    z 0.000000 0.000000 1.692190 
# 
# From -- ./inp_files/1685.got.cif
#   From: 2010.03.12/outbox.cif.g09.slc.cpg/sg36_1_cif.got.tgz:1685.got - 2010.04.14 02:13:53.
