data_PCOD8174165
_publ_section_title
;
Structure prediction by ZEFSAII (Michael W. Deem and Ramdas Pophale) SiO2 
 PCOD8174165
Probable space group: C M M 2
;
_chemical_formula_sum "Si O2"
_cell_formula_units_Z 64
_cell_length_a 30.554393
_cell_length_b 9.131405
_cell_length_c 15.325233
_cell_angle_alpha 90.000000
_cell_angle_beta 90.000000
_cell_angle_gamma 90.000000
_cell_volume 4275.809538
_symmetry_space_group_name_H-M "C M M 2"
_symmetry_group_IT_number 35
_symmetry_cell_setting 'orthorhombic'
loop_
_space_group_symop_operation_xyz
x,y,z
-x,-y,z
-x,y,z
x,-y,z
1/2+x,1/2+y,z
1/2-x,1/2-y,z
1/2-x,1/2+y,z
1/2+x,1/2-y,z
loop_
_atom_site_type_symbol
_atom_site_label
_atom_site_fract_x
_atom_site_fract_y
_atom_site_fract_z
Si Si1 0.449499 0.671456 0.234210
Si Si2 0.709985 0.170678 0.898241
Si Si3 0.790015 0.170678 0.083265
Si Si4 0.052088 0.334987 0.406850
Si Si5 0.613183 0.330252 0.081870
Si Si6 0.552088 0.665013 0.574655
Si Si7 0.613183 0.830252 0.899635
Si Si8 0.550501 0.171456 0.747295
O O1 0.500000 0.708468 0.215155
O O2 0.442393 0.500000 0.250860
O O3 0.431890 0.754866 0.319373
O O4 0.421791 0.728433 0.151774
O O5 0.750000 0.250000 0.844636
O O6 0.661690 0.194540 0.857583
O O7 0.720955 0.000000 0.908223
O O8 0.708187 0.250000 0.990753
O O9 0.750000 0.250000 0.136869
O O10 0.838310 0.194540 0.123922
O O11 0.779045 0.000000 0.073283
O O12 0.070408 0.500000 0.407567
O O13 0.071230 0.250000 0.490753
O O14 0.000000 0.334301 0.410685
O O15 0.605481 0.500000 0.062049
O O16 0.605853 0.250000 0.990753
O O17 0.500000 0.665699 0.570821
O O18 0.570408 0.500000 0.573938
O O19 0.568110 0.745134 0.662132
O O20 0.578209 0.771567 0.829731
O O21 0.605481 0.000000 0.919457
O O22 0.500000 0.208468 0.766351
O O23 0.557607 0.000000 0.730645
#
# Coordination Sequence:
#
# PCOD8174165 Si02
#       8
#     8   8   8   8   8   8   8   8
#     4   9  17  29  42  56  78 108 138 166 196 230
#     4   9  15  24  38  55  74  96 125 161 201 239
#     4   9  15  24  38  55  74  96 125 161 201 239
#     4   9  16  26  41  60  79 100 128 163 202 239
#     4   9  18  29  40  56  79 107 137 168 199 231
#     4   9  16  26  41  60  79 100 128 163 202 239
#     4   9  18  29  40  56  79 107 137 168 199 231
#     4   9  17  29  42  56  78 108 138 166 196 230
#
# _framework density 14.967927
#
# number of rings (size 3 to 8) (size 9 to 14) (size 15 to 20)
#    0.000    3.000    0.000    2.250    0.000    5.500 
#    0.000    0.000    0.000    0.000    0.000    0.000 
#    0.000    1.000    0.000   11.500    0.000    4.000 
#
# Total GULP energy -396530.274218 kJ/mol
# GULP energy per Si atom -12391.571069 kJ/mol
# Density = 1.493386 g / cm^3
# Si number density = 14.967927 Si / 1000 Ang^3
#
#
#
# Elastic Constant Matrix: (Units=GPa)
#
#
# Indices 1 2 3 4 5 6 
#
# 1 75.6724 39.1804 53.7182 0.0000 0.0000 0.0000
# 2 39.1804 85.2519 51.4717 0.0000 0.0000 0.0000
# 3 53.7182 51.4717 105.5840 0.0000 0.0000 0.0000
# 4 0.0000 0.0000 0.0000 23.4322 0.0000 0.0000
# 5 0.0000 0.0000 0.0000 0.0000 0.9799 0.0000
# 6 0.0000 0.0000 0.0000 0.0000 0.0000 15.8986
#
#
#
# Elastic Compliance Matrix: (Units=1/GPa)
#
#
# Indices 1 2 3 4 5 6 
#
# 1 0.021961 -0.004743 -0.008861 0.000000 0.000000 0.000000
# 2 -0.004743 0.017647 -0.006190 0.000000 0.000000 0.000000
# 3 -0.008861 -0.006190 0.016997 0.000000 0.000000 0.000000
# 4 0.000000 0.000000 0.000000 0.042676 0.000000 0.000000
# 5 0.000000 0.000000 0.000000 0.000000 1.020528 0.000000
# 6 0.000000 0.000000 0.000000 0.000000 0.000000 0.062899
#
#
# Mechanical properties :
#
#
# Convention : Reuss Voigt Hill
#
# Bulk Modulus (GPa) = 58.76362 61.69432 60.22897
# Shear Modulus (GPa) = 4.07177 16.20467 10.13822
#
# Velocity S-wave (km/s) = 1.65113 3.29390 2.60538
# Velocity P-wave (km/s) = 6.55591 7.46817 7.02686
#
# Compressibility (1/GPa) = 0.01701733
#
# Stress axis : x y z
#
# Youngs Moduli (GPa) = 45.53590 56.66748 58.83497
#
# Poissons Ratio (x) = 0.26877 0.52133
# Poissons Ratio (y) = 0.21598 0.36417
# Poissons Ratio (z) = 0.40349 0.35075
#
# Static dielectric constant tensor:
#      x y z
#    x 3.473800 0.000000 0.000000 
#    y 0.000000 3.040750 0.000000 
#    z 0.000000 0.000000 2.725690 
# 
# 
# High freq. dielectric constant tensor:
#      x y z
#    x 1.551900 0.000000 0.000000 
#    y 0.000000 1.585160 0.000000 
#    z 0.000000 0.000000 1.540000 
# 
# From -- ./inp_files/17767.got.cif
#   From: 2010.03.12/outbox.cif.g09.slc.cpg/sg35_9_cif.got.tgz:17767.got - 2010.04.14 02:02:04.
