data_PCOD8174738
_publ_section_title
;
Structure prediction by ZEFSAII (Michael W. Deem and Ramdas Pophale) SiO2 
 PCOD8174738
Probable space group: C M C 21
;
_chemical_formula_sum "Si O2"
_cell_formula_units_Z 48
_cell_length_a 8.766451
_cell_length_b 20.177935
_cell_length_c 14.048979
_cell_angle_alpha 90.000000
_cell_angle_beta 90.000000
_cell_angle_gamma 90.000000
_cell_volume 2485.108139
_symmetry_space_group_name_H-M "C M C 21"
_symmetry_group_IT_number 36
_symmetry_cell_setting 'orthorhombic'
loop_
_space_group_symop_operation_xyz
x,y,z
-x,-y,1/2+z
x,-y,1/2+z
-x,y,z
1/2+x,1/2+y,z
1/2-x,1/2-y,1/2+z
1/2+x,1/2-y,1/2+z
1/2-x,1/2+y,z
loop_
_atom_site_type_symbol
_atom_site_label
_atom_site_fract_x
_atom_site_fract_y
_atom_site_fract_z
Si Si1 0.171426 0.568971 0.084280
Si Si2 0.174574 0.440082 0.966845
Si Si3 0.678802 0.003116 0.273323
Si Si4 0.321541 0.680304 0.967245
Si Si5 0.182576 0.688430 0.570392
Si Si6 0.318684 0.360680 0.259961
O O1 0.204332 0.561361 0.196239
O O2 0.000000 0.594700 0.064182
O O3 0.193800 0.495142 0.046525
O O4 0.287843 0.618562 0.035514
O O5 0.251225 0.466499 0.869724
O O6 0.000000 0.424768 0.942438
O O7 0.247776 0.372826 0.007840
O O8 0.500000 0.984883 0.283348
O O9 0.765924 0.936138 0.246422
O O10 0.500000 0.688572 0.958330
O O11 0.255509 0.667729 0.861156
O O12 0.254870 0.746252 0.016737
O O13 0.251097 0.685315 0.676531
O O14 0.000000 0.686556 0.579208
O O15 0.500000 0.357892 0.255873
#
# Coordination Sequence:
#
# PCOD8174738 Si02
#       6
#     8   8   8   8   8   8
#     4  10  19  33  58  86 109 143 192 235 269 324
#     4   9  17  32  57  84 106 140 191 235 267 315
#     4  10  19  34  58  86 112 148 192 232 276 327
#     4  10  23  39  57  83 118 152 180 227 290 338
#     4  10  21  40  60  80 112 153 192 227 273 339
#     4  11  22  36  56  85 115 146 183 232 289 335
#
# _framework density 19.315055999999998
#
# number of rings (size 3 to 8) (size 9 to 14) (size 15 to 20)
#    0.000    2.000    3.333    0.500    0.000    3.333 
#    0.000    4.167    0.000    0.000    0.000    0.000 
#    0.000    0.000    0.000    0.000    0.000    0.000 
#
# Total GULP energy -297557.196529 kJ/mol
# GULP energy per Si atom -12398.216522 kJ/mol
# Density = 1.927109 g / cm^3
# Si number density = 19.315056 Si / 1000 Ang^3
#
#
#
# Elastic Constant Matrix: (Units=GPa)
#
#
# Indices 1 2 3 4 5 6 
#
# 1 29.1120 19.7229 23.0014 0.0000 0.0000 0.0000
# 2 19.7229 93.9237 42.8633 0.0000 0.0000 0.0000
# 3 23.0014 42.8633 127.4575 0.0000 0.0000 0.0000
# 4 0.0000 0.0000 0.0000 34.6457 0.0000 0.0000
# 5 0.0000 0.0000 0.0000 0.0000 23.8637 0.0000
# 6 0.0000 0.0000 0.0000 0.0000 0.0000 21.0446
#
#
#
# Elastic Compliance Matrix: (Units=1/GPa)
#
#
# Indices 1 2 3 4 5 6 
#
# 1 0.043190 -0.006512 -0.005604 0.000000 0.000000 0.000000
# 2 -0.006512 0.013559 -0.003385 0.000000 0.000000 0.000000
# 3 -0.005604 -0.003385 0.009995 0.000000 0.000000 0.000000
# 4 0.000000 0.000000 0.000000 0.028864 0.000000 0.000000
# 5 0.000000 0.000000 0.000000 0.000000 0.041905 0.000000
# 6 0.000000 0.000000 0.000000 0.000000 0.000000 0.047518
#
#
# Mechanical properties :
#
#
# Convention : Reuss Voigt Hill
#
# Bulk Modulus (GPa) = 27.97782 46.85204 37.41493
# Shear Modulus (GPa) = 21.93501 26.90450 24.41975
#
# Velocity S-wave (km/s) = 3.37359 3.73625 3.55954
# Velocity P-wave (km/s) = 5.44896 6.55150 6.02550
#
# Compressibility (1/GPa) = 0.03574259
#
# Stress axis : x y z
#
# Youngs Moduli (GPa) = 23.15368 73.75187 100.04636
#
# Poissons Ratio (x) = 0.48025 0.56069
# Poissons Ratio (y) = 0.15077 0.33863
# Poissons Ratio (z) = 0.12976 0.24963
#
# Static dielectric constant tensor:
#      x y z
#    x 3.209670 0.000000 0.000000 
#    y 0.000000 3.543150 0.000000 
#    z 0.000000 0.000000 3.859970 
# 
# 
# High freq. dielectric constant tensor:
#      x y z
#    x 1.716680 0.000000 0.000000 
#    y 0.000000 1.746020 0.000000 
#    z 0.000000 0.000000 1.772320 
# 
# From -- ./inp_files/10339.got.cif
#   From: 2010.03.12/outbox.cif.g09.slc.cpg/sg36_6_cif.got.tgz:10339.got - 2010.04.14 02:13:53.
