data_PCOD8174598
_publ_section_title
;
Structure prediction by ZEFSAII (Michael W. Deem and Ramdas Pophale) SiO2 
 PCOD8174598
Probable space group: C M C 21
;
_chemical_formula_sum "Si O2"
_cell_formula_units_Z 64
_cell_length_a 9.094005
_cell_length_b 20.600767
_cell_length_c 19.101786
_cell_angle_alpha 90.000000
_cell_angle_beta 90.000000
_cell_angle_gamma 90.000000
_cell_volume 3578.595027
_symmetry_space_group_name_H-M "C M C 21"
_symmetry_group_IT_number 36
_symmetry_cell_setting 'orthorhombic'
loop_
_space_group_symop_operation_xyz
x,y,z
-x,-y,1/2+z
x,-y,1/2+z
-x,y,z
1/2+x,1/2+y,z
1/2-x,1/2-y,1/2+z
1/2+x,1/2-y,1/2+z
1/2-x,1/2+y,z
loop_
_atom_site_type_symbol
_atom_site_label
_atom_site_fract_x
_atom_site_fract_y
_atom_site_fract_z
Si Si1 0.826240 0.570597 0.952730
Si Si2 0.326841 0.193756 0.865028
Si Si3 0.672551 0.110769 0.229436
Si Si4 0.167110 0.240414 0.738962
Si Si5 0.175132 0.113844 0.086985
Si Si6 0.329131 0.320406 0.946131
Si Si7 0.831343 0.748766 0.082919
Si Si8 0.828179 0.561461 0.377733
O O1 0.769636 0.632666 0.909159
O O2 0.782457 0.508535 0.906431
O O3 0.000000 0.573465 0.967734
O O4 0.739795 0.567693 0.026169
O O5 0.500000 0.190477 0.860182
O O6 0.264007 0.192805 0.786510
O O7 0.270610 0.259474 0.901513
O O8 0.500000 0.105221 0.211582
O O9 0.714961 0.184721 0.248045
O O10 0.763802 0.088072 0.161531
O O11 0.719379 0.067179 0.296141
O O12 0.192178 0.219225 0.658739
O O13 0.000000 0.231333 0.762529
O O14 0.226927 0.187170 0.071913
O O15 0.000000 0.110265 0.087356
O O16 0.500000 0.331668 0.931901
O O17 0.246017 0.385199 0.926335
O O18 0.295882 0.304743 0.027273
O O19 0.000000 0.723765 0.074045
O O20 0.000000 0.574067 0.383390
#
# Coordination Sequence:
#
# PCOD8174598 Si02
#       8
#     8   8   8   8   8   8   8   8
#     4  10  21  39  57  76 108 149 185 217 266 327
#     4  10  19  32  53  78 105 139 175 215 267 320
#     4   9  18  34  54  77 106 140 178 219 267 326
#     4   9  17  30  52  78 106 136 174 223 266 313
#     4  11  21  32  53  83 108 137 180 229 269 311
#     4  10  19  33  55  79 108 141 174 220 274 321
#     4   9  18  35  54  76 108 148 180 213 271 330
#     4  10  21  37  58  81 107 144 186 224 262 318
#
# _framework density 17.884112999999999
#
# number of rings (size 3 to 8) (size 9 to 14) (size 15 to 20)
#    0.000    2.250    2.500    1.875    0.000    4.000 
#    0.000    1.250    0.000    4.500    0.000    0.000 
#    0.000    0.000    0.000    0.000    0.000    0.000 
#
# Total GULP energy -396813.648659 kJ/mol
# GULP energy per Si atom -12400.426521 kJ/mol
# Density = 1.784341 g / cm^3
# Si number density = 17.884113 Si / 1000 Ang^3
#
#
#
# Elastic Constant Matrix: (Units=GPa)
#
#
# Indices 1 2 3 4 5 6 
#
# 1 58.1147 37.1087 56.0481 0.0000 0.0000 0.0000
# 2 37.1087 81.9391 60.7978 0.0000 0.0000 0.0000
# 3 56.0481 60.7978 156.4838 0.0000 0.0000 0.0000
# 4 0.0000 0.0000 0.0000 29.5883 0.0000 0.0000
# 5 0.0000 0.0000 0.0000 0.0000 32.3682 0.0000
# 6 0.0000 0.0000 0.0000 0.0000 0.0000 22.4989
#
#
#
# Elastic Compliance Matrix: (Units=1/GPa)
#
#
# Indices 1 2 3 4 5 6 
#
# 1 0.029404 -0.007731 -0.007528 0.000000 0.000000 0.000000
# 2 -0.007731 0.019180 -0.004683 0.000000 0.000000 0.000000
# 3 -0.007528 -0.004683 0.010906 0.000000 0.000000 0.000000
# 4 0.000000 0.000000 0.000000 0.033797 0.000000 0.000000
# 5 0.000000 0.000000 0.000000 0.000000 0.030894 0.000000
# 6 0.000000 0.000000 0.000000 0.000000 0.000000 0.044447
#
#
# Mechanical properties :
#
#
# Convention : Reuss Voigt Hill
#
# Bulk Modulus (GPa) = 51.00309 67.16076 59.08192
# Shear Modulus (GPa) = 23.25059 26.39662 24.82361
#
# Velocity S-wave (km/s) = 3.60956 3.84602 3.72966
# Velocity P-wave (km/s) = 6.77882 7.57346 7.18713
#
# Compressibility (1/GPa) = 0.01960665
#
# Stress axis : x y z
#
# Youngs Moduli (GPa) = 34.00861 52.13754 91.69053
#
# Poissons Ratio (x) = 0.40307 0.69026
# Poissons Ratio (y) = 0.26292 0.42938
# Poissons Ratio (z) = 0.25602 0.24416
#
# Static dielectric constant tensor:
#      x y z
#    x 3.148230 0.000000 0.000000 
#    y 0.000000 3.077670 0.000000 
#    z 0.000000 0.000000 3.604600 
# 
# 
# High freq. dielectric constant tensor:
#      x y z
#    x 1.680930 0.000000 0.000000 
#    y 0.000000 1.660040 0.000000 
#    z 0.000000 0.000000 1.709990 
# 
# From -- ./inp_files/14081.got.cif
#   From: 2010.03.12/outbox.cif.g09.slc.cpg/sg36_8_cif.got.tgz:14081.got - 2010.04.14 02:13:53.
