data_PCOD8174140
_publ_section_title
;
Structure prediction by ZEFSAII (Michael W. Deem and Ramdas Pophale) SiO2 
 PCOD8174140
Probable space group: C M M 2
;
_chemical_formula_sum "Si O2"
_cell_formula_units_Z 56
_cell_length_a 20.181300
_cell_length_b 13.464039
_cell_length_c 9.969951
_cell_angle_alpha 90.000000
_cell_angle_beta 90.000000
_cell_angle_gamma 90.000000
_cell_volume 2709.053134
_symmetry_space_group_name_H-M "C M M 2"
_symmetry_group_IT_number 35
_symmetry_cell_setting 'orthorhombic'
loop_
_space_group_symop_operation_xyz
x,y,z
-x,-y,z
-x,y,z
x,-y,z
1/2+x,1/2+y,z
1/2-x,1/2-y,z
1/2-x,1/2+y,z
1/2+x,1/2-y,z
loop_
_atom_site_type_symbol
_atom_site_label
_atom_site_fract_x
_atom_site_fract_y
_atom_site_fract_z
Si Si1 0.424464 0.615768 0.487960
Si Si2 0.324127 0.770778 0.590642
Si Si3 0.576459 0.614897 0.175408
Si Si4 0.677271 0.776631 0.089104
Si Si5 0.359081 0.885773 0.344150
Si Si6 0.000000 0.383233 0.984187
Si Si7 0.634323 0.117198 0.844461
Si Si8 0.500000 0.884099 0.281897
O O1 0.500000 0.644014 0.528541
O O2 0.412095 0.500000 0.514583
O O3 0.370588 0.673765 0.578102
O O4 0.413388 0.641031 0.331708
O O5 0.250000 0.750000 0.642707
O O6 0.315328 0.822487 0.446007
O O7 0.358461 0.847009 0.692478
O O8 0.500000 0.634988 0.134101
O O9 0.594278 0.500000 0.147777
O O10 0.627259 0.682524 0.090707
O O11 0.750000 0.750000 0.139666
O O12 0.653272 0.863105 0.188708
O O13 0.684928 0.824353 0.941418
O O14 0.436111 0.855660 0.370182
O O15 0.344047 0.000000 0.371368
O O16 0.063119 0.349181 0.899883
O O17 0.000000 0.500000 0.000480
O O18 0.000000 0.332689 0.133307
O O19 0.646740 0.000000 0.850283
O O20 0.500000 0.000000 0.252125
#
# Coordination Sequence:
#
# PCOD8174140 Si02
#       8
#     8   8   8   8   8   4   8   4
#     4   9  20  40  65  91 123 167 215 264 318 376
#     4  12  26  43  62  96 128 173 222 268 329 387
#     4   9  20  39  64  93 125 165 214 267 317 372
#     4  12  24  39  62  97 126 169 218 268 329 388
#     4  11  23  38  63  97 134 166 208 268 330 396
#     4   9  18  37  63  93 120 163 211 250 320 395
#     4  11  25  44  65  90 131 174 212 261 327 397
#     4   9  18  35  61  97 126 159 205 254 320 391
#
# _framework density 20.671430999999998
#
# number of rings (size 3 to 8) (size 9 to 14) (size 15 to 20)
#    0.000    1.571    2.857    2.571    4.000    2.286 
#    0.000    2.857    0.000    1.714    0.000    0.000 
#    0.000    0.000    0.000    0.000    0.000    0.000 
#
# Total GULP energy -347184.703383 kJ/mol
# GULP energy per Si atom -12399.453692 kJ/mol
# Density = 2.062438 g / cm^3
# Si number density = 20.671431 Si / 1000 Ang^3
#
#
#
# Elastic Constant Matrix: (Units=GPa)
#
#
# Indices 1 2 3 4 5 6 
#
# 1 102.3496 44.1944 10.5865 0.0000 0.0000 0.0000
# 2 44.1944 112.0561 30.6476 0.0000 0.0000 0.0000
# 3 10.5865 30.6476 69.1567 0.0000 0.0000 0.0000
# 4 0.0000 0.0000 0.0000 37.1918 0.0000 0.0000
# 5 0.0000 0.0000 0.0000 0.0000 49.9315 0.0000
# 6 0.0000 0.0000 0.0000 0.0000 0.0000 21.1708
#
#
#
# Elastic Compliance Matrix: (Units=1/GPa)
#
#
# Indices 1 2 3 4 5 6 
#
# 1 0.011781 -0.004726 0.000291 0.000000 0.000000 0.000000
# 2 -0.004726 0.012051 -0.004617 0.000000 0.000000 0.000000
# 3 0.000291 -0.004617 0.016461 0.000000 0.000000 0.000000
# 4 0.000000 0.000000 0.000000 0.026888 0.000000 0.000000
# 5 0.000000 0.000000 0.000000 0.000000 0.020027 0.000000
# 6 0.000000 0.000000 0.000000 0.000000 0.000000 0.047235
#
#
# Mechanical properties :
#
#
# Convention : Reuss Voigt Hill
#
# Bulk Modulus (GPa) = 45.06697 50.49104 47.77900
# Shear Modulus (GPa) = 31.26104 34.86775 33.06440
#
# Velocity S-wave (km/s) = 3.89303 4.11147 4.00374
# Velocity P-wave (km/s) = 6.48509 6.85693 6.67360
#
# Compressibility (1/GPa) = 0.02218920
#
# Stress axis : x y z
#
# Youngs Moduli (GPa) = 84.88245 82.98242 60.74797
#
# Poissons Ratio (x) = 0.39217 -0.01767
# Poissons Ratio (y) = 0.40115 0.28047
# Poissons Ratio (z) = -0.02469 0.38313
#
# Static dielectric constant tensor:
#      x y z
#    x 3.211810 0.000000 0.000000 
#    y 0.000000 3.730350 0.000000 
#    z 0.000000 0.000000 3.421210 
# 
# 
# High freq. dielectric constant tensor:
#      x y z
#    x 1.810050 0.000000 0.000000 
#    y 0.000000 1.819270 0.000000 
#    z 0.000000 0.000000 1.783990 
# 
# From -- ./inp_files/9332.got.cif
#   From: 2010.03.12/outbox.cif.g09.slc.cpg/sg35_5_cif.got.tgz:9332.got - 2010.04.14 02:02:04.
