data_PCOD8174364
_publ_section_title
;
Structure prediction by ZEFSAII (Michael W. Deem and Ramdas Pophale) SiO2 
 PCOD8174364
Probable space group: C M C 21
;
_chemical_formula_sum "Si O2"
_cell_formula_units_Z 64
_cell_length_a 8.629094
_cell_length_b 23.991248
_cell_length_c 14.579285
_cell_angle_alpha 90.000000
_cell_angle_beta 90.000000
_cell_angle_gamma 90.000000
_cell_volume 3018.243443
_symmetry_space_group_name_H-M "C M C 21"
_symmetry_group_IT_number 36
_symmetry_cell_setting 'orthorhombic'
loop_
_space_group_symop_operation_xyz
x,y,z
-x,-y,1/2+z
x,-y,1/2+z
-x,y,z
1/2+x,1/2+y,z
1/2-x,1/2-y,1/2+z
1/2+x,1/2-y,1/2+z
1/2-x,1/2+y,z
loop_
_atom_site_type_symbol
_atom_site_label
_atom_site_fract_x
_atom_site_fract_y
_atom_site_fract_z
Si Si1 0.817366 0.917966 0.875000
Si Si2 0.675304 0.846617 0.151851
Si Si3 0.681738 0.812609 0.466111
Si Si4 0.181876 0.112844 0.825489
Si Si5 0.322618 0.720808 0.146084
Si Si6 0.179025 0.950992 0.072063
Si Si7 0.318928 0.003096 0.746674
Si Si8 0.183556 0.793131 0.851602
O O1 0.763034 0.853833 0.888734
O O2 0.000000 0.919881 0.857006
O O3 0.731218 0.943253 0.786377
O O4 0.772822 0.954718 0.965033
O O5 0.500000 0.869676 0.142297
O O6 0.723083 0.845998 0.258566
O O7 0.688928 0.784779 0.113672
O O8 0.793717 0.886743 0.099503
O O9 0.500000 0.819218 0.451326
O O10 0.768997 0.867095 0.426504
O O11 0.720190 0.813318 0.573968
O O12 0.747605 0.756114 0.417190
O O13 0.228407 0.049180 0.806088
O O14 0.000000 0.119117 0.810376
O O15 0.500000 0.699944 0.142541
O O16 0.252682 0.713164 0.247760
O O17 0.276095 0.992129 0.138306
O O18 0.000000 0.965745 0.085454
O O19 0.500000 0.012033 0.758526
O O20 0.000000 0.788039 0.849497
#
# Coordination Sequence:
#
# PCOD8174364 Si02
#       8
#     8   8   8   8   8   8   8   8
#     4  10  21  40  64  88 116 158 204 247 295 354
#     4  10  18  32  56  84 119 155 193 241 290 338
#     4  11  21  37  59  87 120 157 197 242 295 351
#     4  11  21  36  59  84 112 148 196 244 292 350
#     4  10  20  35  54  83 120 160 197 234 291 357
#     4  10  20  36  61  91 117 150 203 249 296 356
#     4  11  23  40  62  87 118 154 195 249 305 353
#     4   9  19  38  61  84 120 160 195 238 294 351
#
# _framework density 21.204386
#
# number of rings (size 3 to 8) (size 9 to 14) (size 15 to 20)
#    0.000    1.750    1.250    5.625    0.000    3.000 
#    2.250    1.875    0.000    0.000    0.000    0.000 
#    0.000    0.000    0.000    0.000    0.000    0.000 
#
# Total GULP energy -396768.584601 kJ/mol
# GULP energy per Si atom -12399.018269 kJ/mol
# Density = 2.115612 g / cm^3
# Si number density = 21.204386 Si / 1000 Ang^3
#
#
#
# Elastic Constant Matrix: (Units=GPa)
#
#
# Indices 1 2 3 4 5 6 
#
# 1 53.7165 10.4656 10.0555 0.0000 0.0000 0.0000
# 2 10.4656 40.1548 6.7639 0.0000 0.0000 0.0000
# 3 10.0555 6.7639 91.7729 0.0000 0.0000 0.0000
# 4 0.0000 0.0000 0.0000 27.8538 0.0000 0.0000
# 5 0.0000 0.0000 0.0000 0.0000 28.8954 0.0000
# 6 0.0000 0.0000 0.0000 0.0000 0.0000 26.7011
#
#
#
# Elastic Compliance Matrix: (Units=1/GPa)
#
#
# Indices 1 2 3 4 5 6 
#
# 1 0.019908 -0.004882 -0.001822 0.000000 0.000000 0.000000
# 2 -0.004882 0.026414 -0.001412 0.000000 0.000000 0.000000
# 3 -0.001822 -0.001412 0.011200 0.000000 0.000000 0.000000
# 4 0.000000 0.000000 0.000000 0.035902 0.000000 0.000000
# 5 0.000000 0.000000 0.000000 0.000000 0.034608 0.000000
# 6 0.000000 0.000000 0.000000 0.000000 0.000000 0.037452
#
#
# Mechanical properties :
#
#
# Convention : Reuss Voigt Hill
#
# Bulk Modulus (GPa) = 24.21795 26.69047 25.45421
# Shear Modulus (GPa) = 25.57835 27.24734 26.41284
#
# Velocity S-wave (km/s) = 3.47692 3.58856 3.53318
# Velocity P-wave (km/s) = 5.25020 5.45755 5.35488
#
# Compressibility (1/GPa) = 0.04129169
#
# Stress axis : x y z
#
# Youngs Moduli (GPa) = 50.23005 37.85895 89.28488
#
# Poissons Ratio (x) = 0.18482 0.16264
# Poissons Ratio (y) = 0.24522 0.12606
# Poissons Ratio (z) = 0.09150 0.05345
#
# Static dielectric constant tensor:
#      x y z
#    x 3.559680 0.000000 0.000000 
#    y 0.000000 3.666260 0.000000 
#    z 0.000000 0.000000 3.918880 
# 
# 
# High freq. dielectric constant tensor:
#      x y z
#    x 1.816170 0.000000 0.000000 
#    y 0.000000 1.814460 0.000000 
#    z 0.000000 0.000000 1.834350 
# 
# From -- ./inp_files/10891.got.cif
#   From: 2010.03.12/outbox.cif.g09.slc.cpg/sg36_6_cif.got.tgz:10891.got - 2010.04.14 02:13:53.
