data_PCOD8174105
_publ_section_title
;
Structure prediction by ZEFSAII (Michael W. Deem and Ramdas Pophale) SiO2 
 PCOD8174105
Probable space group: C M M 2
;
_chemical_formula_sum "Si O2"
_cell_formula_units_Z 40
_cell_length_a 9.387293
_cell_length_b 18.456339
_cell_length_c 12.960347
_cell_angle_alpha 90.000000
_cell_angle_beta 90.000000
_cell_angle_gamma 90.000000
_cell_volume 2245.445722
_symmetry_space_group_name_H-M "C M M 2"
_symmetry_group_IT_number 35
_symmetry_cell_setting 'orthorhombic'
loop_
_space_group_symop_operation_xyz
x,y,z
-x,-y,z
-x,y,z
x,-y,z
1/2+x,1/2+y,z
1/2-x,1/2-y,z
1/2-x,1/2+y,z
1/2+x,1/2-y,z
loop_
_atom_site_type_symbol
_atom_site_label
_atom_site_fract_x
_atom_site_fract_y
_atom_site_fract_z
Si Si1 0.157015 0.586008 0.900050
Si Si2 0.169312 0.080453 0.310033
Si Si3 0.842482 0.913731 0.084861
Si Si4 0.335138 0.914942 0.669005
Si Si5 0.329584 0.325554 0.502857
O O1 0.153615 0.500000 0.909589
O O2 0.210155 0.606906 0.785553
O O3 0.000000 0.617876 0.917105
O O4 0.253591 0.620262 0.990288
O O5 0.224645 0.106712 0.197022
O O6 0.219651 0.136410 0.396726
O O7 0.000000 0.075936 0.305105
O O8 0.229589 0.000000 0.336038
O O9 0.000000 0.880737 0.074576
O O10 0.848167 0.000000 0.076590
O O11 0.500000 0.892876 0.647840
O O12 0.224479 0.874111 0.596680
O O13 0.315947 0.000000 0.650751
O O14 0.500000 0.316112 0.510033
O O15 0.250000 0.250000 0.508176
#
# Coordination Sequence:
#
# PCOD8174105 Si02
#       5
#     8   8   8   8   8
#     4   8  14  25  42  67  99 128 151 184 234 284
#     4   8  15  29  49  72  96 123 157 198 241 283
#     4   8  13  23  42  68  95 120 150 191 235 280
#     4   9  18  33  52  74 101 130 161 201 245 287
#     4  11  22  35  51  70  96 130 167 206 247 293
#
# _framework density 17.813835000000001
#
# number of rings (size 3 to 8) (size 9 to 14) (size 15 to 20)
#    0.000    3.200    0.000    3.600    0.000    2.000 
#    0.000    4.000    0.000    6.000    0.000    5.600 
#    0.000    0.000    0.000    0.000    0.000    0.000 
#
# Total GULP energy -247830.634455 kJ/mol
# GULP energy per Si atom -12391.531723 kJ/mol
# Density = 1.777329 g / cm^3
# Si number density = 17.813835 Si / 1000 Ang^3
#
#
#
# Elastic Constant Matrix: (Units=GPa)
#
#
# Indices 1 2 3 4 5 6 
#
# 1 77.3033 34.1318 69.7918 0.0000 0.0000 0.0000
# 2 34.1318 47.7786 46.2647 0.0000 0.0000 0.0000
# 3 69.7918 46.2647 168.5290 0.0000 0.0000 0.0000
# 4 0.0000 0.0000 0.0000 -1.0776 0.0000 0.0000
# 5 0.0000 0.0000 0.0000 0.0000 26.4338 0.0000
# 6 0.0000 0.0000 0.0000 0.0000 0.0000 15.9086
#
#
#
# Elastic Compliance Matrix: (Units=1/GPa)
#
#
# Indices 1 2 3 4 5 6 
#
# 1 0.023804 -0.010160 -0.007069 0.000000 0.000000 0.000000
# 2 -0.010160 0.032845 -0.004809 0.000000 0.000000 0.000000
# 3 -0.007069 -0.004809 0.010181 0.000000 0.000000 0.000000
# 4 0.000000 0.000000 0.000000 -0.927946 0.000000 0.000000
# 5 0.000000 0.000000 0.000000 0.000000 0.037830 0.000000
# 6 0.000000 0.000000 0.000000 0.000000 0.000000 0.062859
#
#
# Mechanical properties :
#
#
# Convention : Reuss Voigt Hill
#
# Bulk Modulus (GPa) = 43.94809 65.99862 54.97336
# Shear Modulus (GPa) = -7.05451 17.81446 5.37998
#
# Velocity S-wave (km/s) = -1.99217 3.16576 1.73973
# Velocity P-wave (km/s) = 4.40825 7.10579 5.91291
#
# Compressibility (1/GPa) = 0.02275412
#
# Stress axis : x y z
#
# Youngs Moduli (GPa) = 42.01010 30.44636 98.22135
#
# Poissons Ratio (x) = 0.30934 0.69428
# Poissons Ratio (y) = 0.42683 0.47234
# Poissons Ratio (z) = 0.29695 0.14641
#
# Static dielectric constant tensor:
#      x y z
#    x 3.311340 0.000000 0.000000 
#    y 0.000000 2.906280 0.000000 
#    z 0.000000 0.000000 3.729740 
# 
# 
# High freq. dielectric constant tensor:
#      x y z
#    x 1.670500 0.000000 0.000000 
#    y 0.000000 1.639810 0.000000 
#    z 0.000000 0.000000 1.710060 
# 
# From -- ./inp_files/11028.got.cif
#   From: 2010.03.12/outbox.cif.g09.slc.cpg/sg35_6_cif.got.tgz:11028.got - 2010.04.14 02:02:04.
