data_PCOD8174138
_publ_section_title
;
Structure prediction by ZEFSAII (Michael W. Deem and Ramdas Pophale) SiO2 
 PCOD8174138
Probable space group: C M M 2
;
_chemical_formula_sum "Si O2"
_cell_formula_units_Z 32
_cell_length_a 8.951337
_cell_length_b 26.561087
_cell_length_c 7.740931
_cell_angle_alpha 90.000000
_cell_angle_beta 90.000000
_cell_angle_gamma 90.000000
_cell_volume 1840.462396
_symmetry_space_group_name_H-M "C M M 2"
_symmetry_group_IT_number 35
_symmetry_cell_setting 'orthorhombic'
loop_
_space_group_symop_operation_xyz
x,y,z
-x,-y,z
-x,y,z
x,-y,z
1/2+x,1/2+y,z
1/2-x,1/2-y,z
1/2-x,1/2+y,z
1/2+x,1/2-y,z
loop_
_atom_site_type_symbol
_atom_site_label
_atom_site_fract_x
_atom_site_fract_y
_atom_site_fract_z
Si Si1 0.324262 0.851907 0.240770
Si Si2 0.323715 0.196969 0.883078
Si Si3 0.330059 0.556431 0.352515
Si Si4 0.330476 0.354949 0.577936
O O1 0.500000 0.850737 0.269841
O O2 0.269481 0.910293 0.219311
O O3 0.242474 0.827499 0.408805
O O4 0.275460 0.820504 0.073550
O O5 0.500000 0.201440 0.865174
O O6 0.250000 0.250000 0.839207
O O7 0.264588 0.155957 0.747810
O O8 0.500000 0.555204 0.283604
O O9 0.265046 0.500000 0.369697
O O10 0.325208 0.584622 0.540025
O O11 0.500000 0.335608 0.601416
#
# Coordination Sequence:
#
# PCOD8174138 Si02
#       4
#     8   8   8   8
#     4   9  19  35  54  79 110 140 176 220 264 316
#     4  11  23  37  55  78 107 141 180 221 265 317
#     4   8  16  33  56  80 106 140 178 215 262 315
#     4   9  19  35  56  79 109 141 176 220 262 311
#
# _framework density 17.386934
#
# number of rings (size 3 to 8) (size 9 to 14) (size 15 to 20)
#    1.500    1.250    0.000    1.500    0.000    5.500 
#    0.000    3.750    0.000    4.500    0.000    0.000 
#    0.000    0.000    0.000    0.000    0.000    0.000 
#
# Total GULP energy -198217.404400 kJ/mol
# GULP energy per Si atom -12388.587775 kJ/mol
# Density = 1.734736 g / cm^3
# Si number density = 17.386934 Si / 1000 Ang^3
#
#
#
# Elastic Constant Matrix: (Units=GPa)
#
#
# Indices 1 2 3 4 5 6 
#
# 1 79.3560 25.3580 44.4122 0.0000 0.0000 0.0000
# 2 25.3580 64.7416 11.7941 0.0000 0.0000 0.0000
# 3 44.4122 11.7941 82.3911 0.0000 0.0000 0.0000
# 4 0.0000 0.0000 0.0000 23.3002 0.0000 0.0000
# 5 0.0000 0.0000 0.0000 0.0000 27.4177 0.0000
# 6 0.0000 0.0000 0.0000 0.0000 0.0000 21.7101
#
#
#
# Elastic Compliance Matrix: (Units=1/GPa)
#
#
# Indices 1 2 3 4 5 6 
#
# 1 0.020125 -0.006064 -0.009980 0.000000 0.000000 0.000000
# 2 -0.006064 0.017687 0.000737 0.000000 0.000000 0.000000
# 3 -0.009980 0.000737 0.017411 0.000000 0.000000 0.000000
# 4 0.000000 0.000000 0.000000 0.042918 0.000000 0.000000
# 5 0.000000 0.000000 0.000000 0.000000 0.036473 0.000000
# 6 0.000000 0.000000 0.000000 0.000000 0.000000 0.046061
#
#
# Mechanical properties :
#
#
# Convention : Reuss Voigt Hill
#
# Bulk Modulus (GPa) = 40.63624 43.29084 41.96354
# Shear Modulus (GPa) = 22.77981 24.14722 23.46352
#
# Velocity S-wave (km/s) = 3.62355 3.73072 3.67753
# Velocity P-wave (km/s) = 6.39760 6.59623 6.49767
#
# Compressibility (1/GPa) = 0.02460858
#
# Stress axis : x y z
#
# Youngs Moduli (GPa) = 49.69039 56.53858 57.43399
#
# Poissons Ratio (x) = 0.34287 0.57319
# Poissons Ratio (y) = 0.30134 -0.04233
# Poissons Ratio (z) = 0.49590 -0.04167
#
# Static dielectric constant tensor:
#      x y z
#    x 3.249610 0.000000 0.000000 
#    y 0.000000 3.101270 0.000000 
#    z 0.000000 0.000000 3.050890 
# 
# 
# High freq. dielectric constant tensor:
#      x y z
#    x 1.683460 0.000000 0.000000 
#    y 0.000000 1.655130 0.000000 
#    z 0.000000 0.000000 1.652480 
# 
# From -- ./inp_files/3881.got.cif
#   From: 2010.03.12/outbox.cif.g09.slc.cpg/sg35_2_cif.got.tgz:3881.got - 2010.04.14 02:02:04.
