data_PCOD8174801
_publ_section_title
;
Structure prediction by ZEFSAII (Michael W. Deem and Ramdas Pophale) SiO2 
 PCOD8174801
Probable space group: C M C 21
;
_chemical_formula_sum "Si O2"
_cell_formula_units_Z 64
_cell_length_a 9.012244
_cell_length_b 19.966110
_cell_length_c 19.340729
_cell_angle_alpha 90.000000
_cell_angle_beta 90.000000
_cell_angle_gamma 90.000000
_cell_volume 3480.160237
_symmetry_space_group_name_H-M "C M C 21"
_symmetry_group_IT_number 36
_symmetry_cell_setting 'orthorhombic'
loop_
_space_group_symop_operation_xyz
x,y,z
-x,-y,1/2+z
x,-y,1/2+z
-x,y,z
1/2+x,1/2+y,z
1/2-x,1/2-y,1/2+z
1/2+x,1/2-y,1/2+z
1/2-x,1/2+y,z
loop_
_atom_site_type_symbol
_atom_site_label
_atom_site_fract_x
_atom_site_fract_y
_atom_site_fract_z
Si Si1 0.327899 0.074626 0.035190
Si Si2 0.825942 0.980527 0.282980
Si Si3 0.326491 0.191737 0.934942
Si Si4 0.328653 0.970548 0.917978
Si Si5 0.824812 0.345355 0.280258
Si Si6 0.324919 0.213688 0.246916
Si Si7 0.328154 0.820093 0.901965
Si Si8 0.174054 0.904798 0.675160
O O1 0.500000 0.081707 0.056049
O O2 0.226821 0.066202 0.102122
O O3 0.273081 0.139868 0.993038
O O4 0.302379 0.008448 0.989635
O O5 0.741402 0.915401 0.253959
O O6 0.000000 0.965881 0.283431
O O7 0.773750 0.997059 0.360008
O O8 0.783318 0.041701 0.233489
O O9 0.500000 0.202005 0.938307
O O10 0.279853 0.162659 0.860534
O O11 0.254180 0.264284 0.947827
O O12 0.500000 0.977241 0.893557
O O13 0.284739 0.893226 0.930021
O O14 0.750152 0.286006 0.236124
O O15 0.000000 0.344052 0.268410
O O16 0.500000 0.220204 0.236896
O O17 0.280181 0.184668 0.321887
O O18 0.260011 0.164135 0.189429
O O19 0.500000 0.805105 0.910149
O O20 0.000000 0.890377 0.673696
#
# Coordination Sequence:
#
# PCOD8174801 Si02
#       8
#     8   8   8   8   8   8   8   8
#     4  10  21  38  58  80 109 151 194 234 284 343
#     4  11  22  35  55  84 115 149 193 239 285 335
#     4   9  18  33  54  80 110 142 179 226 278 333
#     4  10  19  36  58  83 112 145 189 235 285 340
#     4  10  19  34  57  84 115 145 183 234 284 334
#     4  10  19  34  57  84 112 145 186 231 283 339
#     4   9  18  31  54  84 111 139 178 229 279 331
#     4  11  24  39  55  81 116 154 194 236 284 343
#
# _framework density 18.389958
#
# number of rings (size 3 to 8) (size 9 to 14) (size 15 to 20)
#    0.000    2.000    2.500    1.500    0.000    4.000 
#    0.000    1.250    0.000    6.000    0.000    0.000 
#    0.000    0.000    0.000    0.000    0.000    0.000 
#
# Total GULP energy -396922.635066 kJ/mol
# GULP energy per Si atom -12403.832346 kJ/mol
# Density = 1.834810 g / cm^3
# Si number density = 18.389958 Si / 1000 Ang^3
#
#
#
# Elastic Constant Matrix: (Units=GPa)
#
#
# Indices 1 2 3 4 5 6 
#
# 1 67.5795 45.3190 24.0372 0.0000 0.0000 0.0000
# 2 45.3190 116.7513 16.7162 0.0000 0.0000 0.0000
# 3 24.0372 16.7162 44.3706 0.0000 0.0000 0.0000
# 4 0.0000 0.0000 0.0000 21.5428 0.0000 0.0000
# 5 0.0000 0.0000 0.0000 0.0000 27.3344 0.0000
# 6 0.0000 0.0000 0.0000 0.0000 0.0000 36.2333
#
#
#
# Elastic Compliance Matrix: (Units=1/GPa)
#
#
# Indices 1 2 3 4 5 6 
#
# 1 0.023446 -0.007697 -0.009801 0.000000 0.000000 0.000000
# 2 -0.007697 0.011581 -0.000193 0.000000 0.000000 0.000000
# 3 -0.009801 -0.000193 0.027920 0.000000 0.000000 0.000000
# 4 0.000000 0.000000 0.000000 0.046419 0.000000 0.000000
# 5 0.000000 0.000000 0.000000 0.000000 0.036584 0.000000
# 6 0.000000 0.000000 0.000000 0.000000 0.000000 0.027599
#
#
# Mechanical properties :
#
#
# Convention : Reuss Voigt Hill
#
# Bulk Modulus (GPa) = 36.28098 44.53847 40.40973
# Shear Modulus (GPa) = 22.92323 26.53070 24.72696
#
# Velocity S-wave (km/s) = 3.53442 3.80237 3.67084
# Velocity P-wave (km/s) = 6.03554 6.59916 6.32363
#
# Compressibility (1/GPa) = 0.02756265
#
# Stress axis : x y z
#
# Youngs Moduli (GPa) = 42.65197 86.35024 35.81672
#
# Poissons Ratio (x) = 0.66468 0.35105
# Poissons Ratio (y) = 0.32831 0.00691
# Poissons Ratio (z) = 0.41805 0.01666
#
# Static dielectric constant tensor:
#      x y z
#    x 3.340680 0.000000 0.000000 
#    y 0.000000 3.618600 0.000000 
#    z 0.000000 0.000000 3.113350 
# 
# 
# High freq. dielectric constant tensor:
#      x y z
#    x 1.715780 0.000000 0.000000 
#    y 0.000000 1.728600 0.000000 
#    z 0.000000 0.000000 1.680810 
# 
# From -- ./inp_files/13861.got.cif
#   From: 2010.03.12/outbox.cif.g09.slc.cpg/sg36_7_cif.got.tgz:13861.got - 2010.04.14 02:13:53.
