data_PCOD8174717
_publ_section_title
;
Structure prediction by ZEFSAII (Michael W. Deem and Ramdas Pophale) SiO2 
 PCOD8174717
Probable space group: C M C 21
;
_chemical_formula_sum "Si O2"
_cell_formula_units_Z 64
_cell_length_a 9.067844
_cell_length_b 22.663223
_cell_length_c 16.405468
_cell_angle_alpha 90.000000
_cell_angle_beta 90.000000
_cell_angle_gamma 90.000000
_cell_volume 3371.431469
_symmetry_space_group_name_H-M "C M C 21"
_symmetry_group_IT_number 36
_symmetry_cell_setting 'orthorhombic'
loop_
_space_group_symop_operation_xyz
x,y,z
-x,-y,1/2+z
x,-y,1/2+z
-x,y,z
1/2+x,1/2+y,z
1/2-x,1/2-y,1/2+z
1/2+x,1/2-y,1/2+z
1/2-x,1/2+y,z
loop_
_atom_site_type_symbol
_atom_site_label
_atom_site_fract_x
_atom_site_fract_y
_atom_site_fract_z
Si Si1 0.826215 0.038256 0.055810
Si Si2 0.824317 0.848850 0.258375
Si Si3 0.163833 0.822399 0.955460
Si Si4 0.169509 0.854601 0.667063
Si Si5 0.670209 0.895302 0.412739
Si Si6 0.325203 0.407302 0.091058
Si Si7 0.659435 0.203500 0.036388
Si Si8 0.173467 0.284025 0.798556
O O1 0.787200 0.081511 0.131101
O O2 0.000000 0.039820 0.036516
O O3 0.770818 0.974740 0.086794
O O4 0.742471 0.056336 0.972958
O O5 0.754538 0.891636 0.326856
O O6 0.765254 0.873959 0.171746
O O7 0.770476 0.780721 0.269319
O O8 0.000000 0.852956 0.266336
O O9 0.277645 0.799251 0.889357
O O10 0.000000 0.835419 0.918128
O O11 0.228431 0.877736 0.006068
O O12 0.149150 0.772503 0.023585
O O13 0.206475 0.807195 0.597390
O O14 0.263383 0.838002 0.745758
O O15 0.000000 0.850685 0.691221
O O16 0.500000 0.912534 0.397935
O O17 0.687176 0.830488 0.451848
O O18 0.500000 0.403940 0.094187
O O19 0.500000 0.182233 0.073160
O O20 0.000000 0.285623 0.793539
#
# Coordination Sequence:
#
# PCOD8174717 Si02
#       8
#     8   8   8   8   8   8   8   8
#     4   9  19  38  59  80 106 142 192 234 269 322
#     4  10  20  36  59  84 111 144 188 233 278 332
#     4  10  19  35  57  80 111 146 182 225 278 334
#     4  10  20  33  54  80 107 140 182 227 271 326
#     4  10  19  33  56  84 113 145 179 223 277 331
#     4   9  19  37  60  82 106 145 193 238 275 319
#     4   9  17  31  53  79 109 140 174 219 277 332
#     4  11  22  35  54  83 117 146 180 227 283 338
#
# _framework density 18.983032999999999
#
# number of rings (size 3 to 8) (size 9 to 14) (size 15 to 20)
#    0.000    2.250    1.250    1.875    0.000    4.000 
#    2.250    1.875    0.000    0.000    0.000    0.000 
#    0.000    0.000    0.000    0.000    0.000    0.000 
#
# Total GULP energy -396650.880518 kJ/mol
# GULP energy per Si atom -12395.340016 kJ/mol
# Density = 1.893983 g / cm^3
# Si number density = 18.983033 Si / 1000 Ang^3
#
#
#
# Elastic Constant Matrix: (Units=GPa)
#
#
# Indices 1 2 3 4 5 6 
#
# 1 52.2327 35.2306 37.7727 0.0000 0.0000 0.0000
# 2 35.2306 118.3995 65.6382 0.0000 0.0000 0.0000
# 3 37.7727 65.6382 102.3688 0.0000 0.0000 0.0000
# 4 0.0000 0.0000 0.0000 28.5446 0.0000 0.0000
# 5 0.0000 0.0000 0.0000 0.0000 33.2891 0.0000
# 6 0.0000 0.0000 0.0000 0.0000 0.0000 19.4321
#
#
#
# Elastic Compliance Matrix: (Units=1/GPa)
#
#
# Indices 1 2 3 4 5 6 
#
# 1 0.027243 -0.003931 -0.007532 0.000000 0.000000 0.000000
# 2 -0.003931 0.013671 -0.007315 0.000000 0.000000 0.000000
# 3 -0.007532 -0.007315 0.017238 0.000000 0.000000 0.000000
# 4 0.000000 0.000000 0.000000 0.035033 0.000000 0.000000
# 5 0.000000 0.000000 0.000000 0.000000 0.030040 0.000000
# 6 0.000000 0.000000 0.000000 0.000000 0.000000 0.051461
#
#
# Mechanical properties :
#
#
# Convention : Reuss Voigt Hill
#
# Bulk Modulus (GPa) = 48.55232 61.14266 54.84749
# Shear Modulus (GPa) = 22.81973 25.21047 24.01510
#
# Velocity S-wave (km/s) = 3.47091 3.64820 3.56066
# Velocity P-wave (km/s) = 6.45718 7.07282 6.77200
#
# Compressibility (1/GPa) = 0.02059634
#
# Stress axis : x y z
#
# Youngs Moduli (GPa) = 36.70632 73.14673 58.01006
#
# Poissons Ratio (x) = 0.28753 0.43693
# Poissons Ratio (y) = 0.14429 0.42437
# Poissons Ratio (z) = 0.27647 0.53510
#
# Static dielectric constant tensor:
#      x y z
#    x 3.392840 0.000000 0.000000 
#    y 0.000000 3.536830 0.000000 
#    z 0.000000 0.000000 3.444020 
# 
# 
# High freq. dielectric constant tensor:
#      x y z
#    x 1.722520 0.000000 0.000000 
#    y 0.000000 1.729150 0.000000 
#    z 0.000000 0.000000 1.736350 
# 
# From -- ./inp_files/10905.got.cif
#   From: 2010.03.12/outbox.cif.g09.slc.cpg/sg36_6_cif.got.tgz:10905.got - 2010.04.14 02:13:53.
