data_PCOD8174067
_publ_section_title
;
Structure prediction by ZEFSAII (Michael W. Deem and Ramdas Pophale) SiO2 
 PCOD8174067
Probable space group: C M M 2
;
_chemical_formula_sum "Si O2"
_cell_formula_units_Z 40
_cell_length_a 8.787438
_cell_length_b 15.583230
_cell_length_c 14.230734
_cell_angle_alpha 90.000000
_cell_angle_beta 90.000000
_cell_angle_gamma 90.000000
_cell_volume 1948.709290
_symmetry_space_group_name_H-M "C M M 2"
_symmetry_group_IT_number 35
_symmetry_cell_setting 'orthorhombic'
loop_
_space_group_symop_operation_xyz
x,y,z
-x,-y,z
-x,y,z
x,-y,z
1/2+x,1/2+y,z
1/2-x,1/2-y,z
1/2-x,1/2+y,z
1/2+x,1/2-y,z
loop_
_atom_site_type_symbol
_atom_site_label
_atom_site_fract_x
_atom_site_fract_y
_atom_site_fract_z
Si Si1 0.820979 0.838748 0.438330
Si Si2 0.819893 0.500000 0.543295
Si Si3 0.178012 0.836064 0.865370
Si Si4 0.177493 0.401705 0.046001
Si Si5 0.319843 0.500000 0.745954
Si Si6 0.674181 0.898906 0.257626
O O1 0.750000 0.750000 0.475951
O O2 0.746695 0.915804 0.495296
O O3 0.785500 0.848805 0.327622
O O4 0.000000 0.838470 0.455793
O O5 0.775028 0.500000 0.651420
O O6 0.000000 0.500000 0.530819
O O7 0.250000 0.750000 0.821567
O O8 0.000000 0.826104 0.861704
O O9 0.232134 0.917052 0.804677
O O10 0.228259 0.844799 0.973540
O O11 0.228268 0.500000 0.034316
O O12 0.214947 0.370591 0.151638
O O13 0.000000 0.391308 0.024341
O O14 0.500000 0.500000 0.725239
O O15 0.500000 0.874906 0.281774
O O16 0.698445 0.000000 0.269821
#
# Coordination Sequence:
#
# PCOD8174067 Si02
#       6
#     8   4   8   8   4   8
#     4  12  25  42  66  96 129 168 211 259 312 373
#     4  12  26  46  71  96 125 162 203 258 322 382
#     4  11  23  40  63  92 126 164 206 257 308 366
#     4   9  18  34  59  90 125 167 210 255 304 362
#     4  10  24  46  67  90 123 160 203 258 316 374
#     4   9  18  35  60  90 127 168 210 257 308 365
#
# _framework density 20.526408
#
# number of rings (size 3 to 8) (size 9 to 14) (size 15 to 20)
#    0.000    1.600    2.000    4.500    0.000    4.000 
#    0.000    4.000    0.000    0.000    0.000    0.000 
#    0.000    0.000    0.000    0.000    0.000    0.000 
#
# Total GULP energy -248074.727685 kJ/mol
# GULP energy per Si atom -12403.736384 kJ/mol
# Density = 2.047969 g / cm^3
# Si number density = 20.526408 Si / 1000 Ang^3
#
#
#
# Elastic Constant Matrix: (Units=GPa)
#
#
# Indices 1 2 3 4 5 6 
#
# 1 118.8017 68.0047 58.0183 0.0000 0.0000 0.0000
# 2 68.0047 156.7238 66.5527 0.0000 0.0000 0.0000
# 3 58.0183 66.5527 118.7983 0.0000 0.0000 0.0000
# 4 0.0000 0.0000 0.0000 4.1687 0.0000 0.0000
# 5 0.0000 0.0000 0.0000 0.0000 38.4570 0.0000
# 6 0.0000 0.0000 0.0000 0.0000 0.0000 33.8800
#
#
#
# Elastic Compliance Matrix: (Units=1/GPa)
#
#
# Indices 1 2 3 4 5 6 
#
# 1 0.012513 -0.003719 -0.004028 0.000000 0.000000 0.000000
# 2 -0.003719 0.009478 -0.003493 0.000000 0.000000 0.000000
# 3 -0.004028 -0.003493 0.012342 0.000000 0.000000 0.000000
# 4 0.000000 0.000000 0.000000 0.239884 0.000000 0.000000
# 5 0.000000 0.000000 0.000000 0.000000 0.026003 0.000000
# 6 0.000000 0.000000 0.000000 0.000000 0.000000 0.029516
#
#
# Mechanical properties :
#
#
# Convention : Reuss Voigt Hill
#
# Bulk Modulus (GPa) = 84.37058 86.60835 85.48947
# Shear Modulus (GPa) = 14.03835 28.75101 21.39468
#
# Velocity S-wave (km/s) = 2.61802 3.74663 3.23197
# Velocity P-wave (km/s) = 7.09446 7.81035 7.46100
#
# Compressibility (1/GPa) = 0.01185247
#
# Stress axis : x y z
#
# Youngs Moduli (GPa) = 79.91450 105.50793 81.02708
#
# Poissons Ratio (x) = 0.39243 0.32634
# Poissons Ratio (y) = 0.29724 0.28305
# Poissons Ratio (z) = 0.32186 0.36856
#
# Static dielectric constant tensor:
#      x y z
#    x 3.601490 0.000000 0.000000 
#    y 0.000000 3.896520 0.000000 
#    z 0.000000 0.000000 3.801550 
# 
# 
# High freq. dielectric constant tensor:
#      x y z
#    x 1.798850 0.000000 0.000000 
#    y 0.000000 1.810190 0.000000 
#    z 0.000000 0.000000 1.801430 
# 
# From -- ./inp_files/14741.got.cif
#   From: 2010.03.12/outbox.cif.g09.slc.cpg/sg35_8_cif.got.tgz:14741.got - 2010.04.14 02:02:04.
