data_PCOD8174602
_publ_section_title
;
Structure prediction by ZEFSAII (Michael W. Deem and Ramdas Pophale) SiO2 
 PCOD8174602
Probable space group: C M C 21
;
_chemical_formula_sum "Si O2"
_cell_formula_units_Z 48
_cell_length_a 8.671835
_cell_length_b 18.493921
_cell_length_c 16.665145
_cell_angle_alpha 90.000000
_cell_angle_beta 90.000000
_cell_angle_gamma 90.000000
_cell_volume 2672.693151
_symmetry_space_group_name_H-M "C M C 21"
_symmetry_group_IT_number 36
_symmetry_cell_setting 'orthorhombic'
loop_
_space_group_symop_operation_xyz
x,y,z
-x,-y,1/2+z
x,-y,1/2+z
-x,y,z
1/2+x,1/2+y,z
1/2-x,1/2-y,1/2+z
1/2+x,1/2-y,1/2+z
1/2-x,1/2+y,z
loop_
_atom_site_type_symbol
_atom_site_label
_atom_site_fract_x
_atom_site_fract_y
_atom_site_fract_z
Si Si1 0.815393 0.085462 0.482900
Si Si2 0.316203 0.325263 0.669452
Si Si3 0.829522 0.041229 0.728760
Si Si4 0.317900 0.912248 0.813221
Si Si5 0.181493 0.662121 0.633735
Si Si6 0.331783 0.450071 0.568069
O O1 0.741339 0.111625 0.400460
O O2 0.766565 0.141195 0.551819
O O3 0.000000 0.084247 0.477886
O O4 0.749613 0.003888 0.504243
O O5 0.500000 0.335885 0.675511
O O6 0.242656 0.351712 0.752243
O O7 0.268218 0.243466 0.654076
O O8 0.250287 0.374588 0.594393
O O9 0.733282 0.113591 0.709488
O O10 0.000000 0.062075 0.761176
O O11 0.743169 0.992931 0.794980
O O12 0.847213 0.995615 0.648871
O O13 0.500000 0.913194 0.810793
O O14 0.000000 0.654245 0.621055
O O15 0.500000 0.431067 0.533231
#
# Coordination Sequence:
#
# PCOD8174602 Si02
#       6
#     8   8   8   8   8   8
#     4  10  19  33  53  74 101 138 176 213 260 313
#     4   9  18  34  54  76 105 137 169 208 259 315
#     4   9  17  32  52  72  98 133 170 205 250 307
#     4  11  21  33  52  77 103 132 175 224 262 301
#     4  10  19  32  53  80 107 135 171 214 255 303
#     4   7  13  28  50  71  90 123 167 202 238 295
#
# _framework density 17.959413000000001
#
# number of rings (size 3 to 8) (size 9 to 14) (size 15 to 20)
#    0.000    2.667    0.000    5.000    0.000    1.333 
#    0.000    2.500    0.000    6.000    0.000    0.000 
#    0.000    0.000    0.000    0.000    0.000    0.000 
#
# Total GULP energy -297370.836634 kJ/mol
# GULP energy per Si atom -12390.451526 kJ/mol
# Density = 1.791854 g / cm^3
# Si number density = 17.959413 Si / 1000 Ang^3
#
#
#
# Elastic Constant Matrix: (Units=GPa)
#
#
# Indices 1 2 3 4 5 6 
#
# 1 76.7738 35.2315 30.7702 0.0000 0.0000 0.0000
# 2 35.2315 134.4675 46.2724 0.0000 0.0000 0.0000
# 3 30.7702 46.2724 89.0789 0.0000 0.0000 0.0000
# 4 0.0000 0.0000 0.0000 17.6877 0.0000 0.0000
# 5 0.0000 0.0000 0.0000 0.0000 24.0691 0.0000
# 6 0.0000 0.0000 0.0000 0.0000 0.0000 24.9210
#
#
#
# Elastic Compliance Matrix: (Units=1/GPa)
#
#
# Indices 1 2 3 4 5 6 
#
# 1 0.015926 -0.002776 -0.004059 0.000000 0.000000 0.000000
# 2 -0.002776 0.009539 -0.003996 0.000000 0.000000 0.000000
# 3 -0.004059 -0.003996 0.014704 0.000000 0.000000 0.000000
# 4 0.000000 0.000000 0.000000 0.056536 0.000000 0.000000
# 5 0.000000 0.000000 0.000000 0.000000 0.041547 0.000000
# 6 0.000000 0.000000 0.000000 0.000000 0.000000 0.040127
#
#
# Mechanical properties :
#
#
# Convention : Reuss Voigt Hill
#
# Bulk Modulus (GPa) = 54.03557 58.31871 56.17714
# Shear Modulus (GPa) = 24.24695 25.87197 25.05946
#
# Velocity S-wave (km/s) = 3.67835 3.79961 3.73948
# Velocity P-wave (km/s) = 6.94214 7.19670 7.07056
#
# Compressibility (1/GPa) = 0.01850633
#
# Stress axis : x y z
#
# Youngs Moduli (GPa) = 62.79017 104.83000 68.00809
#
# Poissons Ratio (x) = 0.29099 0.27607
# Poissons Ratio (y) = 0.17430 0.27178
# Poissons Ratio (z) = 0.25489 0.41894
#
# Static dielectric constant tensor:
#      x y z
#    x 3.256630 0.000000 0.000000 
#    y 0.000000 3.547480 0.000000 
#    z 0.000000 0.000000 3.279360 
# 
# 
# High freq. dielectric constant tensor:
#      x y z
#    x 1.687980 0.000000 0.000000 
#    y 0.000000 1.691340 0.000000 
#    z 0.000000 0.000000 1.676060 
# 
# From -- ./inp_files/10473.got.cif
#   From: 2010.03.12/outbox.cif.g09.slc.cpg/sg36_6_cif.got.tgz:10473.got - 2010.04.14 02:13:53.
