data_PCOD8174529
_publ_section_title
;
Structure prediction by ZEFSAII (Michael W. Deem and Ramdas Pophale) SiO2 
 PCOD8174529
Probable space group: C M C 21
;
_chemical_formula_sum "Si O2"
_cell_formula_units_Z 64
_cell_length_a 8.570798
_cell_length_b 22.954314
_cell_length_c 16.399705
_cell_angle_alpha 90.000000
_cell_angle_beta 90.000000
_cell_angle_gamma 90.000000
_cell_volume 3226.425294
_symmetry_space_group_name_H-M "C M C 21"
_symmetry_group_IT_number 36
_symmetry_cell_setting 'orthorhombic'
loop_
_space_group_symop_operation_xyz
x,y,z
-x,-y,1/2+z
x,-y,1/2+z
-x,y,z
1/2+x,1/2+y,z
1/2-x,1/2-y,1/2+z
1/2+x,1/2-y,1/2+z
1/2-x,1/2+y,z
loop_
_atom_site_type_symbol
_atom_site_label
_atom_site_fract_x
_atom_site_fract_y
_atom_site_fract_z
Si Si1 0.320120 0.843343 0.580470
Si Si2 0.817585 0.032147 0.098887
Si Si3 0.185057 0.223648 0.635570
Si Si4 0.813541 0.014226 0.772481
Si Si5 0.675622 0.715316 0.931520
Si Si6 0.323776 0.357107 0.270921
Si Si7 0.684249 0.327892 0.963989
Si Si8 0.685994 0.540505 0.442297
O O1 0.500000 0.861523 0.591992
O O2 0.213158 0.899545 0.589186
O O3 0.265736 0.791982 0.643060
O O4 0.298281 0.813253 0.493117
O O5 0.000000 0.020459 0.100003
O O6 0.749059 0.013341 0.187549
O O7 0.748257 0.996308 0.020733
O O8 0.262905 0.186084 0.707831
O O9 0.240336 0.192775 0.552951
O O10 0.000000 0.222305 0.640613
O O11 0.744468 0.079637 0.774735
O O12 0.000000 0.011965 0.775046
O O13 0.750171 0.983083 0.855074
O O14 0.500000 0.718536 0.967542
O O15 0.678373 0.671992 0.857349
O O16 0.733666 0.780252 0.904666
O O17 0.500000 0.367181 0.239781
O O18 0.500000 0.325713 0.951363
O O19 0.746385 0.393078 0.948778
O O20 0.500000 0.537406 0.444275
#
# Coordination Sequence:
#
# PCOD8174529 Si02
#       8
#     8   8   8   8   8   8   8   8
#     4  10  20  34  51  71 100 135 167 201 250 307
#     4  10  19  32  53  77 100 131 172 213 249 290
#     4   8  15  28  46  67  90 123 163 198 238 294
#     4   9  17  28  46  74 101 126 164 212 253 292
#     4  10  19  31  51  76  99 125 163 211 252 292
#     4   9  16  28  48  73  98 124 162 210 252 292
#     4   9  17  31  50  70  97 132 166 200 247 306
#     4   9  17  30  49  74 103 134 167 205 251 303
#
# _framework density 19.836195
#
# number of rings (size 3 to 8) (size 9 to 14) (size 15 to 20)
#    0.000    2.750    0.000    3.000    0.000    6.000 
#    0.000    0.625    0.000   10.500    0.000    0.000 
#    0.000    0.000    0.000    0.000    0.000    0.000 
#
# Total GULP energy -396465.970753 kJ/mol
# GULP energy per Si atom -12389.561586 kJ/mol
# Density = 1.979105 g / cm^3
# Si number density = 19.836195 Si / 1000 Ang^3
#
#
#
# Elastic Constant Matrix: (Units=GPa)
#
#
# Indices 1 2 3 4 5 6 
#
# 1 12.4436 6.3204 7.8817 0.0000 0.0000 0.0000
# 2 6.3204 181.3129 62.8460 0.0000 0.0000 0.0000
# 3 7.8817 62.8460 104.2446 0.0000 0.0000 0.0000
# 4 0.0000 0.0000 0.0000 29.4709 0.0000 0.0000
# 5 0.0000 0.0000 0.0000 0.0000 10.3965 0.0000
# 6 0.0000 0.0000 0.0000 0.0000 0.0000 22.7879
#
#
#
# Elastic Compliance Matrix: (Units=1/GPa)
#
#
# Indices 1 2 3 4 5 6 
#
# 1 0.084527 -0.000925 -0.005834 0.000000 0.000000 0.000000
# 2 -0.000925 0.006982 -0.004140 0.000000 0.000000 0.000000
# 3 -0.005834 -0.004140 0.012530 0.000000 0.000000 0.000000
# 4 0.000000 0.000000 0.000000 0.033932 0.000000 0.000000
# 5 0.000000 0.000000 0.000000 0.000000 0.096186 0.000000
# 6 0.000000 0.000000 0.000000 0.000000 0.000000 0.043883
#
#
# Mechanical properties :
#
#
# Convention : Reuss Voigt Hill
#
# Bulk Modulus (GPa) = 12.15898 50.23303 31.19600
# Shear Modulus (GPa) = 15.27884 27.26125 21.27004
#
# Velocity S-wave (km/s) = 2.77835 3.71120 3.27813
# Velocity P-wave (km/s) = 4.05405 6.61384 5.48535
#
# Compressibility (1/GPa) = 0.08224373
#
# Stress axis : x y z
#
# Youngs Moduli (GPa) = 11.83053 143.21715 79.81159
#
# Poissons Ratio (x) = 0.13241 0.46558
# Poissons Ratio (y) = 0.01094 0.33039
# Poissons Ratio (z) = 0.06901 0.59286
#
# Static dielectric constant tensor:
#      x y z
#    x 3.148030 0.000000 0.000000 
#    y 0.000000 3.954600 0.000000 
#    z 0.000000 0.000000 3.768130 
# 
# 
# High freq. dielectric constant tensor:
#      x y z
#    x 1.712970 0.000000 0.000000 
#    y 0.000000 1.795470 0.000000 
#    z 0.000000 0.000000 1.768780 
# 
# From -- ./inp_files/13880.got.cif
#   From: 2010.03.12/outbox.cif.g09.slc.cpg/sg36_7_cif.got.tgz:13880.got - 2010.04.14 02:13:53.
