data_PCOD8174088
_publ_section_title
;
Structure prediction by ZEFSAII (Michael W. Deem and Ramdas Pophale) SiO2 
 PCOD8174088
Probable space group: C M M 2
;
_chemical_formula_sum "Si O2"
_cell_formula_units_Z 48
_cell_length_a 8.603468
_cell_length_b 28.363280
_cell_length_c 10.307831
_cell_angle_alpha 90.000000
_cell_angle_beta 90.000000
_cell_angle_gamma 90.000000
_cell_volume 2515.343431
_symmetry_space_group_name_H-M "C M M 2"
_symmetry_group_IT_number 35
_symmetry_cell_setting 'orthorhombic'
loop_
_space_group_symop_operation_xyz
x,y,z
-x,-y,z
-x,y,z
x,-y,z
1/2+x,1/2+y,z
1/2-x,1/2-y,z
1/2-x,1/2+y,z
1/2+x,1/2-y,z
loop_
_atom_site_type_symbol
_atom_site_label
_atom_site_fract_x
_atom_site_fract_y
_atom_site_fract_z
Si Si1 0.682992 0.051673 0.506550
Si Si2 0.321985 0.447681 0.232582
Si Si3 0.317751 0.198209 0.868185
Si Si4 0.820248 0.853774 0.107923
Si Si5 0.184268 0.647620 0.613555
Si Si6 0.184406 0.698277 0.350965
O O1 0.500000 0.049913 0.522948
O O2 0.717160 0.063716 0.357076
O O3 0.749888 0.093959 0.596802
O O4 0.754114 0.000000 0.544328
O O5 0.500000 0.443898 0.279064
O O6 0.284566 0.500000 0.177817
O O7 0.289830 0.410112 0.117981
O O8 0.500000 0.203672 0.852035
O O9 0.250000 0.250000 0.884791
O O10 0.245217 0.171875 0.742345
O O11 0.282289 0.166903 0.993063
O O12 0.768644 0.832752 0.244077
O O13 0.000000 0.841861 0.081017
O O14 0.234471 0.678765 0.490937
O O15 0.000000 0.645493 0.623872
O O16 0.250000 0.750000 0.336638
O O17 0.000000 0.697238 0.329715
#
# Coordination Sequence:
#
# PCOD8174088 Si02
#       6
#     8   8   8   8   8   8
#     4   9  16  30  55  84 112 141 175 218 271 326
#     4   9  18  33  54  81 112 143 177 221 270 320
#     4  11  23  40  58  77 108 148 188 229 275 328
#     4  11  22  37  56  81 110 144 184 224 273 326
#     4   9  19  35  55  81 110 141 179 223 272 322
#     4  11  21  35  55  80 109 138 179 229 277 326
#
# _framework density 19.082882000000001
#
# number of rings (size 3 to 8) (size 9 to 14) (size 15 to 20)
#    0.000    2.000    1.667    2.500    0.000    0.667 
#    0.000    5.000    0.000    1.000    0.000    0.000 
#    0.000    0.000    0.000    0.000    0.000    0.000 
#
# Total GULP energy -297531.338218 kJ/mol
# GULP energy per Si atom -12397.139092 kJ/mol
# Density = 1.903945 g / cm^3
# Si number density = 19.082882 Si / 1000 Ang^3
#
#
#
# Elastic Constant Matrix: (Units=GPa)
#
#
# Indices 1 2 3 4 5 6 
#
# 1 29.6963 20.6666 7.0372 0.0000 0.0000 0.0000
# 2 20.6666 149.8255 53.7489 0.0000 0.0000 0.0000
# 3 7.0372 53.7489 97.9241 0.0000 0.0000 0.0000
# 4 0.0000 0.0000 0.0000 33.2647 0.0000 0.0000
# 5 0.0000 0.0000 0.0000 0.0000 11.9965 0.0000
# 6 0.0000 0.0000 0.0000 0.0000 0.0000 10.7660
#
#
#
# Elastic Compliance Matrix: (Units=1/GPa)
#
#
# Indices 1 2 3 4 5 6 
#
# 1 0.037253 -0.005203 0.000179 0.000000 0.000000 0.000000
# 2 -0.005203 0.009037 -0.004587 0.000000 0.000000 0.000000
# 3 0.000179 -0.004587 0.012717 0.000000 0.000000 0.000000
# 4 0.000000 0.000000 0.000000 0.030062 0.000000 0.000000
# 5 0.000000 0.000000 0.000000 0.000000 0.083358 0.000000
# 6 0.000000 0.000000 0.000000 0.000000 0.000000 0.092885
#
#
# Mechanical properties :
#
#
# Convention : Reuss Voigt Hill
#
# Bulk Modulus (GPa) = 25.13490 48.92791 37.03140
# Shear Modulus (GPa) = 16.79009 24.27164 20.53087
#
# Velocity S-wave (km/s) = 2.96945 3.57025 3.28362
# Velocity P-wave (km/s) = 4.99568 6.53383 5.81583
#
# Compressibility (1/GPa) = 0.03978532
#
# Stress axis : x y z
#
# Youngs Moduli (GPa) = 26.84378 110.65009 78.63672
#
# Poissons Ratio (x) = 0.57567 -0.01404
# Poissons Ratio (y) = 0.13966 0.36068
# Poissons Ratio (z) = -0.00479 0.50751
#
# Static dielectric constant tensor:
#      x y z
#    x 3.365400 0.000000 0.000000 
#    y 0.000000 4.057080 0.000000 
#    z 0.000000 0.000000 3.430640 
# 
# 
# High freq. dielectric constant tensor:
#      x y z
#    x 1.727610 0.000000 0.000000 
#    y 0.000000 1.767370 0.000000 
#    z 0.000000 0.000000 1.720490 
# 
# From -- ./inp_files/5308.got.cif
#   From: 2010.03.12/outbox.cif.g09.slc.cpg/sg35_3_cif.got.tgz:5308.got - 2010.04.14 02:02:04.
