data_PCOD8174484
_publ_section_title
;
Structure prediction by ZEFSAII (Michael W. Deem and Ramdas Pophale) SiO2 
 PCOD8174484
Probable space group: C M C 21
;
_chemical_formula_sum "Si O2"
_cell_formula_units_Z 64
_cell_length_a 9.175883
_cell_length_b 18.856239
_cell_length_c 20.740136
_cell_angle_alpha 90.000000
_cell_angle_beta 90.000000
_cell_angle_gamma 90.000000
_cell_volume 3588.513144
_symmetry_space_group_name_H-M "C M C 21"
_symmetry_group_IT_number 36
_symmetry_cell_setting 'orthorhombic'
loop_
_space_group_symop_operation_xyz
x,y,z
-x,-y,1/2+z
x,-y,1/2+z
-x,y,z
1/2+x,1/2+y,z
1/2-x,1/2-y,1/2+z
1/2+x,1/2-y,1/2+z
1/2-x,1/2+y,z
loop_
_atom_site_type_symbol
_atom_site_label
_atom_site_fract_x
_atom_site_fract_y
_atom_site_fract_z
Si Si1 0.165507 0.306874 0.432170
Si Si2 0.669174 0.199596 0.075228
Si Si3 0.670223 0.063033 0.333785
Si Si4 0.665487 0.279658 0.696343
Si Si5 0.327998 0.225383 0.323362
Si Si6 0.830277 0.528106 0.953128
Si Si7 0.839418 0.052244 0.212481
Si Si8 0.329408 0.551939 0.073331
O O1 0.187946 0.269907 0.502548
O O2 0.278382 0.273134 0.382746
O O3 0.198059 0.390447 0.434794
O O4 0.000000 0.293719 0.408522
O O5 0.500000 0.196562 0.095134
O O6 0.755738 0.244951 0.129580
O O7 0.730967 0.121131 0.072269
O O8 0.500000 0.054424 0.329245
O O9 0.718886 0.144709 0.338983
O O10 0.729473 0.020646 0.395257
O O11 0.730488 0.027514 0.268162
O O12 0.500000 0.251319 0.696284
O O13 0.749863 0.247744 0.758019
O O14 0.672154 0.364197 0.699127
O O15 0.500000 0.232402 0.313785
O O16 0.000000 0.514025 0.967877
O O17 0.734190 0.504119 0.015251
O O18 0.807662 0.014215 0.143404
O O19 0.000000 0.032441 0.237093
O O20 0.500000 0.570104 0.062537
#
# Coordination Sequence:
#
# PCOD8174484 Si02
#       8
#     8   8   8   8   8   8   8   8
#     4   9  18  31  47  67  93 123 151 185 228 272
#     4   9  16  27  44  66  91 119 153 191 229 268
#     4   9  18  31  47  68  92 119 152 187 224 268
#     4   9  16  27  44  66  92 119 150 190 231 271
#     4  10  19  30  47  70  95 122 153 190 229 273
#     4   9  18  32  48  67  92 121 153 188 227 271
#     4   8  15  26  41  64  91 116 145 183 225 267
#     4   9  16  26  42  66  92 117 149 188 229 270
#
# _framework density 17.834685
#
# number of rings (size 3 to 8) (size 9 to 14) (size 15 to 20)
#    0.000    3.000    0.000    3.000    0.000    7.000 
#    0.000    0.000    0.000    1.500    0.000    5.250 
#    0.000    0.000    0.000    0.000    0.000    0.000 
#
# Total GULP energy -396562.051755 kJ/mol
# GULP energy per Si atom -12392.564117 kJ/mol
# Density = 1.779409 g / cm^3
# Si number density = 17.834685 Si / 1000 Ang^3
#
#
#
# Elastic Constant Matrix: (Units=GPa)
#
#
# Indices 1 2 3 4 5 6 
#
# 1 57.4479 1.3751 3.0870 0.0000 0.0000 0.0000
# 2 1.3751 12.1425 -7.8151 0.0000 0.0000 0.0000
# 3 3.0870 -7.8151 23.5889 0.0000 0.0000 0.0000
# 4 0.0000 0.0000 0.0000 21.8872 0.0000 0.0000
# 5 0.0000 0.0000 0.0000 0.0000 42.0597 0.0000
# 6 0.0000 0.0000 0.0000 0.0000 0.0000 14.8145
#
#
#
# Elastic Compliance Matrix: (Units=1/GPa)
#
#
# Indices 1 2 3 4 5 6 
#
# 1 0.017717 -0.004447 -0.003792 0.000000 0.000000 0.000000
# 2 -0.004447 0.105792 0.035631 0.000000 0.000000 0.000000
# 3 -0.003792 0.035631 0.054694 0.000000 0.000000 0.000000
# 4 0.000000 0.000000 0.000000 0.045689 0.000000 0.000000
# 5 0.000000 0.000000 0.000000 0.000000 0.023776 0.000000
# 6 0.000000 0.000000 0.000000 0.000000 0.000000 0.067501
#
#
# Mechanical properties :
#
#
# Convention : Reuss Voigt Hill
#
# Bulk Modulus (GPa) = 4.29207 9.60815 6.95011
# Shear Modulus (GPa) = 14.79085 22.18776 18.48930
#
# Velocity S-wave (km/s) = 2.88293 3.53098 3.22328
# Velocity P-wave (km/s) = 3.67336 4.69284 4.21404
#
# Compressibility (1/GPa) = 0.23298760
#
# Stress axis : x y z
#
# Youngs Moduli (GPa) = 56.44203 9.45253 18.28360
#
# Poissons Ratio (x) = 0.04204 0.06933
# Poissons Ratio (y) = 0.25100 -0.65147
# Poissons Ratio (z) = 0.21402 -0.33681
#
# Static dielectric constant tensor:
#      x y z
#    x 3.367460 0.000000 0.000000 
#    y 0.000000 2.754720 0.000000 
#    z 0.000000 0.000000 3.931850 
# 
# 
# High freq. dielectric constant tensor:
#      x y z
#    x 1.698440 0.000000 0.000000 
#    y 0.000000 1.616170 0.000000 
#    z 0.000000 0.000000 1.713230 
# 
# From -- ./inp_files/14007.got.cif
#   From: 2010.03.12/outbox.cif.g09.slc.cpg/sg36_8_cif.got.tgz:14007.got - 2010.04.14 02:13:53.
