data_PCOD8174314
_publ_section_title
;
Structure prediction by ZEFSAII (Michael W. Deem and Ramdas Pophale) SiO2 
 PCOD8174314
Probable space group: C M C 21
;
_chemical_formula_sum "Si O2"
_cell_formula_units_Z 64
_cell_length_a 9.468220
_cell_length_b 23.782290
_cell_length_c 15.436697
_cell_angle_alpha 90.000000
_cell_angle_beta 90.000000
_cell_angle_gamma 90.000000
_cell_volume 3475.972971
_symmetry_space_group_name_H-M "C M C 21"
_symmetry_group_IT_number 36
_symmetry_cell_setting 'orthorhombic'
loop_
_space_group_symop_operation_xyz
x,y,z
-x,-y,1/2+z
x,-y,1/2+z
-x,y,z
1/2+x,1/2+y,z
1/2-x,1/2-y,1/2+z
1/2+x,1/2-y,1/2+z
1/2-x,1/2+y,z
loop_
_atom_site_type_symbol
_atom_site_label
_atom_site_fract_x
_atom_site_fract_y
_atom_site_fract_z
Si Si1 0.338552 0.629934 0.422710
Si Si2 0.834027 0.427538 0.773314
Si Si3 0.165190 0.125766 0.619983
Si Si4 0.162678 0.635401 0.106228
Si Si5 0.334735 0.058122 0.758856
Si Si6 0.332026 0.867079 0.417775
Si Si7 0.338182 0.252314 0.182121
Si Si8 0.837283 0.751337 0.849912
O O1 0.500000 0.614282 0.400746
O O2 0.238425 0.596028 0.358886
O O3 0.299654 0.612551 0.520323
O O4 0.316852 0.697083 0.415737
O O5 0.768197 0.397179 0.687874
O O6 0.799704 0.492962 0.766445
O O7 0.000000 0.415537 0.782665
O O8 0.252418 0.082157 0.676927
O O9 0.214275 0.189191 0.641575
O O10 0.000000 0.118148 0.639326
O O11 0.180776 0.702754 0.112153
O O12 0.000000 0.617679 0.107370
O O13 0.229204 0.616976 0.013285
O O14 0.500000 0.069651 0.744578
O O15 0.280477 0.087861 0.847002
O O16 0.500000 0.865274 0.424092
O O17 0.275119 0.805463 0.391846
O O18 0.500000 0.256763 0.212195
O O19 0.246708 0.234296 0.263677
O O20 0.000000 0.742740 0.824286
#
# Coordination Sequence:
#
# PCOD8174314 Si02
#       8
#     8   8   8   8   8   8   8   8
#     4  10  21  36  55  80 109 142 178 217 267 325
#     4  10  21  36  55  80 107 139 182 226 264 307
#     4  10  21  36  55  80 109 142 178 217 267 325
#     4   9  17  31  52  76 103 136 173 214 262 315
#     4  10  21  36  55  80 107 139 182 226 264 307
#     4   9  17  31  52  76 103 136 173 214 262 315
#     4  10  18  31  54  79 104 136 175 217 266 320
#     4  10  18  31  54  79 104 136 175 217 266 320
#
# _framework density 18.412112
#
# number of rings (size 3 to 8) (size 9 to 14) (size 15 to 20)
#    0.000    2.250    2.500    0.750    0.000    5.000 
#    0.000    2.500    0.000    4.500    0.000    0.000 
#    0.000    0.000    0.000    0.000    0.000    0.000 
#
# Total GULP energy -396768.398974 kJ/mol
# GULP energy per Si atom -12399.012468 kJ/mol
# Density = 1.837021 g / cm^3
# Si number density = 18.412112 Si / 1000 Ang^3
#
#
#
# Elastic Constant Matrix: (Units=GPa)
#
#
# Indices 1 2 3 4 5 6 
#
# 1 35.6894 34.3629 40.6087 0.0000 0.0000 0.0000
# 2 34.3629 115.4206 59.7481 0.0000 0.0000 0.0000
# 3 40.6087 59.7481 145.8467 0.0000 0.0000 0.0000
# 4 0.0000 0.0000 0.0000 17.9219 0.0000 0.0000
# 5 0.0000 0.0000 0.0000 0.0000 28.2649 0.0000
# 6 0.0000 0.0000 0.0000 0.0000 0.0000 14.8327
#
#
#
# Elastic Compliance Matrix: (Units=1/GPa)
#
#
# Indices 1 2 3 4 5 6 
#
# 1 0.047785 -0.009314 -0.009489 0.000000 0.000000 0.000000
# 2 -0.009314 0.012811 -0.002655 0.000000 0.000000 0.000000
# 3 -0.009489 -0.002655 0.010586 0.000000 0.000000 0.000000
# 4 0.000000 0.000000 0.000000 0.055798 0.000000 0.000000
# 5 0.000000 0.000000 0.000000 0.000000 0.035380 0.000000
# 6 0.000000 0.000000 0.000000 0.000000 0.000000 0.067419
#
#
# Mechanical properties :
#
#
# Convention : Reuss Voigt Hill
#
# Bulk Modulus (GPa) = 35.37880 62.93290 49.15585
# Shear Modulus (GPa) = 17.72316 23.01969 20.37143
#
# Velocity S-wave (km/s) = 3.10592 3.53972 3.32989
# Velocity P-wave (km/s) = 5.66736 7.13866 6.44513
#
# Compressibility (1/GPa) = 0.02826551
#
# Stress axis : x y z
#
# Youngs Moduli (GPa) = 20.92720 78.05575 94.46220
#
# Poissons Ratio (x) = 0.72704 0.89637
# Poissons Ratio (y) = 0.19492 0.25079
# Poissons Ratio (z) = 0.19858 0.20723
#
# Static dielectric constant tensor:
#      x y z
#    x 3.087150 0.000000 0.000000 
#    y 0.000000 3.412310 0.000000 
#    z 0.000000 0.000000 3.575880 
# 
# 
# High freq. dielectric constant tensor:
#      x y z
#    x 1.676960 0.000000 0.000000 
#    y 0.000000 1.716910 0.000000 
#    z 0.000000 0.000000 1.725260 
# 
# From -- ./inp_files/11031.got.cif
#   From: 2010.03.12/outbox.cif.g09.slc.cpg/sg36_6_cif.got.tgz:11031.got - 2010.04.14 02:13:53.
