data_PCOD8174675
_publ_section_title
;
Structure prediction by ZEFSAII (Michael W. Deem and Ramdas Pophale) SiO2 
 PCOD8174675
Probable space group: C M C 21
;
_chemical_formula_sum "Si O2"
_cell_formula_units_Z 48
_cell_length_a 9.027599
_cell_length_b 30.981045
_cell_length_c 9.607487
_cell_angle_alpha 90.000000
_cell_angle_beta 90.000000
_cell_angle_gamma 90.000000
_cell_volume 2687.064726
_symmetry_space_group_name_H-M "C M C 21"
_symmetry_group_IT_number 36
_symmetry_cell_setting 'orthorhombic'
loop_
_space_group_symop_operation_xyz
x,y,z
-x,-y,1/2+z
x,-y,1/2+z
-x,y,z
1/2+x,1/2+y,z
1/2-x,1/2-y,1/2+z
1/2+x,1/2-y,1/2+z
1/2-x,1/2+y,z
loop_
_atom_site_type_symbol
_atom_site_label
_atom_site_fract_x
_atom_site_fract_y
_atom_site_fract_z
Si Si1 0.672153 0.289319 0.886500
Si Si2 0.333925 0.374445 0.589439
Si Si3 0.667744 0.718972 0.063832
Si Si4 0.170304 0.968497 0.551927
Si Si5 0.331047 0.127159 0.366726
Si Si6 0.673577 0.967923 0.846895
O O1 0.500000 0.292438 0.908136
O O2 0.715792 0.281365 0.725905
O O3 0.737537 0.335068 0.941356
O O4 0.727551 0.250029 0.978719
O O5 0.500000 0.373122 0.658680
O O6 0.315020 0.329981 0.501962
O O7 0.319168 0.418360 0.499850
O O8 0.207015 0.374965 0.704234
O O9 0.500000 0.735553 0.048071
O O10 0.227595 0.972371 0.709330
O O11 0.000000 0.984694 0.545417
O O12 0.275594 0.995789 0.453533
O O13 0.500000 0.140415 0.386314
O O14 0.300042 0.078589 0.422792
O O15 0.500000 0.973779 0.810009
#
# Coordination Sequence:
#
# PCOD8174675 Si02
#       6
#     8   8   8   8   8   8
#     4  10  20  33  51  75 100 128 164 204 245 291
#     4   8  16  31  50  72  98 128 164 203 241 290
#     4   9  18  33  51  72  99 128 161 202 244 289
#     4  10  19  33  54  77 101 133 171 208 249 298
#     4   9  17  30  50  72  96 130 167 201 242 293
#     4  10  20  34  52  76 104 133 167 208 253 299
#
# _framework density 17.863358000000002
#
# number of rings (size 3 to 8) (size 9 to 14) (size 15 to 20)
#    0.000    2.667    0.000    3.000    0.000    6.000 
#    0.000    1.667    0.000    4.000    0.000    0.000 
#    0.000    0.000    0.000    0.000    0.000    0.000 
#
# Total GULP energy -297389.348561 kJ/mol
# GULP energy per Si atom -12391.222857 kJ/mol
# Density = 1.782270 g / cm^3
# Si number density = 17.863358 Si / 1000 Ang^3
#
#
#
# Elastic Constant Matrix: (Units=GPa)
#
#
# Indices 1 2 3 4 5 6 
#
# 1 88.8832 76.4519 34.7418 0.0000 0.0000 0.0000
# 2 76.4519 190.2526 59.2186 0.0000 0.0000 0.0000
# 3 34.7418 59.2186 46.1956 0.0000 0.0000 0.0000
# 4 0.0000 0.0000 0.0000 28.2362 0.0000 0.0000
# 5 0.0000 0.0000 0.0000 0.0000 27.8296 0.0000
# 6 0.0000 0.0000 0.0000 0.0000 0.0000 31.3338
#
#
#
# Elastic Compliance Matrix: (Units=1/GPa)
#
#
# Indices 1 2 3 4 5 6 
#
# 1 0.018571 -0.005184 -0.007321 0.000000 0.000000 0.000000
# 2 -0.005184 0.010193 -0.009168 0.000000 0.000000 0.000000
# 3 -0.007321 -0.009168 0.038905 0.000000 0.000000 0.000000
# 4 0.000000 0.000000 0.000000 0.035416 0.000000 0.000000
# 5 0.000000 0.000000 0.000000 0.000000 0.035933 0.000000
# 6 0.000000 0.000000 0.000000 0.000000 0.000000 0.031914
#
#
# Mechanical properties :
#
#
# Convention : Reuss Voigt Hill
#
# Bulk Modulus (GPa) = 41.11258 74.01735 57.56496
# Shear Modulus (GPa) = 22.48337 27.80785 25.14561
#
# Velocity S-wave (km/s) = 3.55157 3.94978 3.75596
# Velocity P-wave (km/s) = 6.31531 7.89470 7.14876
#
# Compressibility (1/GPa) = 0.02432346
#
# Stress axis : x y z
#
# Youngs Moduli (GPa) = 53.84641 98.10792 25.70335
#
# Poissons Ratio (x) = 0.50858 0.18819
# Poissons Ratio (y) = 0.27913 0.23564
# Poissons Ratio (z) = 0.39424 0.89943
#
# Static dielectric constant tensor:
#      x y z
#    x 3.382970 0.000000 0.000000 
#    y 0.000000 3.767160 0.000000 
#    z 0.000000 0.000000 2.813500 
# 
# 
# High freq. dielectric constant tensor:
#      x y z
#    x 1.705720 0.000000 0.000000 
#    y 0.000000 1.714870 0.000000 
#    z 0.000000 0.000000 1.632020 
# 
# From -- ./inp_files/2668.got.cif
#   From: 2010.03.12/outbox.cif.g09.slc.cpg/sg36_2_cif.got.tgz:2668.got - 2010.04.14 02:13:53.
