data_PCOD8174599
_publ_section_title
;
Structure prediction by ZEFSAII (Michael W. Deem and Ramdas Pophale) SiO2 
 PCOD8174599
Probable space group: C M C 21
;
_chemical_formula_sum "Si O2"
_cell_formula_units_Z 64
_cell_length_a 8.904694
_cell_length_b 19.971155
_cell_length_c 19.997390
_cell_angle_alpha 90.000000
_cell_angle_beta 90.000000
_cell_angle_gamma 90.000000
_cell_volume 3556.276327
_symmetry_space_group_name_H-M "C M C 21"
_symmetry_group_IT_number 36
_symmetry_cell_setting 'orthorhombic'
loop_
_space_group_symop_operation_xyz
x,y,z
-x,-y,1/2+z
x,-y,1/2+z
-x,y,z
1/2+x,1/2+y,z
1/2-x,1/2-y,1/2+z
1/2+x,1/2-y,1/2+z
1/2-x,1/2+y,z
loop_
_atom_site_type_symbol
_atom_site_label
_atom_site_fract_x
_atom_site_fract_y
_atom_site_fract_z
Si Si1 0.178117 0.227557 0.122330
Si Si2 0.325920 0.441845 0.469897
Si Si3 0.177396 0.277504 0.978020
Si Si4 0.177452 0.171120 0.872635
Si Si5 0.676090 0.669898 0.722643
Si Si6 0.328010 0.411251 0.996404
Si Si7 0.826345 0.041527 0.641396
Si Si8 0.677274 0.910198 0.608482
O O1 0.229624 0.280576 0.177087
O O2 0.250695 0.156247 0.140176
O O3 0.000000 0.221033 0.123815
O O4 0.236949 0.251566 0.049623
O O5 0.500000 0.427807 0.488581
O O6 0.276586 0.400396 0.404590
O O7 0.300730 0.520396 0.454792
O O8 0.228122 0.417556 0.532031
O O9 0.242865 0.230263 0.919345
O O10 0.000000 0.275446 0.977259
O O11 0.230160 0.352885 0.963585
O O12 0.240894 0.176976 0.797728
O O13 0.000000 0.176568 0.868531
O O14 0.500000 0.687580 0.716534
O O15 0.704112 0.592918 0.701382
O O16 0.500000 0.388376 0.993675
O O17 0.276277 0.422664 0.072673
O O18 0.000000 0.020366 0.636033
O O19 0.730780 0.974069 0.652170
O O20 0.500000 0.904482 0.612465
#
# Coordination Sequence:
#
# PCOD8174599 Si02
#       8
#     8   8   8   8   8   8   8   8
#     4  11  21  35  55  79 111 147 181 225 275 324
#     4   9  17  34  54  76 106 141 177 217 270 324
#     4  10  19  32  53  78 106 142 178 217 267 322
#     4   9  18  35  57  78 105 145 185 219 268 330
#     4  10  20  36  58  81 108 145 186 225 270 328
#     4   9  17  29  50  77 106 135 172 223 264 305
#     4   9  18  33  52  77 108 140 174 220 272 322
#     4  11  21  32  53  82 108 137 179 228 270 317
#
# _framework density 17.996352999999999
#
# number of rings (size 3 to 8) (size 9 to 14) (size 15 to 20)
#    0.000    2.250    2.500    2.250    0.000    3.000 
#    0.000    2.500    0.000    1.500    0.000    0.000 
#    0.000    0.000    0.000    0.000    0.000    0.000 
#
# Total GULP energy -396796.077529 kJ/mol
# GULP energy per Si atom -12399.877423 kJ/mol
# Density = 1.795539 g / cm^3
# Si number density = 17.996353 Si / 1000 Ang^3
#
#
#
# Elastic Constant Matrix: (Units=GPa)
#
#
# Indices 1 2 3 4 5 6 
#
# 1 59.7184 44.3441 30.0273 0.0000 0.0000 0.0000
# 2 44.3441 130.5180 54.9414 0.0000 0.0000 0.0000
# 3 30.0273 54.9414 108.0066 0.0000 0.0000 0.0000
# 4 0.0000 0.0000 0.0000 27.4191 0.0000 0.0000
# 5 0.0000 0.0000 0.0000 0.0000 17.7456 0.0000
# 6 0.0000 0.0000 0.0000 0.0000 0.0000 32.1650
#
#
#
# Elastic Compliance Matrix: (Units=1/GPa)
#
#
# Indices 1 2 3 4 5 6 
#
# 1 0.023185 -0.006571 -0.003103 0.000000 0.000000 0.000000
# 2 -0.006571 0.011612 -0.004080 0.000000 0.000000 0.000000
# 3 -0.003103 -0.004080 0.012197 0.000000 0.000000 0.000000
# 4 0.000000 0.000000 0.000000 0.036471 0.000000 0.000000
# 5 0.000000 0.000000 0.000000 0.000000 0.056352 0.000000
# 6 0.000000 0.000000 0.000000 0.000000 0.000000 0.031090
#
#
# Mechanical properties :
#
#
# Convention : Reuss Voigt Hill
#
# Bulk Modulus (GPa) = 51.32054 61.87430 56.59742
# Shear Modulus (GPa) = 24.40109 26.72796 25.56453
#
# Velocity S-wave (km/s) = 3.68624 3.85799 3.77309
# Velocity P-wave (km/s) = 6.83351 7.36897 7.10629
#
# Compressibility (1/GPa) = 0.01948537
#
# Stress axis : x y z
#
# Youngs Moduli (GPa) = 43.13171 86.12010 81.98865
#
# Poissons Ratio (x) = 0.56588 0.25443
# Poissons Ratio (y) = 0.28341 0.33451
# Poissons Ratio (z) = 0.13385 0.35136
#
# Static dielectric constant tensor:
#      x y z
#    x 3.094950 0.000000 0.000000 
#    y 0.000000 3.525220 0.000000 
#    z 0.000000 0.000000 3.291660 
# 
# 
# High freq. dielectric constant tensor:
#      x y z
#    x 1.677690 0.000000 0.000000 
#    y 0.000000 1.711970 0.000000 
#    z 0.000000 0.000000 1.668810 
# 
# From -- ./inp_files/13914.got.cif
#   From: 2010.03.12/outbox.cif.g09.slc.cpg/sg36_7_cif.got.tgz:13914.got - 2010.04.14 02:13:53.
