data_PCOD8174292
_publ_section_title
;
Structure prediction by ZEFSAII (Michael W. Deem and Ramdas Pophale) SiO2 
 PCOD8174292
Probable space group: C M C 21
;
_chemical_formula_sum "Si O2"
_cell_formula_units_Z 56
_cell_length_a 29.757699
_cell_length_b 17.850334
_cell_length_c 5.048648
_cell_angle_alpha 90.000000
_cell_angle_beta 90.000000
_cell_angle_gamma 90.000000
_cell_volume 2681.765412
_symmetry_space_group_name_H-M "C M C 21"
_symmetry_group_IT_number 36
_symmetry_cell_setting 'orthorhombic'
loop_
_space_group_symop_operation_xyz
x,y,z
-x,-y,1/2+z
x,-y,1/2+z
-x,y,z
1/2+x,1/2+y,z
1/2-x,1/2-y,1/2+z
1/2+x,1/2-y,1/2+z
1/2-x,1/2+y,z
loop_
_atom_site_type_symbol
_atom_site_label
_atom_site_fract_x
_atom_site_fract_y
_atom_site_fract_z
Si Si1 0.733186 0.710074 0.625000
Si Si2 0.500000 0.927170 0.481392
Si Si3 0.405035 0.791784 0.119381
Si Si4 0.403928 0.960109 0.317032
Si Si5 0.870103 0.213125 0.625752
Si Si6 0.128321 0.044684 0.700722
Si Si7 0.500000 0.171104 0.496393
Si Si8 0.764646 0.956768 0.193354
O O1 0.763060 0.753792 0.413886
O O2 0.681540 0.710180 0.531481
O O3 0.753296 0.626528 0.642841
O O4 0.456874 0.975174 0.385130
O O5 0.500000 0.853698 0.301579
O O6 0.500000 0.896932 0.783768
O O7 0.394590 0.876769 0.212656
O O8 0.399835 0.741418 0.379952
O O9 0.453952 0.781553 0.979100
O O10 0.371862 0.766223 0.884774
O O11 0.382946 0.980981 0.603823
O O12 0.888401 0.130449 0.697838
O O13 0.181864 0.044067 0.698989
O O14 0.108994 0.997627 0.455681
O O15 0.745727 0.987668 0.469360
#
# Coordination Sequence:
#
# PCOD8174292 Si02
#       8
#     8   4   8   8   8   8   4   8
#     4  11  22  37  59  85 114 147 186 231 283 339
#     4  10  18  31  50  78 106 135 185 246 297 323
#     4  11  22  37  56  82 114 149 191 232 280 342
#     4  11  20  32  51  75 106 147 191 242 285 319
#     4  11  22  37  59  85 114 149 183 229 286 342
#     4   9  17  31  53  83 109 131 169 227 285 329
#     4  10  20  35  54  80 112 145 181 230 283 335
#     4   9  17  31  53  79 108 136 172 227 281 319
#
# _framework density 20.881767
#
# number of rings (size 3 to 8) (size 9 to 14) (size 15 to 20)
#    0.000    1.714    0.000    7.286    0.000    4.571 
#    0.000    0.000    0.000   17.143    0.000   10.000 
#    0.000    0.000    0.000    0.000    0.000    0.000 
#
# Total GULP energy -347024.447418 kJ/mol
# GULP energy per Si atom -12393.730265 kJ/mol
# Density = 2.083424 g / cm^3
# Si number density = 20.881767 Si / 1000 Ang^3
#
#
#
# Elastic Constant Matrix: (Units=GPa)
#
#
# Indices 1 2 3 4 5 6 
#
# 1 27.3035 16.4197 6.5861 0.0000 0.0000 0.0000
# 2 16.4197 109.6875 32.7708 0.0000 0.0000 0.0000
# 3 6.5861 32.7708 123.7983 0.0000 0.0000 0.0000
# 4 0.0000 0.0000 0.0000 49.1259 0.0000 0.0000
# 5 0.0000 0.0000 0.0000 0.0000 23.8874 0.0000
# 6 0.0000 0.0000 0.0000 0.0000 0.0000 23.5541
#
#
#
# Elastic Compliance Matrix: (Units=1/GPa)
#
#
# Indices 1 2 3 4 5 6 
#
# 1 0.040289 -0.005854 -0.000594 0.000000 0.000000 0.000000
# 2 -0.005854 0.010750 -0.002534 0.000000 0.000000 0.000000
# 3 -0.000594 -0.002534 0.008780 0.000000 0.000000 0.000000
# 4 0.000000 0.000000 0.000000 0.020356 0.000000 0.000000
# 5 0.000000 0.000000 0.000000 0.000000 0.041863 0.000000
# 6 0.000000 0.000000 0.000000 0.000000 0.000000 0.042455
#
#
# Mechanical properties :
#
#
# Convention : Reuss Voigt Hill
#
# Bulk Modulus (GPa) = 23.89166 41.37139 32.63153
# Shear Modulus (GPa) = 25.45709 32.98099 29.21904
#
# Velocity S-wave (km/s) = 3.49536 3.97850 3.74473
# Velocity P-wave (km/s) = 5.26842 6.39999 5.86157
#
# Compressibility (1/GPa) = 0.04185561
#
# Stress axis : x y z
#
# Youngs Moduli (GPa) = 24.82078 93.02125 113.89382
#
# Poissons Ratio (x) = 0.54451 0.06764
# Poissons Ratio (y) = 0.14529 0.28864
# Poissons Ratio (z) = 0.01474 0.23574
#
# Static dielectric constant tensor:
#      x y z
#    x 3.613620 0.000000 0.000000 
#    y 0.000000 3.816800 0.000000 
#    z 0.000000 0.000000 4.052580 
# 
# 
# High freq. dielectric constant tensor:
#      x y z
#    x 1.762280 0.000000 0.000000 
#    y 0.000000 1.817260 0.000000 
#    z 0.000000 0.000000 1.843890 
# 
# From -- ./inp_files/1868.got.cif
#   From: 2010.03.12/outbox.cif.g09.slc.cpg/sg36_1_cif.got.tgz:1868.got - 2010.04.14 02:13:53.
