data_PCOD8174052
_publ_section_title
;
Structure prediction by ZEFSAII (Michael W. Deem and Ramdas Pophale) SiO2 
 PCOD8174052
Probable space group: C M M 2
;
_chemical_formula_sum "Si O2"
_cell_formula_units_Z 40
_cell_length_a 22.637365
_cell_length_b 8.832783
_cell_length_c 9.980987
_cell_angle_alpha 90.000000
_cell_angle_beta 90.000000
_cell_angle_gamma 90.000000
_cell_volume 1995.707660
_symmetry_space_group_name_H-M "C M M 2"
_symmetry_group_IT_number 35
_symmetry_cell_setting 'orthorhombic'
loop_
_space_group_symop_operation_xyz
x,y,z
-x,-y,z
-x,y,z
x,-y,z
1/2+x,1/2+y,z
1/2-x,1/2-y,z
1/2-x,1/2+y,z
1/2+x,1/2-y,z
loop_
_atom_site_type_symbol
_atom_site_label
_atom_site_fract_x
_atom_site_fract_y
_atom_site_fract_z
Si Si1 0.383868 0.826144 0.226750
Si Si2 0.186183 0.321462 0.486351
Si Si3 0.877451 0.820134 0.728504
Si Si4 0.000000 0.177761 0.156424
Si Si5 0.189801 0.676556 0.966461
Si Si6 0.500000 0.679624 0.853983
O O1 0.336104 0.777674 0.338041
O O2 0.443163 0.729407 0.240396
O O3 0.401178 0.000000 0.246686
O O4 0.357967 0.794508 0.080773
O O5 0.191387 0.500000 0.507703
O O6 0.250000 0.250000 0.512150
O O7 0.137546 0.253926 0.586636
O O8 0.829055 0.763708 0.833472
O O9 0.942239 0.763207 0.774449
O O10 0.874496 0.000000 0.717118
O O11 0.000000 0.247209 0.005238
O O12 0.000000 0.000000 0.147451
O O13 0.198392 0.500000 0.935328
O O14 0.250000 0.750000 0.018704
O O15 0.500000 0.500000 0.862753
#
# Coordination Sequence:
#
# PCOD8174052 Si02
#       6
#     8   8   8   4   8   4
#     4  10  23  41  62  89 124 161 201 251 306 363
#     4  11  24  43  63  89 124 163 206 251 305 363
#     4  11  22  40  63  89 123 160 202 252 304 360
#     4  11  21  38  65  94 124 160 203 251 304 359
#     4  11  22  37  59  88 118 157 204 252 306 361
#     4   9  20  38  61  90 122 156 199 251 298 353
#
# _framework density 20.043016000000001
#
# number of rings (size 3 to 8) (size 9 to 14) (size 15 to 20)
#    0.000    1.400    2.000    3.300    0.000    3.200 
#    0.000    4.000    0.000    0.000    0.000    0.000 
#    0.000    0.000    0.000    0.000    0.000    0.000 
#
# Total GULP energy -248106.391148 kJ/mol
# GULP energy per Si atom -12405.319557 kJ/mol
# Density = 1.999740 g / cm^3
# Si number density = 20.043016 Si / 1000 Ang^3
#
#
#
# Elastic Constant Matrix: (Units=GPa)
#
#
# Indices 1 2 3 4 5 6 
#
# 1 122.0431 45.1557 20.6088 0.0000 0.0000 0.0000
# 2 45.1557 83.6575 37.2167 0.0000 0.0000 0.0000
# 3 20.6088 37.2167 86.1024 0.0000 0.0000 0.0000
# 4 0.0000 0.0000 0.0000 30.3145 0.0000 0.0000
# 5 0.0000 0.0000 0.0000 0.0000 31.4771 0.0000
# 6 0.0000 0.0000 0.0000 0.0000 0.0000 33.0329
#
#
#
# Elastic Compliance Matrix: (Units=1/GPa)
#
#
# Indices 1 2 3 4 5 6 
#
# 1 0.010239 -0.005493 -0.000077 0.000000 0.000000 0.000000
# 2 -0.005493 0.017746 -0.006356 0.000000 0.000000 0.000000
# 3 -0.000077 -0.006356 0.014380 0.000000 0.000000 0.000000
# 4 0.000000 0.000000 0.000000 0.032988 0.000000 0.000000
# 5 0.000000 0.000000 0.000000 0.000000 0.031769 0.000000
# 6 0.000000 0.000000 0.000000 0.000000 0.000000 0.030273
#
#
# Mechanical properties :
#
#
# Convention : Reuss Voigt Hill
#
# Bulk Modulus (GPa) = 54.01184 55.30726 54.65955
# Shear Modulus (GPa) = 29.86589 31.55303 30.70946
#
# Velocity S-wave (km/s) = 3.86436 3.97201 3.91855
# Velocity P-wave (km/s) = 6.84963 6.97782 6.91402
#
# Compressibility (1/GPa) = 0.01851446
#
# Stress axis : x y z
#
# Youngs Moduli (GPa) = 97.66560 56.35173 69.54304
#
# Poissons Ratio (x) = 0.30952 0.00533
# Poissons Ratio (y) = 0.53644 0.44199
# Poissons Ratio (z) = 0.00748 0.35815
#
# Static dielectric constant tensor:
#      x y z
#    x 3.685390 0.000000 0.000000 
#    y 0.000000 3.583400 0.000000 
#    z 0.000000 0.000000 3.692070 
# 
# 
# High freq. dielectric constant tensor:
#      x y z
#    x 1.793860 0.000000 0.000000 
#    y 0.000000 1.780480 0.000000 
#    z 0.000000 0.000000 1.784480 
# 
# From -- ./inp_files/13816.got.cif
#   From: 2010.03.12/outbox.cif.g09.slc.cpg/sg35_7_cif.got.tgz:13816.got - 2010.04.14 02:02:04.
