data_PCOD8174419
_publ_section_title
;
Structure prediction by ZEFSAII (Michael W. Deem and Ramdas Pophale) SiO2 
 PCOD8174419
Probable space group: C M C 21
;
_chemical_formula_sum "Si O2"
_cell_formula_units_Z 36
_cell_length_a 7.683749
_cell_length_b 14.081413
_cell_length_c 17.297756
_cell_angle_alpha 90.000000
_cell_angle_beta 90.000000
_cell_angle_gamma 90.000000
_cell_volume 1871.583348
_symmetry_space_group_name_H-M "C M C 21"
_symmetry_group_IT_number 36
_symmetry_cell_setting 'orthorhombic'
loop_
_space_group_symop_operation_xyz
x,y,z
-x,-y,1/2+z
x,-y,1/2+z
-x,y,z
1/2+x,1/2+y,z
1/2-x,1/2-y,1/2+z
1/2+x,1/2-y,1/2+z
1/2-x,1/2+y,z
loop_
_atom_site_type_symbol
_atom_site_label
_atom_site_fract_x
_atom_site_fract_y
_atom_site_fract_z
Si Si1 0.000000 0.280701 0.434830
Si Si2 0.694422 0.713501 0.833039
Si Si3 0.500000 0.990900 0.448124
Si Si4 0.193165 0.989822 0.848708
Si Si5 0.700773 0.647675 0.210210
Si Si6 0.500000 0.128403 0.088750
O O1 0.176852 0.237954 0.397235
O O2 0.000000 0.281545 0.528577
O O3 0.000000 0.389371 0.404624
O O4 0.500000 0.749077 0.853130
O O5 0.699186 0.600658 0.829540
O O6 0.753927 0.751368 0.749121
O O7 0.675641 0.041923 0.417594
O O8 0.500000 0.971843 0.540713
O O9 0.000000 0.959802 0.876708
O O10 0.244051 0.935639 0.770547
O O11 0.500000 0.645203 0.182721
O O12 0.823056 0.632746 0.136553
#
# Coordination Sequence:
#
# PCOD8174419 Si02
#       6
#     4   8   4   8   8   4
#     4   8  18  34  54  77 107 145 183 229 275 330
#     4  10  18  34  59  82 106 148 194 228 270 339
#     4   8  17  33  56  74 108 141 184 220 284 322
#     4   9  19  34  57  83 104 145 189 229 271 339
#     4  11  21  34  58  87 114 144 189 233 284 333
#     4  10  21  35  56  85 117 146 183 241 295 320
#
# _framework density 19.235050000000001
#
# number of rings (size 3 to 8) (size 9 to 14) (size 15 to 20)
#    0.667    1.778    2.222    0.667    0.000    1.778 
#    0.000    0.000    4.889    0.000    0.000    0.000 
#    0.000    0.000    0.000    0.000    0.000    0.000 
#
# Total GULP energy -223007.237302 kJ/mol
# GULP energy per Si atom -12389.290961 kJ/mol
# Density = 1.919127 g / cm^3
# Si number density = 19.235050 Si / 1000 Ang^3
#
#
#
# Elastic Constant Matrix: (Units=GPa)
#
#
# Indices 1 2 3 4 5 6 
#
# 1 157.2822 10.1092 71.1320 0.0000 0.0000 0.0000
# 2 10.1092 15.3643 -0.4470 0.0000 0.0000 0.0000
# 3 71.1320 -0.4470 115.6334 0.0000 0.0000 0.0000
# 4 0.0000 0.0000 0.0000 20.8131 0.0000 0.0000
# 5 0.0000 0.0000 0.0000 0.0000 39.5761 0.0000
# 6 0.0000 0.0000 0.0000 0.0000 0.0000 21.2324
#
#
#
# Elastic Compliance Matrix: (Units=1/GPa)
#
#
# Indices 1 2 3 4 5 6 
#
# 1 0.009389 -0.006346 -0.005800 0.000000 0.000000 0.000000
# 2 -0.006346 0.069383 0.004172 0.000000 0.000000 0.000000
# 3 -0.005800 0.004172 0.012232 0.000000 0.000000 0.000000
# 4 0.000000 0.000000 0.000000 0.048047 0.000000 0.000000
# 5 0.000000 0.000000 0.000000 0.000000 0.025268 0.000000
# 6 0.000000 0.000000 0.000000 0.000000 0.000000 0.047098
#
#
# Mechanical properties :
#
#
# Convention : Reuss Voigt Hill
#
# Bulk Modulus (GPa) = 13.32349 49.98534 31.65442
# Shear Modulus (GPa) = 19.81108 30.15670 24.98389
#
# Velocity S-wave (km/s) = 3.21276 3.96384 3.60790
# Velocity P-wave (km/s) = 4.55018 6.85510 5.81793
#
# Compressibility (1/GPa) = 0.07505539
#
# Stress axis : x y z
#
# Youngs Moduli (GPa) = 106.50627 14.41275 81.75153
#
# Poissons Ratio (x) = 0.09147 0.47418
# Poissons Ratio (y) = 0.67594 -0.34109
# Poissons Ratio (z) = 0.61776 -0.06013
#
# Static dielectric constant tensor:
#      x y z
#    x 3.999320 0.000000 0.000000 
#    y 0.000000 3.327670 0.000000 
#    z 0.000000 0.000000 3.181470 
# 
# 
# High freq. dielectric constant tensor:
#      x y z
#    x 1.776370 0.000000 0.000000 
#    y 0.000000 1.731250 0.000000 
#    z 0.000000 0.000000 1.714480 
# 
# From -- ./inp_files/10203.got.cif
#   From: 2010.03.12/outbox.cif.g09.slc.cpg/sg36_6_cif.got.tgz:10203.got - 2010.04.14 02:13:53.
