data_PCOD8174340
_publ_section_title
;
Structure prediction by ZEFSAII (Michael W. Deem and Ramdas Pophale) SiO2 
 PCOD8174340
Probable space group: C M C 21
;
_chemical_formula_sum "Si O2"
_cell_formula_units_Z 44
_cell_length_a 26.388840
_cell_length_b 16.128909
_cell_length_c 5.233670
_cell_angle_alpha 90.000000
_cell_angle_beta 90.000000
_cell_angle_gamma 90.000000
_cell_volume 2227.571368
_symmetry_space_group_name_H-M "C M C 21"
_symmetry_group_IT_number 36
_symmetry_cell_setting 'orthorhombic'
loop_
_space_group_symop_operation_xyz
x,y,z
-x,-y,1/2+z
x,-y,1/2+z
-x,y,z
1/2+x,1/2+y,z
1/2-x,1/2-y,1/2+z
1/2+x,1/2-y,1/2+z
1/2-x,1/2+y,z
loop_
_atom_site_type_symbol
_atom_site_label
_atom_site_fract_x
_atom_site_fract_y
_atom_site_fract_z
Si Si1 0.189919 0.699418 0.685430
Si Si2 0.058379 0.085900 0.120238
Si Si3 0.305159 0.695282 0.685183
Si Si4 0.100704 0.904333 0.120239
Si Si5 0.500000 0.949636 0.217324
Si Si6 0.890550 0.445057 0.133199
O O1 0.247345 0.664878 0.669431
O O2 0.181481 0.764142 0.456959
O O3 0.151941 0.623882 0.658608
O O4 0.181293 0.741040 0.959648
O O5 0.069085 0.135196 0.857762
O O6 0.000000 0.062617 0.156380
O O7 0.091223 0.002093 0.090190
O O8 0.078676 0.138384 0.361823
O O9 0.339859 0.613897 0.652124
O O10 0.446847 0.902239 0.157850
O O11 0.500000 0.973122 0.517268
O O12 0.884020 0.512706 0.356950
#
# Coordination Sequence:
#
# PCOD8174340 Si02
#       6
#     8   8   8   8   4   8
#     4  10  21  38  56  77 111 143 186 209 274 325
#     4  10  19  33  55  78 110 146 180 221 269 309
#     4  10  21  37  56  75 108 158 173 218 262 323
#     4  10  18  32  52  78 100 142 190 217 259 310
#     4   8  16  30  54  76 104 132 160 204 278 322
#     4  10  19  35  58  86 105 135 173 227 268 316
#
# _framework density 19.752455000000001
#
# number of rings (size 3 to 8) (size 9 to 14) (size 15 to 20)
#    0.000    2.182    0.000    4.909    0.000    0.000 
#    6.545    0.000   16.000    0.000    0.000    0.000 
#    0.000    0.000    0.000    0.000    0.000    0.000 
#
# Total GULP energy -272585.511360 kJ/mol
# GULP energy per Si atom -12390.250516 kJ/mol
# Density = 1.970750 g / cm^3
# Si number density = 19.752455 Si / 1000 Ang^3
#
#
#
# Elastic Constant Matrix: (Units=GPa)
#
#
# Indices 1 2 3 4 5 6 
#
# 1 138.6789 43.9853 6.2124 0.0000 0.0000 0.0000
# 2 43.9853 27.7090 -9.5973 0.0000 0.0000 0.0000
# 3 6.2124 -9.5973 130.5841 0.0000 0.0000 0.0000
# 4 0.0000 0.0000 0.0000 14.1212 0.0000 0.0000
# 5 0.0000 0.0000 0.0000 0.0000 28.1098 0.0000
# 6 0.0000 0.0000 0.0000 0.0000 0.0000 -4.6772
#
#
#
# Elastic Compliance Matrix: (Units=1/GPa)
#
#
# Indices 1 2 3 4 5 6 
#
# 1 0.015328 -0.025226 -0.002583 0.000000 0.000000 0.000000
# 2 -0.025226 0.078548 0.006973 0.000000 0.000000 0.000000
# 3 -0.002583 0.006973 0.008293 0.000000 0.000000 0.000000
# 4 0.000000 0.000000 0.000000 0.070815 0.000000 0.000000
# 5 0.000000 0.000000 0.000000 0.000000 0.035575 0.000000
# 6 0.000000 0.000000 0.000000 0.000000 0.000000 -0.213804
#
#
# Mechanical properties :
#
#
# Convention : Reuss Voigt Hill
#
# Bulk Modulus (GPa) = 16.52980 42.01920 29.27450
# Shear Modulus (GPa) = 88.35175 24.60220 56.47697
#
# Velocity S-wave (km/s) = 6.69527 3.53303 5.35299
# Velocity P-wave (km/s) = 8.25563 6.16134 7.28415
#
# Compressibility (1/GPa) = 0.06049681
#
# Stress axis : x y z
#
# Youngs Moduli (GPa) = 65.24205 12.73112 120.57971
#
# Poissons Ratio (x) = 0.32115 0.31148
# Poissons Ratio (y) = 1.64577 -0.84080
# Poissons Ratio (z) = 0.16853 -0.08877
#
# Static dielectric constant tensor:
#      x y z
#    x 3.873850 0.000000 0.000000 
#    y 0.000000 2.876990 0.000000 
#    z 0.000000 0.000000 5.005250 
# 
# 
# High freq. dielectric constant tensor:
#      x y z
#    x 1.785600 0.000000 0.000000 
#    y 0.000000 1.696070 0.000000 
#    z 0.000000 0.000000 1.814750 
# 
# From -- ./inp_files/1551.got.cif
#   From: 2010.03.12/outbox.cif.g09.slc.cpg/sg36_1_cif.got.tgz:1551.got - 2010.04.14 02:13:53.
