data_PCOD8174235
_publ_section_title
;
Structure prediction by ZEFSAII (Michael W. Deem and Ramdas Pophale) SiO2 
 PCOD8174235
Probable space group: C M C 21
;
_chemical_formula_sum "Si O2"
_cell_formula_units_Z 64
_cell_length_a 13.815392
_cell_length_b 25.696407
_cell_length_c 11.197488
_cell_angle_alpha 90.000000
_cell_angle_beta 90.000000
_cell_angle_gamma 90.000000
_cell_volume 3975.174705
_symmetry_space_group_name_H-M "C M C 21"
_symmetry_group_IT_number 36
_symmetry_cell_setting 'orthorhombic'
loop_
_space_group_symop_operation_xyz
x,y,z
-x,-y,1/2+z
x,-y,1/2+z
-x,y,z
1/2+x,1/2+y,z
1/2-x,1/2-y,1/2+z
1/2+x,1/2-y,1/2+z
1/2-x,1/2+y,z
loop_
_atom_site_type_symbol
_atom_site_label
_atom_site_fract_x
_atom_site_fract_y
_atom_site_fract_z
Si Si1 0.615445 0.442407 0.994810
Si Si2 0.107609 0.860088 0.170850
Si Si3 0.287992 0.345747 0.404634
Si Si4 0.605282 0.254589 0.057949
Si Si5 0.610843 0.384250 0.760409
Si Si6 0.388844 0.440095 0.517227
Si Si7 0.797034 0.212293 0.142742
Si Si8 0.389999 0.792311 0.310904
O O1 0.500000 0.440333 0.996014
O O2 0.652811 0.413373 0.876201
O O3 0.656225 0.411628 0.111781
O O4 0.650865 0.501672 0.998097
O O5 0.155407 0.833912 0.284684
O O6 0.111997 0.816376 0.069519
O O7 0.000000 0.875100 0.209328
O O8 0.313608 0.404160 0.444779
O O9 0.324207 0.304693 0.506306
O O10 0.175728 0.340021 0.362222
O O11 0.500000 0.233455 0.099514
O O12 0.682343 0.223434 0.139046
O O13 0.617382 0.249820 0.915871
O O14 0.500000 0.364435 0.775933
O O15 0.615410 0.426995 0.656297
O O16 0.679273 0.335248 0.730841
O O17 0.500000 0.433546 0.470246
O O18 0.852079 0.264494 0.188632
O O19 0.500000 0.812164 0.289620
#
# Coordination Sequence:
#
# PCOD8174235 Si02
#       8
#     8   8   8   8   8   8   8   8
#     4   9  18  29  46  69  96 131 160 194 243 292
#     4  10  18  29  45  69  98 128 157 192 239 288
#     4  10  20  31  46  71  99 128 162 201 242 287
#     4   9  18  31  47  69  96 125 162 199 235 284
#     4   9  17  29  44  66  94 126 164 197 232 288
#     4   9  18  30  45  68  99 128 157 196 244 296
#     4  10  18  31  48  67  95 128 164 198 237 285
#     4  10  19  32  50  69  93 128 167 203 235 282
#
# _framework density 16.099920999999998
#
# number of rings (size 3 to 8) (size 9 to 14) (size 15 to 20)
#    0.000    2.500    1.250    1.500    1.750    3.500 
#    0.000    0.000    0.000    0.000    0.000    1.750 
#    0.000    0.000    0.000    0.000    0.000    0.000 
#
# Total GULP energy -396433.159168 kJ/mol
# GULP energy per Si atom -12388.536224 kJ/mol
# Density = 1.606328 g / cm^3
# Si number density = 16.099921 Si / 1000 Ang^3
#
#
#
# Elastic Constant Matrix: (Units=GPa)
#
#
# Indices 1 2 3 4 5 6 
#
# 1 86.7830 48.2595 40.7269 0.0000 0.0000 0.0000
# 2 48.2595 84.1382 35.5235 0.0000 0.0000 0.0000
# 3 40.7269 35.5235 74.8836 0.0000 0.0000 0.0000
# 4 0.0000 0.0000 0.0000 24.1140 0.0000 0.0000
# 5 0.0000 0.0000 0.0000 0.0000 19.5993 0.0000
# 6 0.0000 0.0000 0.0000 0.0000 0.0000 19.4962
#
#
#
# Elastic Compliance Matrix: (Units=1/GPa)
#
#
# Indices 1 2 3 4 5 6 
#
# 1 0.019162 -0.008241 -0.006512 0.000000 0.000000 0.000000
# 2 -0.008241 0.018406 -0.004249 0.000000 0.000000 0.000000
# 3 -0.006512 -0.004249 0.018912 0.000000 0.000000 0.000000
# 4 0.000000 0.000000 0.000000 0.041470 0.000000 0.000000
# 5 0.000000 0.000000 0.000000 0.000000 0.051022 0.000000
# 6 0.000000 0.000000 0.000000 0.000000 0.000000 0.051292
#
#
# Mechanical properties :
#
#
# Convention : Reuss Voigt Hill
#
# Bulk Modulus (GPa) = 54.12938 54.98051 54.55494
# Shear Modulus (GPa) = 20.45590 20.72821 20.59205
#
# Velocity S-wave (km/s) = 3.56836 3.59203 3.58021
# Velocity P-wave (km/s) = 7.11839 7.17128 7.14488
#
# Compressibility (1/GPa) = 0.01847426
#
# Stress axis : x y z
#
# Youngs Moduli (GPa) = 52.18629 54.32890 52.87747
#
# Poissons Ratio (x) = 0.44775 0.34434
# Poissons Ratio (y) = 0.43009 0.22470
# Poissons Ratio (z) = 0.33984 0.23087
#
# Static dielectric constant tensor:
#      x y z
#    x 3.001460 0.000000 0.000000 
#    y 0.000000 3.029380 0.000000 
#    z 0.000000 0.000000 3.164560 
# 
# 
# High freq. dielectric constant tensor:
#      x y z
#    x 1.582600 0.000000 0.000000 
#    y 0.000000 1.607210 0.000000 
#    z 0.000000 0.000000 1.630270 
# 
# From -- ./inp_files/8011.got.cif
#   From: 2010.03.12/outbox.cif.g09.slc.cpg/sg36_5_cif.got.tgz:8011.got - 2010.04.14 02:13:53.
