data_PCOD8174282
_publ_section_title
;
Structure prediction by ZEFSAII (Michael W. Deem and Ramdas Pophale) SiO2 
 PCOD8174282
Probable space group: C M C 21
;
_chemical_formula_sum "Si O2"
_cell_formula_units_Z 64
_cell_length_a 9.137979
_cell_length_b 22.581506
_cell_length_c 16.180795
_cell_angle_alpha 90.000000
_cell_angle_beta 90.000000
_cell_angle_gamma 90.000000
_cell_volume 3338.896169
_symmetry_space_group_name_H-M "C M C 21"
_symmetry_group_IT_number 36
_symmetry_cell_setting 'orthorhombic'
loop_
_space_group_symop_operation_xyz
x,y,z
-x,-y,1/2+z
x,-y,1/2+z
-x,y,z
1/2+x,1/2+y,z
1/2-x,1/2-y,1/2+z
1/2+x,1/2-y,1/2+z
1/2-x,1/2+y,z
loop_
_atom_site_type_symbol
_atom_site_label
_atom_site_fract_x
_atom_site_fract_y
_atom_site_fract_z
Si Si1 0.333153 0.414567 0.017810
Si Si2 0.339015 0.371086 0.595039
Si Si3 0.665856 0.691442 0.406135
Si Si4 0.327905 0.726264 0.220559
Si Si5 0.827756 0.535695 0.999035
Si Si6 0.160157 0.796413 0.432586
Si Si7 0.327437 0.109737 0.840024
Si Si8 0.172317 0.850973 0.188630
O O1 0.500000 0.437611 0.023766
O O2 0.293022 0.375152 0.097382
O O3 0.309344 0.375768 0.935171
O O4 0.225489 0.469236 0.008361
O O5 0.500000 0.393677 0.623967
O O6 0.269907 0.327017 0.662365
O O7 0.236141 0.427024 0.576080
O O8 0.357776 0.335279 0.512030
O O9 0.500000 0.710478 0.425810
O O10 0.705834 0.700557 0.310757
O O11 0.774743 0.732957 0.458684
O O12 0.500000 0.738259 0.206038
O O13 0.241558 0.786037 0.199672
O O14 0.780175 0.561164 0.908724
O O15 0.000000 0.538551 0.007312
O O16 0.276508 0.825133 0.369411
O O17 0.000000 0.789773 0.390145
O O18 0.500000 0.109992 0.824779
O O19 0.243757 0.101189 0.752812
O O20 0.000000 0.847039 0.204995
#
# Coordination Sequence:
#
# PCOD8174282 Si02
#       8
#     8   8   8   8   8   8   8   8
#     4  10  23  41  58  81 116 157 195 236 285 344
#     4   9  19  35  56  82 113 148 184 226 279 338
#     4  10  20  35  55  80 115 153 185 225 282 341
#     4  10  20  35  57  86 119 151 184 227 284 345
#     4  10  22  40  61  83 109 148 196 240 285 337
#     4  10  18  30  53  83 112 144 183 226 276 334
#     4  10  20  36  58  83 113 148 187 235 286 337
#     4  11  22  36  58  88 117 149 192 237 287 342
#
# _framework density 19.168012000000001
#
# number of rings (size 3 to 8) (size 9 to 14) (size 15 to 20)
#    0.000    2.000    1.250    2.250    0.000    4.000 
#    2.250    0.000    0.000    0.000    0.000    0.000 
#    0.000    0.000    0.000    0.000    0.000    0.000 
#
# Total GULP energy -396689.422670 kJ/mol
# GULP energy per Si atom -12396.544458 kJ/mol
# Density = 1.912438 g / cm^3
# Si number density = 19.168012 Si / 1000 Ang^3
#
#
#
# Elastic Constant Matrix: (Units=GPa)
#
#
# Indices 1 2 3 4 5 6 
#
# 1 88.9304 57.1111 43.1633 0.0000 0.0000 0.0000
# 2 57.1111 112.7427 50.6608 0.0000 0.0000 0.0000
# 3 43.1633 50.6608 82.0979 0.0000 0.0000 0.0000
# 4 0.0000 0.0000 0.0000 22.6534 0.0000 0.0000
# 5 0.0000 0.0000 0.0000 0.0000 23.4471 0.0000
# 6 0.0000 0.0000 0.0000 0.0000 0.0000 28.0751
#
#
#
# Elastic Compliance Matrix: (Units=1/GPa)
#
#
# Indices 1 2 3 4 5 6 
#
# 1 0.018235 -0.006821 -0.005379 0.000000 0.000000 0.000000
# 2 -0.006821 0.014824 -0.005562 0.000000 0.000000 0.000000
# 3 -0.005379 -0.005562 0.018440 0.000000 0.000000 0.000000
# 4 0.000000 0.000000 0.000000 0.044143 0.000000 0.000000
# 5 0.000000 0.000000 0.000000 0.000000 0.042649 0.000000
# 6 0.000000 0.000000 0.000000 0.000000 0.000000 0.035619
#
#
# Mechanical properties :
#
#
# Convention : Reuss Voigt Hill
#
# Bulk Modulus (GPa) = 62.58486 65.07126 63.82806
# Shear Modulus (GPa) = 23.28201 23.69086 23.48643
#
# Velocity S-wave (km/s) = 3.48893 3.51943 3.50422
# Velocity P-wave (km/s) = 6.99655 7.10892 7.05296
#
# Compressibility (1/GPa) = 0.01597831
#
# Stress axis : x y z
#
# Youngs Moduli (GPa) = 54.83837 67.45890 54.22908
#
# Poissons Ratio (x) = 0.46010 0.29167
# Poissons Ratio (y) = 0.37403 0.30160
# Poissons Ratio (z) = 0.29495 0.37518
#
# Static dielectric constant tensor:
#      x y z
#    x 3.660070 0.000000 0.000000 
#    y 0.000000 3.499500 0.000000 
#    z 0.000000 0.000000 3.727310 
# 
# 
# High freq. dielectric constant tensor:
#      x y z
#    x 1.749060 0.000000 0.000000 
#    y 0.000000 1.731510 0.000000 
#    z 0.000000 0.000000 1.746760 
# 
# From -- ./inp_files/13943.got.cif
#   From: 2010.03.12/outbox.cif.g09.slc.cpg/sg36_7_cif.got.tgz:13943.got - 2010.04.14 02:13:53.
