data_PCOD8174277
_publ_section_title
;
Structure prediction by ZEFSAII (Michael W. Deem and Ramdas Pophale) SiO2 
 PCOD8174277
Probable space group: C M C 21
;
_chemical_formula_sum "Si O2"
_cell_formula_units_Z 64
_cell_length_a 9.765381
_cell_length_b 25.066505
_cell_length_c 14.224836
_cell_angle_alpha 90.000000
_cell_angle_beta 90.000000
_cell_angle_gamma 90.000000
_cell_volume 3482.011852
_symmetry_space_group_name_H-M "C M C 21"
_symmetry_group_IT_number 36
_symmetry_cell_setting 'orthorhombic'
loop_
_space_group_symop_operation_xyz
x,y,z
-x,-y,1/2+z
x,-y,1/2+z
-x,y,z
1/2+x,1/2+y,z
1/2-x,1/2-y,1/2+z
1/2+x,1/2-y,1/2+z
1/2-x,1/2+y,z
loop_
_atom_site_type_symbol
_atom_site_label
_atom_site_fract_x
_atom_site_fract_y
_atom_site_fract_z
Si Si1 0.153579 0.175578 0.560640
Si Si2 0.837633 0.442484 0.358905
Si Si3 0.337699 0.948288 0.763228
Si Si4 0.662269 0.908905 0.563199
Si Si5 0.837475 0.292177 0.599794
Si Si6 0.656751 0.863727 0.914843
Si Si7 0.342695 0.762761 0.799021
Si Si8 0.345113 0.351036 0.278445
O O1 0.203989 0.237374 0.546226
O O2 0.250232 0.132962 0.507296
O O3 0.158222 0.158655 0.667875
O O4 0.000000 0.169986 0.520426
O O5 0.786644 0.496570 0.308978
O O6 0.794820 0.441587 0.469528
O O7 0.761424 0.396071 0.304633
O O8 0.000000 0.434384 0.348172
O O9 0.500000 0.947137 0.758844
O O10 0.278944 0.938252 0.657515
O O11 0.286702 0.901614 0.832645
O O12 0.500000 0.907514 0.572005
O O13 0.719577 0.847714 0.555179
O O14 0.775131 0.288133 0.705439
O O15 0.000000 0.296878 0.602952
O O16 0.500000 0.878264 0.940102
O O17 0.674078 0.802435 0.884930
O O18 0.500000 0.752726 0.771619
O O19 0.287813 0.703800 0.826324
O O20 0.500000 0.366137 0.311099
#
# Coordination Sequence:
#
# PCOD8174277 Si02
#       8
#     8   8   8   8   8   8   8   8
#     4   9  19  32  49  75 106 139 174 208 253 313
#     4  10  21  33  52  82 103 127 174 223 259 293
#     4   9  18  33  51  75 108 139 170 210 257 309
#     4   9  16  29  49  73 102 134 167 207 254 304
#     4   8  13  26  47  69  96 134 172 201 240 302
#     4  10  18  30  52  78 102 135 174 212 255 300
#     4   8  14  27  48  72  96 129 172 206 242 303
#     4   9  19  36  52  70 103 141 171 205 256 318
#
# _framework density 18.380178999999998
#
# number of rings (size 3 to 8) (size 9 to 14) (size 15 to 20)
#    0.000    3.000    1.250    1.500    1.750    1.500 
#    0.000    3.125    0.000    2.250    0.000    0.000 
#    0.000    0.000    0.000    0.000    0.000    0.000 
#
# Total GULP energy -396431.224006 kJ/mol
# GULP energy per Si atom -12388.475750 kJ/mol
# Density = 1.833835 g / cm^3
# Si number density = 18.380179 Si / 1000 Ang^3
#
#
#
# Elastic Constant Matrix: (Units=GPa)
#
#
# Indices 1 2 3 4 5 6 
#
# 1 31.4576 28.1025 23.6263 0.0000 0.0000 0.0000
# 2 28.1025 125.1378 58.8439 0.0000 0.0000 0.0000
# 3 23.6263 58.8439 79.0532 0.0000 0.0000 0.0000
# 4 0.0000 0.0000 0.0000 25.3268 0.0000 0.0000
# 5 0.0000 0.0000 0.0000 0.0000 21.1791 0.0000
# 6 0.0000 0.0000 0.0000 0.0000 0.0000 21.0832
#
#
#
# Elastic Compliance Matrix: (Units=1/GPa)
#
#
# Indices 1 2 3 4 5 6 
#
# 1 0.043409 -0.005612 -0.008796 0.000000 0.000000 0.000000
# 2 -0.005612 0.013020 -0.008014 0.000000 0.000000 0.000000
# 3 -0.008796 -0.008014 0.021244 0.000000 0.000000 0.000000
# 4 0.000000 0.000000 0.000000 0.039484 0.000000 0.000000
# 5 0.000000 0.000000 0.000000 0.000000 0.047216 0.000000
# 6 0.000000 0.000000 0.000000 0.000000 0.000000 0.047431
#
#
# Mechanical properties :
#
#
# Convention : Reuss Voigt Hill
#
# Bulk Modulus (GPa) = 30.46185 50.75490 40.60838
# Shear Modulus (GPa) = 18.68517 21.85620 20.27069
#
# Velocity S-wave (km/s) = 3.19187 3.45210 3.32453
# Velocity P-wave (km/s) = 5.49483 6.60024 6.07274
#
# Compressibility (1/GPa) = 0.03282794
#
# Stress axis : x y z
#
# Youngs Moduli (GPa) = 23.03688 76.80383 47.07210
#
# Poissons Ratio (x) = 0.43105 0.41404
# Poissons Ratio (y) = 0.12929 0.37725
# Poissons Ratio (z) = 0.20263 0.61553
#
# Static dielectric constant tensor:
#      x y z
#    x 2.889350 0.000000 0.000000 
#    y 0.000000 3.589160 0.000000 
#    z 0.000000 0.000000 3.438170 
# 
# 
# High freq. dielectric constant tensor:
#      x y z
#    x 1.650710 0.000000 0.000000 
#    y 0.000000 1.717330 0.000000 
#    z 0.000000 0.000000 1.714450 
# 
# From -- ./inp_files/8026.got.cif
#   From: 2010.03.12/outbox.cif.g09.slc.cpg/sg36_5_cif.got.tgz:8026.got - 2010.04.14 02:13:53.
