data_PCOD8174656
_publ_section_title
;
Structure prediction by ZEFSAII (Michael W. Deem and Ramdas Pophale) SiO2 
 PCOD8174656
Probable space group: C M C 21
;
_chemical_formula_sum "Si O2"
_cell_formula_units_Z 32
_cell_length_a 7.309535
_cell_length_b 18.053748
_cell_length_c 14.073226
_cell_angle_alpha 90.000000
_cell_angle_beta 90.000000
_cell_angle_gamma 90.000000
_cell_volume 1857.166273
_symmetry_space_group_name_H-M "C M C 21"
_symmetry_group_IT_number 36
_symmetry_cell_setting 'orthorhombic'
loop_
_space_group_symop_operation_xyz
x,y,z
-x,-y,1/2+z
x,-y,1/2+z
-x,y,z
1/2+x,1/2+y,z
1/2-x,1/2-y,1/2+z
1/2+x,1/2-y,1/2+z
1/2-x,1/2+y,z
loop_
_atom_site_type_symbol
_atom_site_label
_atom_site_fract_x
_atom_site_fract_y
_atom_site_fract_z
Si Si1 0.000000 0.715548 0.764200
Si Si2 0.500000 0.962890 0.055726
Si Si3 0.197672 0.799588 0.912288
Si Si4 0.783336 0.032490 0.401786
Si Si5 0.000000 0.460352 0.268403
Si Si6 0.000000 0.712164 0.551618
O O1 0.819501 0.747733 0.818295
O O2 0.000000 0.627913 0.768369
O O3 0.000000 0.747405 0.656592
O O4 0.500000 0.994612 0.162256
O O5 0.500000 0.875093 0.063534
O O6 0.316000 0.989790 0.000966
O O7 0.262329 0.881337 0.880823
O O8 0.000000 0.807874 0.962742
O O9 0.326175 0.761349 0.990309
O O10 0.000000 0.014629 0.405819
O O11 0.687005 0.986723 0.318066
#
# Coordination Sequence:
#
# PCOD8174656 Si02
#       6
#     4   4   8   8   4   4
#     4   9  19  35  50  79 105 123 173 216 246 296
#     4   8  17  31  52  75  98 136 171 199 245 311
#     4   8  17  34  53  73  99 132 173 202 239 309
#     4   9  17  33  55  71  97 136 171 202 244 302
#     4  10  19  33  52  77 105 126 165 217 256 285
#     4   9  15  33  54  71 100 141 165 200 253 302
#
# _framework density 17.230550000000001
#
# number of rings (size 3 to 8) (size 9 to 14) (size 15 to 20)
#    0.750    2.500    0.000    0.750    0.000    1.000 
#    4.500    7.500    0.000    0.000    0.000    0.000 
#    0.000    0.000    0.000    0.000    0.000    0.000 
#
# Total GULP energy -198209.003740 kJ/mol
# GULP energy per Si atom -12388.062734 kJ/mol
# Density = 1.719133 g / cm^3
# Si number density = 17.230550 Si / 1000 Ang^3
#
#
#
# Elastic Constant Matrix: (Units=GPa)
#
#
# Indices 1 2 3 4 5 6 
#
# 1 119.4618 24.2374 66.3391 0.0000 0.0000 0.0000
# 2 24.2374 49.5253 37.6282 0.0000 0.0000 0.0000
# 3 66.3391 37.6282 164.5124 0.0000 0.0000 0.0000
# 4 0.0000 0.0000 0.0000 24.7216 0.0000 0.0000
# 5 0.0000 0.0000 0.0000 0.0000 23.7888 0.0000
# 6 0.0000 0.0000 0.0000 0.0000 0.0000 11.6293
#
#
#
# Elastic Compliance Matrix: (Units=1/GPa)
#
#
# Indices 1 2 3 4 5 6 
#
# 1 0.011025 -0.002442 -0.003887 0.000000 0.000000 0.000000
# 2 -0.002442 0.024980 -0.004729 0.000000 0.000000 0.000000
# 3 -0.003887 -0.004729 0.008728 0.000000 0.000000 0.000000
# 4 0.000000 0.000000 0.000000 0.040450 0.000000 0.000000
# 5 0.000000 0.000000 0.000000 0.000000 0.042037 0.000000
# 6 0.000000 0.000000 0.000000 0.000000 0.000000 0.085990
#
#
# Mechanical properties :
#
#
# Convention : Reuss Voigt Hill
#
# Bulk Modulus (GPa) = 44.21615 65.54542 54.88078
# Shear Modulus (GPa) = 20.58765 25.71425 23.15095
#
# Velocity S-wave (km/s) = 3.46039 3.86730 3.66949
# Velocity P-wave (km/s) = 6.45623 7.61999 7.06212
#
# Compressibility (1/GPa) = 0.02261617
#
# Stress axis : x y z
#
# Youngs Moduli (GPa) = 90.70306 40.03259 114.57849
#
# Poissons Ratio (x) = 0.09777 0.44539
# Poissons Ratio (y) = 0.22151 0.54181
# Poissons Ratio (z) = 0.35258 0.18930
#
# Static dielectric constant tensor:
#      x y z
#    x 3.216910 0.000000 0.000000 
#    y 0.000000 2.915810 0.000000 
#    z 0.000000 0.000000 3.377860 
# 
# 
# High freq. dielectric constant tensor:
#      x y z
#    x 1.664320 0.000000 0.000000 
#    y 0.000000 1.637790 0.000000 
#    z 0.000000 0.000000 1.661530 
# 
# From -- ./inp_files/10170.got.cif
#   From: 2010.03.12/outbox.cif.g09.slc.cpg/sg36_6_cif.got.tgz:10170.got - 2010.04.14 02:13:53.
