data_PCOD8174303
_publ_section_title
;
Structure prediction by ZEFSAII (Michael W. Deem and Ramdas Pophale) SiO2 
 PCOD8174303
Probable space group: C M C 21
;
_chemical_formula_sum "Si O2"
_cell_formula_units_Z 48
_cell_length_a 9.436987
_cell_length_b 20.393532
_cell_length_c 14.050656
_cell_angle_alpha 90.000000
_cell_angle_beta 90.000000
_cell_angle_gamma 90.000000
_cell_volume 2704.097873
_symmetry_space_group_name_H-M "C M C 21"
_symmetry_group_IT_number 36
_symmetry_cell_setting 'orthorhombic'
loop_
_space_group_symop_operation_xyz
x,y,z
-x,-y,1/2+z
x,-y,1/2+z
-x,y,z
1/2+x,1/2+y,z
1/2-x,1/2-y,1/2+z
1/2+x,1/2-y,1/2+z
1/2-x,1/2+y,z
loop_
_atom_site_type_symbol
_atom_site_label
_atom_site_fract_x
_atom_site_fract_y
_atom_site_fract_z
Si Si1 0.668117 0.384697 0.860800
Si Si2 0.334694 0.690435 0.654633
Si Si3 0.668042 0.572474 0.153905
Si Si4 0.838491 0.202064 0.052303
Si Si5 0.339030 0.751433 0.851292
Si Si6 0.332822 0.441687 0.059562
O O1 0.500000 0.373571 0.864615
O O2 0.713762 0.423123 0.764759
O O3 0.737674 0.313341 0.862746
O O4 0.721578 0.426575 0.952119
O O5 0.500000 0.700568 0.634754
O O6 0.251647 0.736240 0.583180
O O7 0.291751 0.707933 0.761754
O O8 0.289031 0.616183 0.631680
O O9 0.500000 0.569577 0.146038
O O10 0.726016 0.635761 0.097036
O O11 0.734875 0.508235 0.103065
O O12 0.000000 0.211239 0.087183
O O13 0.828109 0.200457 0.938353
O O14 0.500000 0.777475 0.840047
O O15 0.500000 0.449842 0.055367
#
# Coordination Sequence:
#
# PCOD8174303 Si02
#       6
#     8   8   8   8   8   8
#     4  10  18  31  53  75  97 133 172 208 252 304
#     4  10  19  32  51  75 102 132 168 208 252 299
#     4   9  18  31  49  75 103 130 165 209 254 300
#     4  10  19  32  51  75 102 132 168 208 252 299
#     4  10  20  31  49  77 105 133 166 210 256 298
#     4   9  18  31  49  75 103 130 165 209 254 300
#
# _framework density 17.750837000000001
#
# number of rings (size 3 to 8) (size 9 to 14) (size 15 to 20)
#    0.000    2.333    3.333    0.000    0.000    1.333 
#    0.000    6.667    0.000    4.000    0.000    2.333 
#    0.000    0.000    0.000    0.000    0.000    0.000 
#
# Total GULP energy -297526.996236 kJ/mol
# GULP energy per Si atom -12396.958177 kJ/mol
# Density = 1.771044 g / cm^3
# Si number density = 17.750837 Si / 1000 Ang^3
#
#
#
# Elastic Constant Matrix: (Units=GPa)
#
#
# Indices 1 2 3 4 5 6 
#
# 1 20.7416 21.0991 16.1035 0.0000 0.0000 0.0000
# 2 21.0991 114.5750 52.3185 0.0000 0.0000 0.0000
# 3 16.1035 52.3185 130.3010 0.0000 0.0000 0.0000
# 4 0.0000 0.0000 0.0000 35.4893 0.0000 0.0000
# 5 0.0000 0.0000 0.0000 0.0000 16.6522 0.0000
# 6 0.0000 0.0000 0.0000 0.0000 0.0000 19.9935
#
#
#
# Elastic Compliance Matrix: (Units=1/GPa)
#
#
# Indices 1 2 3 4 5 6 
#
# 1 0.060743 -0.009500 -0.003693 0.000000 0.000000 0.000000
# 2 -0.009500 0.012173 -0.003714 0.000000 0.000000 0.000000
# 3 -0.003693 -0.003714 0.009622 0.000000 0.000000 0.000000
# 4 0.000000 0.000000 0.000000 0.028178 0.000000 0.000000
# 5 0.000000 0.000000 0.000000 0.000000 0.060052 0.000000
# 6 0.000000 0.000000 0.000000 0.000000 0.000000 0.050016
#
#
# Mechanical properties :
#
#
# Convention : Reuss Voigt Hill
#
# Bulk Modulus (GPa) = 20.52303 49.40662 34.96483
# Shear Modulus (GPa) = 18.46123 26.16675 22.31399
#
# Velocity S-wave (km/s) = 3.22843 3.84358 3.54936
# Velocity P-wave (km/s) = 5.04815 6.89865 6.04463
#
# Compressibility (1/GPa) = 0.04872574
#
# Stress axis : x y z
#
# Youngs Moduli (GPa) = 16.46289 82.14861 103.92811
#
# Poissons Ratio (x) = 0.78038 0.38378
# Poissons Ratio (y) = 0.15639 0.38596
# Poissons Ratio (z) = 0.06079 0.30508
#
# Static dielectric constant tensor:
#      x y z
#    x 2.967840 0.000000 0.000000 
#    y 0.000000 3.452560 0.000000 
#    z 0.000000 0.000000 3.645750 
# 
# 
# High freq. dielectric constant tensor:
#      x y z
#    x 1.644150 0.000000 0.000000 
#    y 0.000000 1.681930 0.000000 
#    z 0.000000 0.000000 1.706780 
# 
# From -- ./inp_files/7686.got.cif
#   From: 2010.03.12/outbox.cif.g09.slc.cpg/sg36_4_cif.got.tgz:7686.got - 2010.04.14 02:13:53.
