data_PCOD8174987
_publ_section_title
;
Structure prediction by ZEFSAII (Michael W. Deem and Ramdas Pophale) SiO2 
 PCOD8174987
Probable space group: C M C 21
;
_chemical_formula_sum "Si O2"
_cell_formula_units_Z 48
_cell_length_a 16.988394
_cell_length_b 8.526658
_cell_length_c 16.245034
_cell_angle_alpha 90.000000
_cell_angle_beta 90.000000
_cell_angle_gamma 90.000000
_cell_volume 2353.161820
_symmetry_space_group_name_H-M "C M C 21"
_symmetry_group_IT_number 36
_symmetry_cell_setting 'orthorhombic'
loop_
_space_group_symop_operation_xyz
x,y,z
-x,-y,1/2+z
x,-y,1/2+z
-x,y,z
1/2+x,1/2+y,z
1/2-x,1/2-y,1/2+z
1/2+x,1/2-y,1/2+z
1/2-x,1/2+y,z
loop_
_atom_site_type_symbol
_atom_site_label
_atom_site_fract_x
_atom_site_fract_y
_atom_site_fract_z
Si Si1 0.128009 0.644962 0.849780
Si Si2 0.802514 0.136077 0.474787
Si Si3 0.912179 0.868517 0.716317
Si Si4 0.294072 0.565919 0.816932
Si Si5 0.846590 0.187385 0.044470
Si Si6 0.584810 0.801007 0.887925
O O1 0.138658 0.731604 0.938631
O O2 0.073121 0.746800 0.790373
O O3 0.207984 0.628685 0.793800
O O4 0.085890 0.483728 0.868865
O O5 0.736507 0.225395 0.528134
O O6 0.771309 0.049362 0.392577
O O7 0.842655 0.002153 0.530922
O O8 0.878142 0.782971 0.635834
O O9 0.000000 0.941992 0.699517
O O10 0.844534 0.992018 0.743288
O O11 0.343297 0.714957 0.845573
O O12 0.910340 0.267255 0.985151
O O13 0.500000 0.736187 0.857240
#
# Coordination Sequence:
#
# PCOD8174987 Si02
#       6
#     8   8   8   8   8   8
#     4  11  20  41  64  91 113 157 211 250 287 357
#     4  10  19  37  64  87 111 153 208 256 282 356
#     4  11  25  39  56  89 130 162 194 247 315 365
#     4  10  20  39  61  86 115 157 205 248 293 359
#     4  11  21  38  59  89 126 153 200 251 312 354
#     4  11  20  36  64  88 118 158 200 250 298 353
#
# _framework density 20.398087
#
# number of rings (size 3 to 8) (size 9 to 14) (size 15 to 20)
#    0.000    1.333    5.000    2.500    2.333    0.000 
#    0.000    2.500    0.000    0.000    0.000    0.000 
#    0.000    0.000    0.000    0.000    0.000    0.000 
#
# Total GULP energy -297341.790817 kJ/mol
# GULP energy per Si atom -12389.241284 kJ/mol
# Density = 2.035166 g / cm^3
# Si number density = 20.398087 Si / 1000 Ang^3
#
#
#
# Elastic Constant Matrix: (Units=GPa)
#
#
# Indices 1 2 3 4 5 6 
#
# 1 98.3750 12.5597 27.9486 0.0000 0.0000 0.0000
# 2 12.5597 81.7854 17.1714 0.0000 0.0000 0.0000
# 3 27.9486 17.1714 67.4167 0.0000 0.0000 0.0000
# 4 0.0000 0.0000 0.0000 18.0040 0.0000 0.0000
# 5 0.0000 0.0000 0.0000 0.0000 15.0133 0.0000
# 6 0.0000 0.0000 0.0000 0.0000 0.0000 12.7956
#
#
#
# Elastic Compliance Matrix: (Units=1/GPa)
#
#
# Indices 1 2 3 4 5 6 
#
# 1 0.011573 -0.000813 -0.004591 0.000000 0.000000 0.000000
# 2 -0.000813 0.012975 -0.002968 0.000000 0.000000 0.000000
# 3 -0.004591 -0.002968 0.017492 0.000000 0.000000 0.000000
# 4 0.000000 0.000000 0.000000 0.055543 0.000000 0.000000
# 5 0.000000 0.000000 0.000000 0.000000 0.066608 0.000000
# 6 0.000000 0.000000 0.000000 0.000000 0.000000 0.078152
#
#
# Mechanical properties :
#
#
# Convention : Reuss Voigt Hill
#
# Bulk Modulus (GPa) = 39.53031 40.32626 39.92828
# Shear Modulus (GPa) = 18.69029 21.82242 20.25635
#
# Velocity S-wave (km/s) = 3.03029 3.27437 3.15469
# Velocity P-wave (km/s) = 5.62717 5.84019 5.73467
#
# Compressibility (1/GPa) = 0.02529704
#
# Stress axis : x y z
#
# Youngs Moduli (GPa) = 86.40604 77.07061 57.16864
#
# Poissons Ratio (x) = 0.06269 0.26244
# Poissons Ratio (y) = 0.07029 0.16965
# Poissons Ratio (z) = 0.39666 0.22871
#
# Static dielectric constant tensor:
#      x y z
#    x 3.707980 0.000000 0.000000 
#    y 0.000000 3.917210 0.000000 
#    z 0.000000 0.000000 3.470080 
# 
# 
# High freq. dielectric constant tensor:
#      x y z
#    x 1.799930 0.000000 0.000000 
#    y 0.000000 1.803020 0.000000 
#    z 0.000000 0.000000 1.768880 
# 
# From -- ./inp_files/12498.got.cif
#   From: 2010.03.12/outbox.cif.g09.slc.cpg/sg36_7_cif.got.tgz:12498.got - 2010.04.14 02:13:53.
