data_PCOD8174672
_publ_section_title
;
Structure prediction by ZEFSAII (Michael W. Deem and Ramdas Pophale) SiO2 
 PCOD8174672
Probable space group: C M C 21
;
_chemical_formula_sum "Si O2"
_cell_formula_units_Z 64
_cell_length_a 9.187053
_cell_length_b 29.008133
_cell_length_c 13.928111
_cell_angle_alpha 90.000000
_cell_angle_beta 90.000000
_cell_angle_gamma 90.000000
_cell_volume 3711.831209
_symmetry_space_group_name_H-M "C M C 21"
_symmetry_group_IT_number 36
_symmetry_cell_setting 'orthorhombic'
loop_
_space_group_symop_operation_xyz
x,y,z
-x,-y,1/2+z
x,-y,1/2+z
-x,y,z
1/2+x,1/2+y,z
1/2-x,1/2-y,1/2+z
1/2+x,1/2-y,1/2+z
1/2-x,1/2+y,z
loop_
_atom_site_type_symbol
_atom_site_label
_atom_site_fract_x
_atom_site_fract_y
_atom_site_fract_z
Si Si1 0.830717 0.574651 0.219060
Si Si2 0.672549 0.177405 0.192961
Si Si3 0.331392 0.996127 0.557654
Si Si4 0.672022 0.680561 0.634098
Si Si5 0.335951 0.465984 0.895066
Si Si6 0.327396 0.234410 0.013086
Si Si7 0.171638 0.237417 0.815977
Si Si8 0.664662 0.418465 0.081893
O O1 0.765467 0.626347 0.212889
O O2 0.807846 0.551088 0.115480
O O3 0.744414 0.545488 0.297119
O O4 0.000000 0.574983 0.248144
O O5 0.500000 0.176107 0.192269
O O6 0.724376 0.212764 0.275947
O O7 0.723962 0.195270 0.088571
O O8 0.500000 0.006190 0.538878
O O9 0.248677 0.993364 0.454256
O O10 0.263631 0.038932 0.619803
O O11 0.500000 0.677942 0.624968
O O12 0.727697 0.716235 0.553323
O O13 0.716461 0.698218 0.739358
O O14 0.737198 0.629743 0.614957
O O15 0.500000 0.482529 0.872157
O O16 0.337178 0.420884 0.964842
O O17 0.500000 0.233715 0.999602
O O18 0.252532 0.224232 0.912693
O O19 0.000000 0.237672 0.834028
O O20 0.500000 0.423954 0.122162
#
# Coordination Sequence:
#
# PCOD8174672 Si02
#       8
#     8   8   8   8   8   8   8   8
#     4  10  19  33  54  74  98 131 166 204 245 291
#     4   8  17  33  50  72  98 131 164 194 241 294
#     4   9  18  32  49  71  98 127 159 200 245 290
#     4   8  15  30  49  67  93 129 160 189 239 295
#     4   9  19  32  50  74  98 124 159 201 244 290
#     4   9  17  31  50  69  97 129 159 196 239 288
#     4   9  17  30  49  70  95 127 162 197 236 288
#     4   8  16  31  49  69  93 122 157 197 239 286
#
# _framework density 17.242163999999999
#
# number of rings (size 3 to 8) (size 9 to 14) (size 15 to 20)
#    0.750    2.500    0.000    1.875    1.750    1.000 
#    0.000    5.625    0.000    4.500    0.000    0.000 
#    0.000    0.000    0.000    0.000    0.000    0.000 
#
# Total GULP energy -396482.303208 kJ/mol
# GULP energy per Si atom -12390.071975 kJ/mol
# Density = 1.720292 g / cm^3
# Si number density = 17.242164 Si / 1000 Ang^3
#
#
#
# Elastic Constant Matrix: (Units=GPa)
#
#
# Indices 1 2 3 4 5 6 
#
# 1 59.8289 19.5115 30.2788 0.0000 0.0000 0.0000
# 2 19.5115 52.9934 12.2131 0.0000 0.0000 0.0000
# 3 30.2788 12.2131 87.0744 0.0000 0.0000 0.0000
# 4 0.0000 0.0000 0.0000 19.3899 0.0000 0.0000
# 5 0.0000 0.0000 0.0000 0.0000 29.9241 0.0000
# 6 0.0000 0.0000 0.0000 0.0000 0.0000 15.6923
#
#
#
# Elastic Compliance Matrix: (Units=1/GPa)
#
#
# Indices 1 2 3 4 5 6 
#
# 1 0.022343 -0.006651 -0.006837 0.000000 0.000000 0.000000
# 2 -0.006651 0.021480 -0.000700 0.000000 0.000000 0.000000
# 3 -0.006837 -0.000700 0.013960 0.000000 0.000000 0.000000
# 4 0.000000 0.000000 0.000000 0.051573 0.000000 0.000000
# 5 0.000000 0.000000 0.000000 0.000000 0.033418 0.000000
# 6 0.000000 0.000000 0.000000 0.000000 0.000000 0.063725
#
#
# Mechanical properties :
#
#
# Convention : Reuss Voigt Hill
#
# Bulk Modulus (GPa) = 34.00401 35.98928 34.99664
# Shear Modulus (GPa) = 20.43500 22.19417 21.31459
#
# Velocity S-wave (km/s) = 3.44637 3.59165 3.51976
# Velocity P-wave (km/s) = 5.96665 6.17399 6.07120
#
# Compressibility (1/GPa) = 0.02940830
#
# Stress axis : x y z
#
# Youngs Moduli (GPa) = 44.75611 46.55405 71.63331
#
# Poissons Ratio (x) = 0.30963 0.48974
# Poissons Ratio (y) = 0.29767 0.05015
# Poissons Ratio (z) = 0.30598 0.03259
#
# Static dielectric constant tensor:
#      x y z
#    x 2.956350 0.000000 0.000000 
#    y 0.000000 3.392030 0.000000 
#    z 0.000000 0.000000 3.058080 
# 
# 
# High freq. dielectric constant tensor:
#      x y z
#    x 1.643090 0.000000 0.000000 
#    y 0.000000 1.654560 0.000000 
#    z 0.000000 0.000000 1.655570 
# 
# From -- ./inp_files/11179.got.cif
#   From: 2010.03.12/outbox.cif.g09.slc.cpg/sg36_6_cif.got.tgz:11179.got - 2010.04.14 02:13:53.
