data_PCOD8174809
_publ_section_title
;
Structure prediction by ZEFSAII (Michael W. Deem and Ramdas Pophale) SiO2 
 PCOD8174809
Probable space group: C M C 21
;
_chemical_formula_sum "Si O2"
_cell_formula_units_Z 64
_cell_length_a 10.916106
_cell_length_b 34.683895
_cell_length_c 8.856035
_cell_angle_alpha 90.000000
_cell_angle_beta 90.000000
_cell_angle_gamma 90.000000
_cell_volume 3353.010638
_symmetry_space_group_name_H-M "C M C 21"
_symmetry_group_IT_number 36
_symmetry_cell_setting 'orthorhombic'
loop_
_space_group_symop_operation_xyz
x,y,z
-x,-y,1/2+z
x,-y,1/2+z
-x,y,z
1/2+x,1/2+y,z
1/2-x,1/2-y,1/2+z
1/2+x,1/2-y,1/2+z
1/2-x,1/2+y,z
loop_
_atom_site_type_symbol
_atom_site_label
_atom_site_fract_x
_atom_site_fract_y
_atom_site_fract_z
Si Si1 0.242835 0.656375 0.540160
Si Si2 0.145285 0.452393 0.310346
Si Si3 0.215684 0.158798 0.041035
Si Si4 0.644030 0.108169 0.277420
Si Si5 0.860808 0.295402 0.297484
Si Si6 0.358770 0.970742 0.657460
Si Si7 0.636400 0.392049 0.278917
Si Si8 0.635995 0.709693 0.299495
O O1 0.178822 0.622529 0.443979
O O2 0.148244 0.676975 0.652244
O O3 0.352119 0.637534 0.638456
O O4 0.286626 0.689551 0.428959
O O5 0.193100 0.487950 0.208554
O O6 0.164773 0.464699 0.481906
O O7 0.242233 0.418842 0.271610
O O8 0.000000 0.440755 0.281793
O O9 0.308327 0.134939 0.144053
O O10 0.129911 0.184360 0.147756
O O11 0.289839 0.188018 0.938598
O O12 0.135184 0.130425 0.937946
O O13 0.500000 0.107314 0.258263
O O14 0.698802 0.064961 0.252296
O O15 0.809947 0.252252 0.263565
O O16 0.000000 0.293386 0.347000
O O17 0.500000 0.972438 0.699218
O O18 0.500000 0.411886 0.266013
O O19 0.500000 0.713540 0.363536
#
# Coordination Sequence:
#
# PCOD8174809 Si02
#       8
#     8   8   8   8   8   8   8   8
#     4  10  22  35  54  81 113 149 190 234 286 342
#     4  10  21  38  62  87 116 149 191 235 284 340
#     4  10  20  35  56  78 109 148 188 230 284 344
#     4  10  19  34  57  85 114 145 186 238 288 341
#     4  10  20  34  54  82 110 140 183 239 291 340
#     4   9  19  35  58  87 114 144 184 230 283 338
#     4  11  23  39  58  83 118 155 197 236 283 341
#     4  10  20  36  55  75 106 146 190 234 285 340
#
# _framework density 19.087323999999999
#
# number of rings (size 3 to 8) (size 9 to 14) (size 15 to 20)
#    0.000    2.000    1.250    2.250    1.750    2.500 
#    0.000    0.625    0.000   12.000    0.000    0.000 
#    0.000    0.000    0.000    0.000    0.000    0.000 
#
# Total GULP energy -396577.899781 kJ/mol
# GULP energy per Si atom -12393.059368 kJ/mol
# Density = 1.904388 g / cm^3
# Si number density = 19.087324 Si / 1000 Ang^3
#
#
#
# Elastic Constant Matrix: (Units=GPa)
#
#
# Indices 1 2 3 4 5 6 
#
# 1 85.0351 39.5718 19.7881 0.0000 0.0000 0.0000
# 2 39.5718 99.5973 29.9752 0.0000 0.0000 0.0000
# 3 19.7881 29.9752 74.8112 0.0000 0.0000 0.0000
# 4 0.0000 0.0000 0.0000 29.4290 0.0000 0.0000
# 5 0.0000 0.0000 0.0000 0.0000 9.8010 0.0000
# 6 0.0000 0.0000 0.0000 0.0000 0.0000 25.3583
#
#
#
# Elastic Compliance Matrix: (Units=1/GPa)
#
#
# Indices 1 2 3 4 5 6 
#
# 1 0.014627 -0.005284 -0.001752 0.000000 0.000000 0.000000
# 2 -0.005284 0.013326 -0.003942 0.000000 0.000000 0.000000
# 3 -0.001752 -0.003942 0.015410 0.000000 0.000000 0.000000
# 4 0.000000 0.000000 0.000000 0.033980 0.000000 0.000000
# 5 0.000000 0.000000 0.000000 0.000000 0.102031 0.000000
# 6 0.000000 0.000000 0.000000 0.000000 0.000000 0.039435
#
#
# Mechanical properties :
#
#
# Convention : Reuss Voigt Hill
#
# Bulk Modulus (GPa) = 46.71310 48.67933 47.69621
# Shear Modulus (GPa) = 20.16950 24.25822 22.21386
#
# Velocity S-wave (km/s) = 3.25421 3.56885 3.41515
# Velocity P-wave (km/s) = 6.21662 6.52235 6.37132
#
# Compressibility (1/GPa) = 0.02140727
#
# Stress axis : x y z
#
# Youngs Moduli (GPa) = 68.36904 75.03956 64.89422
#
# Poissons Ratio (x) = 0.39653 0.11366
# Poissons Ratio (y) = 0.36128 0.25580
# Poissons Ratio (z) = 0.11975 0.29579
#
# Static dielectric constant tensor:
#      x y z
#    x 3.199180 0.000000 0.000000 
#    y 0.000000 3.856760 0.000000 
#    z 0.000000 0.000000 3.629500 
# 
# 
# High freq. dielectric constant tensor:
#      x y z
#    x 1.715540 0.000000 0.000000 
#    y 0.000000 1.752980 0.000000 
#    z 0.000000 0.000000 1.753940 
# 
# From -- ./inp_files/3603.got.cif
#   From: 2010.03.12/outbox.cif.g09.slc.cpg/sg36_2_cif.got.tgz:3603.got - 2010.04.14 02:13:53.
