data_PCOD8174964
_publ_section_title
;
Structure prediction by ZEFSAII (Michael W. Deem and Ramdas Pophale) SiO2 
 PCOD8174964
Probable space group: C M C 21
;
_chemical_formula_sum "Si O2"
_cell_formula_units_Z 64
_cell_length_a 8.796311
_cell_length_b 15.328220
_cell_length_c 23.719645
_cell_angle_alpha 90.000000
_cell_angle_beta 90.000000
_cell_angle_gamma 90.000000
_cell_volume 3198.162198
_symmetry_space_group_name_H-M "C M C 21"
_symmetry_group_IT_number 36
_symmetry_cell_setting 'orthorhombic'
loop_
_space_group_symop_operation_xyz
x,y,z
-x,-y,1/2+z
x,-y,1/2+z
-x,y,z
1/2+x,1/2+y,z
1/2-x,1/2-y,1/2+z
1/2+x,1/2-y,1/2+z
1/2-x,1/2+y,z
loop_
_atom_site_type_symbol
_atom_site_label
_atom_site_fract_x
_atom_site_fract_y
_atom_site_fract_z
Si Si1 0.679303 0.148222 0.085030
Si Si2 0.319991 0.656068 0.593272
Si Si3 0.825490 0.897148 0.215590
Si Si4 0.177463 0.668873 0.826359
Si Si5 0.178112 0.500899 0.394861
Si Si6 0.320275 0.498222 0.014806
Si Si7 0.673859 0.600730 0.201835
Si Si8 0.178290 0.657030 0.313467
O O1 0.500000 0.138725 0.080013
O O2 0.731532 0.247899 0.073417
O O3 0.754689 0.089034 0.037355
O O4 0.728148 0.119300 0.146888
O O5 0.500000 0.647689 0.594211
O O6 0.260425 0.638242 0.656362
O O7 0.253672 0.582841 0.551088
O O8 0.719149 0.857238 0.263048
O O9 0.000000 0.867673 0.225474
O O10 0.810789 0.000428 0.217823
O O11 0.223301 0.592329 0.869190
O O12 0.270152 0.754772 0.845236
O O13 0.000000 0.689088 0.829576
O O14 0.272933 0.516585 0.450875
O O15 0.228267 0.574922 0.350811
O O16 0.000000 0.506709 0.408478
O O17 0.500000 0.502412 0.019872
O O18 0.500000 0.626767 0.189847
O O19 0.737563 0.656969 0.253432
O O20 0.000000 0.656436 0.302357
#
# Coordination Sequence:
#
# PCOD8174964 Si02
#       8
#     8   8   8   8   8   8   8   8
#     4  11  22  38  63  91 123 161 200 245 304 362
#     4   9  20  39  60  86 119 157 194 239 296 357
#     4  10  19  36  62  89 124 160 197 243 301 364
#     4  11  23  40  62  91 124 157 202 250 300 363
#     4  10  24  44  62  85 120 158 203 254 303 361
#     4  11  23  42  64  86 117 157 206 255 303 359
#     4  11  21  36  62  94 126 159 201 249 301 363
#     4  11  23  41  63  90 125 161 201 249 306 365
#
# _framework density 20.011492000000001
#
# number of rings (size 3 to 8) (size 9 to 14) (size 15 to 20)
#    0.000    1.500    2.500    2.625    0.000    4.500 
#    0.000    6.875    0.000    0.000    0.000    0.000 
#    0.000    0.000    0.000    0.000    0.000    0.000 
#
# Total GULP energy -396947.759447 kJ/mol
# GULP energy per Si atom -12404.617483 kJ/mol
# Density = 1.996595 g / cm^3
# Si number density = 20.011492 Si / 1000 Ang^3
#
#
#
# Elastic Constant Matrix: (Units=GPa)
#
#
# Indices 1 2 3 4 5 6 
#
# 1 50.0620 33.8842 27.3673 0.0000 0.0000 0.0000
# 2 33.8842 91.8171 19.3077 0.0000 0.0000 0.0000
# 3 27.3673 19.3077 84.3403 0.0000 0.0000 0.0000
# 4 0.0000 0.0000 0.0000 17.3878 0.0000 0.0000
# 5 0.0000 0.0000 0.0000 0.0000 36.6673 0.0000
# 6 0.0000 0.0000 0.0000 0.0000 0.0000 31.2731
#
#
#
# Elastic Compliance Matrix: (Units=1/GPa)
#
#
# Indices 1 2 3 4 5 6 
#
# 1 0.030813 -0.009738 -0.007769 0.000000 0.000000 0.000000
# 2 -0.009738 0.014519 -0.000164 0.000000 0.000000 0.000000
# 3 -0.007769 -0.000164 0.014415 0.000000 0.000000 0.000000
# 4 0.000000 0.000000 0.000000 0.057512 0.000000 0.000000
# 5 0.000000 0.000000 0.000000 0.000000 0.027272 0.000000
# 6 0.000000 0.000000 0.000000 0.000000 0.000000 0.031976
#
#
# Mechanical properties :
#
#
# Convention : Reuss Voigt Hill
#
# Bulk Modulus (GPa) = 40.97373 43.03752 42.00563
# Shear Modulus (GPa) = 22.72876 26.77629 24.75253
#
# Velocity S-wave (km/s) = 3.37380 3.66190 3.52080
# Velocity P-wave (km/s) = 5.97463 6.27953 6.12897
#
# Compressibility (1/GPa) = 0.02440588
#
# Stress axis : x y z
#
# Youngs Moduli (GPa) = 32.45357 68.87393 69.37057
#
# Poissons Ratio (x) = 0.67066 0.53896
# Poissons Ratio (y) = 0.31602 0.01139
# Poissons Ratio (z) = 0.25214 0.01131
#
# Static dielectric constant tensor:
#      x y z
#    x 3.526910 0.000000 0.000000 
#    y 0.000000 3.978930 0.000000 
#    z 0.000000 0.000000 3.562950 
# 
# 
# High freq. dielectric constant tensor:
#      x y z
#    x 1.772510 0.000000 0.000000 
#    y 0.000000 1.799830 0.000000 
#    z 0.000000 0.000000 1.776420 
# 
# From -- ./inp_files/16658.got.cif
#   From: 2010.03.12/outbox.cif.g09.slc.cpg/sg36_9_cif.got.tgz:16658.got - 2010.04.14 02:13:53.
