data_PCOD8174095
_publ_section_title
;
Structure prediction by ZEFSAII (Michael W. Deem and Ramdas Pophale) SiO2 
 PCOD8174095
Probable space group: C M M 2
;
_chemical_formula_sum "Si O2"
_cell_formula_units_Z 32
_cell_length_a 15.471237
_cell_length_b 10.807720
_cell_length_c 9.653264
_cell_angle_alpha 90.000000
_cell_angle_beta 90.000000
_cell_angle_gamma 90.000000
_cell_volume 1614.110666
_symmetry_space_group_name_H-M "C M M 2"
_symmetry_group_IT_number 35
_symmetry_cell_setting 'orthorhombic'
loop_
_space_group_symop_operation_xyz
x,y,z
-x,-y,z
-x,y,z
x,-y,z
1/2+x,1/2+y,z
1/2-x,1/2-y,z
1/2-x,1/2+y,z
1/2+x,1/2-y,z
loop_
_atom_site_type_symbol
_atom_site_label
_atom_site_fract_x
_atom_site_fract_y
_atom_site_fract_z
Si Si1 0.155946 0.700168 0.452750
Si Si2 0.097235 0.141967 0.668323
Si Si3 0.184908 0.500000 0.944179
Si Si4 0.602148 0.000000 0.656957
Si Si5 0.098634 0.500000 0.238807
Si Si6 0.250000 0.250000 0.841581
O O1 0.250000 0.750000 0.414675
O O2 0.100454 0.819318 0.504240
O O3 0.152601 0.614818 0.589929
O O4 0.118898 0.625508 0.322848
O O5 0.164064 0.226777 0.751931
O O6 0.000000 0.164228 0.725121
O O7 0.124745 0.000000 0.682164
O O8 0.113009 0.500000 0.822473
O O9 0.240000 0.373588 0.934106
O O10 0.147731 0.500000 0.096370
O O11 0.500000 0.000000 0.617686
O O12 0.000000 0.500000 0.199716
#
# Coordination Sequence:
#
# PCOD8174095 Si02
#       6
#     8   8   4   4   4   4
#     4  11  22  38  64  93 130 168 213 271 328 388
#     4  11  22  37  63 102 139 172 213 276 342 397
#     4  12  25  42  69  95 134 177 221 276 341 399
#     4  11  21  37  65  96 122 159 219 279 324 384
#     4  11  27  45  65  93 128 174 230 281 327 391
#     4  12  24  42  68 104 136 170 224 282 336 406
#
# _framework density 19.825158999999999
#
# number of rings (size 3 to 8) (size 9 to 14) (size 15 to 20)
#    0.000    0.750    5.000    3.375    5.250    1.000 
#    0.000    0.000    0.000    0.000    0.000    0.000 
#    0.000    0.000    0.000    0.000    0.000    0.000 
#
# Total GULP energy -198210.605667 kJ/mol
# GULP energy per Si atom -12388.162854 kJ/mol
# Density = 1.978004 g / cm^3
# Si number density = 19.825159 Si / 1000 Ang^3
#
#
#
# Elastic Constant Matrix: (Units=GPa)
#
#
# Indices 1 2 3 4 5 6 
#
# 1 91.5302 50.1193 26.4561 0.0000 0.0000 0.0000
# 2 50.1193 132.1393 46.2407 0.0000 0.0000 0.0000
# 3 26.4561 46.2407 123.9834 0.0000 0.0000 0.0000
# 4 0.0000 0.0000 0.0000 -54.5972 0.0000 0.0000
# 5 0.0000 0.0000 0.0000 0.0000 24.7066 0.0000
# 6 0.0000 0.0000 0.0000 0.0000 0.0000 31.3286
#
#
#
# Elastic Compliance Matrix: (Units=1/GPa)
#
#
# Indices 1 2 3 4 5 6 
#
# 1 0.013931 -0.004881 -0.001152 0.000000 0.000000 0.000000
# 2 -0.004881 0.010414 -0.002842 0.000000 0.000000 0.000000
# 3 -0.001152 -0.002842 0.009372 0.000000 0.000000 0.000000
# 4 0.000000 0.000000 0.000000 -0.018316 0.000000 0.000000
# 5 0.000000 0.000000 0.000000 0.000000 0.040475 0.000000
# 6 0.000000 0.000000 0.000000 0.000000 0.000000 0.031920
#
#
# Mechanical properties :
#
#
# Convention : Reuss Voigt Hill
#
# Bulk Modulus (GPa) = 62.63564 65.92056 64.27810
# Shear Modulus (GPa) = 45.09886 15.27671 30.18779
#
# Velocity S-wave (km/s) = 4.77469 2.77893 3.90641
# Velocity P-wave (km/s) = 7.87779 6.60452 7.26909
#
# Compressibility (1/GPa) = 0.01596535
#
# Stress axis : x y z
#
# Youngs Moduli (GPa) = 71.78269 96.02811 106.70544
#
# Poissons Ratio (x) = 0.46868 0.12296
# Poissons Ratio (y) = 0.35034 0.30330
# Poissons Ratio (z) = 0.08272 0.27295
#
# Static dielectric constant tensor:
#      x y z
#    x 3.530770 0.000000 0.000000 
#    y 0.000000 7.455160 0.000000 
#    z 0.000000 0.000000 3.329110 
# 
# 
# High freq. dielectric constant tensor:
#      x y z
#    x 1.774520 0.000000 0.000000 
#    y 0.000000 1.803170 0.000000 
#    z 0.000000 0.000000 1.740200 
# 
# From -- ./inp_files/6759.got.cif
#   From: 2010.03.12/outbox.cif.g09.slc.cpg/sg35_4_cif.got.tgz:6759.got - 2010.04.14 02:02:04.
