data_PCOD8174086
_publ_section_title
;
Structure prediction by ZEFSAII (Michael W. Deem and Ramdas Pophale) SiO2 
 PCOD8174086
Probable space group: C M M 2
;
_chemical_formula_sum "Si O2"
_cell_formula_units_Z 56
_cell_length_a 8.679617
_cell_length_b 21.653409
_cell_length_c 14.526502
_cell_angle_alpha 90.000000
_cell_angle_beta 90.000000
_cell_angle_gamma 90.000000
_cell_volume 2730.158678
_symmetry_space_group_name_H-M "C M M 2"
_symmetry_group_IT_number 35
_symmetry_cell_setting 'orthorhombic'
loop_
_space_group_symop_operation_xyz
x,y,z
-x,-y,z
-x,y,z
x,-y,z
1/2+x,1/2+y,z
1/2-x,1/2-y,z
1/2-x,1/2+y,z
1/2+x,1/2-y,z
loop_
_atom_site_type_symbol
_atom_site_label
_atom_site_fract_x
_atom_site_fract_y
_atom_site_fract_z
Si Si1 0.322670 0.000000 0.839591
Si Si2 0.681672 0.616759 0.525277
Si Si3 0.682610 0.625988 0.849273
Si Si4 0.678035 0.000000 0.621938
Si Si5 0.816514 0.314833 0.019873
Si Si6 0.181948 0.313877 0.679092
Si Si7 0.319138 0.930536 0.139369
Si Si8 0.323693 0.429128 0.331360
O O1 0.238773 0.940954 0.884025
O O2 0.304616 0.000000 0.730778
O O3 0.500000 0.000000 0.871687
O O4 0.500000 0.623104 0.534724
O O5 0.737405 0.558369 0.581480
O O6 0.763075 0.675137 0.573816
O O7 0.729429 0.612635 0.417970
O O8 0.500000 0.630914 0.848187
O O9 0.750284 0.634296 0.746863
O O10 0.753565 0.677710 0.916359
O O11 0.500000 0.000000 0.592065
O O12 0.750000 0.250000 0.059875
O O13 0.753194 0.374520 0.077094
O O14 0.000000 0.311595 0.021454
O O15 0.250000 0.250000 0.714953
O O16 0.000000 0.314756 0.684844
O O17 0.500000 0.933061 0.126832
O O18 0.281262 0.913022 0.244518
O O19 0.251806 0.000000 0.115919
O O20 0.500000 0.415471 0.304491
O O21 0.303652 0.500000 0.362370
#
# Coordination Sequence:
#
# PCOD8174086 Si02
#       8
#     4   8   8   4   8   8   8   8
#     4  11  23  39  59  90 126 161 202 248 303 359
#     4  11  21  36  58  86 121 158 197 244 295 351
#     4  12  25  41  63  91 122 159 202 249 305 364
#     4  11  21  33  55  86 118 157 196 238 291 345
#     4  11  24  43  66  91 123 161 206 256 310 372
#     4  12  25  42  60  83 115 159 207 252 301 354
#     4   9  20  39  63  92 121 157 200 251 312 370
#     4   9  18  34  57  88 122 156 191 240 302 361
#
# _framework density 20.511627000000001
#
# number of rings (size 3 to 8) (size 9 to 14) (size 15 to 20)
#    0.000    1.286    2.143    4.286    1.000    2.857 
#    0.000    0.714    0.000    1.714    0.000    0.000 
#    0.000    0.000    0.000    0.000    0.000    0.000 
#
# Total GULP energy -347203.755395 kJ/mol
# GULP energy per Si atom -12400.134121 kJ/mol
# Density = 2.046494 g / cm^3
# Si number density = 20.511627 Si / 1000 Ang^3
#
#
#
# Elastic Constant Matrix: (Units=GPa)
#
#
# Indices 1 2 3 4 5 6 
#
# 1 105.3545 42.6651 32.1752 0.0000 0.0000 0.0000
# 2 42.6651 118.3048 45.7361 0.0000 0.0000 0.0000
# 3 32.1752 45.7361 86.8537 0.0000 0.0000 0.0000
# 4 0.0000 0.0000 0.0000 21.3396 0.0000 0.0000
# 5 0.0000 0.0000 0.0000 0.0000 31.8805 0.0000
# 6 0.0000 0.0000 0.0000 0.0000 0.0000 33.1971
#
#
#
# Elastic Compliance Matrix: (Units=1/GPa)
#
#
# Indices 1 2 3 4 5 6 
#
# 1 0.011572 -0.003159 -0.002623 0.000000 0.000000 0.000000
# 2 -0.003159 0.011476 -0.004873 0.000000 0.000000 0.000000
# 3 -0.002623 -0.004873 0.015051 0.000000 0.000000 0.000000
# 4 0.000000 0.000000 0.000000 0.046861 0.000000 0.000000
# 5 0.000000 0.000000 0.000000 0.000000 0.031367 0.000000
# 6 0.000000 0.000000 0.000000 0.000000 0.000000 0.030123
#
#
# Mechanical properties :
#
#
# Convention : Reuss Voigt Hill
#
# Bulk Modulus (GPa) = 59.56313 61.29620 60.42966
# Shear Modulus (GPa) = 28.84207 29.94588 29.39398
#
# Velocity S-wave (km/s) = 3.75391 3.82507 3.78966
# Velocity P-wave (km/s) = 6.92032 7.03255 6.97666
#
# Compressibility (1/GPa) = 0.01678891
#
# Stress axis : x y z
#
# Youngs Moduli (GPa) = 86.41300 87.13964 66.43918
#
# Poissons Ratio (x) = 0.27529 0.17430
# Poissons Ratio (y) = 0.27300 0.32374
# Poissons Ratio (z) = 0.22670 0.42460
#
# Static dielectric constant tensor:
#      x y z
#    x 3.641700 0.000000 0.000000 
#    y 0.000000 4.016180 0.000000 
#    z 0.000000 0.000000 3.753410 
# 
# 
# High freq. dielectric constant tensor:
#      x y z
#    x 1.802240 0.000000 0.000000 
#    y 0.000000 1.799830 0.000000 
#    z 0.000000 0.000000 1.798550 
# 
# From -- ./inp_files/15737.got.cif
#   From: 2010.03.12/outbox.cif.g09.slc.cpg/sg35_8_cif.got.tgz:15737.got - 2010.04.14 02:02:04.
