data_PCOD8174927
_publ_section_title
;
Structure prediction by ZEFSAII (Michael W. Deem and Ramdas Pophale) SiO2 
 PCOD8174927
Probable space group: C M C 21
;
_chemical_formula_sum "Si O2"
_cell_formula_units_Z 56
_cell_length_a 11.881116
_cell_length_b 16.655532
_cell_length_c 14.344316
_cell_angle_alpha 90.000000
_cell_angle_beta 90.000000
_cell_angle_gamma 90.000000
_cell_volume 2838.543730
_symmetry_space_group_name_H-M "C M C 21"
_symmetry_group_IT_number 36
_symmetry_cell_setting 'orthorhombic'
loop_
_space_group_symop_operation_xyz
x,y,z
-x,-y,1/2+z
x,-y,1/2+z
-x,y,z
1/2+x,1/2+y,z
1/2-x,1/2-y,1/2+z
1/2+x,1/2-y,1/2+z
1/2-x,1/2+y,z
loop_
_atom_site_type_symbol
_atom_site_label
_atom_site_fract_x
_atom_site_fract_y
_atom_site_fract_z
Si Si1 0.367501 0.032629 0.203620
Si Si2 0.870806 0.188069 0.892169
Si Si3 0.698372 0.401718 0.562935
Si Si4 0.726123 0.145249 0.360711
Si Si5 0.125170 0.074689 0.520106
Si Si6 0.875199 0.781277 0.710608
Si Si7 0.730701 0.630008 0.702384
O O1 0.500000 0.022575 0.188966
O O2 0.318076 0.076435 0.111138
O O3 0.343031 0.084392 0.295747
O O4 0.310806 0.946324 0.217278
O O5 0.858096 0.284304 0.891949
O O6 0.840970 0.146990 0.794469
O O7 0.000000 0.167833 0.916802
O O8 0.786323 0.151555 0.969894
O O9 0.629227 0.479879 0.534948
O O10 0.623879 0.352218 0.635783
O O11 0.776645 0.098902 0.448866
O O12 0.830035 0.185679 0.308042
O O13 0.143500 0.117629 0.618886
O O14 0.000000 0.097341 0.483707
O O15 0.803602 0.706750 0.673649
O O16 0.000000 0.749911 0.728370
#
# Coordination Sequence:
#
# PCOD8174927 Si02
#       7
#     8   8   8   8   8   8   8
#     4  10  21  41  60  83 116 150 184 235 288 341
#     4  11  21  38  58  83 115 151 190 240 284 331
#     4  10  22  36  57  83 109 144 193 230 278 343
#     4  10  22  36  57  85 112 146 194 231 282 350
#     4  11  21  37  56  82 115 149 184 235 283 329
#     4  10  19  36  56  80 111 147 186 239 287 332
#     4  10  22  36  58  86 114 149 195 230 280 348
#
# _framework density 19.728425999999999
#
# number of rings (size 3 to 8) (size 9 to 14) (size 15 to 20)
#    0.000    1.714    0.000    4.714    0.000    0.000 
#    0.000   22.857    0.000    0.000    0.000    0.000 
#    0.000    0.000    0.000    0.000    0.000    0.000 
#
# Total GULP energy -347249.094552 kJ/mol
# GULP energy per Si atom -12401.753377 kJ/mol
# Density = 1.968352 g / cm^3
# Si number density = 19.728426 Si / 1000 Ang^3
#
#
#
# Elastic Constant Matrix: (Units=GPa)
#
#
# Indices 1 2 3 4 5 6 
#
# 1 109.8765 36.7053 30.7124 0.0000 0.0000 0.0000
# 2 36.7053 122.0295 44.9613 0.0000 0.0000 0.0000
# 3 30.7124 44.9613 95.3829 0.0000 0.0000 0.0000
# 4 0.0000 0.0000 0.0000 40.0153 0.0000 0.0000
# 5 0.0000 0.0000 0.0000 0.0000 19.8058 0.0000
# 6 0.0000 0.0000 0.0000 0.0000 0.0000 16.1134
#
#
#
# Elastic Compliance Matrix: (Units=1/GPa)
#
#
# Indices 1 2 3 4 5 6 
#
# 1 0.010517 -0.002318 -0.002293 0.000000 0.000000 0.000000
# 2 -0.002318 0.010428 -0.004169 0.000000 0.000000 0.000000
# 3 -0.002293 -0.004169 0.013188 0.000000 0.000000 0.000000
# 4 0.000000 0.000000 0.000000 0.024990 0.000000 0.000000
# 5 0.000000 0.000000 0.000000 0.000000 0.050490 0.000000
# 6 0.000000 0.000000 0.000000 0.000000 0.000000 0.062060
#
#
# Mechanical properties :
#
#
# Convention : Reuss Voigt Hill
#
# Bulk Modulus (GPa) = 60.34713 61.33854 60.84284
# Shear Modulus (GPa) = 25.67280 29.51424 27.59352
#
# Velocity S-wave (km/s) = 3.61128 3.87205 3.74393
# Velocity P-wave (km/s) = 6.93136 7.15187 7.04248
#
# Compressibility (1/GPa) = 0.01657080
#
# Stress axis : x y z
#
# Youngs Moduli (GPa) = 95.08747 95.89429 75.82789
#
# Poissons Ratio (x) = 0.22231 0.17391
# Poissons Ratio (y) = 0.22044 0.31614
# Poissons Ratio (z) = 0.21808 0.39979
#
# Static dielectric constant tensor:
#      x y z
#    x 3.391510 0.000000 0.000000 
#    y 0.000000 3.767620 0.000000 
#    z 0.000000 0.000000 3.608610 
# 
# 
# High freq. dielectric constant tensor:
#      x y z
#    x 1.760180 0.000000 0.000000 
#    y 0.000000 1.784010 0.000000 
#    z 0.000000 0.000000 1.774710 
# 
# From -- ./inp_files/11592.got.cif
#   From: 2010.03.12/outbox.cif.g09.slc.cpg/sg36_6_cif.got.tgz:11592.got - 2010.04.14 02:13:53.
