data_PCOD8174386
_publ_section_title
;
Structure prediction by ZEFSAII (Michael W. Deem and Ramdas Pophale) SiO2 
 PCOD8174386
Probable space group: C M C 21
;
_chemical_formula_sum "Si O2"
_cell_formula_units_Z 64
_cell_length_a 9.121253
_cell_length_b 20.142952
_cell_length_c 19.760318
_cell_angle_alpha 90.000000
_cell_angle_beta 90.000000
_cell_angle_gamma 90.000000
_cell_volume 3630.542702
_symmetry_space_group_name_H-M "C M C 21"
_symmetry_group_IT_number 36
_symmetry_cell_setting 'orthorhombic'
loop_
_space_group_symop_operation_xyz
x,y,z
-x,-y,1/2+z
x,-y,1/2+z
-x,y,z
1/2+x,1/2+y,z
1/2-x,1/2-y,1/2+z
1/2+x,1/2-y,1/2+z
1/2-x,1/2+y,z
loop_
_atom_site_type_symbol
_atom_site_label
_atom_site_fract_x
_atom_site_fract_y
_atom_site_fract_z
Si Si1 0.173918 0.168370 0.569390
Si Si2 0.328631 0.730406 0.317297
Si Si3 0.668501 0.420557 0.829434
Si Si4 0.325564 0.774090 0.464395
Si Si5 0.830491 0.579084 0.951595
Si Si6 0.170699 0.952034 0.982278
Si Si7 0.825654 0.834958 0.223530
Si Si8 0.829468 0.547525 0.796504
O O1 0.238639 0.229373 0.525199
O O2 0.232329 0.099118 0.538155
O O3 0.224551 0.176009 0.646270
O O4 0.000000 0.169011 0.562728
O O5 0.500000 0.749095 0.310347
O O6 0.300969 0.653001 0.301243
O O7 0.270210 0.746344 0.392446
O O8 0.236067 0.772933 0.264674
O O9 0.500000 0.441004 0.818440
O O10 0.707400 0.421722 0.908867
O O11 0.768944 0.472600 0.788619
O O12 0.500000 0.772134 0.463755
O O13 0.270411 0.849379 0.475329
O O14 0.747232 0.522737 0.993529
O O15 0.800280 0.573406 0.871901
O O16 0.000000 0.570579 0.968193
O O17 0.000000 0.964260 0.991579
O O18 0.757887 0.904524 0.246622
O O19 0.000000 0.838157 0.231341
O O20 0.000000 0.548380 0.777475
#
# Coordination Sequence:
#
# PCOD8174386 Si02
#       8
#     8   8   8   8   8   8   8   8
#     4   9  18  33  53  75 101 138 176 213 258 313
#     4  10  18  33  56  79 104 138 176 216 266 317
#     4   9  17  30  54  82 103 128 169 220 265 307
#     4   9  15  30  54  76  99 132 175 212 253 311
#     4   9  17  29  50  77 102 127 163 212 259 304
#     4   9  16  30  52  75  99 128 167 211 255 306
#     4  11  22  34  51  77 109 142 179 218 261 313
#     4  10  19  33  52  75 105 139 173 212 261 313
#
# _framework density 17.628219000000001
#
# number of rings (size 3 to 8) (size 9 to 14) (size 15 to 20)
#    0.000    2.500    2.500    0.750    0.000    1.000 
#    0.000    2.500    0.000    6.750    0.000    0.000 
#    0.000    0.000    0.000    0.000    0.000    0.000 
#
# Total GULP energy -396776.969700 kJ/mol
# GULP energy per Si atom -12399.280303 kJ/mol
# Density = 1.758810 g / cm^3
# Si number density = 17.628219 Si / 1000 Ang^3
#
#
#
# Elastic Constant Matrix: (Units=GPa)
#
#
# Indices 1 2 3 4 5 6 
#
# 1 54.8982 49.8598 42.4896 0.0000 0.0000 0.0000
# 2 49.8598 157.7111 75.6015 0.0000 0.0000 0.0000
# 3 42.4896 75.6015 106.6553 0.0000 0.0000 0.0000
# 4 0.0000 0.0000 0.0000 26.6839 0.0000 0.0000
# 5 0.0000 0.0000 0.0000 0.0000 18.2055 0.0000
# 6 0.0000 0.0000 0.0000 0.0000 0.0000 32.3788
#
#
#
# Elastic Compliance Matrix: (Units=1/GPa)
#
#
# Indices 1 2 3 4 5 6 
#
# 1 0.029216 -0.005539 -0.007713 0.000000 0.000000 0.000000
# 2 -0.005539 0.010654 -0.005346 0.000000 0.000000 0.000000
# 3 -0.007713 -0.005346 0.016238 0.000000 0.000000 0.000000
# 4 0.000000 0.000000 0.000000 0.037476 0.000000 0.000000
# 5 0.000000 0.000000 0.000000 0.000000 0.054928 0.000000
# 6 0.000000 0.000000 0.000000 0.000000 0.000000 0.030884
#
#
# Mechanical properties :
#
#
# Convention : Reuss Voigt Hill
#
# Bulk Modulus (GPa) = 52.87349 72.79625 62.83487
# Shear Modulus (GPa) = 22.43204 25.54122 23.98663
#
# Velocity S-wave (km/s) = 3.57109 3.81055 3.69276
# Velocity P-wave (km/s) = 6.86020 7.79393 7.34192
#
# Compressibility (1/GPa) = 0.01891307
#
# Stress axis : x y z
#
# Youngs Moduli (GPa) = 34.22815 93.85797 61.58529
#
# Poissons Ratio (x) = 0.51991 0.47498
# Poissons Ratio (y) = 0.18960 0.32920
# Poissons Ratio (z) = 0.26399 0.50172
#
# Static dielectric constant tensor:
#      x y z
#    x 3.040630 0.000000 0.000000 
#    y 0.000000 3.517370 0.000000 
#    z 0.000000 0.000000 3.157110 
# 
# 
# High freq. dielectric constant tensor:
#      x y z
#    x 1.656220 0.000000 0.000000 
#    y 0.000000 1.699140 0.000000 
#    z 0.000000 0.000000 1.655880 
# 
# From -- ./inp_files/13829.got.cif
#   From: 2010.03.12/outbox.cif.g09.slc.cpg/sg36_7_cif.got.tgz:13829.got - 2010.04.14 02:13:53.
