data_PCOD8174876
_publ_section_title
;
Structure prediction by ZEFSAII (Michael W. Deem and Ramdas Pophale) SiO2 
 PCOD8174876
Probable space group: C M C 21
;
_chemical_formula_sum "Si O2"
_cell_formula_units_Z 64
_cell_length_a 9.063551
_cell_length_b 24.454054
_cell_length_c 14.166086
_cell_angle_alpha 90.000000
_cell_angle_beta 90.000000
_cell_angle_gamma 90.000000
_cell_volume 3139.779313
_symmetry_space_group_name_H-M "C M C 21"
_symmetry_group_IT_number 36
_symmetry_cell_setting 'orthorhombic'
loop_
_space_group_symop_operation_xyz
x,y,z
-x,-y,1/2+z
x,-y,1/2+z
-x,y,z
1/2+x,1/2+y,z
1/2-x,1/2-y,1/2+z
1/2+x,1/2-y,1/2+z
1/2-x,1/2+y,z
loop_
_atom_site_type_symbol
_atom_site_label
_atom_site_fract_x
_atom_site_fract_y
_atom_site_fract_z
Si Si1 0.162361 0.620848 0.783970
Si Si2 0.171366 0.307359 0.728850
Si Si3 0.175455 0.706537 0.633451
Si Si4 0.168040 0.087702 0.157748
Si Si5 0.664274 0.569944 0.938547
Si Si6 0.323861 0.550723 0.475325
Si Si7 0.334413 0.980194 0.158537
Si Si8 0.328043 0.158886 0.433478
O O1 0.235569 0.661057 0.706926
O O2 0.250004 0.616702 0.881320
O O3 0.154957 0.559402 0.746847
O O4 0.000000 0.643351 0.807576
O O5 0.258501 0.263567 0.667005
O O6 0.228917 0.366055 0.698964
O O7 0.197479 0.302094 0.842254
O O8 0.000000 0.301923 0.704242
O O9 0.227426 0.690982 0.527200
O O10 0.000000 0.710733 0.634947
O O11 0.000000 0.092833 0.195351
O O12 0.236321 0.030824 0.192701
O O13 0.171992 0.089575 0.045425
O O14 0.500000 0.570995 0.898586
O O15 0.723710 0.507404 0.928551
O O16 0.500000 0.553349 0.487681
O O17 0.245698 0.553888 0.576573
O O18 0.264583 0.602848 0.416887
O O19 0.500000 0.998287 0.126839
O O20 0.500000 0.142874 0.443384
#
# Coordination Sequence:
#
# PCOD8174876 Si02
#       8
#     8   8   8   8   8   8   8   8
#     4  10  21  36  59  89 120 160 204 244 301 360
#     4  11  25  42  64  94 119 156 209 257 308 366
#     4  10  22  44  65  86 121 162 202 251 308 365
#     4  10  22  41  60  85 123 165 203 250 308 364
#     4   9  21  37  55  86 126 164 202 245 301 361
#     4  10  20  35  57  89 123 160 205 250 304 362
#     4  10  19  35  58  87 123 161 199 248 305 361
#     4  10  22  42  64  86 119 160 202 251 309 369
#
# _framework density 20.383597999999999
#
# number of rings (size 3 to 8) (size 9 to 14) (size 15 to 20)
#    0.000    2.000    1.250    2.250    1.750    7.000 
#    0.000    3.750    0.000    0.000    0.000    0.000 
#    0.000    0.000    0.000    0.000    0.000    0.000 
#
# Total GULP energy -396726.981754 kJ/mol
# GULP energy per Si atom -12397.718180 kJ/mol
# Density = 2.033720 g / cm^3
# Si number density = 20.383598 Si / 1000 Ang^3
#
#
#
# Elastic Constant Matrix: (Units=GPa)
#
#
# Indices 1 2 3 4 5 6 
#
# 1 46.1002 3.0903 18.2521 0.0000 0.0000 0.0000
# 2 3.0903 59.7184 25.1711 0.0000 0.0000 0.0000
# 3 18.2521 25.1711 57.1709 0.0000 0.0000 0.0000
# 4 0.0000 0.0000 0.0000 27.1796 0.0000 0.0000
# 5 0.0000 0.0000 0.0000 0.0000 26.4096 0.0000
# 6 0.0000 0.0000 0.0000 0.0000 0.0000 34.0324
#
#
#
# Elastic Compliance Matrix: (Units=1/GPa)
#
#
# Indices 1 2 3 4 5 6 
#
# 1 0.025144 0.002557 -0.009153 0.000000 0.000000 0.000000
# 2 0.002557 0.020821 -0.009983 0.000000 0.000000 0.000000
# 3 -0.009153 -0.009983 0.024809 0.000000 0.000000 0.000000
# 4 0.000000 0.000000 0.000000 0.036792 0.000000 0.000000
# 5 0.000000 0.000000 0.000000 0.000000 0.037865 0.000000
# 6 0.000000 0.000000 0.000000 0.000000 0.000000 0.029384
#
#
# Mechanical properties :
#
#
# Convention : Reuss Voigt Hill
#
# Bulk Modulus (GPa) = 26.58506 28.44628 27.51567
# Shear Modulus (GPa) = 22.67439 25.28939 23.98189
#
# Velocity S-wave (km/s) = 3.33886 3.52614 3.43378
# Velocity P-wave (km/s) = 5.28533 5.52847 5.40827
#
# Compressibility (1/GPa) = 0.03761511
#
# Stress axis : x y z
#
# Youngs Moduli (GPa) = 39.77017 48.02882 40.30785
#
# Poissons Ratio (x) = -0.12280 0.36895
# Poissons Ratio (y) = -0.10169 0.40240
# Poissons Ratio (z) = 0.36403 0.47948
#
# Static dielectric constant tensor:
#      x y z
#    x 3.795080 0.000000 0.000000 
#    y 0.000000 3.563180 0.000000 
#    z 0.000000 0.000000 3.697640 
# 
# 
# High freq. dielectric constant tensor:
#      x y z
#    x 1.795940 0.000000 0.000000 
#    y 0.000000 1.787290 0.000000 
#    z 0.000000 0.000000 1.796870 
# 
# From -- ./inp_files/10972.got.cif
#   From: 2010.03.12/outbox.cif.g09.slc.cpg/sg36_6_cif.got.tgz:10972.got - 2010.04.14 02:13:53.
