data_PCOD8174851
_publ_section_title
;
Structure prediction by ZEFSAII (Michael W. Deem and Ramdas Pophale) SiO2 
 PCOD8174851
Probable space group: C M C 21
;
_chemical_formula_sum "Si O2"
_cell_formula_units_Z 56
_cell_length_a 9.753071
_cell_length_b 22.628639
_cell_length_c 13.278045
_cell_angle_alpha 90.000000
_cell_angle_beta 90.000000
_cell_angle_gamma 90.000000
_cell_volume 2930.447573
_symmetry_space_group_name_H-M "C M C 21"
_symmetry_group_IT_number 36
_symmetry_cell_setting 'orthorhombic'
loop_
_space_group_symop_operation_xyz
x,y,z
-x,-y,1/2+z
x,-y,1/2+z
-x,y,z
1/2+x,1/2+y,z
1/2-x,1/2-y,1/2+z
1/2+x,1/2-y,1/2+z
1/2-x,1/2+y,z
loop_
_atom_site_type_symbol
_atom_site_label
_atom_site_fract_x
_atom_site_fract_y
_atom_site_fract_z
Si Si1 0.848968 0.182694 0.291470
Si Si2 0.657201 0.647391 0.848931
Si Si3 0.256927 0.282673 0.159422
Si Si4 0.161218 0.452916 0.266859
Si Si5 0.348774 0.230258 0.963968
Si Si6 0.839792 0.416515 0.841989
Si Si7 0.656122 0.898694 0.063483
O O1 0.842812 0.234875 0.209489
O O2 0.820766 0.210289 0.401160
O O3 0.737672 0.131430 0.272563
O O4 0.000000 0.154321 0.285572
O O5 0.500000 0.633180 0.878872
O O6 0.654564 0.685276 0.745847
O O7 0.745263 0.587718 0.838143
O O8 0.729929 0.683195 0.939274
O O9 0.352145 0.247626 0.081249
O O10 0.169600 0.330867 0.097954
O O11 0.190182 0.519929 0.295432
O O12 0.210935 0.442135 0.151584
O O13 0.000000 0.436128 0.280137
O O14 0.500000 0.204546 0.936202
O O15 0.000000 0.400661 0.838919
O O16 0.775036 0.412839 0.955231
O O17 0.500000 0.914435 0.045486
#
# Coordination Sequence:
#
# PCOD8174851 Si02
#       7
#     8   8   8   8   8   8   8
#     4  10  21  35  54  84 117 146 179 229 285 332
#     4  10  21  35  56  83 111 142 187 235 282 333
#     4  10  19  35  56  82 112 147 185 227 280 339
#     4   9  19  37  57  78 109 146 190 233 278 327
#     4  10  20  35  55  80 112 147 183 223 278 336
#     4  10  20  36  58  82 109 148 193 235 274 327
#     4   9  17  33  58  81 104 144 189 230 277 332
#
# _framework density 19.10971
#
# number of rings (size 3 to 8) (size 9 to 14) (size 15 to 20)
#    0.000    2.286    1.429    1.286    0.000    8.000 
#    2.571    0.000    0.000    0.000    0.000    0.000 
#    0.000    0.000    0.000    0.000    0.000    0.000 
#
# Total GULP energy -347067.518607 kJ/mol
# GULP energy per Si atom -12395.268522 kJ/mol
# Density = 1.906621 g / cm^3
# Si number density = 19.109710 Si / 1000 Ang^3
#
#
#
# Elastic Constant Matrix: (Units=GPa)
#
#
# Indices 1 2 3 4 5 6 
#
# 1 95.9643 54.7275 15.9014 0.0000 0.0000 0.0000
# 2 54.7275 120.2906 46.1062 0.0000 0.0000 0.0000
# 3 15.9014 46.1062 79.9758 0.0000 0.0000 0.0000
# 4 0.0000 0.0000 0.0000 25.8528 0.0000 0.0000
# 5 0.0000 0.0000 0.0000 0.0000 16.5927 0.0000
# 6 0.0000 0.0000 0.0000 0.0000 0.0000 29.8890
#
#
#
# Elastic Compliance Matrix: (Units=1/GPa)
#
#
# Indices 1 2 3 4 5 6 
#
# 1 0.014154 -0.006881 0.001153 0.000000 0.000000 0.000000
# 2 -0.006881 0.014017 -0.006712 0.000000 0.000000 0.000000
# 3 0.001153 -0.006712 0.016144 0.000000 0.000000 0.000000
# 4 0.000000 0.000000 0.000000 0.038680 0.000000 0.000000
# 5 0.000000 0.000000 0.000000 0.000000 0.060268 0.000000
# 6 0.000000 0.000000 0.000000 0.000000 0.000000 0.033457
#
#
# Mechanical properties :
#
#
# Convention : Reuss Voigt Hill
#
# Bulk Modulus (GPa) = 51.45855 58.85567 55.15711
# Shear Modulus (GPa) = 24.02925 26.43327 25.23126
#
# Velocity S-wave (km/s) = 3.54988 3.72323 3.63759
# Velocity P-wave (km/s) = 6.61730 7.02488 6.82413
#
# Compressibility (1/GPa) = 0.01943311
#
# Stress axis : x y z
#
# Youngs Moduli (GPa) = 70.65200 71.34301 61.94133
#
# Poissons Ratio (x) = 0.49094 -0.07141
# Poissons Ratio (y) = 0.48618 0.41578
# Poissons Ratio (z) = -0.08146 0.47889
#
# Static dielectric constant tensor:
#      x y z
#    x 3.261030 0.000000 0.000000 
#    y 0.000000 3.300620 0.000000 
#    z 0.000000 0.000000 3.589550 
# 
# 
# High freq. dielectric constant tensor:
#      x y z
#    x 1.729200 0.000000 0.000000 
#    y 0.000000 1.728820 0.000000 
#    z 0.000000 0.000000 1.740070 
# 
# From -- ./inp_files/7949.got.cif
#   From: 2010.03.12/outbox.cif.g09.slc.cpg/sg36_4_cif.got.tgz:7949.got - 2010.04.14 02:13:53.
