data_PCOD8174869
_publ_section_title
;
Structure prediction by ZEFSAII (Michael W. Deem and Ramdas Pophale) SiO2 
 PCOD8174869
Probable space group: C M C 21
;
_chemical_formula_sum "Si O2"
_cell_formula_units_Z 64
_cell_length_a 8.773752
_cell_length_b 15.342366
_cell_length_c 23.917838
_cell_angle_alpha 90.000000
_cell_angle_beta 90.000000
_cell_angle_gamma 90.000000
_cell_volume 3219.582909
_symmetry_space_group_name_H-M "C M C 21"
_symmetry_group_IT_number 36
_symmetry_cell_setting 'orthorhombic'
loop_
_space_group_symop_operation_xyz
x,y,z
-x,-y,1/2+z
x,-y,1/2+z
-x,y,z
1/2+x,1/2+y,z
1/2-x,1/2-y,1/2+z
1/2+x,1/2-y,1/2+z
1/2-x,1/2+y,z
loop_
_atom_site_type_symbol
_atom_site_label
_atom_site_fract_x
_atom_site_fract_y
_atom_site_fract_z
Si Si1 0.822614 0.968942 0.630380
Si Si2 0.181068 0.207884 0.258911
Si Si3 0.679896 0.385520 0.456359
Si Si4 0.825326 0.463614 0.023784
Si Si5 0.176963 0.987950 0.755041
Si Si6 0.180875 0.144170 0.829559
Si Si7 0.678524 0.785063 0.642658
Si Si8 0.674678 0.770862 0.034839
O O1 0.768260 0.031919 0.581488
O O2 0.793256 0.014020 0.690402
O O3 0.725446 0.881706 0.624814
O O4 0.000000 0.944960 0.623275
O O5 0.243799 0.108743 0.267250
O O6 0.244766 0.266356 0.308785
O O7 0.239351 0.244809 0.199615
O O8 0.000000 0.209520 0.258469
O O9 0.500000 0.397482 0.460640
O O10 0.757286 0.474452 0.476383
O O11 0.731596 0.368427 0.393211
O O12 0.736764 0.304521 0.493854
O O13 0.810590 0.363629 0.003150
O O14 0.000000 0.489433 0.034892
O O15 0.000000 0.984353 0.768858
O O16 0.249606 0.062449 0.794323
O O17 0.000000 0.151756 0.822728
O O18 0.500000 0.777250 0.652692
O O19 0.727902 0.723329 0.591636
O O20 0.500000 0.751614 0.051012
#
# Coordination Sequence:
#
# PCOD8174869 Si02
#       8
#     8   8   8   8   8   8   8   8
#     4  10  19  35  58  84 120 157 188 236 306 358
#     4  10  21  38  58  85 119 158 190 240 308 355
#     4  10  22  41  62  82 118 163 200 245 304 353
#     4  11  23  37  57  86 117 152 201 247 290 352
#     4   8  18  36  57  82 116 152 189 237 292 354
#     4  10  21  39  62  88 114 155 208 248 287 354
#     4  11  21  35  59  89 119 155 197 245 293 354
#     4  10  22  39  57  84 121 160 195 242 302 356
#
# _framework density 19.878350999999999
#
# number of rings (size 3 to 8) (size 9 to 14) (size 15 to 20)
#    0.000    2.000    1.250    3.000    1.750    2.500 
#    0.000    3.125    0.000    0.000    0.000    0.000 
#    0.000    0.000    0.000    0.000    0.000    0.000 
#
# Total GULP energy -396823.964969 kJ/mol
# GULP energy per Si atom -12400.748905 kJ/mol
# Density = 1.983311 g / cm^3
# Si number density = 19.878351 Si / 1000 Ang^3
#
#
#
# Elastic Constant Matrix: (Units=GPa)
#
#
# Indices 1 2 3 4 5 6 
#
# 1 54.6834 17.2005 29.6006 0.0000 0.0000 0.0000
# 2 17.2005 77.4209 36.4639 0.0000 0.0000 0.0000
# 3 29.6006 36.4639 114.0492 0.0000 0.0000 0.0000
# 4 0.0000 0.0000 0.0000 30.3886 0.0000 0.0000
# 5 0.0000 0.0000 0.0000 0.0000 26.1833 0.0000
# 6 0.0000 0.0000 0.0000 0.0000 0.0000 24.6444
#
#
#
# Elastic Compliance Matrix: (Units=1/GPa)
#
#
# Indices 1 2 3 4 5 6 
#
# 1 0.021696 -0.002552 -0.004815 0.000000 0.000000 0.000000
# 2 -0.002552 0.015506 -0.004295 0.000000 0.000000 0.000000
# 3 -0.004815 -0.004295 0.011391 0.000000 0.000000 0.000000
# 4 0.000000 0.000000 0.000000 0.032907 0.000000 0.000000
# 5 0.000000 0.000000 0.000000 0.000000 0.038192 0.000000
# 6 0.000000 0.000000 0.000000 0.000000 0.000000 0.040577
#
#
# Mechanical properties :
#
#
# Convention : Reuss Voigt Hill
#
# Bulk Modulus (GPa) = 39.57505 45.85371 42.71438
# Shear Modulus (GPa) = 26.03911 27.10251 26.57081
#
# Velocity S-wave (km/s) = 3.62321 3.69646 3.66002
# Velocity P-wave (km/s) = 6.12008 6.42928 6.27658
#
# Compressibility (1/GPa) = 0.02526845
#
# Stress axis : x y z
#
# Youngs Moduli (GPa) = 46.09067 64.48919 87.78748
#
# Poissons Ratio (x) = 0.16460 0.42270
# Poissons Ratio (y) = 0.11764 0.37707
# Poissons Ratio (z) = 0.22193 0.27700
#
# Static dielectric constant tensor:
#      x y z
#    x 3.444140 0.000000 0.000000 
#    y 0.000000 3.716120 0.000000 
#    z 0.000000 0.000000 3.650100 
# 
# 
# High freq. dielectric constant tensor:
#      x y z
#    x 1.760550 0.000000 0.000000 
#    y 0.000000 1.780240 0.000000 
#    z 0.000000 0.000000 1.771000 
# 
# From -- ./inp_files/16541.got.cif
#   From: 2010.03.12/outbox.cif.g09.slc.cpg/sg36_9_cif.got.tgz:16541.got - 2010.04.14 02:13:53.
