data_PCOD8174144
_publ_section_title
;
Structure prediction by ZEFSAII (Michael W. Deem and Ramdas Pophale) SiO2 
 PCOD8174144
Probable space group: C M M 2
;
_chemical_formula_sum "Si O2"
_cell_formula_units_Z 56
_cell_length_a 8.652402
_cell_length_b 21.583974
_cell_length_c 14.481440
_cell_angle_alpha 90.000000
_cell_angle_beta 90.000000
_cell_angle_gamma 90.000000
_cell_volume 2704.455547
_symmetry_space_group_name_H-M "C M M 2"
_symmetry_group_IT_number 35
_symmetry_cell_setting 'orthorhombic'
loop_
_space_group_symop_operation_xyz
x,y,z
-x,-y,z
-x,y,z
x,-y,z
1/2+x,1/2+y,z
1/2-x,1/2-y,z
1/2-x,1/2+y,z
1/2+x,1/2-y,z
loop_
_atom_site_type_symbol
_atom_site_label
_atom_site_fract_x
_atom_site_fract_y
_atom_site_fract_z
Si Si1 0.678332 0.500000 0.144331
Si Si2 0.321152 0.108524 0.033826
Si Si3 0.177983 0.126691 0.366910
Si Si4 0.183231 0.929773 0.646079
Si Si5 0.181320 0.314998 0.533461
Si Si6 0.680938 0.000000 0.341285
Si Si7 0.821848 0.812267 0.176879
Si Si8 0.176808 0.071793 0.855523
O O1 0.500000 0.500000 0.177299
O O2 0.709346 0.559113 0.081495
O O3 0.788945 0.500000 0.232270
O O4 0.500000 0.091642 0.047334
O O5 0.278262 0.172109 0.085587
O O6 0.281606 0.112338 0.925136
O O7 0.271084 0.177558 0.426118
O O8 0.199013 0.136913 0.257433
O O9 0.000000 0.130815 0.396597
O O10 0.243303 0.059090 0.390629
O O11 0.258451 0.876168 0.585324
O O12 0.234213 0.916663 0.751539
O O13 0.000000 0.925800 0.636924
O O14 0.237150 0.000000 0.617986
O O15 0.250000 0.250000 0.571978
O O16 0.000000 0.311013 0.544805
O O17 0.500000 0.000000 0.360332
O O18 0.750000 0.750000 0.218213
O O19 0.000000 0.804166 0.149779
O O20 0.000000 0.092786 0.866608
O O21 0.195992 0.000000 0.881865
#
# Coordination Sequence:
#
# PCOD8174144 Si02
#       8
#     4   8   8   8   8   4   8   8
#     4  12  22  36  56  83 120 161 202 244 296 350
#     4  12  23  35  57  89 123 159 202 251 300 358
#     4  11  24  42  65  90 124 166 206 251 311 376
#     4   9  20  41  68  97 128 165 207 256 320 387
#     4  12  26  44  67  94 127 166 214 266 318 381
#     4  12  24  38  60  93 128 161 206 258 310 364
#     4  11  24  41  61  83 116 161 209 256 305 363
#     4   9  18  35  61  90 123 161 200 246 307 375
#
# _framework density 20.706571
#
# number of rings (size 3 to 8) (size 9 to 14) (size 15 to 20)
#    0.000    1.143    2.143    6.000    1.000    3.714 
#    0.000    2.143    0.000    3.429    0.000    0.000 
#    0.000    0.000    0.000    0.000    0.000    0.000 
#
# Total GULP energy -347248.883595 kJ/mol
# GULP energy per Si atom -12401.745843 kJ/mol
# Density = 2.065944 g / cm^3
# Si number density = 20.706571 Si / 1000 Ang^3
#
#
#
# Elastic Constant Matrix: (Units=GPa)
#
#
# Indices 1 2 3 4 5 6 
#
# 1 105.5295 48.3379 36.5970 0.0000 0.0000 0.0000
# 2 48.3379 117.0654 37.2903 0.0000 0.0000 0.0000
# 3 36.5970 37.2903 89.1170 0.0000 0.0000 0.0000
# 4 0.0000 0.0000 0.0000 21.2138 0.0000 0.0000
# 5 0.0000 0.0000 0.0000 0.0000 33.3903 0.0000
# 6 0.0000 0.0000 0.0000 0.0000 0.0000 31.9925
#
#
#
# Elastic Compliance Matrix: (Units=1/GPa)
#
#
# Indices 1 2 3 4 5 6 
#
# 1 0.012539 -0.004081 -0.003442 0.000000 0.000000 0.000000
# 2 -0.004081 0.011184 -0.003004 0.000000 0.000000 0.000000
# 3 -0.003442 -0.003004 0.013891 0.000000 0.000000 0.000000
# 4 0.000000 0.000000 0.000000 0.047139 0.000000 0.000000
# 5 0.000000 0.000000 0.000000 0.000000 0.029949 0.000000
# 6 0.000000 0.000000 0.000000 0.000000 0.000000 0.031257
#
#
# Mechanical properties :
#
#
# Convention : Reuss Voigt Hill
#
# Bulk Modulus (GPa) = 60.38169 61.79579 61.08874
# Shear Modulus (GPa) = 28.97982 29.95177 29.46580
#
# Velocity S-wave (km/s) = 3.74511 3.80740 3.77638
# Velocity P-wave (km/s) = 6.92279 7.01689 6.97000
#
# Compressibility (1/GPa) = 0.01656131
#
# Stress axis : x y z
#
# Youngs Moduli (GPa) = 79.75161 89.41088 71.98651
#
# Poissons Ratio (x) = 0.36491 0.24774
# Poissons Ratio (y) = 0.32548 0.21625
# Poissons Ratio (z) = 0.27447 0.26859
#
# Static dielectric constant tensor:
#      x y z
#    x 3.615860 0.000000 0.000000 
#    y 0.000000 3.867640 0.000000 
#    z 0.000000 0.000000 3.763200 
# 
# 
# High freq. dielectric constant tensor:
#      x y z
#    x 1.810630 0.000000 0.000000 
#    y 0.000000 1.803170 0.000000 
#    z 0.000000 0.000000 1.808910 
# 
# From -- ./inp_files/15714.got.cif
#   From: 2010.03.12/outbox.cif.g09.slc.cpg/sg35_8_cif.got.tgz:15714.got - 2010.04.14 02:02:04.
