data_PCOD8174418
_publ_section_title
;
Structure prediction by ZEFSAII (Michael W. Deem and Ramdas Pophale) SiO2 
 PCOD8174418
Probable space group: C M C 21
;
_chemical_formula_sum "Si O2"
_cell_formula_units_Z 64
_cell_length_a 8.625031
_cell_length_b 24.502715
_cell_length_c 15.399112
_cell_angle_alpha 90.000000
_cell_angle_beta 90.000000
_cell_angle_gamma 90.000000
_cell_volume 3254.397151
_symmetry_space_group_name_H-M "C M C 21"
_symmetry_group_IT_number 36
_symmetry_cell_setting 'orthorhombic'
loop_
_space_group_symop_operation_xyz
x,y,z
-x,-y,1/2+z
x,-y,1/2+z
-x,y,z
1/2+x,1/2+y,z
1/2-x,1/2-y,1/2+z
1/2+x,1/2-y,1/2+z
1/2-x,1/2+y,z
loop_
_atom_site_type_symbol
_atom_site_label
_atom_site_fract_x
_atom_site_fract_y
_atom_site_fract_z
Si Si1 0.684256 0.438261 0.357540
Si Si2 0.685367 0.487572 0.014987
Si Si3 0.819655 0.741945 0.209453
Si Si4 0.684517 0.516577 0.205056
Si Si5 0.827313 0.132739 0.261526
Si Si6 0.828345 0.127369 0.464343
Si Si7 0.815208 0.242853 0.513201
Si Si8 0.183287 0.682699 0.855637
O O1 0.500000 0.434770 0.355997
O O2 0.744798 0.468277 0.444803
O O3 0.747050 0.472644 0.274817
O O4 0.749829 0.377721 0.354006
O O5 0.500000 0.485273 0.009670
O O6 0.747148 0.502635 0.109837
O O7 0.757444 0.427613 0.996015
O O8 0.790174 0.681243 0.242582
O O9 0.760327 0.742443 0.109955
O O10 0.730050 0.785791 0.267900
O O11 0.000000 0.756252 0.215038
O O12 0.500000 0.517091 0.209732
O O13 0.746002 0.577395 0.223465
O O14 0.842875 0.124227 0.362500
O O15 0.000000 0.145191 0.223305
O O16 0.742470 0.183035 0.492932
O O17 0.000000 0.128289 0.506575
O O18 0.751730 0.285876 0.441473
O O19 0.000000 0.241313 0.504321
O O20 0.000000 0.679412 0.858921
#
# Coordination Sequence:
#
# PCOD8174418 Si02
#       8
#     8   8   8   8   8   8   8   8
#     4  10  20  35  55  84 114 142 187 238 275 324
#     4   9  17  29  51  82 111 140 181 230 275 319
#     4  11  23  38  58  86 112 143 190 239 280 326
#     4   9  18  31  52  83 113 143 180 227 279 326
#     4  10  18  34  58  81 109 146 186 226 275 333
#     4   9  15  30  55  78 103 142 188 225 263 323
#     4   9  20  36  56  81 110 148 187 225 279 340
#     4  11  23  41  59  79 114 156 189 224 284 351
#
# _framework density 19.665700999999999
#
# number of rings (size 3 to 8) (size 9 to 14) (size 15 to 20)
#    0.000    2.250    2.500    0.750    3.500    0.000 
#    0.000    2.500    0.000    0.750    0.000    0.000 
#    0.000    0.000    0.000    0.000    0.000    0.000 
#
# Total GULP energy -396671.698847 kJ/mol
# GULP energy per Si atom -12395.990589 kJ/mol
# Density = 1.962094 g / cm^3
# Si number density = 19.665701 Si / 1000 Ang^3
#
#
#
# Elastic Constant Matrix: (Units=GPa)
#
#
# Indices 1 2 3 4 5 6 
#
# 1 19.5449 14.3540 15.1444 0.0000 0.0000 0.0000
# 2 14.3540 168.9412 60.1003 0.0000 0.0000 0.0000
# 3 15.1444 60.1003 134.0130 0.0000 0.0000 0.0000
# 4 0.0000 0.0000 0.0000 38.5897 0.0000 0.0000
# 5 0.0000 0.0000 0.0000 0.0000-1330.5598 0.0000
# 6 0.0000 0.0000 0.0000 0.0000 0.0000 25.9625
#
#
#
# Elastic Compliance Matrix: (Units=1/GPa)
#
#
# Indices 1 2 3 4 5 6 
#
# 1 0.057370 -0.003055 -0.005113 0.000000 0.000000 0.000000
# 2 -0.003055 0.007206 -0.002886 0.000000 0.000000 0.000000
# 3 -0.005113 -0.002886 0.009334 0.000000 0.000000 0.000000
# 4 0.000000 0.000000 0.000000 0.025914 0.000000 0.000000
# 5 0.000000 0.000000 0.000000 0.000000 -0.000752 0.000000
# 6 0.000000 0.000000 0.000000 0.000000 0.000000 0.038517
#
#
# Mechanical properties :
#
#
# Convention : Reuss Voigt Hill
#
# Bulk Modulus (GPa) = 19.30479 55.74405 37.52442
# Shear Modulus (GPa) = 28.25414 -237.67484 -104.71035
#
# Velocity S-wave (km/s) = 3.79452 -11.00545 -7.30484
# Velocity P-wave (km/s) = 5.38848 11.53628 7.21284
#
# Compressibility (1/GPa) = 0.05180062
#
# Stress axis : x y z
#
# Youngs Moduli (GPa) = 17.43066 138.78146 107.13388
#
# Poissons Ratio (x) = 0.42405 0.54777
# Poissons Ratio (y) = 0.05326 0.30921
# Poissons Ratio (z) = 0.08912 0.40055
#
# Static dielectric constant tensor:
#      x y z
#    x 12.188150 0.000000 0.000000 
#    y 0.000000 3.726220 0.000000 
#    z 0.000000 0.000000 3.798480 
# 
# 
# High freq. dielectric constant tensor:
#      x y z
#    x 1.705660 0.000000 0.000000 
#    y 0.000000 1.786720 0.000000 
#    z 0.000000 0.000000 1.776650 
# 
# From -- ./inp_files/10880.got.cif
#   From: 2010.03.12/outbox.cif.g09.slc.cpg/sg36_6_cif.got.tgz:10880.got - 2010.04.14 02:13:53.
