data_PCOD8174632
_publ_section_title
;
Structure prediction by ZEFSAII (Michael W. Deem and Ramdas Pophale) SiO2 
 PCOD8174632
Probable space group: C M C 21
;
_chemical_formula_sum "Si O2"
_cell_formula_units_Z 48
_cell_length_a 8.989041
_cell_length_b 15.489469
_cell_length_c 18.523676
_cell_angle_alpha 90.000000
_cell_angle_beta 90.000000
_cell_angle_gamma 90.000000
_cell_volume 2579.152769
_symmetry_space_group_name_H-M "C M C 21"
_symmetry_group_IT_number 36
_symmetry_cell_setting 'orthorhombic'
loop_
_space_group_symop_operation_xyz
x,y,z
-x,-y,1/2+z
x,-y,1/2+z
-x,y,z
1/2+x,1/2+y,z
1/2-x,1/2-y,1/2+z
1/2+x,1/2-y,1/2+z
1/2-x,1/2+y,z
loop_
_atom_site_type_symbol
_atom_site_label
_atom_site_fract_x
_atom_site_fract_y
_atom_site_fract_z
Si Si1 0.327325 0.093602 0.800920
Si Si2 0.823839 0.246125 0.881629
Si Si3 0.336008 0.348358 0.646968
Si Si4 0.671644 0.903290 0.781077
Si Si5 0.324511 0.252055 0.034958
Si Si6 0.836585 0.342166 0.150654
O O1 0.500000 0.120731 0.809580
O O2 0.225683 0.153975 0.850138
O O3 0.277991 0.099635 0.716551
O O4 0.302753 0.993670 0.823386
O O5 0.771936 0.324507 0.830271
O O6 0.000000 0.245554 0.892794
O O7 0.745005 0.262378 0.956989
O O8 0.500000 0.385559 0.627725
O O9 0.257064 0.409536 0.704880
O O10 0.239781 0.335437 0.573107
O O11 0.350935 0.254222 0.683923
O O12 0.500000 0.889684 0.761479
O O13 0.500000 0.245564 0.029455
O O14 0.276723 0.337071 0.082395
O O15 0.000000 0.374042 0.123824
#
# Coordination Sequence:
#
# PCOD8174632 Si02
#       6
#     8   8   8   8   8   8
#     4  10  20  36  57  82 109 143 182 220 265 320
#     4  11  21  35  54  79 112 144 177 223 271 318
#     4   9  17  32  54  79 105 135 174 219 265 312
#     4  10  21  35  56  83 110 142 182 221 264 321
#     4  10  19  32  55  79 104 142 182 219 268 323
#     4   8  16  32  54  78 104 134 173 218 263 312
#
# _framework density 18.610764
#
# number of rings (size 3 to 8) (size 9 to 14) (size 15 to 20)
#    1.000    1.333    1.667    2.000    0.000    2.000 
#    0.000    1.667    0.000    4.000    0.000    0.000 
#    0.000    0.000    0.000    0.000    0.000    0.000 
#
# Total GULP energy -297345.109215 kJ/mol
# GULP energy per Si atom -12389.379551 kJ/mol
# Density = 1.856840 g / cm^3
# Si number density = 18.610764 Si / 1000 Ang^3
#
#
#
# Elastic Constant Matrix: (Units=GPa)
#
#
# Indices 1 2 3 4 5 6 
#
# 1 104.0694 20.4441 54.1939 0.0000 0.0000 0.0000
# 2 20.4441 62.9854 19.7408 0.0000 0.0000 0.0000
# 3 54.1939 19.7408 99.4445 0.0000 0.0000 0.0000
# 4 0.0000 0.0000 0.0000 10.2700 0.0000 0.0000
# 5 0.0000 0.0000 0.0000 0.0000 36.1015 0.0000
# 6 0.0000 0.0000 0.0000 0.0000 0.0000 18.5169
#
#
#
# Elastic Compliance Matrix: (Units=1/GPa)
#
#
# Indices 1 2 3 4 5 6 
#
# 1 0.013709 -0.002248 -0.007024 0.000000 0.000000 0.000000
# 2 -0.002248 0.017299 -0.002209 0.000000 0.000000 0.000000
# 3 -0.007024 -0.002209 0.014322 0.000000 0.000000 0.000000
# 4 0.000000 0.000000 0.000000 0.097371 0.000000 0.000000
# 5 0.000000 0.000000 0.000000 0.000000 0.027700 0.000000
# 6 0.000000 0.000000 0.000000 0.000000 0.000000 0.054005
#
#
# Mechanical properties :
#
#
# Convention : Reuss Voigt Hill
#
# Bulk Modulus (GPa) = 44.70873 50.58409 47.64641
# Shear Modulus (GPa) = 19.62145 24.45238 22.03692
#
# Velocity S-wave (km/s) = 3.25053 3.62869 3.44480
# Velocity P-wave (km/s) = 6.17763 6.69294 6.44044
#
# Compressibility (1/GPa) = 0.02236700
#
# Stress axis : x y z
#
# Youngs Moduli (GPa) = 72.94720 57.80792 69.82054
#
# Poissons Ratio (x) = 0.12995 0.49045
# Poissons Ratio (y) = 0.16398 0.15423
# Poissons Ratio (z) = 0.51241 0.12769
#
# Static dielectric constant tensor:
#      x y z
#    x 3.385880 0.000000 0.000000 
#    y 0.000000 3.210030 0.000000 
#    z 0.000000 0.000000 3.220200 
# 
# 
# High freq. dielectric constant tensor:
#      x y z
#    x 1.724850 0.000000 0.000000 
#    y 0.000000 1.694170 0.000000 
#    z 0.000000 0.000000 1.709050 
# 
# From -- ./inp_files/13492.got.cif
#   From: 2010.03.12/outbox.cif.g09.slc.cpg/sg36_7_cif.got.tgz:13492.got - 2010.04.14 02:13:53.
