data_PCOD8174141
_publ_section_title
;
Structure prediction by ZEFSAII (Michael W. Deem and Ramdas Pophale) SiO2 
 PCOD8174141
Probable space group: C M M 2
;
_chemical_formula_sum "Si O2"
_cell_formula_units_Z 48
_cell_length_a 8.814716
_cell_length_b 17.922519
_cell_length_c 15.487975
_cell_angle_alpha 90.000000
_cell_angle_beta 90.000000
_cell_angle_gamma 90.000000
_cell_volume 2446.819950
_symmetry_space_group_name_H-M "C M M 2"
_symmetry_group_IT_number 35
_symmetry_cell_setting 'orthorhombic'
loop_
_space_group_symop_operation_xyz
x,y,z
-x,-y,z
-x,y,z
x,-y,z
1/2+x,1/2+y,z
1/2-x,1/2-y,z
1/2-x,1/2+y,z
1/2+x,1/2-y,z
loop_
_atom_site_type_symbol
_atom_site_label
_atom_site_fract_x
_atom_site_fract_y
_atom_site_fract_z
Si Si1 0.178632 0.916128 0.728370
Si Si2 0.172540 0.411797 0.403515
Si Si3 0.167568 0.411400 0.898650
Si Si4 0.680115 0.669533 0.561119
Si Si5 0.820223 0.169335 0.245950
Si Si6 0.320928 0.086388 0.090069
O O1 0.227519 0.881601 0.820837
O O2 0.240832 0.864417 0.651431
O O3 0.000000 0.918926 0.725238
O O4 0.244852 0.000000 0.716758
O O5 0.174410 0.500000 0.404923
O O6 0.265716 0.383638 0.485163
O O7 0.253848 0.386146 0.316726
O O8 0.000000 0.381358 0.406205
O O9 0.162675 0.500000 0.898745
O O10 0.000000 0.378861 0.882413
O O11 0.225873 0.386999 0.993349
O O12 0.500000 0.675093 0.559248
O O13 0.750000 0.750000 0.546998
O O14 0.750000 0.250000 0.261559
O O15 0.775509 0.138492 0.152451
O O16 0.000000 0.174170 0.254501
O O17 0.500000 0.098042 0.105395
O O18 0.277920 0.000000 0.105593
#
# Coordination Sequence:
#
# PCOD8174141 Si02
#       6
#     8   8   8   8   8   8
#     4   9  18  33  54  80 110 145 186 233 280 326
#     4  11  24  42  64  88 113 143 181 226 276 331
#     4   8  15  29  52  81 111 144 182 227 277 327
#     4  11  23  39  58  82 115 151 188 230 278 331
#     4  12  25  40  59  83 114 150 187 228 277 332
#     4   9  18  35  58  84 115 149 187 232 280 330
#
# _framework density 19.6173
#
# number of rings (size 3 to 8) (size 9 to 14) (size 15 to 20)
#    0.000    2.000    0.000    5.000    0.000    6.333 
#    0.000    4.167    0.000    2.000    0.000    0.000 
#    0.000    0.000    0.000    0.000    0.000    0.000 
#
# Total GULP energy -297601.362599 kJ/mol
# GULP energy per Si atom -12400.056775 kJ/mol
# Density = 1.957265 g / cm^3
# Si number density = 19.617300 Si / 1000 Ang^3
#
#
#
# Elastic Constant Matrix: (Units=GPa)
#
#
# Indices 1 2 3 4 5 6 
#
# 1 80.7850 32.1264 41.0093 0.0000 0.0000 0.0000
# 2 32.1264 66.1044 35.4941 0.0000 0.0000 0.0000
# 3 41.0093 35.4941 145.8550 0.0000 0.0000 0.0000
# 4 0.0000 0.0000 0.0000 4.9173 0.0000 0.0000
# 5 0.0000 0.0000 0.0000 0.0000 41.8703 0.0000
# 6 0.0000 0.0000 0.0000 0.0000 0.0000 24.6016
#
#
#
# Elastic Compliance Matrix: (Units=1/GPa)
#
#
# Indices 1 2 3 4 5 6 
#
# 1 0.016469 -0.006347 -0.003086 0.000000 0.000000 0.000000
# 2 -0.006347 0.019847 -0.003045 0.000000 0.000000 0.000000
# 3 -0.003086 -0.003045 0.008465 0.000000 0.000000 0.000000
# 4 0.000000 0.000000 0.000000 0.203364 0.000000 0.000000
# 5 0.000000 0.000000 0.000000 0.000000 0.023883 0.000000
# 6 0.000000 0.000000 0.000000 0.000000 0.000000 0.040648
#
#
# Mechanical properties :
#
#
# Convention : Reuss Voigt Hill
#
# Bulk Modulus (GPa) = 50.44189 56.66712 53.55451
# Shear Modulus (GPa) = 14.52470 26.55214 20.53842
#
# Velocity S-wave (km/s) = 2.72399 3.68299 3.23918
# Velocity P-wave (km/s) = 5.97179 6.85820 6.43029
#
# Compressibility (1/GPa) = 0.01982479
#
# Stress axis : x y z
#
# Youngs Moduli (GPa) = 60.71967 50.38465 118.13500
#
# Poissons Ratio (x) = 0.31979 0.36457
# Poissons Ratio (y) = 0.38538 0.35976
# Poissons Ratio (z) = 0.18738 0.15344
#
# Static dielectric constant tensor:
#      x y z
#    x 3.615680 0.000000 0.000000 
#    y 0.000000 3.443380 0.000000 
#    z 0.000000 0.000000 3.935350 
# 
# 
# High freq. dielectric constant tensor:
#      x y z
#    x 1.762180 0.000000 0.000000 
#    y 0.000000 1.746370 0.000000 
#    z 0.000000 0.000000 1.785340 
# 
# From -- ./inp_files/15152.got.cif
#   From: 2010.03.12/outbox.cif.g09.slc.cpg/sg35_8_cif.got.tgz:15152.got - 2010.04.14 02:02:04.
