data_PCOD8174538
_publ_section_title
;
Structure prediction by ZEFSAII (Michael W. Deem and Ramdas Pophale) SiO2 
 PCOD8174538
Probable space group: C M C 21
;
_chemical_formula_sum "Si O2"
_cell_formula_units_Z 64
_cell_length_a 22.455062
_cell_length_b 23.038707
_cell_length_c 7.573299
_cell_angle_alpha 90.000000
_cell_angle_beta 90.000000
_cell_angle_gamma 90.000000
_cell_volume 3917.937137
_symmetry_space_group_name_H-M "C M C 21"
_symmetry_group_IT_number 36
_symmetry_cell_setting 'orthorhombic'
loop_
_space_group_symop_operation_xyz
x,y,z
-x,-y,1/2+z
x,-y,1/2+z
-x,y,z
1/2+x,1/2+y,z
1/2-x,1/2-y,1/2+z
1/2+x,1/2-y,1/2+z
1/2-x,1/2+y,z
loop_
_atom_site_type_symbol
_atom_site_label
_atom_site_fract_x
_atom_site_fract_y
_atom_site_fract_z
Si Si1 0.348530 0.934373 0.910560
Si Si2 0.845949 0.229937 0.903345
Si Si3 0.068266 0.248355 0.205387
Si Si4 0.737114 0.834278 0.500303
Si Si5 0.237114 0.334278 0.910471
Si Si6 0.345949 0.729937 0.507430
Si Si7 0.848530 0.565627 0.000215
Si Si8 0.068322 0.613902 0.705387
O O1 0.289329 0.897364 0.956112
O O2 0.366591 0.926539 0.705387
O O3 0.403210 0.912764 0.028666
O O4 0.331970 0.000000 0.955387
O O5 0.810540 0.286342 0.974518
O O6 0.870540 0.238993 0.705387
O O7 0.901823 0.220533 0.031468
O O8 0.800489 0.175105 0.904377
O O9 0.098177 0.220534 0.379307
O O10 0.074996 0.317363 0.205387
O O11 0.000000 0.228872 0.205387
O O12 0.749164 0.825586 0.705387
O O13 0.689459 0.786342 0.436256
O O14 0.710671 0.897364 0.454662
O O15 0.300489 0.324895 0.006398
O O16 0.903210 0.587236 0.882109
O O17 0.000000 0.594452 0.705387
#
# Coordination Sequence:
#
# PCOD8174538 Si02
#       8
#     8   8   8   8   8   8   8   8
#     4  11  22  36  52  73  99 132 170 218 257 291
#     4  10  19  31  52  76  97 130 164 202 249 308
#     4  11  22  36  51  72 106 134 167 209 249 298
#     4   9  18  31  51  75 100 124 164 206 253 303
#     4   9  18  31  51  75 100 124 164 206 253 303
#     4  10  19  31  52  76  97 130 164 202 249 308
#     4  11  22  36  52  73  99 132 170 218 257 291
#     4  11  24  38  51  66  96 140 181 213 249 292
#
# _framework density 16.335127
#
# number of rings (size 3 to 8) (size 9 to 14) (size 15 to 20)
#    0.000    1.750    5.000    0.000    3.500    1.500 
#    0.000    2.500    0.000    0.000    0.000    0.000 
#    0.000    1.000    0.500    0.000    0.000    0.000 
#
# Total GULP energy -396810.279736 kJ/mol
# GULP energy per Si atom -12400.321242 kJ/mol
# Density = 1.629795 g / cm^3
# Si number density = 16.335127 Si / 1000 Ang^3
#
#
#
# Elastic Constant Matrix: (Units=GPa)
#
#
# Indices 1 2 3 4 5 6 
#
# 1 119.8264 50.6116 63.0901 0.0000 0.0000 0.0000
# 2 50.6116 69.9193 30.9660 0.0000 0.0000 0.0000
# 3 63.0901 30.9660 107.7006 0.0000 0.0000 0.0000
# 4 0.0000 0.0000 0.0000 17.3340 0.0000 0.0000
# 5 0.0000 0.0000 0.0000 0.0000 24.6560 0.0000
# 6 0.0000 0.0000 0.0000 0.0000 0.0000 20.3838
#
#
#
# Elastic Compliance Matrix: (Units=1/GPa)
#
#
# Indices 1 2 3 4 5 6 
#
# 1 0.015247 -0.008114 -0.006598 0.000000 0.000000 0.000000
# 2 -0.008114 0.020707 -0.001201 0.000000 0.000000 0.000000
# 3 -0.006598 -0.001201 0.013496 0.000000 0.000000 0.000000
# 4 0.000000 0.000000 0.000000 0.057690 0.000000 0.000000
# 5 0.000000 0.000000 0.000000 0.000000 0.040558 0.000000
# 6 0.000000 0.000000 0.000000 0.000000 0.000000 0.049059
#
#
# Mechanical properties :
#
#
# Convention : Reuss Voigt Hill
#
# Bulk Modulus (GPa) = 56.74301 65.19798 60.97050
# Shear Modulus (GPa) = 21.32585 22.66001 21.99293
#
# Velocity S-wave (km/s) = 3.61712 3.72855 3.67326
# Velocity P-wave (km/s) = 7.22890 7.65085 7.44286
#
# Compressibility (1/GPa) = 0.01762332
#
# Stress axis : x y z
#
# Youngs Moduli (GPa) = 65.58750 48.29192 74.09866
#
# Poissons Ratio (x) = 0.39185 0.48894
# Poissons Ratio (y) = 0.53219 0.08896
# Poissons Ratio (z) = 0.43278 0.05798
#
# Static dielectric constant tensor:
#      x y z
#    x 2.970440 0.000000 0.000000 
#    y 0.000000 2.987830 0.000000 
#    z 0.000000 0.000000 3.250230 
# 
# 
# High freq. dielectric constant tensor:
#      x y z
#    x 1.605780 0.000000 0.000000 
#    y 0.000000 1.599020 0.000000 
#    z 0.000000 0.000000 1.648210 
# 
# From -- ./inp_files/5402.got.cif
#   From: 2010.03.12/outbox.cif.g09.slc.cpg/sg36_3_cif.got.tgz:5402.got - 2010.04.14 02:13:53.
