data_PCOD8174139
_publ_section_title
;
Structure prediction by ZEFSAII (Michael W. Deem and Ramdas Pophale) SiO2 
 PCOD8174139
Probable space group: C M M 2
;
_chemical_formula_sum "Si O2"
_cell_formula_units_Z 40
_cell_length_a 17.854366
_cell_length_b 7.695139
_cell_length_c 14.436067
_cell_angle_alpha 90.000000
_cell_angle_beta 90.000000
_cell_angle_gamma 90.000000
_cell_volume 1983.397636
_symmetry_space_group_name_H-M "C M M 2"
_symmetry_group_IT_number 35
_symmetry_cell_setting 'orthorhombic'
loop_
_space_group_symop_operation_xyz
x,y,z
-x,-y,z
-x,y,z
x,-y,z
1/2+x,1/2+y,z
1/2-x,1/2-y,z
1/2-x,1/2+y,z
1/2+x,1/2-y,z
loop_
_atom_site_type_symbol
_atom_site_label
_atom_site_fract_x
_atom_site_fract_y
_atom_site_fract_z
Si Si1 0.088588 0.500000 0.539060
Si Si2 0.584281 0.803212 0.044370
Si Si3 0.410990 0.000000 0.330641
Si Si4 0.412081 0.698511 0.672974
Si Si5 0.164450 0.805185 0.220027
Si Si6 0.836131 0.201776 0.863562
O O1 0.120925 0.500000 0.435359
O O2 0.116134 0.674323 0.591436
O O3 0.000000 0.500000 0.534425
O O4 0.500000 0.728078 0.039883
O O5 0.633253 0.691363 0.115436
O O6 0.583397 0.000000 0.081642
O O7 0.620085 0.803277 0.942977
O O8 0.382738 0.175409 0.283124
O O9 0.500000 0.000000 0.326674
O O10 0.500000 0.720011 0.691705
O O11 0.392292 0.500000 0.645302
O O12 0.369422 0.758306 0.765117
O O13 0.250000 0.750000 0.217288
O O14 0.157281 0.000000 0.260793
O O15 0.750000 0.250000 0.866695
O O16 0.848880 0.000000 0.881378
#
# Coordination Sequence:
#
# PCOD8174139 Si02
#       6
#     4   8   4   8   8   8
#     4   9  20  38  65  91 121 157 199 261 318 366
#     4  11  23  39  61  92 126 164 212 260 308 375
#     4  11  24  44  67 101 132 161 219 275 321 390
#     4   9  19  37  61  88 118 158 207 255 307 369
#     4  12  24  43  69  93 132 173 213 262 327 384
#     4  11  23  37  56  84 125 164 208 252 307 371
#
# _framework density 20.167414000000001
#
# number of rings (size 3 to 8) (size 9 to 14) (size 15 to 20)
#    0.000    1.400    2.000    3.000    2.800    4.400 
#    0.000    3.000    0.000    0.000    0.000    0.000 
#    0.000    0.000    0.000    0.000    0.000    0.000 
#
# Total GULP energy -248076.990971 kJ/mol
# GULP energy per Si atom -12403.849549 kJ/mol
# Density = 2.012151 g / cm^3
# Si number density = 20.167414 Si / 1000 Ang^3
#
#
#
# Elastic Constant Matrix: (Units=GPa)
#
#
# Indices 1 2 3 4 5 6 
#
# 1 113.0253 39.7531 51.6893 0.0000 0.0000 0.0000
# 2 39.7531 131.2508 61.7850 0.0000 0.0000 0.0000
# 3 51.6893 61.7850 139.6250 0.0000 0.0000 0.0000
# 4 0.0000 0.0000 0.0000 2110.6247 0.0000 0.0000
# 5 0.0000 0.0000 0.0000 0.0000 7.5634 0.0000
# 6 0.0000 0.0000 0.0000 0.0000 0.0000 23.8809
#
#
#
# Elastic Compliance Matrix: (Units=1/GPa)
#
#
# Indices 1 2 3 4 5 6 
#
# 1 0.010971 -0.001782 -0.003273 0.000000 0.000000 0.000000
# 2 -0.001782 0.009913 -0.003727 0.000000 0.000000 0.000000
# 3 -0.003273 -0.003727 0.010023 0.000000 0.000000 0.000000
# 4 0.000000 0.000000 0.000000 0.000474 0.000000 0.000000
# 5 0.000000 0.000000 0.000000 0.000000 0.132216 0.000000
# 6 0.000000 0.000000 0.000000 0.000000 0.000000 0.041874
#
#
# Mechanical properties :
#
#
# Convention : Reuss Voigt Hill
#
# Bulk Modulus (GPa) = 74.94453 76.70622 75.82537
# Shear Modulus (GPa) = 21.97966 443.79205 232.88586
#
# Velocity S-wave (km/s) = 3.30488 14.85031 10.75765
# Velocity P-wave (km/s) = 7.19756 18.22525 13.85577
#
# Compressibility (1/GPa) = 0.01334320
#
# Stress axis : x y z
#
# Youngs Moduli (GPa) = 91.14766 100.87563 99.77231
#
# Poissons Ratio (x) = 0.17979 0.32654
# Poissons Ratio (y) = 0.16245 0.37184
# Poissons Ratio (z) = 0.29832 0.37595
#
# Static dielectric constant tensor:
#      x y z
#    x 3.632890 0.000000 0.000000 
#    y 0.000000 -5.580380 0.000000 
#    z 0.000000 0.000000 3.740430 
# 
# 
# High freq. dielectric constant tensor:
#      x y z
#    x 1.784970 0.000000 0.000000 
#    y 0.000000 1.800870 0.000000 
#    z 0.000000 0.000000 1.783690 
# 
# From -- ./inp_files/16628.got.cif
#   From: 2010.03.12/outbox.cif.g09.slc.cpg/sg35_9_cif.got.tgz:16628.got - 2010.04.14 02:02:04.
