data_PCOD8174852
_publ_section_title
;
Structure prediction by ZEFSAII (Michael W. Deem and Ramdas Pophale) SiO2 
 PCOD8174852
Probable space group: C M C 21
;
_chemical_formula_sum "Si O2"
_cell_formula_units_Z 56
_cell_length_a 9.292905
_cell_length_b 23.220012
_cell_length_c 12.892100
_cell_angle_alpha 90.000000
_cell_angle_beta 90.000000
_cell_angle_gamma 90.000000
_cell_volume 2781.874944
_symmetry_space_group_name_H-M "C M C 21"
_symmetry_group_IT_number 36
_symmetry_cell_setting 'orthorhombic'
loop_
_space_group_symop_operation_xyz
x,y,z
-x,-y,1/2+z
x,-y,1/2+z
-x,y,z
1/2+x,1/2+y,z
1/2-x,1/2-y,1/2+z
1/2+x,1/2-y,1/2+z
1/2-x,1/2+y,z
loop_
_atom_site_type_symbol
_atom_site_label
_atom_site_fract_x
_atom_site_fract_y
_atom_site_fract_z
Si Si1 0.659470 0.194905 0.391250
Si Si2 0.255621 0.209555 0.028766
Si Si3 0.338455 0.403979 0.636171
Si Si4 0.840044 0.773373 0.218234
Si Si5 0.668466 0.463056 0.422394
Si Si6 0.663191 0.859400 0.330527
Si Si7 0.171307 0.426573 0.843048
O O1 0.500000 0.181766 0.352182
O O2 0.654823 0.238211 0.488531
O O3 0.735025 0.226169 0.293795
O O4 0.722110 0.130632 0.408034
O O5 0.169253 0.161021 0.091288
O O6 0.359068 0.245183 0.105412
O O7 0.339844 0.181035 0.933034
O O8 0.500000 0.412741 0.679881
O O9 0.307866 0.448439 0.542982
O O10 0.221332 0.417761 0.723882
O O11 0.736164 0.828724 0.230354
O O12 0.000000 0.791527 0.257123
O O13 0.500000 0.465069 0.393962
O O14 0.744617 0.416232 0.349844
O O15 0.743356 0.523339 0.399844
O O16 0.500000 0.875925 0.302016
O O17 0.000000 0.439117 0.845168
#
# Coordination Sequence:
#
# PCOD8174852 Si02
#       7
#     8   8   8   8   8   8   8
#     4   9  19  35  55  85 121 154 190 237 292 345
#     4  10  19  35  59  88 119 156 196 242 290 360
#     4  10  21  38  64  90 116 158 203 247 302 362
#     4  10  19  35  56  82 119 157 189 233 294 353
#     4  10  22  42  63  85 116 157 202 249 299 356
#     4  10  21  36  58  88 116 149 198 248 295 352
#     4  11  22  39  63  90 121 159 202 252 300 352
#
# _framework density 20.130309
#
# number of rings (size 3 to 8) (size 9 to 14) (size 15 to 20)
#    0.000    2.000    1.429    2.143    0.000    7.429 
#    2.571    2.143    0.000    0.000    0.000    0.000 
#    0.000    0.000    0.000    0.000    0.000    0.000 
#
# Total GULP energy -346869.751528 kJ/mol
# GULP energy per Si atom -12388.205412 kJ/mol
# Density = 2.008449 g / cm^3
# Si number density = 20.130309 Si / 1000 Ang^3
#
#
#
# Elastic Constant Matrix: (Units=GPa)
#
#
# Indices 1 2 3 4 5 6 
#
# 1 116.5999 54.1686 21.2471 0.0000 0.0000 0.0000
# 2 54.1686 147.1249 43.2129 0.0000 0.0000 0.0000
# 3 21.2471 43.2129 64.3420 0.0000 0.0000 0.0000
# 4 0.0000 0.0000 0.0000 32.7902 0.0000 0.0000
# 5 0.0000 0.0000 0.0000 0.0000 22.2280 0.0000
# 6 0.0000 0.0000 0.0000 0.0000 0.0000 24.8476
#
#
#
# Elastic Compliance Matrix: (Units=1/GPa)
#
#
# Indices 1 2 3 4 5 6 
#
# 1 0.010405 -0.003515 -0.001075 0.000000 0.000000 0.000000
# 2 -0.003515 0.009655 -0.005323 0.000000 0.000000 0.000000
# 3 -0.001075 -0.005323 0.019472 0.000000 0.000000 0.000000
# 4 0.000000 0.000000 0.000000 0.030497 0.000000 0.000000
# 5 0.000000 0.000000 0.000000 0.000000 0.044988 0.000000
# 6 0.000000 0.000000 0.000000 0.000000 0.000000 0.040245
#
#
# Mechanical properties :
#
#
# Convention : Reuss Voigt Hill
#
# Bulk Modulus (GPa) = 50.74947 62.81379 56.78163
# Shear Modulus (GPa) = 27.52411 29.93571 28.72991
#
# Velocity S-wave (km/s) = 3.70171 3.86047 3.78192
# Velocity P-wave (km/s) = 6.59814 7.15139 6.88032
#
# Compressibility (1/GPa) = 0.01970464
#
# Stress axis : x y z
#
# Youngs Moduli (GPa) = 96.10451 103.57564 51.35498
#
# Poissons Ratio (x) = 0.36409 0.05522
# Poissons Ratio (y) = 0.33783 0.27339
# Poissons Ratio (z) = 0.10333 0.55138
#
# Static dielectric constant tensor:
#      x y z
#    x 3.475370 0.000000 0.000000 
#    y 0.000000 3.873250 0.000000 
#    z 0.000000 0.000000 3.508800 
# 
# 
# High freq. dielectric constant tensor:
#      x y z
#    x 1.777790 0.000000 0.000000 
#    y 0.000000 1.792000 0.000000 
#    z 0.000000 0.000000 1.769020 
# 
# From -- ./inp_files/10643.got.cif
#   From: 2010.03.12/outbox.cif.g09.slc.cpg/sg36_6_cif.got.tgz:10643.got - 2010.04.14 02:13:53.
