data_PCOD8174935
_publ_section_title
;
Structure prediction by ZEFSAII (Michael W. Deem and Ramdas Pophale) SiO2 
 PCOD8174935
Probable space group: C M C 21
;
_chemical_formula_sum "Si O2"
_cell_formula_units_Z 64
_cell_length_a 16.929196
_cell_length_b 20.503975
_cell_length_c 9.189830
_cell_angle_alpha 90.000000
_cell_angle_beta 90.000000
_cell_angle_gamma 90.000000
_cell_volume 3189.935298
_symmetry_space_group_name_H-M "C M C 21"
_symmetry_group_IT_number 36
_symmetry_cell_setting 'orthorhombic'
loop_
_space_group_symop_operation_xyz
x,y,z
-x,-y,1/2+z
x,-y,1/2+z
-x,y,z
1/2+x,1/2+y,z
1/2-x,1/2-y,1/2+z
1/2+x,1/2-y,1/2+z
1/2-x,1/2+y,z
loop_
_atom_site_type_symbol
_atom_site_label
_atom_site_fract_x
_atom_site_fract_y
_atom_site_fract_z
Si Si1 0.907720 0.685072 0.769930
Si Si2 0.352450 0.808860 0.592297
Si Si3 0.905884 0.568572 0.266925
Si Si4 0.592394 0.696268 0.788768
Si Si5 0.590063 0.432453 0.624889
Si Si6 0.910895 0.946303 0.290166
Si Si7 0.332021 0.297152 0.591838
Si Si8 0.906486 0.558388 0.598431
O O1 0.857688 0.746225 0.714667
O O2 0.875893 0.621307 0.685934
O O3 0.000000 0.697046 0.739074
O O4 0.893905 0.674094 0.940606
O O5 0.365504 0.867301 0.704010
O O6 0.392531 0.743809 0.655182
O O7 0.260967 0.795546 0.570677
O O8 0.876701 0.560454 0.432682
O O9 0.874302 0.506702 0.176103
O O10 0.000000 0.576313 0.257836
O O11 0.500000 0.688963 0.822654
O O12 0.627462 0.624182 0.750261
O O13 0.630694 0.723105 0.937180
O O14 0.500000 0.417361 0.674607
O O15 0.631045 0.491227 0.716377
O O16 0.592446 0.456820 0.460948
O O17 0.641077 0.367799 0.647731
O O18 0.000000 0.946736 0.229444
O O19 0.000000 0.556669 0.604190
#
# Coordination Sequence:
#
# PCOD8174935 Si02
#       8
#     8   8   8   8   8   8   8   8
#     4  11  22  38  60  87 113 149 198 246 290 344
#     4  12  24  37  55  86 121 151 188 242 297 348
#     4  10  19  36  59  85 115 151 192 239 290 348
#     4  10  20  39  62  82 108 153 198 235 284 349
#     4   9  17  34  57  80 105 140 182 228 276 334
#     4   8  16  30  54  82 105 133 182 234 273 319
#     4  11  23  39  56  82 118 153 189 235 292 351
#     4   9  19  35  61  88 111 144 195 247 288 335
#
# _framework density 20.063102000000001
#
# number of rings (size 3 to 8) (size 9 to 14) (size 15 to 20)
#    0.000    2.000    0.000    5.250    0.000    4.000 
#    0.000    8.750    0.000    0.000    0.000    0.000 
#    0.000    0.000    0.000    0.000    0.000    0.000 
#
# Total GULP energy -396847.449236 kJ/mol
# GULP energy per Si atom -12401.482789 kJ/mol
# Density = 2.001744 g / cm^3
# Si number density = 20.063102 Si / 1000 Ang^3
#
#
#
# Elastic Constant Matrix: (Units=GPa)
#
#
# Indices 1 2 3 4 5 6 
#
# 1 56.4043 16.8911 13.6808 0.0000 0.0000 0.0000
# 2 16.8911 118.5416 49.5489 0.0000 0.0000 0.0000
# 3 13.6808 49.5489 103.8917 0.0000 0.0000 0.0000
# 4 0.0000 0.0000 0.0000 48.0398 0.0000 0.0000
# 5 0.0000 0.0000 0.0000 0.0000 18.9802 0.0000
# 6 0.0000 0.0000 0.0000 0.0000 0.0000 8.8162
#
#
#
# Elastic Compliance Matrix: (Units=1/GPa)
#
#
# Indices 1 2 3 4 5 6 
#
# 1 0.018702 -0.002043 -0.001489 0.000000 0.000000 0.000000
# 2 -0.002043 0.010759 -0.004862 0.000000 0.000000 0.000000
# 3 -0.001489 -0.004862 0.012140 0.000000 0.000000 0.000000
# 4 0.000000 0.000000 0.000000 0.020816 0.000000 0.000000
# 5 0.000000 0.000000 0.000000 0.000000 0.052686 0.000000
# 6 0.000000 0.000000 0.000000 0.000000 0.000000 0.113428
#
#
# Mechanical properties :
#
#
# Convention : Reuss Voigt Hill
#
# Bulk Modulus (GPa) = 40.29913 48.78656 44.54285
# Shear Modulus (GPa) = 19.71683 28.41504 24.06593
#
# Velocity S-wave (km/s) = 3.13827 3.76744 3.46715
# Velocity P-wave (km/s) = 5.76727 6.57983 6.18690
#
# Compressibility (1/GPa) = 0.02481443
#
# Stress axis : x y z
#
# Youngs Moduli (GPa) = 53.47059 92.94233 82.36919
#
# Poissons Ratio (x) = 0.18985 0.12261
# Poissons Ratio (y) = 0.10922 0.40052
# Poissons Ratio (z) = 0.07959 0.45193
#
# Static dielectric constant tensor:
#      x y z
#    x 3.313010 0.000000 0.000000 
#    y 0.000000 3.888300 0.000000 
#    z 0.000000 0.000000 3.662230 
# 
# 
# High freq. dielectric constant tensor:
#      x y z
#    x 1.750960 0.000000 0.000000 
#    y 0.000000 1.800600 0.000000 
#    z 0.000000 0.000000 1.786290 
# 
# From -- ./inp_files/4947.got.cif
#   From: 2010.03.12/outbox.cif.g09.slc.cpg/sg36_3_cif.got.tgz:4947.got - 2010.04.14 02:13:53.
