data_PCOD8174381
_publ_section_title
;
Structure prediction by ZEFSAII (Michael W. Deem and Ramdas Pophale) SiO2 
 PCOD8174381
Probable space group: C M C 21
;
_chemical_formula_sum "Si O2"
_cell_formula_units_Z 64
_cell_length_a 9.076045
_cell_length_b 20.582316
_cell_length_c 19.255913
_cell_angle_alpha 90.000000
_cell_angle_beta 90.000000
_cell_angle_gamma 90.000000
_cell_volume 3597.120589
_symmetry_space_group_name_H-M "C M C 21"
_symmetry_group_IT_number 36
_symmetry_cell_setting 'orthorhombic'
loop_
_space_group_symop_operation_xyz
x,y,z
-x,-y,1/2+z
x,-y,1/2+z
-x,y,z
1/2+x,1/2+y,z
1/2-x,1/2-y,1/2+z
1/2+x,1/2-y,1/2+z
1/2-x,1/2+y,z
loop_
_atom_site_type_symbol
_atom_site_label
_atom_site_fract_x
_atom_site_fract_y
_atom_site_fract_z
Si Si1 0.824917 0.682323 0.194430
Si Si2 0.174226 0.889522 0.060225
Si Si3 0.327474 0.760306 0.554098
Si Si4 0.824891 0.572632 0.698111
Si Si5 0.167516 0.757134 0.418830
Si Si6 0.170943 0.189636 0.771972
Si Si7 0.672856 0.108287 0.419103
Si Si8 0.325257 0.941950 0.772802
O O1 0.768653 0.693392 0.115707
O O2 0.772603 0.743164 0.239812
O O3 0.757298 0.616319 0.225974
O O4 0.000000 0.679169 0.196320
O O5 0.217587 0.814042 0.070204
O O6 0.249682 0.929160 0.122563
O O7 0.000000 0.900833 0.062107
O O8 0.237527 0.915143 0.986835
O O9 0.500000 0.765650 0.546588
O O10 0.260486 0.785518 0.482376
O O11 0.772971 0.633261 0.743216
O O12 0.771026 0.509433 0.740530
O O13 0.000000 0.574352 0.688688
O O14 0.193815 0.804855 0.354359
O O15 0.211592 0.683039 0.400650
O O16 0.000000 0.758205 0.443070
O O17 0.000000 0.176068 0.752328
O O18 0.500000 0.099128 0.433977
O O19 0.725763 0.065446 0.353055
O O20 0.500000 0.936451 0.770852
#
# Coordination Sequence:
#
# PCOD8174381 Si02
#       8
#     8   8   8   8   8   8   8   8
#     4   9  15  30  54  76  97 130 174 212 256 307
#     4  10  19  33  52  76 105 138 173 211 259 316
#     4   9  17  29  50  76 102 131 167 212 258 304
#     4  11  22  34  51  79 109 139 175 217 258 303
#     4   9  17  29  51  78 102 130 167 212 260 306
#     4  10  18  33  55  76 101 136 172 210 261 314
#     4   9  16  31  55  79 100 128 171 221 261 303
#     4   9  18  33  54  78 104 134 175 219 257 303
#
# _framework density 17.792007999999999
#
# number of rings (size 3 to 8) (size 9 to 14) (size 15 to 20)
#    0.000    2.500    2.500    0.750    0.000    1.000 
#    0.000    2.500    0.000    9.750    0.000    0.000 
#    0.000    0.000    0.000    0.000    0.000    0.000 
#
# Total GULP energy -396737.036634 kJ/mol
# GULP energy per Si atom -12398.032395 kJ/mol
# Density = 1.775151 g / cm^3
# Si number density = 17.792008 Si / 1000 Ang^3
#
#
#
# Elastic Constant Matrix: (Units=GPa)
#
#
# Indices 1 2 3 4 5 6 
#
# 1 43.0062 25.8846 44.5185 0.0000 0.0000 0.0000
# 2 25.8846 80.8567 57.1565 0.0000 0.0000 0.0000
# 3 44.5185 57.1565 149.6598 0.0000 0.0000 0.0000
# 4 0.0000 0.0000 0.0000 27.3463 0.0000 0.0000
# 5 0.0000 0.0000 0.0000 0.0000 31.1178 0.0000
# 6 0.0000 0.0000 0.0000 0.0000 0.0000 18.2320
#
#
#
# Elastic Compliance Matrix: (Units=1/GPa)
#
#
# Indices 1 2 3 4 5 6 
#
# 1 0.035178 -0.005294 -0.008443 0.000000 0.000000 0.000000
# 2 -0.005294 0.017738 -0.005200 0.000000 0.000000 0.000000
# 3 -0.008443 -0.005200 0.011179 0.000000 0.000000 0.000000
# 4 0.000000 0.000000 0.000000 0.036568 0.000000 0.000000
# 5 0.000000 0.000000 0.000000 0.000000 0.032136 0.000000
# 6 0.000000 0.000000 0.000000 0.000000 0.000000 0.054849
#
#
# Mechanical properties :
#
#
# Convention : Reuss Voigt Hill
#
# Bulk Modulus (GPa) = 38.13406 58.73799 48.43603
# Shear Modulus (GPa) = 21.34383 25.07008 23.20695
#
# Velocity S-wave (km/s) = 3.46733 3.75782 3.61549
# Velocity P-wave (km/s) = 6.12451 7.20511 6.68667
#
# Compressibility (1/GPa) = 0.02622328
#
# Stress axis : x y z
#
# Youngs Moduli (GPa) = 28.42685 56.37710 89.45406
#
# Poissons Ratio (x) = 0.29844 0.75522
# Poissons Ratio (y) = 0.15048 0.46512
# Poissons Ratio (z) = 0.23999 0.29313
#
# Static dielectric constant tensor:
#      x y z
#    x 3.027090 0.000000 0.000000 
#    y 0.000000 3.214830 0.000000 
#    z 0.000000 0.000000 3.536740 
# 
# 
# High freq. dielectric constant tensor:
#      x y z
#    x 1.661570 0.000000 0.000000 
#    y 0.000000 1.660320 0.000000 
#    z 0.000000 0.000000 1.706810 
# 
# From -- ./inp_files/13925.got.cif
#   From: 2010.03.12/outbox.cif.g09.slc.cpg/sg36_7_cif.got.tgz:13925.got - 2010.04.14 02:13:53.
