data_PCOD8174108
_publ_section_title
;
Structure prediction by ZEFSAII (Michael W. Deem and Ramdas Pophale) SiO2 
 PCOD8174108
Probable space group: C M M 2
;
_chemical_formula_sum "Si O2"
_cell_formula_units_Z 64
_cell_length_a 29.553147
_cell_length_b 8.755416
_cell_length_c 12.435694
_cell_angle_alpha 90.000000
_cell_angle_beta 90.000000
_cell_angle_gamma 90.000000
_cell_volume 3217.737017
_symmetry_space_group_name_H-M "C M M 2"
_symmetry_group_IT_number 35
_symmetry_cell_setting 'orthorhombic'
loop_
_space_group_symop_operation_xyz
x,y,z
-x,-y,z
-x,y,z
x,-y,z
1/2+x,1/2+y,z
1/2-x,1/2-y,z
1/2-x,1/2+y,z
1/2+x,1/2-y,z
loop_
_atom_site_type_symbol
_atom_site_label
_atom_site_fract_x
_atom_site_fract_y
_atom_site_fract_z
Si Si1 0.204128 0.325404 0.320290
Si Si2 0.450394 0.320041 0.939409
Si Si3 0.570603 0.322771 0.172364
Si Si4 0.700031 0.819049 0.678267
Si Si5 0.141249 0.677904 0.875991
Si Si6 0.356732 0.319598 0.486658
Si Si7 0.157720 0.672270 0.112894
Si Si8 0.450879 0.319188 0.404360
O O1 0.202208 0.500000 0.360853
O O2 0.250000 0.250000 0.361207
O O3 0.163582 0.228406 0.371831
O O4 0.201726 0.317565 0.189538
O O5 0.500000 0.281263 0.888778
O O6 0.441746 0.500000 0.940054
O O7 0.409385 0.247786 0.871212
O O8 0.451042 0.255340 0.062320
O O9 0.559806 0.500000 0.176010
O O10 0.623716 0.292041 0.165435
O O11 0.552019 0.248411 0.283139
O O12 0.750000 0.750000 0.671668
O O13 0.673679 0.755031 0.783324
O O14 0.669757 0.771464 0.577555
O O15 0.705184 0.000000 0.681121
O O16 0.134844 0.500000 0.856962
O O17 0.166866 0.715714 0.988592
O O18 0.351679 0.500000 0.505958
O O19 0.409720 0.266560 0.481959
O O20 0.137511 0.500000 0.117141
O O21 0.500000 0.271894 0.453544
O O22 0.446553 0.500000 0.393039
#
# Coordination Sequence:
#
# PCOD8174108 Si02
#       8
#     8   8   8   8   8   8   8   8
#     4  11  22  35  54  80 113 147 182 225 278 339
#     4   9  17  29  50  83 119 153 190 231 271 318
#     4   9  15  27  49  77 111 150 188 225 266 317
#     4  11  24  43  65  85 107 139 186 239 290 338
#     4   9  20  38  58  81 111 147 186 231 282 336
#     4  11  22  38  60  84 113 146 187 231 278 332
#     4   9  18  33  52  77 112 148 179 221 275 330
#     4   9  17  30  52  82 113 146 184 225 270 322
#
# _framework density 19.889755000000001
#
# number of rings (size 3 to 8) (size 9 to 14) (size 15 to 20)
#    0.000    2.250    1.250    1.875    0.000    3.750 
#    0.000    0.625    0.000    6.375    0.000    0.000 
#    0.000    0.000    0.000    0.000    0.000    0.000 
#
# Total GULP energy -396482.558276 kJ/mol
# GULP energy per Si atom -12390.079946 kJ/mol
# Density = 1.984449 g / cm^3
# Si number density = 19.889755 Si / 1000 Ang^3
#
#
#
# Elastic Constant Matrix: (Units=GPa)
#
#
# Indices 1 2 3 4 5 6 
#
# 1 156.0117 28.2154 63.7701 0.0000 0.0000 0.0000
# 2 28.2154 35.4908 18.9848 0.0000 0.0000 0.0000
# 3 63.7701 18.9848 103.3434 0.0000 0.0000 0.0000
# 4 0.0000 0.0000 0.0000 20.4242 0.0000 0.0000
# 5 0.0000 0.0000 0.0000 0.0000 26.2311 0.0000
# 6 0.0000 0.0000 0.0000 0.0000 0.0000 20.8439
#
#
#
# Elastic Compliance Matrix: (Units=1/GPa)
#
#
# Indices 1 2 3 4 5 6 
#
# 1 0.009246 -0.004767 -0.004830 0.000000 0.000000 0.000000
# 2 -0.004767 0.033705 -0.003250 0.000000 0.000000 0.000000
# 3 -0.004830 -0.003250 0.013254 0.000000 0.000000 0.000000
# 4 0.000000 0.000000 0.000000 0.048962 0.000000 0.000000
# 5 0.000000 0.000000 0.000000 0.000000 0.038123 0.000000
# 6 0.000000 0.000000 0.000000 0.000000 0.000000 0.047976
#
#
# Mechanical properties :
#
#
# Convention : Reuss Voigt Hill
#
# Bulk Modulus (GPa) = 32.77537 57.42071 45.09804
# Shear Modulus (GPa) = 22.01392 25.75820 23.88606
#
# Velocity S-wave (km/s) = 3.33047 3.60258 3.46919
# Velocity P-wave (km/s) = 5.59496 6.79978 6.22658
#
# Compressibility (1/GPa) = 0.03051072
#
# Stress axis : x y z
#
# Youngs Moduli (GPa) = 108.15369 29.66937 75.44997
#
# Poissons Ratio (x) = 0.14144 0.36440
# Poissons Ratio (y) = 0.51559 0.24522
# Poissons Ratio (z) = 0.52235 0.09643
#
# Static dielectric constant tensor:
#      x y z
#    x 3.733540 0.000000 0.000000 
#    y 0.000000 3.417810 0.000000 
#    z 0.000000 0.000000 3.663000 
# 
# 
# High freq. dielectric constant tensor:
#      x y z
#    x 1.776810 0.000000 0.000000 
#    y 0.000000 1.754070 0.000000 
#    z 0.000000 0.000000 1.763250 
# 
# From -- ./inp_files/14536.got.cif
#   From: 2010.03.12/outbox.cif.g09.slc.cpg/sg35_8_cif.got.tgz:14536.got - 2010.04.14 02:02:04.
