data_PCOD8174680
_publ_section_title
;
Structure prediction by ZEFSAII (Michael W. Deem and Ramdas Pophale) SiO2 
 PCOD8174680
Probable space group: C M C 21
;
_chemical_formula_sum "Si O2"
_cell_formula_units_Z 64
_cell_length_a 8.650585
_cell_length_b 22.862898
_cell_length_c 16.308877
_cell_angle_alpha 90.000000
_cell_angle_beta 90.000000
_cell_angle_gamma 90.000000
_cell_volume 3225.527983
_symmetry_space_group_name_H-M "C M C 21"
_symmetry_group_IT_number 36
_symmetry_cell_setting 'orthorhombic'
loop_
_space_group_symop_operation_xyz
x,y,z
-x,-y,1/2+z
x,-y,1/2+z
-x,y,z
1/2+x,1/2+y,z
1/2-x,1/2-y,1/2+z
1/2+x,1/2-y,1/2+z
1/2-x,1/2+y,z
loop_
_atom_site_type_symbol
_atom_site_label
_atom_site_fract_x
_atom_site_fract_y
_atom_site_fract_z
Si Si1 0.329022 0.837889 0.594670
Si Si2 0.685353 0.033370 0.105178
Si Si3 0.181815 0.216623 0.635371
Si Si4 0.680389 0.015362 0.778426
Si Si5 0.828295 0.715365 0.915535
Si Si6 0.676077 0.361781 0.288790
Si Si7 0.818770 0.328444 0.973040
Si Si8 0.183907 0.539429 0.447349
O O1 0.500000 0.851684 0.627771
O O2 0.243424 0.900584 0.598054
O O3 0.259164 0.784230 0.648662
O O4 0.333859 0.810726 0.505269
O O5 0.500000 0.031969 0.101853
O O6 0.749279 0.008901 0.192299
O O7 0.748600 0.996039 0.027079
O O8 0.215443 0.183073 0.717672
O O9 0.281049 0.183586 0.567353
O O10 0.000000 0.216717 0.610454
O O11 0.500000 0.002937 0.778098
O O12 0.710356 0.083942 0.781991
O O13 0.751126 0.986032 0.861173
O O14 0.707786 0.673680 0.870779
O O15 0.000000 0.713654 0.876026
O O16 0.768809 0.782169 0.915042
O O17 0.500000 0.383919 0.286688
O O18 0.000000 0.322068 0.957324
O O19 0.760561 0.393599 0.952125
O O20 0.000000 0.534720 0.447969
#
# Coordination Sequence:
#
# PCOD8174680 Si02
#       8
#     8   8   8   8   8   8   8   8
#     4   8  15  30  52  75  98 128 170 217 261 311
#     4   9  16  28  50  77 101 130 172 218 260 307
#     4   9  19  34  52  76 106 139 174 218 273 327
#     4  10  20  34  54  77 101 136 181 222 266 323
#     4  10  20  35  55  77 104 139 178 221 271 324
#     4  11  22  35  52  76 107 139 176 223 272 319
#     4  10  19  33  54  79 107 137 175 221 269 321
#     4   9  18  31  49  77 108 136 172 220 266 316
#
# _framework density 19.841714
#
# number of rings (size 3 to 8) (size 9 to 14) (size 15 to 20)
#    0.000    2.500    0.000    3.375    0.000    5.000 
#    0.000    5.000    0.000    7.500    0.000    0.000 
#    0.000    0.000    0.000    0.000    0.000    0.000 
#
# Total GULP energy -396567.575430 kJ/mol
# GULP energy per Si atom -12392.736732 kJ/mol
# Density = 1.979655 g / cm^3
# Si number density = 19.841714 Si / 1000 Ang^3
#
#
#
# Elastic Constant Matrix: (Units=GPa)
#
#
# Indices 1 2 3 4 5 6 
#
# 1 19.2399 13.6744 12.1032 0.0000 0.0000 0.0000
# 2 13.6744 180.1693 67.9285 0.0000 0.0000 0.0000
# 3 12.1032 67.9285 96.2597 0.0000 0.0000 0.0000
# 4 0.0000 0.0000 0.0000 1.1598 0.0000 0.0000
# 5 0.0000 0.0000 0.0000 0.0000 16.9228 0.0000
# 6 0.0000 0.0000 0.0000 0.0000 0.0000 25.5191
#
#
#
# Elastic Compliance Matrix: (Units=1/GPa)
#
#
# Indices 1 2 3 4 5 6 
#
# 1 0.057081 -0.002216 -0.005613 0.000000 0.000000 0.000000
# 2 -0.002216 0.007648 -0.005119 0.000000 0.000000 0.000000
# 3 -0.005613 -0.005119 0.014707 0.000000 0.000000 0.000000
# 4 0.000000 0.000000 0.000000 0.862220 0.000000 0.000000
# 5 0.000000 0.000000 0.000000 0.000000 0.059092 0.000000
# 6 0.000000 0.000000 0.000000 0.000000 0.000000 0.039186
#
#
# Mechanical properties :
#
#
# Convention : Reuss Voigt Hill
#
# Bulk Modulus (GPa) = 18.67753 53.67568 36.17660
# Shear Modulus (GPa) = 4.61392 22.18453 13.39922
#
# Velocity S-wave (km/s) = 1.52657 3.34739 2.60148
# Velocity P-wave (km/s) = 3.54132 6.48465 5.22454
#
# Compressibility (1/GPa) = 0.05354028
#
# Stress axis : x y z
#
# Youngs Moduli (GPa) = 17.51886 130.74617 67.99710
#
# Poissons Ratio (x) = 0.28973 0.38169
# Poissons Ratio (y) = 0.03882 0.34806
# Poissons Ratio (z) = 0.09834 0.66925
#
# Static dielectric constant tensor:
#      x y z
#    x 3.235120 0.000000 0.000000 
#    y 0.000000 4.058090 0.000000 
#    z 0.000000 0.000000 3.699460 
# 
# 
# High freq. dielectric constant tensor:
#      x y z
#    x 1.726950 0.000000 0.000000 
#    y 0.000000 1.793720 0.000000 
#    z 0.000000 0.000000 1.771770 
# 
# From -- ./inp_files/13778.got.cif
#   From: 2010.03.12/outbox.cif.g09.slc.cpg/sg36_7_cif.got.tgz:13778.got - 2010.04.14 02:13:53.
