data_PCOD8174586
_publ_section_title
;
Structure prediction by ZEFSAII (Michael W. Deem and Ramdas Pophale) SiO2 
 PCOD8174586
Probable space group: C M C 21
;
_chemical_formula_sum "Si O2"
_cell_formula_units_Z 48
_cell_length_a 9.075109
_cell_length_b 18.784698
_cell_length_c 15.132331
_cell_angle_alpha 90.000000
_cell_angle_beta 90.000000
_cell_angle_gamma 90.000000
_cell_volume 2579.656615
_symmetry_space_group_name_H-M "C M C 21"
_symmetry_group_IT_number 36
_symmetry_cell_setting 'orthorhombic'
loop_
_space_group_symop_operation_xyz
x,y,z
-x,-y,1/2+z
x,-y,1/2+z
-x,y,z
1/2+x,1/2+y,z
1/2-x,1/2-y,1/2+z
1/2+x,1/2-y,1/2+z
1/2-x,1/2+y,z
loop_
_atom_site_type_symbol
_atom_site_label
_atom_site_fract_x
_atom_site_fract_y
_atom_site_fract_z
Si Si1 0.334594 0.261302 0.509360
Si Si2 0.330372 0.049986 0.143211
Si Si3 0.168046 0.162352 0.380502
Si Si4 0.670763 0.426594 0.473642
Si Si5 0.172708 0.516758 0.335482
Si Si6 0.334277 0.313562 0.689039
O O1 0.500000 0.242341 0.478962
O O2 0.224027 0.208397 0.462090
O O3 0.298081 0.343111 0.486425
O O4 0.316376 0.250798 0.616177
O O5 0.500000 0.044692 0.114848
O O6 0.232078 0.028736 0.058346
O O7 0.297348 0.002977 0.230818
O O8 0.293321 0.130097 0.171316
O O9 0.257199 0.089726 0.370730
O O10 0.181715 0.210868 0.291036
O O11 0.000000 0.141647 0.399562
O O12 0.500000 0.444249 0.463033
O O13 0.755708 0.450417 0.385849
O O14 0.000000 0.520705 0.355058
O O15 0.500000 0.347119 0.674977
#
# Coordination Sequence:
#
# PCOD8174586 Si02
#       6
#     8   8   8   8   8   8
#     4   9  18  33  51  72  99 130 163 202 247 291
#     4   9  17  30  50  74  98 128 166 206 248 297
#     4  10  19  32  52  76 100 129 166 205 246 295
#     4  10  20  34  53  75 101 134 169 207 249 295
#     4  10  20  34  53  76 102 132 166 206 251 298
#     4   8  16  31  49  69  96 131 166 200 243 296
#
# _framework density 18.607126000000001
#
# number of rings (size 3 to 8) (size 9 to 14) (size 15 to 20)
#    0.000    2.667    0.000    3.000    0.000    6.000 
#    0.000    1.667    0.000    6.000    0.000    0.000 
#    0.000    0.000    0.000    0.000    0.000    0.000 
#
# Total GULP energy -297403.066275 kJ/mol
# GULP energy per Si atom -12391.794428 kJ/mol
# Density = 1.856478 g / cm^3
# Si number density = 18.607126 Si / 1000 Ang^3
#
#
#
# Elastic Constant Matrix: (Units=GPa)
#
#
# Indices 1 2 3 4 5 6 
#
# 1 78.1050 6.2069 2.2347 0.0000 0.0000 0.0000
# 2 6.2069 19.3261 -7.8684 0.0000 0.0000 0.0000
# 3 2.2347 -7.8684 22.1885 0.0000 0.0000 0.0000
# 4 0.0000 0.0000 0.0000 27.5664 0.0000 0.0000
# 5 0.0000 0.0000 0.0000 0.0000 31.9192 0.0000
# 6 0.0000 0.0000 0.0000 0.0000 0.0000 27.4803
#
#
#
# Elastic Compliance Matrix: (Units=1/GPa)
#
#
# Indices 1 2 3 4 5 6 
#
# 1 0.013348 -0.005650 -0.003348 0.000000 0.000000 0.000000
# 2 -0.005650 0.062866 0.022862 0.000000 0.000000 0.000000
# 3 -0.003348 0.022862 0.053513 0.000000 0.000000 0.000000
# 4 0.000000 0.000000 0.000000 0.036276 0.000000 0.000000
# 5 0.000000 0.000000 0.000000 0.000000 0.031329 0.000000
# 6 0.000000 0.000000 0.000000 0.000000 0.000000 0.036390
#
#
# Mechanical properties :
#
#
# Convention : Reuss Voigt Hill
#
# Bulk Modulus (GPa) = 6.35098 13.41844 9.88471
# Shear Modulus (GPa) = 19.34397 25.32962 22.33679
#
# Velocity S-wave (km/s) = 3.22778 3.69356 3.46850
# Velocity P-wave (km/s) = 4.16077 5.04153 4.62218
#
# Compressibility (1/GPa) = 0.15745605
#
# Stress axis : x y z
#
# Youngs Moduli (GPa) = 74.91723 15.90677 18.68710
#
# Poissons Ratio (x) = 0.08987 0.06256
# Poissons Ratio (y) = 0.42328 -0.42723
# Poissons Ratio (z) = 0.25082 -0.36367
#
# Static dielectric constant tensor:
#      x y z
#    x 3.508920 0.000000 0.000000 
#    y 0.000000 2.890510 0.000000 
#    z 0.000000 0.000000 3.866130 
# 
# 
# High freq. dielectric constant tensor:
#      x y z
#    x 1.735200 0.000000 0.000000 
#    y 0.000000 1.664170 0.000000 
#    z 0.000000 0.000000 1.739930 
# 
# From -- ./inp_files/10344.got.cif
#   From: 2010.03.12/outbox.cif.g09.slc.cpg/sg36_6_cif.got.tgz:10344.got - 2010.04.14 02:13:53.
