data_PCOD8174075
_publ_section_title
;
Structure prediction by ZEFSAII (Michael W. Deem and Ramdas Pophale) SiO2 
 PCOD8174075
Probable space group: C M M 2
;
_chemical_formula_sum "Si O2"
_cell_formula_units_Z 64
_cell_length_a 8.713720
_cell_length_b 30.840523
_cell_length_c 11.933921
_cell_angle_alpha 90.000000
_cell_angle_beta 90.000000
_cell_angle_gamma 90.000000
_cell_volume 3207.070400
_symmetry_space_group_name_H-M "C M M 2"
_symmetry_group_IT_number 35
_symmetry_cell_setting 'orthorhombic'
loop_
_space_group_symop_operation_xyz
x,y,z
-x,-y,z
-x,y,z
x,-y,z
1/2+x,1/2+y,z
1/2-x,1/2-y,z
1/2-x,1/2+y,z
1/2+x,1/2-y,z
loop_
_atom_site_type_symbol
_atom_site_label
_atom_site_fract_x
_atom_site_fract_y
_atom_site_fract_z
Si Si1 0.825006 0.205330 0.341390
Si Si2 0.181130 0.579155 0.570202
Si Si3 0.818692 0.625510 0.212426
Si Si4 0.682560 0.951902 0.811457
Si Si5 0.323542 0.671677 0.583542
Si Si6 0.182577 0.294656 0.807798
Si Si7 0.824005 0.049333 0.347153
Si Si8 0.317677 0.874210 0.960544
O O1 0.750000 0.250000 0.299957
O O2 0.743292 0.164892 0.284609
O O3 0.809952 0.201995 0.475045
O O4 0.000000 0.205296 0.302010
O O5 0.241252 0.560307 0.687784
O O6 0.223100 0.629331 0.561627
O O7 0.262779 0.552222 0.473254
O O8 0.000000 0.573813 0.556576
O O9 0.771064 0.579677 0.264308
O O10 0.000000 0.628324 0.211933
O O11 0.752366 0.628344 0.086240
O O12 0.500000 0.950097 0.811692
O O13 0.748929 0.917414 0.900653
O O14 0.741567 0.000000 0.843565
O O15 0.500000 0.658911 0.607015
O O16 0.254529 0.698210 0.686172
O O17 0.250000 0.250000 0.857055
O O18 0.237533 0.332404 0.891374
O O19 0.000000 0.292601 0.797427
O O20 0.000000 0.064654 0.345666
O O21 0.806122 0.000000 0.305160
O O22 0.500000 0.876238 0.961580
#
# Coordination Sequence:
#
# PCOD8174075 Si02
#       8
#     8   8   8   8   8   8   8   8
#     4  11  24  41  62  88 122 157 196 245 301 359
#     4  11  20  34  61  92 122 156 196 244 297 358
#     4  11  23  40  64  89 117 156 207 256 301 356
#     4   9  17  32  57  89 121 151 186 235 295 350
#     4  11  22  37  60  90 123 158 195 239 299 361
#     4  11  22  39  61  88 122 156 197 244 297 354
#     4  11  24  41  60  86 125 165 200 246 302 358
#     4   9  20  38  58  86 119 153 196 252 302 346
#
# _framework density 19.955905999999999
#
# number of rings (size 3 to 8) (size 9 to 14) (size 15 to 20)
#    0.000    1.500    2.500    3.000    0.000    5.000 
#    0.000    5.000    0.000    0.000    0.000    0.000 
#    0.000    0.000    0.000    0.000    0.000    0.000 
#
# Total GULP energy -396910.957919 kJ/mol
# GULP energy per Si atom -12403.467435 kJ/mol
# Density = 1.991049 g / cm^3
# Si number density = 19.955906 Si / 1000 Ang^3
#
#
#
# Elastic Constant Matrix: (Units=GPa)
#
#
# Indices 1 2 3 4 5 6 
#
# 1 60.0710 33.5697 41.7848 0.0000 0.0000 0.0000
# 2 33.5697 142.0266 52.9814 0.0000 0.0000 0.0000
# 3 41.7848 52.9814 129.1591 0.0000 0.0000 0.0000
# 4 0.0000 0.0000 0.0000 10.5028 0.0000 0.0000
# 5 0.0000 0.0000 0.0000 0.0000 10.4824 0.0000
# 6 0.0000 0.0000 0.0000 0.0000 0.0000 29.7834
#
#
#
# Elastic Compliance Matrix: (Units=1/GPa)
#
#
# Indices 1 2 3 4 5 6 
#
# 1 0.022569 -0.003082 -0.006037 0.000000 0.000000 0.000000
# 2 -0.003082 0.008734 -0.002586 0.000000 0.000000 0.000000
# 3 -0.006037 -0.002586 0.010756 0.000000 0.000000 0.000000
# 4 0.000000 0.000000 0.000000 0.095213 0.000000 0.000000
# 5 0.000000 0.000000 0.000000 0.000000 0.095398 0.000000
# 6 0.000000 0.000000 0.000000 0.000000 0.000000 0.033576
#
#
# Mechanical properties :
#
#
# Convention : Reuss Voigt Hill
#
# Bulk Modulus (GPa) = 53.62189 65.32540 59.47364
# Shear Modulus (GPa) = 16.89924 23.68177 20.29051
#
# Velocity S-wave (km/s) = 2.91319 3.44860 3.19214
# Velocity P-wave (km/s) = 6.18418 6.97589 6.59193
#
# Compressibility (1/GPa) = 0.01864910
#
# Stress axis : x y z
#
# Youngs Moduli (GPa) = 44.30913 114.49525 92.97140
#
# Poissons Ratio (x) = 0.35292 0.56126
# Poissons Ratio (y) = 0.13658 0.24038
# Poissons Ratio (z) = 0.26749 0.29603
#
# Static dielectric constant tensor:
#      x y z
#    x 3.509880 0.000000 0.000000 
#    y 0.000000 3.848010 0.000000 
#    z 0.000000 0.000000 3.811800 
# 
# 
# High freq. dielectric constant tensor:
#      x y z
#    x 1.764820 0.000000 0.000000 
#    y 0.000000 1.793240 0.000000 
#    z 0.000000 0.000000 1.777200 
# 
# From -- ./inp_files/11891.got.cif
#   From: 2010.03.12/outbox.cif.g09.slc.cpg/sg35_6_cif.got.tgz:11891.got - 2010.04.14 02:02:04.
