data_PCOD8174232
_publ_section_title
;
Structure prediction by ZEFSAII (Michael W. Deem and Ramdas Pophale) SiO2 
 PCOD8174232
Probable space group: C M C 21
;
_chemical_formula_sum "Si O2"
_cell_formula_units_Z 56
_cell_length_a 29.298306
_cell_length_b 13.434084
_cell_length_c 8.911003
_cell_angle_alpha 90.000000
_cell_angle_beta 90.000000
_cell_angle_gamma 90.000000
_cell_volume 3507.334280
_symmetry_space_group_name_H-M "C M C 21"
_symmetry_group_IT_number 36
_symmetry_cell_setting 'orthorhombic'
loop_
_space_group_symop_operation_xyz
x,y,z
-x,-y,1/2+z
x,-y,1/2+z
-x,y,z
1/2+x,1/2+y,z
1/2-x,1/2-y,1/2+z
1/2+x,1/2-y,1/2+z
1/2-x,1/2+y,z
loop_
_atom_site_type_symbol
_atom_site_label
_atom_site_fract_x
_atom_site_fract_y
_atom_site_fract_z
Si Si1 0.900869 0.116300 0.723460
Si Si2 0.732837 0.102323 0.724894
Si Si3 0.234475 0.402694 0.874424
Si Si4 0.598886 0.600002 0.371506
Si Si5 0.000000 0.885218 0.232632
Si Si6 0.818083 0.197020 0.222376
Si Si7 0.000000 0.914362 0.893259
Si Si8 0.183484 0.796802 0.371616
O O1 0.890653 0.098868 0.548370
O O2 0.950819 0.169573 0.751479
O O3 0.865280 0.193222 0.793125
O O4 0.895420 0.010747 0.806788
O O5 0.741430 0.083576 0.550545
O O6 0.696365 0.189460 0.756613
O O7 0.781372 0.126830 0.797846
O O8 0.713713 0.002680 0.802391
O O9 0.283062 0.379185 0.799073
O O10 0.198666 0.315787 0.840338
O O11 0.631998 0.678039 0.290116
O O12 0.546813 0.639237 0.339438
O O13 0.000000 0.972223 0.349837
O O14 0.000000 0.931213 0.069151
O O15 0.819027 0.176738 0.046072
#
# Coordination Sequence:
#
# PCOD8174232 Si02
#       8
#     8   8   8   8   4   8   4   8
#     4  10  18  29  45  65  91 120 149 181 217 258
#     4  10  20  33  48  65  88 117 148 183 219 257
#     4  10  20  33  48  65  88 117 148 183 219 257
#     4  10  18  29  45  65  91 120 149 181 217 258
#     4   8  16  28  42  62  87 116 147 178 215 258
#     4  10  20  32  46  66  90 117 149 180 216 261
#     4   8  16  28  42  62  87 116 147 178 215 258
#     4  10  20  32  46  66  90 117 149 180 216 261
#
# _framework density 15.966543
#
# number of rings (size 3 to 8) (size 9 to 14) (size 15 to 20)
#    0.000    2.286    0.000    3.429    0.000    4.571 
#    0.000    0.000    0.000    0.000    0.000    1.000 
#    0.000    0.000    0.000    0.000    0.000    0.000 
#
# Total GULP energy -347050.343360 kJ/mol
# GULP energy per Si atom -12394.655120 kJ/mol
# Density = 1.593020 g / cm^3
# Si number density = 15.966543 Si / 1000 Ang^3
#
#
#
# Elastic Constant Matrix: (Units=GPa)
#
#
# Indices 1 2 3 4 5 6 
#
# 1 123.4440 43.6382 57.1908 0.0000 0.0000 0.0000
# 2 43.6382 77.6397 44.9496 0.0000 0.0000 0.0000
# 3 57.1908 44.9496 97.1193 0.0000 0.0000 0.0000
# 4 0.0000 0.0000 0.0000 26.5114 0.0000 0.0000
# 5 0.0000 0.0000 0.0000 0.0000 26.2616 0.0000
# 6 0.0000 0.0000 0.0000 0.0000 0.0000 19.6471
#
#
#
# Elastic Compliance Matrix: (Units=1/GPa)
#
#
# Indices 1 2 3 4 5 6 
#
# 1 0.011823 -0.003571 -0.005309 0.000000 0.000000 0.000000
# 2 -0.003571 0.018673 -0.006539 0.000000 0.000000 0.000000
# 3 -0.005309 -0.006539 0.016450 0.000000 0.000000 0.000000
# 4 0.000000 0.000000 0.000000 0.037720 0.000000 0.000000
# 5 0.000000 0.000000 0.000000 0.000000 0.038078 0.000000
# 6 0.000000 0.000000 0.000000 0.000000 0.000000 0.050898
#
#
# Mechanical properties :
#
#
# Convention : Reuss Voigt Hill
#
# Bulk Modulus (GPa) = 62.08938 65.52892 63.80915
# Shear Modulus (GPa) = 23.82636 24.64565 24.23600
#
# Velocity S-wave (km/s) = 3.86718 3.93311 3.90028
# Velocity P-wave (km/s) = 7.67540 7.85851 7.76749
#
# Compressibility (1/GPa) = 0.01610581
#
# Stress axis : x y z
#
# Youngs Moduli (GPa) = 84.57963 53.55206 60.79108
#
# Poissons Ratio (x) = 0.19126 0.32276
# Poissons Ratio (y) = 0.30208 0.39754
# Poissons Ratio (z) = 0.44906 0.35020
#
# Static dielectric constant tensor:
#      x y z
#    x 3.331480 0.000000 0.000000 
#    y 0.000000 2.802030 0.000000 
#    z 0.000000 0.000000 3.204660 
# 
# 
# High freq. dielectric constant tensor:
#      x y z
#    x 1.615170 0.000000 0.000000 
#    y 0.000000 1.576350 0.000000 
#    z 0.000000 0.000000 1.636100 
# 
# From -- ./inp_files/6113.got.cif
#   From: 2010.03.12/outbox.cif.g09.slc.cpg/sg36_4_cif.got.tgz:6113.got - 2010.04.14 02:13:53.
