data_PCOD8174951
_publ_section_title
;
Structure prediction by ZEFSAII (Michael W. Deem and Ramdas Pophale) SiO2 
 PCOD8174951
Probable space group: C M C 21
;
_chemical_formula_sum "Si O2"
_cell_formula_units_Z 48
_cell_length_a 9.157467
_cell_length_b 14.969591
_cell_length_c 18.701231
_cell_angle_alpha 90.000000
_cell_angle_beta 90.000000
_cell_angle_gamma 90.000000
_cell_volume 2563.630865
_symmetry_space_group_name_H-M "C M C 21"
_symmetry_group_IT_number 36
_symmetry_cell_setting 'orthorhombic'
loop_
_space_group_symop_operation_xyz
x,y,z
-x,-y,1/2+z
x,-y,1/2+z
-x,y,z
1/2+x,1/2+y,z
1/2-x,1/2-y,1/2+z
1/2+x,1/2-y,1/2+z
1/2-x,1/2+y,z
loop_
_atom_site_type_symbol
_atom_site_label
_atom_site_fract_x
_atom_site_fract_y
_atom_site_fract_z
Si Si1 0.169429 0.479849 0.783790
Si Si2 0.326959 0.238252 0.642912
Si Si3 0.331647 0.862428 0.391113
Si Si4 0.329916 0.303291 0.794806
Si Si5 0.826845 0.107047 0.036777
Si Si6 0.827088 0.538093 0.626256
O O1 0.207054 0.565837 0.830682
O O2 0.254367 0.395772 0.815940
O O3 0.219432 0.498846 0.702918
O O4 0.000000 0.457194 0.786831
O O5 0.500000 0.234553 0.648312
O O6 0.263585 0.265497 0.720450
O O7 0.272954 0.309692 0.584684
O O8 0.270793 0.140146 0.620898
O O9 0.500000 0.871355 0.415614
O O10 0.299820 0.765310 0.358642
O O11 0.224214 0.876094 0.456711
O O12 0.500000 0.321829 0.784896
O O13 0.000000 0.096647 0.039045
O O14 0.754718 0.016187 0.064743
O O15 0.000000 0.531272 0.614224
#
# Coordination Sequence:
#
# PCOD8174951 Si02
#       6
#     8   8   8   8   8   8
#     4  10  20  35  59  87 112 145 191 234 277 335
#     4   9  18  35  59  83 110 148 188 227 278 336
#     4  10  22  40  59  81 115 155 190 226 280 347
#     4  10  19  36  61  85 112 148 189 234 281 330
#     4  11  23  38  57  85 119 149 184 237 292 330
#     4  10  19  36  61  85 110 149 194 230 274 342
#
# _framework density 18.723445000000002
#
# number of rings (size 3 to 8) (size 9 to 14) (size 15 to 20)
#    0.000    2.000    3.333    0.500    0.000    2.667 
#    0.000    7.500    0.000    0.000    0.000    0.000 
#    0.000    0.000    0.000    0.000    0.000    0.000 
#
# Total GULP energy -297675.123934 kJ/mol
# GULP energy per Si atom -12403.130164 kJ/mol
# Density = 1.868083 g / cm^3
# Si number density = 18.723445 Si / 1000 Ang^3
#
#
#
# Elastic Constant Matrix: (Units=GPa)
#
#
# Indices 1 2 3 4 5 6 
#
# 1 39.6540 28.1198 22.7972 0.0000 0.0000 0.0000
# 2 28.1198 98.8743 -3.4117 0.0000 0.0000 0.0000
# 3 22.7972 -3.4117 60.0872 0.0000 0.0000 0.0000
# 4 0.0000 0.0000 0.0000 21.2499 0.0000 0.0000
# 5 0.0000 0.0000 0.0000 0.0000 29.8710 0.0000
# 6 0.0000 0.0000 0.0000 0.0000 0.0000 30.8888
#
#
#
# Elastic Compliance Matrix: (Units=1/GPa)
#
#
# Indices 1 2 3 4 5 6 
#
# 1 0.044970 -0.013404 -0.017823 0.000000 0.000000 0.000000
# 2 -0.013404 0.014129 0.005888 0.000000 0.000000 0.000000
# 3 -0.017823 0.005888 0.023739 0.000000 0.000000 0.000000
# 4 0.000000 0.000000 0.000000 0.047059 0.000000 0.000000
# 5 0.000000 0.000000 0.000000 0.000000 0.033477 0.000000
# 6 0.000000 0.000000 0.000000 0.000000 0.000000 0.032374
#
#
# Mechanical properties :
#
#
# Convention : Reuss Voigt Hill
#
# Bulk Modulus (GPa) = 31.09514 32.62514 31.86014
# Shear Modulus (GPa) = 19.44413 26.47595 22.96004
#
# Velocity S-wave (km/s) = 3.22606 3.76447 3.50562
# Velocity P-wave (km/s) = 5.52451 6.02972 5.78264
#
# Compressibility (1/GPa) = 0.03215937
#
# Stress axis : x y z
#
# Youngs Moduli (GPa) = 22.23704 70.77522 42.12515
#
# Poissons Ratio (x) = 0.94870 0.75079
# Poissons Ratio (y) = 0.29808 -0.24803
# Poissons Ratio (z) = 0.39633 -0.41672
#
# Static dielectric constant tensor:
#      x y z
#    x 3.160060 0.000000 0.000000 
#    y 0.000000 3.611700 0.000000 
#    z 0.000000 0.000000 3.396480 
# 
# 
# High freq. dielectric constant tensor:
#      x y z
#    x 1.703450 0.000000 0.000000 
#    y 0.000000 1.742720 0.000000 
#    z 0.000000 0.000000 1.725480 
# 
# From -- ./inp_files/13470.got.cif
#   From: 2010.03.12/outbox.cif.g09.slc.cpg/sg36_7_cif.got.tgz:13470.got - 2010.04.14 02:13:53.
