data_PCOD8174940
_publ_section_title
;
Structure prediction by ZEFSAII (Michael W. Deem and Ramdas Pophale) SiO2 
 PCOD8174940
Probable space group: C M C 21
;
_chemical_formula_sum "Si O2"
_cell_formula_units_Z 64
_cell_length_a 9.141169
_cell_length_b 28.566310
_cell_length_c 12.465475
_cell_angle_alpha 90.000000
_cell_angle_beta 90.000000
_cell_angle_gamma 90.000000
_cell_volume 3255.102848
_symmetry_space_group_name_H-M "C M C 21"
_symmetry_group_IT_number 36
_symmetry_cell_setting 'orthorhombic'
loop_
_space_group_symop_operation_xyz
x,y,z
-x,-y,1/2+z
x,-y,1/2+z
-x,y,z
1/2+x,1/2+y,z
1/2-x,1/2-y,1/2+z
1/2+x,1/2-y,1/2+z
1/2-x,1/2+y,z
loop_
_atom_site_type_symbol
_atom_site_label
_atom_site_fract_x
_atom_site_fract_y
_atom_site_fract_z
Si Si1 0.165916 0.969000 0.633740
Si Si2 0.172704 0.338667 0.115726
Si Si3 0.674644 0.225902 0.418506
Si Si4 0.830702 0.316497 0.356346
Si Si5 0.837191 0.438026 0.837470
Si Si6 0.327977 0.889926 0.531924
Si Si7 0.838631 0.660060 0.239751
Si Si8 0.664913 0.430394 0.045548
O O1 0.263502 0.961981 0.737071
O O2 0.239723 0.938946 0.536448
O O3 0.000000 0.950842 0.648953
O O4 0.166389 0.024418 0.620210
O O5 0.220342 0.320198 0.233092
O O6 0.247194 0.388586 0.099851
O O7 0.000000 0.346874 0.109966
O O8 0.225551 0.301486 0.025980
O O9 0.500000 0.227586 0.415230
O O10 0.739001 0.277754 0.420457
O O11 0.738914 0.200973 0.309741
O O12 0.802384 0.365799 0.417003
O O13 0.000000 0.302501 0.363733
O O14 0.846533 0.382474 0.823357
O O15 0.000000 0.458887 0.853587
O O16 0.738410 0.449087 0.938303
O O17 0.500000 0.899781 0.554274
O O18 0.263579 0.856027 0.627890
O O19 0.000000 0.677868 0.209060
O O20 0.500000 0.413301 0.022617
#
# Coordination Sequence:
#
# PCOD8174940 Si02
#       8
#     8   8   8   8   8   8   8   8
#     4  10  22  38  57  87 123 156 197 248 301 356
#     4  10  22  41  60  84 119 155 200 248 295 356
#     4  10  20  36  58  83 113 151 192 239 297 359
#     4  10  23  39  57  85 120 155 196 251 300 352
#     4  10  19  36  60  84 113 151 197 245 293 350
#     4   9  19  37  58  82 114 153 200 246 295 351
#     4   8  15  31  55  79 104 138 183 239 286 336
#     4  11  23  38  59  88 122 157 195 248 305 354
#
# _framework density 19.661436999999999
#
# number of rings (size 3 to 8) (size 9 to 14) (size 15 to 20)
#    0.000    2.250    1.250    1.875    1.750    4.500 
#    0.000    3.125    0.000    0.000    0.000    0.000 
#    0.000    0.000    0.000    0.000    0.000    0.000 
#
# Total GULP energy -396668.030121 kJ/mol
# GULP energy per Si atom -12395.875941 kJ/mol
# Density = 1.961669 g / cm^3
# Si number density = 19.661437 Si / 1000 Ang^3
#
#
#
# Elastic Constant Matrix: (Units=GPa)
#
#
# Indices 1 2 3 4 5 6 
#
# 1 64.7877 39.5146 27.7957 0.0000 0.0000 0.0000
# 2 39.5146 92.3921 37.0006 0.0000 0.0000 0.0000
# 3 27.7957 37.0006 89.8362 0.0000 0.0000 0.0000
# 4 0.0000 0.0000 0.0000 22.4807 0.0000 0.0000
# 5 0.0000 0.0000 0.0000 0.0000 20.6993 0.0000
# 6 0.0000 0.0000 0.0000 0.0000 0.0000 32.9581
#
#
#
# Elastic Compliance Matrix: (Units=1/GPa)
#
#
# Indices 1 2 3 4 5 6 
#
# 1 0.021750 -0.007912 -0.003471 0.000000 0.000000 0.000000
# 2 -0.007912 0.015840 -0.004076 0.000000 0.000000 0.000000
# 3 -0.003471 -0.004076 0.013884 0.000000 0.000000 0.000000
# 4 0.000000 0.000000 0.000000 0.044483 0.000000 0.000000
# 5 0.000000 0.000000 0.000000 0.000000 0.048311 0.000000
# 6 0.000000 0.000000 0.000000 0.000000 0.000000 0.030342
#
#
# Mechanical properties :
#
#
# Convention : Reuss Voigt Hill
#
# Bulk Modulus (GPa) = 48.64752 50.62642 49.63697
# Shear Modulus (GPa) = 23.54301 24.74129 24.14215
#
# Velocity S-wave (km/s) = 3.46413 3.55119 3.50793
# Velocity P-wave (km/s) = 6.38722 6.52837 6.45818
#
# Compressibility (1/GPa) = 0.02055603
#
# Stress axis : x y z
#
# Youngs Moduli (GPa) = 45.97761 63.13312 72.02588
#
# Poissons Ratio (x) = 0.49951 0.24998
# Poissons Ratio (y) = 0.36378 0.29356
# Poissons Ratio (z) = 0.15958 0.25732
#
# Static dielectric constant tensor:
#      x y z
#    x 3.530090 0.000000 0.000000 
#    y 0.000000 3.488900 0.000000 
#    z 0.000000 0.000000 3.711270 
# 
# 
# High freq. dielectric constant tensor:
#      x y z
#    x 1.751960 0.000000 0.000000 
#    y 0.000000 1.758270 0.000000 
#    z 0.000000 0.000000 1.769920 
# 
# From -- ./inp_files/7270.got.cif
#   From: 2010.03.12/outbox.cif.g09.slc.cpg/sg36_4_cif.got.tgz:7270.got - 2010.04.14 02:13:53.
