data_PCOD8174633
_publ_section_title
;
Structure prediction by ZEFSAII (Michael W. Deem and Ramdas Pophale) SiO2 
 PCOD8174633
Probable space group: C M C 21
;
_chemical_formula_sum "Si O2"
_cell_formula_units_Z 56
_cell_length_a 18.201827
_cell_length_b 20.638407
_cell_length_c 8.822967
_cell_angle_alpha 90.000000
_cell_angle_beta 90.000000
_cell_angle_gamma 90.000000
_cell_volume 3314.406789
_symmetry_space_group_name_H-M "C M C 21"
_symmetry_group_IT_number 36
_symmetry_cell_setting 'orthorhombic'
loop_
_space_group_symop_operation_xyz
x,y,z
-x,-y,1/2+z
x,-y,1/2+z
-x,y,z
1/2+x,1/2+y,z
1/2-x,1/2-y,1/2+z
1/2+x,1/2-y,1/2+z
1/2-x,1/2+y,z
loop_
_atom_site_type_symbol
_atom_site_label
_atom_site_fract_x
_atom_site_fract_y
_atom_site_fract_z
Si Si1 0.585299 0.187562 0.729290
Si Si2 0.797944 0.589436 0.807648
Si Si3 0.308152 0.200519 0.465519
Si Si4 0.808151 0.799481 0.201322
Si Si5 0.202056 0.089436 0.359193
Si Si6 0.414701 0.312438 0.937551
Si Si7 0.750000 0.487998 0.583421
O O1 0.500000 0.171293 0.718173
O O2 0.627006 0.129195 0.811224
O O3 0.616087 0.191897 0.557476
O O4 0.600349 0.250000 0.833420
O O5 0.726235 0.633663 0.767266
O O6 0.804437 0.532734 0.682534
O O7 0.795298 0.558574 0.973206
O O8 0.250000 0.231533 0.583421
O O9 0.325192 0.250000 0.333421
O O10 0.273765 0.133663 0.399575
O O11 0.883913 0.808103 0.109365
O O12 0.127006 0.129195 0.355617
O O13 0.204702 0.058574 0.193635
O O14 0.195564 0.032734 0.484307
O O15 0.500000 0.328707 0.948669
#
# Coordination Sequence:
#
# PCOD8174633 Si02
#       7
#     8   8   8   8   8   8   8
#     4  10  21  37  54  76 111 142 171 218 272 315
#     4  10  19  35  54  81 103 136 177 223 252 311
#     4  10  19  32  55  81 103 137 178 225 263 306
#     4  10  19  32  55  81 103 137 178 225 263 306
#     4  10  19  35  54  81 103 136 177 223 252 311
#     4  10  21  37  54  76 111 142 171 218 272 315
#     4  10  20  32  58  78 104 132 178 218 258 298
#
# _framework density 16.895935000000001
#
# number of rings (size 3 to 8) (size 9 to 14) (size 15 to 20)
#    0.000    2.000    4.286    3.429    6.000    0.571 
#    0.000    1.429    0.000    0.000    0.000    0.000 
#    0.000    0.000    0.000    0.000    0.000    0.000 
#
# Total GULP energy -347024.414286 kJ/mol
# GULP energy per Si atom -12393.729082 kJ/mol
# Density = 1.685748 g / cm^3
# Si number density = 16.895935 Si / 1000 Ang^3
#
#
#
# Elastic Constant Matrix: (Units=GPa)
#
#
# Indices 1 2 3 4 5 6 
#
# 1 122.4351 69.4871 54.7709 0.0000 0.0000 0.0000
# 2 69.4871 113.9365 75.1434 0.0000 0.0000 0.0000
# 3 54.7709 75.1434 128.3753 0.0000 0.0000 0.0000
# 4 0.0000 0.0000 0.0000 32.6985 0.0000 0.0000
# 5 0.0000 0.0000 0.0000 0.0000 14.5286 0.0000
# 6 0.0000 0.0000 0.0000 0.0000 0.0000 358.7565
#
#
#
# Elastic Compliance Matrix: (Units=1/GPa)
#
#
# Indices 1 2 3 4 5 6 
#
# 1 0.012652 -0.006769 -0.001435 0.000000 0.000000 0.000000
# 2 -0.006769 0.017917 -0.007600 0.000000 0.000000 0.000000
# 3 -0.001435 -0.007600 0.012851 0.000000 0.000000 0.000000
# 4 0.000000 0.000000 0.000000 0.030582 0.000000 0.000000
# 5 0.000000 0.000000 0.000000 0.000000 0.068830 0.000000
# 6 0.000000 0.000000 0.000000 0.000000 0.000000 0.002787
#
#
# Mechanical properties :
#
#
# Convention : Reuss Voigt Hill
#
# Bulk Modulus (GPa) = 84.66889 84.83885 84.75387
# Shear Modulus (GPa) = 27.59922 92.21976 59.90949
#
# Velocity S-wave (km/s) = 4.04602 7.39591 5.96112
# Velocity P-wave (km/s) = 8.48810 11.10199 9.88186
#
# Compressibility (1/GPa) = 0.01181071
#
# Stress axis : x y z
#
# Youngs Moduli (GPa) = 79.04185 55.81191 77.81783
#
# Poissons Ratio (x) = 0.37780 0.11170
# Poissons Ratio (y) = 0.53505 0.59139
# Poissons Ratio (z) = 0.11346 0.42415
#
# Static dielectric constant tensor:
#      x y z
#    x 2.921880 0.000000 0.000000 
#    y 0.000000 3.312920 0.000000 
#    z 0.000000 0.000000 3.408620 
# 
# 
# High freq. dielectric constant tensor:
#      x y z
#    x 1.616960 0.000000 0.000000 
#    y 0.000000 1.659040 0.000000 
#    z 0.000000 0.000000 1.668600 
# 
# From -- ./inp_files/4874.got.cif
#   From: 2010.03.12/outbox.cif.g09.slc.cpg/sg36_3_cif.got.tgz:4874.got - 2010.04.14 02:13:53.
