data_PCOD8174171
_publ_section_title
;
Structure prediction by ZEFSAII (Michael W. Deem and Ramdas Pophale) SiO2 
 PCOD8174171
Probable space group: C M C 21
;
_chemical_formula_sum "Si O2"
_cell_formula_units_Z 64
_cell_length_a 24.939178
_cell_length_b 23.678102
_cell_length_c 5.130597
_cell_angle_alpha 90.000000
_cell_angle_beta 90.000000
_cell_angle_gamma 90.000000
_cell_volume 3029.681150
_symmetry_space_group_name_H-M "C M C 21"
_symmetry_group_IT_number 36
_symmetry_cell_setting 'orthorhombic'
loop_
_space_group_symop_operation_xyz
x,y,z
-x,-y,1/2+z
x,-y,1/2+z
-x,y,z
1/2+x,1/2+y,z
1/2-x,1/2-y,1/2+z
1/2+x,1/2-y,1/2+z
1/2-x,1/2+y,z
loop_
_atom_site_type_symbol
_atom_site_label
_atom_site_fract_x
_atom_site_fract_y
_atom_site_fract_z
Si Si1 0.170152 0.142196 0.605760
Si Si2 0.436185 0.033329 0.165936
Si Si3 0.103143 0.848841 0.601693
Si Si4 0.900156 0.273680 0.196572
Si Si5 0.581020 0.528547 0.034791
Si Si6 0.199963 0.980717 0.097855
Si Si7 0.720025 0.740041 0.324773
Si Si8 0.562290 0.837889 0.699522
O O1 0.128060 0.131046 0.374774
O O2 0.195144 0.083162 0.687301
O O3 0.215929 0.182365 0.492003
O O4 0.144229 0.167552 0.868911
O O5 0.500000 0.032987 0.162599
O O6 0.416151 0.098161 0.167453
O O7 0.413665 0.999367 0.414192
O O8 0.073105 0.789023 0.655321
O O9 0.068841 0.903758 0.515431
O O10 0.837981 0.267521 0.277967
O O11 0.930945 0.304959 0.428286
O O12 0.904244 0.308862 0.930637
O O13 0.553410 0.500996 0.286657
O O14 0.644560 0.514337 0.022448
O O15 0.232050 0.013956 0.325376
O O16 0.746166 0.724602 0.042343
O O17 0.500000 0.837218 0.779159
#
# Coordination Sequence:
#
# PCOD8174171 Si02
#       8
#     8   8   8   8   8   8   8   8
#     4  11  18  29  48  70  99 139 174 235 288 334
#     4   9  17  31  55  88 122 147 182 236 293 339
#     4  11  18  29  46  73 111 142 176 231 273 345
#     4  11  23  37  57  86 119 160 200 237 292 362
#     4  10  15  24  40  66 103 134 163 223 298 338
#     4  10  15  24  40  68  97 126 162 216 309 349
#     4  11  23  39  55  78 110 153 208 249 290 334
#     4  11  22  39  61  91 128 157 188 243 304 361
#
# _framework density 21.124334000000001
#
# number of rings (size 3 to 8) (size 9 to 14) (size 15 to 20)
#    0.000    1.500    5.000    4.875    0.000    2.000 
#    0.000    0.000    0.000    0.000    0.000   17.500 
#    0.000   10.000    0.000    0.000    0.000    0.000 
#
# Total GULP energy -396419.311733 kJ/mol
# GULP energy per Si atom -12388.103492 kJ/mol
# Density = 2.107625 g / cm^3
# Si number density = 21.124334 Si / 1000 Ang^3
#
#
#
# Elastic Constant Matrix: (Units=GPa)
#
#
# Indices 1 2 3 4 5 6 
#
# 1 34.6924 17.4945 4.8842 0.0000 0.0000 0.0000
# 2 17.4945 177.7771 62.4170 0.0000 0.0000 0.0000
# 3 4.8842 62.4170 159.2216 0.0000 0.0000 0.0000
# 4 0.0000 0.0000 0.0000 44.0804 0.0000 0.0000
# 5 0.0000 0.0000 0.0000 0.0000 6.4277 0.0000
# 6 0.0000 0.0000 0.0000 0.0000 0.0000 11.3960
#
#
#
# Elastic Compliance Matrix: (Units=1/GPa)
#
#
# Indices 1 2 3 4 5 6 
#
# 1 0.030340 -0.003083 0.000278 0.000000 0.000000 0.000000
# 2 -0.003083 0.006836 -0.002585 0.000000 0.000000 0.000000
# 3 0.000278 -0.002585 0.007285 0.000000 0.000000 0.000000
# 4 0.000000 0.000000 0.000000 0.022686 0.000000 0.000000
# 5 0.000000 0.000000 0.000000 0.000000 0.155577 0.000000
# 6 0.000000 0.000000 0.000000 0.000000 0.000000 0.087750
#
#
# Mechanical properties :
#
#
# Convention : Reuss Voigt Hill
#
# Bulk Modulus (GPa) = 29.69045 60.14250 44.91647
# Shear Modulus (GPa) = 15.03836 31.50719 23.27277
#
# Velocity S-wave (km/s) = 2.67104 3.86620 3.32279
# Velocity P-wave (km/s) = 4.85780 6.96150 6.00253
#
# Compressibility (1/GPa) = 0.03368087
#
# Stress axis : x y z
#
# Youngs Moduli (GPa) = 32.95932 146.28184 137.25924
#
# Poissons Ratio (x) = 0.45103 -0.03816
# Poissons Ratio (y) = 0.10162 0.35485
# Poissons Ratio (z) = -0.00916 0.37818
#
# Static dielectric constant tensor:
#      x y z
#    x 3.096260 0.000000 0.000000 
#    y 0.000000 4.049340 0.000000 
#    z 0.000000 0.000000 4.579450 
# 
# 
# High freq. dielectric constant tensor:
#      x y z
#    x 1.744210 0.000000 0.000000 
#    y 0.000000 1.840960 0.000000 
#    z 0.000000 0.000000 1.869610 
# 
# From -- ./inp_files/1831.got.cif
#   From: 2010.03.12/outbox.cif.g09.slc.cpg/sg36_1_cif.got.tgz:1831.got - 2010.04.14 02:13:53.
