data_PCOD8174401
_publ_section_title
;
Structure prediction by ZEFSAII (Michael W. Deem and Ramdas Pophale) SiO2 
 PCOD8174401
Probable space group: C M C 21
;
_chemical_formula_sum "Si O2"
_cell_formula_units_Z 64
_cell_length_a 8.672794
_cell_length_b 15.398371
_cell_length_c 23.982096
_cell_angle_alpha 90.000000
_cell_angle_beta 90.000000
_cell_angle_gamma 90.000000
_cell_volume 3202.734567
_symmetry_space_group_name_H-M "C M C 21"
_symmetry_group_IT_number 36
_symmetry_cell_setting 'orthorhombic'
loop_
_space_group_symop_operation_xyz
x,y,z
-x,-y,1/2+z
x,-y,1/2+z
-x,y,z
1/2+x,1/2+y,z
1/2-x,1/2-y,1/2+z
1/2+x,1/2-y,1/2+z
1/2-x,1/2+y,z
loop_
_atom_site_type_symbol
_atom_site_label
_atom_site_fract_x
_atom_site_fract_y
_atom_site_fract_z
Si Si1 0.320886 0.278729 0.871350
Si Si2 0.676971 0.028644 0.742143
Si Si3 0.318126 0.779650 0.254228
Si Si4 0.318001 0.788384 0.987311
Si Si5 0.817958 0.361206 0.557101
Si Si6 0.321672 0.016188 0.482972
Si Si7 0.175047 0.457434 0.860750
Si Si8 0.819192 0.875205 0.677449
O O1 0.500000 0.259996 0.881935
O O2 0.255104 0.226582 0.817655
O O3 0.230592 0.250668 0.926978
O O4 0.295900 0.379591 0.856726
O O5 0.500000 0.009501 0.725080
O O6 0.724546 0.127397 0.727433
O O7 0.698689 0.020530 0.808658
O O8 0.789496 0.965498 0.708965
O O9 0.500000 0.766733 0.258009
O O10 0.251623 0.703471 0.214991
O O11 0.500000 0.787262 0.991696
O O12 0.252869 0.887110 0.994303
O O13 0.250095 0.729788 0.036293
O O14 0.745628 0.441743 0.521558
O O15 0.774084 0.375508 0.620637
O O16 0.000000 0.357191 0.550082
O O17 0.500000 0.020098 0.498494
O O18 0.295326 0.989852 0.418160
O O19 0.000000 0.419465 0.862233
O O20 0.000000 0.864867 0.665392
#
# Coordination Sequence:
#
# PCOD8174401 Si02
#       8
#     8   8   8   8   8   8   8   8
#     4  10  18  33  58  86 119 155 191 233 283 348
#     4  10  20  36  60  86 111 148 197 237 278 344
#     4   9  20  36  58  84 114 156 196 229 284 351
#     4  10  21  39  59  86 118 153 189 237 296 344
#     4  11  23  40  63  87 111 153 204 243 283 347
#     4   8  18  36  58  83 115 152 189 229 285 351
#     4   9  17  32  57  85 116 148 183 235 290 338
#     4  11  23  42  59  81 120 157 193 243 295 341
#
# _framework density 19.982923
#
# number of rings (size 3 to 8) (size 9 to 14) (size 15 to 20)
#    0.000    2.250    1.250    2.250    1.750    1.000 
#    0.000   13.750    0.000    0.000    0.000    0.000 
#    0.000    0.000    0.000    0.000    0.000    0.000 
#
# Total GULP energy -396738.327196 kJ/mol
# GULP energy per Si atom -12398.072725 kJ/mol
# Density = 1.993744 g / cm^3
# Si number density = 19.982923 Si / 1000 Ang^3
#
#
#
# Elastic Constant Matrix: (Units=GPa)
#
#
# Indices 1 2 3 4 5 6 
#
# 1 44.9508 18.3509 18.7904 0.0000 0.0000 0.0000
# 2 18.3509 101.5447 48.5740 0.0000 0.0000 0.0000
# 3 18.7904 48.5740 113.1155 0.0000 0.0000 0.0000
# 4 0.0000 0.0000 0.0000 23.5617 0.0000 0.0000
# 5 0.0000 0.0000 0.0000 0.0000 31.0928 0.0000
# 6 0.0000 0.0000 0.0000 0.0000 0.0000 25.8395
#
#
#
# Elastic Compliance Matrix: (Units=1/GPa)
#
#
# Indices 1 2 3 4 5 6 
#
# 1 0.024680 -0.003145 -0.002749 0.000000 0.000000 0.000000
# 2 -0.003145 0.012794 -0.004972 0.000000 0.000000 0.000000
# 3 -0.002749 -0.004972 0.011432 0.000000 0.000000 0.000000
# 4 0.000000 0.000000 0.000000 0.042442 0.000000 0.000000
# 5 0.000000 0.000000 0.000000 0.000000 0.032162 0.000000
# 6 0.000000 0.000000 0.000000 0.000000 0.000000 0.038700
#
#
# Mechanical properties :
#
#
# Convention : Reuss Voigt Hill
#
# Bulk Modulus (GPa) = 36.79922 47.89352 42.34637
# Shear Modulus (GPa) = 25.90668 27.69184 26.79926
#
# Velocity S-wave (km/s) = 3.60452 3.72664 3.66609
# Velocity P-wave (km/s) = 5.98153 6.52199 6.25760
#
# Compressibility (1/GPa) = 0.02717449
#
# Stress axis : x y z
#
# Youngs Moduli (GPa) = 40.51911 78.15867 87.47238
#
# Poissons Ratio (x) = 0.24581 0.24048
# Poissons Ratio (y) = 0.12743 0.43489
# Poissons Ratio (z) = 0.11139 0.38859
#
# Static dielectric constant tensor:
#      x y z
#    x 3.351580 0.000000 0.000000 
#    y 0.000000 3.755600 0.000000 
#    z 0.000000 0.000000 3.695630 
# 
# 
# High freq. dielectric constant tensor:
#      x y z
#    x 1.751870 0.000000 0.000000 
#    y 0.000000 1.779660 0.000000 
#    z 0.000000 0.000000 1.782730 
# 
# From -- ./inp_files/16561.got.cif
#   From: 2010.03.12/outbox.cif.g09.slc.cpg/sg36_9_cif.got.tgz:16561.got - 2010.04.14 02:13:53.
