data_PCOD8174810
_publ_section_title
;
Structure prediction by ZEFSAII (Michael W. Deem and Ramdas Pophale) SiO2 
 PCOD8174810
Probable space group: C M C 21
;
_chemical_formula_sum "Si O2"
_cell_formula_units_Z 64
_cell_length_a 20.041617
_cell_length_b 9.167344
_cell_length_c 18.468118
_cell_angle_alpha 90.000000
_cell_angle_beta 90.000000
_cell_angle_gamma 90.000000
_cell_volume 3393.117722
_symmetry_space_group_name_H-M "C M C 21"
_symmetry_group_IT_number 36
_symmetry_cell_setting 'orthorhombic'
loop_
_space_group_symop_operation_xyz
x,y,z
-x,-y,1/2+z
x,-y,1/2+z
-x,y,z
1/2+x,1/2+y,z
1/2-x,1/2-y,1/2+z
1/2+x,1/2-y,1/2+z
1/2-x,1/2+y,z
loop_
_atom_site_type_symbol
_atom_site_label
_atom_site_fract_x
_atom_site_fract_y
_atom_site_fract_z
Si Si1 0.311403 0.641005 0.792240
Si Si2 0.924144 0.314879 0.035150
Si Si3 0.924144 0.685113 0.369794
Si Si4 0.688596 0.359006 0.612704
Si Si5 0.424159 0.084534 0.773479
Si Si6 0.685654 0.684562 0.282420
Si Si7 0.314346 0.315427 0.122524
Si Si8 0.424159 0.084524 0.131467
O O1 0.378491 0.714172 0.820431
O O2 0.314301 0.474096 0.820317
O O3 0.244825 0.722523 0.820430
O O4 0.305344 0.654140 0.706718
O O5 0.878491 0.214159 0.084510
O O6 0.919271 0.480781 0.062057
O O7 0.000000 0.258100 0.042993
O O8 0.899828 0.309347 0.952472
O O9 0.919271 0.519209 0.342890
O O10 0.000000 0.741891 0.361949
O O11 0.694653 0.345867 0.698226
O O12 0.685699 0.525915 0.584627
O O13 0.755175 0.277489 0.584514
O O14 0.500000 0.132787 0.757028
O O15 0.383358 0.229350 0.792948
O O16 0.395017 0.000005 0.702473
O O17 0.383358 0.229339 0.111999
O O18 0.500000 0.132777 0.147919
#
# Coordination Sequence:
#
# PCOD8174810 Si02
#       8
#     8   8   8   8   8   8   8   8
#     4  10  20  34  54  83 112 146 186 231 283 337
#     4  10  21  38  58  81 115 155 189 229 286 343
#     4  10  21  38  58  81 115 155 189 229 286 343
#     4  10  20  34  54  83 112 146 186 231 283 337
#     4  10  19  34  57  85 114 147 190 235 279 332
#     4  10  20  33  56  83 112 143 185 237 283 327
#     4  10  20  33  56  83 112 143 185 237 283 327
#     4  10  19  34  57  85 114 147 190 235 279 332
#
# _framework density 18.861709999999999
#
# number of rings (size 3 to 8) (size 9 to 14) (size 15 to 20)
#    0.000    2.000    2.500    1.500    3.500    1.000 
#    0.000    8.750    0.000    3.000    0.000    0.000 
#    0.000    0.000    0.000    0.000    0.000    0.000 
#
# Total GULP energy -396734.593953 kJ/mol
# GULP energy per Si atom -12397.956061 kJ/mol
# Density = 1.881878 g / cm^3
# Si number density = 18.861710 Si / 1000 Ang^3
#
#
#
# Elastic Constant Matrix: (Units=GPa)
#
#
# Indices 1 2 3 4 5 6 
#
# 1 109.3087 74.6676 12.1608 0.0000 0.0000 0.0000
# 2 74.6676 149.5190 10.9655 0.0000 0.0000 0.0000
# 3 12.1608 10.9655 29.8702 0.0000 0.0000 0.0000
# 4 0.0000 0.0000 0.0000 12.4900 0.0000 0.0000
# 5 0.0000 0.0000 0.0000 0.0000 15.2012 0.0000
# 6 0.0000 0.0000 0.0000 0.0000 0.0000 30.2068
#
#
#
# Elastic Compliance Matrix: (Units=1/GPa)
#
#
# Indices 1 2 3 4 5 6 
#
# 1 0.014188 -0.006846 -0.003263 0.000000 0.000000 0.000000
# 2 -0.006846 0.010176 -0.000949 0.000000 0.000000 0.000000
# 3 -0.003263 -0.000949 0.035155 0.000000 0.000000 0.000000
# 4 0.000000 0.000000 0.000000 0.080064 0.000000 0.000000
# 5 0.000000 0.000000 0.000000 0.000000 0.065784 0.000000
# 6 0.000000 0.000000 0.000000 0.000000 0.000000 0.033105
#
#
# Mechanical properties :
#
#
# Convention : Reuss Voigt Hill
#
# Bulk Modulus (GPa) = 26.73517 53.80954 40.27236
# Shear Modulus (GPa) = 18.31126 24.30651 21.30889
#
# Velocity S-wave (km/s) = 3.11917 3.59370 3.36481
# Velocity P-wave (km/s) = 5.21319 6.76830 6.04100
#
# Compressibility (1/GPa) = 0.03740391
#
# Stress axis : x y z
#
# Youngs Moduli (GPa) = 70.48340 98.26651 28.44555
#
# Poissons Ratio (x) = 0.67272 0.09282
# Poissons Ratio (y) = 0.48252 0.02699
# Poissons Ratio (z) = 0.22999 0.09323
#
# Static dielectric constant tensor:
#      x y z
#    x 3.523190 0.000000 0.000000 
#    y 0.000000 3.624150 0.000000 
#    z 0.000000 0.000000 3.219580 
# 
# 
# High freq. dielectric constant tensor:
#      x y z
#    x 1.742160 0.000000 0.000000 
#    y 0.000000 1.732800 0.000000 
#    z 0.000000 0.000000 1.695810 
# 
# From -- ./inp_files/15016.got.cif
#   From: 2010.03.12/outbox.cif.g09.slc.cpg/sg36_8_cif.got.tgz:15016.got - 2010.04.14 02:13:53.
