data_PCOD8174247
_publ_section_title
;
Structure prediction by ZEFSAII (Michael W. Deem and Ramdas Pophale) SiO2 
 PCOD8174247
Probable space group: C M C 21
;
_chemical_formula_sum "Si O2"
_cell_formula_units_Z 56
_cell_length_a 18.578762
_cell_length_b 11.756661
_cell_length_c 15.089246
_cell_angle_alpha 90.000000
_cell_angle_beta 90.000000
_cell_angle_gamma 90.000000
_cell_volume 3295.856586
_symmetry_space_group_name_H-M "C M C 21"
_symmetry_group_IT_number 36
_symmetry_cell_setting 'orthorhombic'
loop_
_space_group_symop_operation_xyz
x,y,z
-x,-y,1/2+z
x,-y,1/2+z
-x,y,z
1/2+x,1/2+y,z
1/2-x,1/2-y,1/2+z
1/2+x,1/2-y,1/2+z
1/2-x,1/2+y,z
loop_
_atom_site_type_symbol
_atom_site_label
_atom_site_fract_x
_atom_site_fract_y
_atom_site_fract_z
Si Si1 0.699467 0.500000 0.639100
Si Si2 0.689827 0.072607 0.488011
Si Si3 0.333360 0.741112 0.116084
Si Si4 0.166640 0.241112 0.662116
Si Si5 0.580482 0.914588 0.557131
Si Si6 0.919518 0.585411 0.721070
Si Si7 0.689827 0.072608 0.290189
O O1 0.748422 0.530473 0.554543
O O2 0.648540 0.393606 0.611335
O O3 0.648540 0.606394 0.666865
O O4 0.748422 0.469527 0.723657
O O5 0.655503 0.191948 0.523163
O O6 0.720735 0.091196 0.389100
O O7 0.627976 0.975859 0.481874
O O8 0.250000 0.750000 0.139100
O O9 0.382824 0.795988 0.192497
O O10 0.117176 0.295988 0.585703
O O11 0.155503 0.308051 0.755038
O O12 0.500000 0.890080 0.521850
O O13 0.579515 0.000000 0.639100
O O14 0.872024 0.524141 0.796326
O O15 0.000000 0.609920 0.756350
#
# Coordination Sequence:
#
# PCOD8174247 Si02
#       7
#     8   8   8   8   8   8   8
#     4  10  18  34  48  70 108 132 164 208 252 296
#     4  10  18  29  49  74  97 130 170 208 254 296
#     4   9  16  32  48  68 100 136 163 207 246 299
#     4   9  16  32  48  68 100 136 163 207 246 299
#     4   9  16  30  49  70  98 129 162 208 256 295
#     4   9  16  30  49  70  98 129 162 208 256 295
#     4  10  18  29  49  74  97 130 170 208 254 296
#
# _framework density 16.991031
#
# number of rings (size 3 to 8) (size 9 to 14) (size 15 to 20)
#    0.000    2.571    7.143    0.000    0.000    1.714 
#    0.000    0.714    0.000    0.000    0.000    0.000 
#    0.000    2.857    0.000    0.000    0.000    0.000 
#
# Total GULP energy -346890.665873 kJ/mol
# GULP energy per Si atom -12388.952353 kJ/mol
# Density = 1.695236 g / cm^3
# Si number density = 16.991031 Si / 1000 Ang^3
#
#
#
# Elastic Constant Matrix: (Units=GPa)
#
#
# Indices 1 2 3 4 5 6 
#
# 1 61.7647 34.3679 10.4976 0.0000 0.0000 0.0000
# 2 34.3679 160.7427 40.0140 0.0000 0.0000 0.0000
# 3 10.4976 40.0140 99.6485 0.0000 0.0000 0.0000
# 4 0.0000 0.0000 0.0000 12.4338 0.0000 0.0000
# 5 0.0000 0.0000 0.0000 0.0000 4.8065 0.0000
# 6 0.0000 0.0000 0.0000 0.0000 0.0000 22.7390
#
#
#
# Elastic Compliance Matrix: (Units=1/GPa)
#
#
# Indices 1 2 3 4 5 6 
#
# 1 0.018391 -0.003833 -0.000398 0.000000 0.000000 0.000000
# 2 -0.003833 0.007711 -0.002693 0.000000 0.000000 0.000000
# 3 -0.000398 -0.002693 0.011158 0.000000 0.000000 0.000000
# 4 0.000000 0.000000 0.000000 0.080426 0.000000 0.000000
# 5 0.000000 0.000000 0.000000 0.000000 0.208050 0.000000
# 6 0.000000 0.000000 0.000000 0.000000 0.000000 0.043977
#
#
# Mechanical properties :
#
#
# Convention : Reuss Voigt Hill
#
# Bulk Modulus (GPa) = 42.71185 54.65720 48.68453
# Shear Modulus (GPa) = 12.77580 23.81431 18.29505
#
# Velocity S-wave (km/s) = 2.74508 3.74783 3.28494
# Velocity P-wave (km/s) = 5.93631 7.13908 6.56529
#
# Compressibility (1/GPa) = 0.02341271
#
# Stress axis : x y z
#
# Youngs Moduli (GPa) = 54.37459 129.68660 89.61844
#
# Poissons Ratio (x) = 0.49708 0.03569
# Poissons Ratio (y) = 0.20842 0.24130
# Poissons Ratio (z) = 0.02166 0.34919
#
# Static dielectric constant tensor:
#      x y z
#    x 3.128790 0.000000 0.000000 
#    y 0.000000 4.106900 0.000000 
#    z 0.000000 0.000000 2.862970 
# 
# 
# High freq. dielectric constant tensor:
#      x y z
#    x 1.621550 0.000000 0.000000 
#    y 0.000000 1.661080 0.000000 
#    z 0.000000 0.000000 1.627470 
# 
# From -- ./inp_files/14899.got.cif
#   From: 2010.03.12/outbox.cif.g09.slc.cpg/sg36_8_cif.got.tgz:14899.got - 2010.04.14 02:13:53.
