data_PCOD8174490
_publ_section_title
;
Structure prediction by ZEFSAII (Michael W. Deem and Ramdas Pophale) SiO2 
 PCOD8174490
Probable space group: C M C 21
;
_chemical_formula_sum "Si O2"
_cell_formula_units_Z 56
_cell_length_a 13.473895
_cell_length_b 19.284423
_cell_length_c 9.570276
_cell_angle_alpha 90.000000
_cell_angle_beta 90.000000
_cell_angle_gamma 90.000000
_cell_volume 2486.705016
_symmetry_space_group_name_H-M "C M C 21"
_symmetry_group_IT_number 36
_symmetry_cell_setting 'orthorhombic'
loop_
_space_group_symop_operation_xyz
x,y,z
-x,-y,1/2+z
x,-y,1/2+z
-x,y,z
1/2+x,1/2+y,z
1/2-x,1/2-y,1/2+z
1/2+x,1/2-y,1/2+z
1/2-x,1/2+y,z
loop_
_atom_site_type_symbol
_atom_site_label
_atom_site_fract_x
_atom_site_fract_y
_atom_site_fract_z
Si Si1 0.612348 0.415012 0.293710
Si Si2 0.117690 0.763933 0.323023
Si Si3 0.199298 0.553675 0.338247
Si Si4 0.386842 0.465717 0.995282
Si Si5 0.886149 0.354161 0.620126
Si Si6 0.884655 0.596952 0.821222
Si Si7 0.386796 0.843338 0.039081
O O1 0.500000 0.397669 0.256300
O O2 0.666985 0.340475 0.310972
O O3 0.620309 0.454988 0.440960
O O4 0.649234 0.459636 0.157490
O O5 0.143337 0.720843 0.182335
O O6 0.162633 0.722249 0.457600
O O7 0.000000 0.769128 0.342930
O O8 0.309083 0.574997 0.395951
O O9 0.182821 0.585106 0.184482
O O10 0.184812 0.470646 0.336695
O O11 0.119975 0.588137 0.442826
O O12 0.500000 0.438179 0.972261
O O13 0.871115 0.353603 0.454376
O O14 0.000000 0.371746 0.658871
O O15 0.840510 0.640649 0.691011
O O16 0.000000 0.574666 0.799733
O O17 0.500000 0.825220 0.065912
#
# Coordination Sequence:
#
# PCOD8174490 Si02
#       7
#     8   8   8   8   8   8   8
#     4   9  19  39  62  82 106 143 192 251 303 343
#     4   8  15  33  60  80 108 151 187 227 291 353
#     4  11  20  31  55  78 118 160 194 239 297 337
#     4  10  23  39  59  84 108 144 204 256 297 342
#     4   9  18  32  54  88 120 152 189 224 281 364
#     4  10  19  30  50  86 128 157 187 232 278 344
#     4   9  18  32  54  90 122 153 193 225 277 365
#
# _framework density 22.519760000000002
#
# number of rings (size 3 to 8) (size 9 to 14) (size 15 to 20)
#    0.000    2.571    0.000    3.000    4.000    2.286 
#    0.000    1.429    6.286    8.571    0.000    0.000 
#    0.000    4.571    0.000    0.000    0.000    0.000 
#
# Total GULP energy -346930.786616 kJ/mol
# GULP energy per Si atom -12390.385236 kJ/mol
# Density = 2.246850 g / cm^3
# Si number density = 22.519760 Si / 1000 Ang^3
#
#
#
# Elastic Constant Matrix: (Units=GPa)
#
#
# Indices 1 2 3 4 5 6 
#
# 1 53.9804 4.8981 14.8006 0.0000 0.0000 0.0000
# 2 4.8981 158.0161 96.1866 0.0000 0.0000 0.0000
# 3 14.8006 96.1866 186.6279 0.0000 0.0000 0.0000
# 4 0.0000 0.0000 0.0000 17.8236 0.0000 0.0000
# 5 0.0000 0.0000 0.0000 0.0000 19.0164 0.0000
# 6 0.0000 0.0000 0.0000 0.0000 0.0000 -2.9057
#
#
#
# Elastic Compliance Matrix: (Units=1/GPa)
#
#
# Indices 1 2 3 4 5 6 
#
# 1 0.018962 0.000477 -0.001750 0.000000 0.000000 0.000000
# 2 0.000477 0.009234 -0.004797 0.000000 0.000000 0.000000
# 3 -0.001750 -0.004797 0.007969 0.000000 0.000000 0.000000
# 4 0.000000 0.000000 0.000000 0.056105 0.000000 0.000000
# 5 0.000000 0.000000 0.000000 0.000000 0.052586 0.000000
# 6 0.000000 0.000000 0.000000 0.000000 0.000000 -0.344150
#
#
# Mechanical properties :
#
#
# Convention : Reuss Voigt Hill
#
# Bulk Modulus (GPa) = 41.62143 70.04389 55.83266
# Shear Modulus (GPa) = -27.91003 25.63614 -1.13694
#
# Velocity S-wave (km/s) = -3.52427 3.37766 -0.71131
# Velocity P-wave (km/s) = 1.40060 6.81045 4.91650
#
# Compressibility (1/GPa) = 0.02402608
#
# Stress axis : x y z
#
# Youngs Moduli (GPa) = 52.73792 108.30116 125.48274
#
# Poissons Ratio (x) = -0.05170 0.21957
# Poissons Ratio (y) = -0.02517 0.60191
# Poissons Ratio (z) = 0.09228 0.51949
#
# Static dielectric constant tensor:
#      x y z
#    x 4.040230 0.000000 0.000000 
#    y 0.000000 4.029590 0.000000 
#    z 0.000000 0.000000 4.238550 
# 
# 
# High freq. dielectric constant tensor:
#      x y z
#    x 1.882550 0.000000 0.000000 
#    y 0.000000 1.860650 0.000000 
#    z 0.000000 0.000000 1.892650 
# 
# From -- ./inp_files/4177.got.cif
#   From: 2010.03.12/outbox.cif.g09.slc.cpg/sg36_3_cif.got.tgz:4177.got - 2010.04.14 02:13:53.
