data_PCOD8174198
_publ_section_title
;
Structure prediction by ZEFSAII (Michael W. Deem and Ramdas Pophale) SiO2 
 PCOD8174198
Probable space group: C M C 21
;
_chemical_formula_sum "Si O2"
_cell_formula_units_Z 56
_cell_length_a 15.647215
_cell_length_b 20.988564
_cell_length_c 9.392928
_cell_angle_alpha 90.000000
_cell_angle_beta 90.000000
_cell_angle_gamma 90.000000
_cell_volume 3084.755657
_symmetry_space_group_name_H-M "C M C 21"
_symmetry_group_IT_number 36
_symmetry_cell_setting 'orthorhombic'
loop_
_space_group_symop_operation_xyz
x,y,z
-x,-y,1/2+z
x,-y,1/2+z
-x,y,z
1/2+x,1/2+y,z
1/2-x,1/2-y,1/2+z
1/2+x,1/2-y,1/2+z
1/2-x,1/2+y,z
loop_
_atom_site_type_symbol
_atom_site_label
_atom_site_fract_x
_atom_site_fract_y
_atom_site_fract_z
Si Si1 0.692776 0.793409 0.600160
Si Si2 0.599979 0.422518 0.785240
Si Si3 0.665937 0.201609 0.661202
Si Si4 0.100833 0.038965 0.973880
Si Si5 0.095972 0.214122 0.378745
Si Si6 0.399378 0.774594 0.866855
Si Si7 0.787144 0.146608 0.864354
O O1 0.778287 0.765930 0.667950
O O2 0.651938 0.734385 0.513301
O O3 0.627860 0.815007 0.726342
O O4 0.720413 0.851476 0.497694
O O5 0.500000 0.417342 0.763712
O O6 0.622905 0.468127 0.918424
O O7 0.634685 0.451057 0.635142
O O8 0.636071 0.351796 0.815479
O O9 0.591644 0.226363 0.767501
O O10 0.627622 0.184577 0.506689
O O11 0.725548 0.144738 0.724272
O O12 0.152742 0.085554 0.868700
O O13 0.000000 0.053245 0.957245
O O14 0.000000 0.200642 0.431881
O O15 0.500000 0.761517 0.867635
O O16 0.348694 0.708177 0.866640
#
# Coordination Sequence:
#
# PCOD8174198 Si02
#       7
#     8   8   8   8   8   8   8
#     4   9  18  29  43  65  91 122 154 190 233 271
#     4   9  19  31  45  65  91 123 165 202 228 261
#     4   9  18  29  43  64  91 124 152 184 232 276
#     4  10  19  32  47  66  92 129 168 198 225 269
#     4  10  18  31  47  64  90 128 159 184 222 275
#     4  10  17  27  44  67  90 118 154 190 226 278
#     4   9  18  31  44  61  92 132 156 184 232 278
#
# _framework density 18.153789
#
# number of rings (size 3 to 8) (size 9 to 14) (size 15 to 20)
#    0.000    2.571    0.000    3.857    0.000    3.429 
#    0.000    4.286    0.000    0.000    0.000    0.000 
#    0.000    0.000    0.000  545.143    0.000    0.000 
#
# Total GULP energy -346877.098476 kJ/mol
# GULP energy per Si atom -12388.467803 kJ/mol
# Density = 1.811247 g / cm^3
# Si number density = 18.153789 Si / 1000 Ang^3
#
#
#
# Elastic Constant Matrix: (Units=GPa)
#
#
# Indices 1 2 3 4 5 6 
#
# 1 68.7781 19.9266 32.4182 0.0000 0.0000 0.0000
# 2 19.9266 49.8305 20.9914 0.0000 0.0000 0.0000
# 3 32.4182 20.9914 105.9413 0.0000 0.0000 0.0000
# 4 0.0000 0.0000 0.0000 14.8110 0.0000 0.0000
# 5 0.0000 0.0000 0.0000 0.0000 24.8024 0.0000
# 6 0.0000 0.0000 0.0000 0.0000 0.0000 22.2328
#
#
#
# Elastic Compliance Matrix: (Units=1/GPa)
#
#
# Indices 1 2 3 4 5 6 
#
# 1 0.018226 -0.005389 -0.004510 0.000000 0.000000 0.000000
# 2 -0.005389 0.023489 -0.003005 0.000000 0.000000 0.000000
# 3 -0.004510 -0.003005 0.011415 0.000000 0.000000 0.000000
# 4 0.000000 0.000000 0.000000 0.067517 0.000000 0.000000
# 5 0.000000 0.000000 0.000000 0.000000 0.040319 0.000000
# 6 0.000000 0.000000 0.000000 0.000000 0.000000 0.044979
#
#
# Mechanical properties :
#
#
# Convention : Reuss Voigt Hill
#
# Bulk Modulus (GPa) = 36.59948 41.24692 38.92320
# Shear Modulus (GPa) = 20.75905 22.45017 21.60461
#
# Velocity S-wave (km/s) = 3.38525 3.52044 3.45351
# Velocity P-wave (km/s) = 5.95688 6.26856 6.11471
#
# Compressibility (1/GPa) = 0.02732279
#
# Stress axis : x y z
#
# Youngs Moduli (GPa) = 54.86580 42.57333 87.60746
#
# Poissons Ratio (x) = 0.22942 0.39507
# Poissons Ratio (y) = 0.29566 0.26327
# Poissons Ratio (z) = 0.24742 0.12794
#
# Static dielectric constant tensor:
#      x y z
#    x 3.266860 0.000000 0.000000 
#    y 0.000000 2.920150 0.000000 
#    z 0.000000 0.000000 3.709950 
# 
# 
# High freq. dielectric constant tensor:
#      x y z
#    x 1.691760 0.000000 0.000000 
#    y 0.000000 1.638500 0.000000 
#    z 0.000000 0.000000 1.722640 
# 
# From -- ./inp_files/4175.got.cif
#   From: 2010.03.12/outbox.cif.g09.slc.cpg/sg36_3_cif.got.tgz:4175.got - 2010.04.14 02:13:53.
