data_PCOD8174058
_publ_section_title
;
Structure prediction by ZEFSAII (Michael W. Deem and Ramdas Pophale) SiO2 
 PCOD8174058
Probable space group: C M M 2
;
_chemical_formula_sum "Si O2"
_cell_formula_units_Z 48
_cell_length_a 9.803536
_cell_length_b 16.819594
_cell_length_c 14.016911
_cell_angle_alpha 90.000000
_cell_angle_beta 90.000000
_cell_angle_gamma 90.000000
_cell_volume 2311.269414
_symmetry_space_group_name_H-M "C M M 2"
_symmetry_group_IT_number 35
_symmetry_cell_setting 'orthorhombic'
loop_
_space_group_symop_operation_xyz
x,y,z
-x,-y,z
-x,y,z
x,-y,z
1/2+x,1/2+y,z
1/2-x,1/2-y,z
1/2-x,1/2+y,z
1/2+x,1/2-y,z
loop_
_atom_site_type_symbol
_atom_site_label
_atom_site_fract_x
_atom_site_fract_y
_atom_site_fract_z
Si Si1 0.765272 0.844192 0.783210
Si Si2 0.748087 0.409418 0.218806
Si Si3 0.837336 0.830087 0.576892
Si Si4 0.000000 0.354474 0.881671
Si Si5 0.651690 0.093401 0.423524
Si Si6 0.000000 0.631738 0.098307
Si Si7 0.000000 0.819792 0.130888
Si Si8 0.000000 0.833397 0.915127
O O1 0.750000 0.750000 0.778888
O O2 0.814461 0.873309 0.678983
O O3 0.624995 0.883898 0.816595
O O4 0.869495 0.871465 0.864637
O O5 0.692317 0.500000 0.227569
O O6 0.805079 0.376348 0.319012
O O7 0.867134 0.408728 0.141425
O O8 0.631477 0.348764 0.187565
O O9 0.750000 0.750000 0.573010
O O10 0.772368 0.885057 0.496045
O O11 0.000000 0.816071 0.559847
O O12 0.000000 0.260422 0.897750
O O13 0.000000 0.391536 0.986754
O O14 0.500000 0.128833 0.449200
O O15 0.638383 0.000000 0.421159
O O16 0.000000 0.725309 0.120965
O O17 0.000000 0.857798 0.025389
#
# Coordination Sequence:
#
# PCOD8174058 Si02
#       8
#     8   8   8   4   8   4   4   4
#     4   9  17  30  52  82 119 156 191 239 296 363
#     4  11  23  42  63  86 122 168 207 245 307 380
#     4  11  23  37  61  95 125 154 196 255 306 354
#     4   9  18  29  54  85 116 154 197 245 298 355
#     4  10  23  44  65  83 113 162 208 247 303 376
#     4  11  21  39  62  93 122 160 207 263 302 349
#     4  11  23  35  62  97 126 154 205 261 306 345
#     4   9  16  33  50  81 122 154 191 239 302 353
#
# _framework density 20.767809
#
# number of rings (size 3 to 8) (size 9 to 14) (size 15 to 20)
#    0.000    1.833    1.667    2.500    5.833    4.333 
#    0.000    0.000    0.000    6.000    0.000    0.000 
#    0.000    0.000    0.000    0.000    0.000    0.000 
#
# Total GULP energy -297506.891328 kJ/mol
# GULP energy per Si atom -12396.120472 kJ/mol
# Density = 2.072054 g / cm^3
# Si number density = 20.767809 Si / 1000 Ang^3
#
#
#
# Elastic Constant Matrix: (Units=GPa)
#
#
# Indices 1 2 3 4 5 6 
#
# 1 176.9941 12.8593 74.1889 0.0000 0.0000 0.0000
# 2 12.8593 31.1125 17.1005 0.0000 0.0000 0.0000
# 3 74.1889 17.1005 151.0042 0.0000 0.0000 0.0000
# 4 0.0000 0.0000 0.0000 1.9242 0.0000 0.0000
# 5 0.0000 0.0000 0.0000 0.0000 21.3332 0.0000
# 6 0.0000 0.0000 0.0000 0.0000 0.0000 21.8776
#
#
#
# Elastic Compliance Matrix: (Units=1/GPa)
#
#
# Indices 1 2 3 4 5 6 
#
# 1 0.007150 -0.001092 -0.003389 0.000000 0.000000 0.000000
# 2 -0.001092 0.034442 -0.003364 0.000000 0.000000 0.000000
# 3 -0.003389 -0.003364 0.008668 0.000000 0.000000 0.000000
# 4 0.000000 0.000000 0.000000 0.519705 0.000000 0.000000
# 5 0.000000 0.000000 0.000000 0.000000 0.046875 0.000000
# 6 0.000000 0.000000 0.000000 0.000000 0.000000 0.045709
#
#
# Mechanical properties :
#
#
# Convention : Reuss Voigt Hill
#
# Bulk Modulus (GPa) = 28.92710 63.04536 45.98623
# Shear Modulus (GPa) = 7.24888 26.02447 16.63667
#
# Velocity S-wave (km/s) = 1.87030 3.54378 2.83341
# Velocity P-wave (km/s) = 4.31545 6.86787 5.73545
#
# Compressibility (1/GPa) = 0.03456966
#
# Stress axis : x y z
#
# Youngs Moduli (GPa) = 139.86370 29.03455 115.36302
#
# Poissons Ratio (x) = 0.03172 0.39097
# Poissons Ratio (y) = 0.15279 0.38804
# Poissons Ratio (z) = 0.47400 0.09766
#
# Static dielectric constant tensor:
#      x y z
#    x 3.925580 0.000000 0.000000 
#    y 0.000000 3.260250 0.000000 
#    z 0.000000 0.000000 4.109170 
# 
# 
# High freq. dielectric constant tensor:
#      x y z
#    x 1.829490 0.000000 0.000000 
#    y 0.000000 1.767650 0.000000 
#    z 0.000000 0.000000 1.828260 
# 
# From -- ./inp_files/15309.got.cif
#   From: 2010.03.12/outbox.cif.g09.slc.cpg/sg35_8_cif.got.tgz:15309.got - 2010.04.14 02:02:04.
