data_PCOD8174204
_publ_section_title
;
Structure prediction by ZEFSAII (Michael W. Deem and Ramdas Pophale) SiO2 
 PCOD8174204
Probable space group: C M C 21
;
_chemical_formula_sum "Si O2"
_cell_formula_units_Z 64
_cell_length_a 9.241210
_cell_length_b 20.272985
_cell_length_c 20.032116
_cell_angle_alpha 90.000000
_cell_angle_beta 90.000000
_cell_angle_gamma 90.000000
_cell_volume 3752.955068
_symmetry_space_group_name_H-M "C M C 21"
_symmetry_group_IT_number 36
_symmetry_cell_setting 'orthorhombic'
loop_
_space_group_symop_operation_xyz
x,y,z
-x,-y,1/2+z
x,-y,1/2+z
-x,y,z
1/2+x,1/2+y,z
1/2-x,1/2-y,1/2+z
1/2+x,1/2-y,1/2+z
1/2-x,1/2+y,z
loop_
_atom_site_type_symbol
_atom_site_label
_atom_site_fract_x
_atom_site_fract_y
_atom_site_fract_z
Si Si1 0.828271 0.832683 0.961410
Si Si2 0.828129 0.023536 0.478163
Si Si3 0.667854 0.844431 0.347819
Si Si4 0.828072 0.084123 0.230313
Si Si5 0.671863 0.298183 0.817228
Si Si6 0.327774 0.585153 0.080123
Si Si7 0.667900 0.192025 0.000261
Si Si8 0.328160 0.524941 0.834001
O O1 0.772194 0.901787 0.992762
O O2 0.764124 0.825976 0.886777
O O3 0.000000 0.833935 0.955621
O O4 0.783466 0.769037 0.005281
O O5 0.000000 0.021561 0.478664
O O6 0.767490 0.975435 0.535600
O O7 0.771891 0.000023 0.405923
O O8 0.500000 0.859772 0.335428
O O9 0.717526 0.778297 0.307952
O O10 0.698747 0.834741 0.426182
O O11 0.761593 0.903819 0.318397
O O12 0.770643 0.154972 0.257667
O O13 0.771037 0.073747 0.155284
O O14 0.000000 0.083876 0.231450
O O15 0.771108 0.025303 0.277458
O O16 0.500000 0.301368 0.821613
O O17 0.500000 0.590089 0.076963
O O18 0.264235 0.653434 0.053274
O O19 0.500000 0.183411 0.018665
O O20 0.500000 0.530987 0.832808
#
# Coordination Sequence:
#
# PCOD8174204 Si02
#       8
#     8   8   8   8   8   8   8   8
#     4   8  13  24  44  67  86 110 152 193 218 254
#     4   9  15  25  44  69  92 116 150 190 228 266
#     4   9  17  28  46  70  92 114 150 195 231 267
#     4   9  17  29  46  68  93 122 157 191 224 270
#     4   8  13  25  44  65  86 113 151 188 217 258
#     4  10  19  30  46  70  96 121 151 190 234 276
#     4   9  17  29  46  68  91 118 152 190 229 272
#     4  10  17  28  48  71  94 120 151 191 235 273
#
# _framework density 17.053228000000001
#
# number of rings (size 3 to 8) (size 9 to 14) (size 15 to 20)
#    0.000    3.000    2.500    1.500    0.000    0.000 
#    0.000    1.875    0.000    4.500    0.000    0.000 
#    0.000    0.000    0.000    0.000    0.000    0.000 
#
# Total GULP energy -396576.034818 kJ/mol
# GULP energy per Si atom -12393.001088 kJ/mol
# Density = 1.701441 g / cm^3
# Si number density = 17.053228 Si / 1000 Ang^3
#
#
#
# Elastic Constant Matrix: (Units=GPa)
#
#
# Indices 1 2 3 4 5 6 
#
# 1 15.9483 24.6220 19.2277 0.0000 0.0000 0.0000
# 2 24.6220 175.8926 81.8592 0.0000 0.0000 0.0000
# 3 19.2277 81.8592 120.7599 0.0000 0.0000 0.0000
# 4 0.0000 0.0000 0.0000 26.7594 0.0000 0.0000
# 5 0.0000 0.0000 0.0000 0.0000 12.1629 0.0000
# 6 0.0000 0.0000 0.0000 0.0000 0.0000 23.8473
#
#
#
# Elastic Compliance Matrix: (Units=1/GPa)
#
#
# Indices 1 2 3 4 5 6 
#
# 1 0.084951 -0.008176 -0.007984 0.000000 0.000000 0.000000
# 2 -0.008176 0.009092 -0.004862 0.000000 0.000000 0.000000
# 3 -0.007984 -0.004862 0.012848 0.000000 0.000000 0.000000
# 4 0.000000 0.000000 0.000000 0.037370 0.000000 0.000000
# 5 0.000000 0.000000 0.000000 0.000000 0.082217 0.000000
# 6 0.000000 0.000000 0.000000 0.000000 0.000000 0.041933
#
#
# Mechanical properties :
#
#
# Convention : Reuss Voigt Hill
#
# Bulk Modulus (GPa) = 15.42070 62.66872 39.04471
# Shear Modulus (GPa) = 15.05706 25.01339 20.03522
#
# Velocity S-wave (km/s) = 2.97466 3.83402 3.43135
# Velocity P-wave (km/s) = 4.56733 7.51187 6.21646
#
# Compressibility (1/GPa) = 0.06484790
#
# Stress axis : x y z
#
# Youngs Moduli (GPa) = 11.77151 109.98249 77.83556
#
# Poissons Ratio (x) = 0.89923 0.62142
# Poissons Ratio (y) = 0.09625 0.37840
# Poissons Ratio (z) = 0.09398 0.53469
#
# Static dielectric constant tensor:
#      x y z
#    x 2.641000 0.000000 0.000000 
#    y 0.000000 3.567140 0.000000 
#    z 0.000000 0.000000 3.192590 
# 
# 
# High freq. dielectric constant tensor:
#      x y z
#    x 1.600640 0.000000 0.000000 
#    y 0.000000 1.677320 0.000000 
#    z 0.000000 0.000000 1.634970 
# 
# From -- ./inp_files/14455.got.cif
#   From: 2010.03.12/outbox.cif.g09.slc.cpg/sg36_8_cif.got.tgz:14455.got - 2010.04.14 02:13:53.
