data_PCOD8174365
_publ_section_title
;
Structure prediction by ZEFSAII (Michael W. Deem and Ramdas Pophale) SiO2 
 PCOD8174365
Probable space group: C M C 21
;
_chemical_formula_sum "Si O2"
_cell_formula_units_Z 64
_cell_length_a 8.819020
_cell_length_b 24.566895
_cell_length_c 14.608971
_cell_angle_alpha 90.000000
_cell_angle_beta 90.000000
_cell_angle_gamma 90.000000
_cell_volume 3165.120320
_symmetry_space_group_name_H-M "C M C 21"
_symmetry_group_IT_number 36
_symmetry_cell_setting 'orthorhombic'
loop_
_space_group_symop_operation_xyz
x,y,z
-x,-y,1/2+z
x,-y,1/2+z
-x,y,z
1/2+x,1/2+y,z
1/2-x,1/2-y,1/2+z
1/2+x,1/2-y,1/2+z
1/2-x,1/2+y,z
loop_
_atom_site_type_symbol
_atom_site_label
_atom_site_fract_x
_atom_site_fract_y
_atom_site_fract_z
Si Si1 0.674065 0.551086 0.579400
Si Si2 0.180200 0.251136 0.876441
Si Si3 0.180117 0.332852 0.500620
Si Si4 0.175452 0.984021 0.275838
Si Si5 0.324647 0.646324 0.454326
Si Si6 0.668532 0.798926 0.691072
Si Si7 0.821421 0.455016 0.465376
Si Si8 0.669339 0.908341 0.791933
O O1 0.500000 0.538258 0.553901
O O2 0.698160 0.555140 0.688460
O O3 0.717911 0.611702 0.544685
O O4 0.771083 0.503489 0.532113
O O5 0.227562 0.298513 0.947513
O O6 0.247715 0.264814 0.773925
O O7 0.000000 0.250045 0.871577
O O8 0.244839 0.193713 0.910458
O O9 0.245417 0.299738 0.590178
O O10 0.225253 0.396266 0.506635
O O11 0.000000 0.326235 0.494761
O O12 0.244069 0.957782 0.366381
O O13 0.000000 0.997526 0.292878
O O14 0.266454 0.037719 0.245776
O O15 0.500000 0.663095 0.451800
O O16 0.286057 0.606168 0.371591
O O17 0.500000 0.774985 0.680386
O O18 0.662236 0.862334 0.715783
O O19 0.000000 0.459335 0.451396
O O20 0.500000 0.918020 0.832282
#
# Coordination Sequence:
#
# PCOD8174365 Si02
#       8
#     8   8   8   8   8   8   8   8
#     4  10  22  38  58  85 118 156 198 238 288 353
#     4  10  21  38  60  87 114 146 191 245 293 343
#     4  10  21  40  61  83 115 155 194 236 291 353
#     4  11  22  36  54  82 120 160 195 232 289 357
#     4  10  19  35  58  82 111 148 189 238 289 342
#     4   8  17  35  59  84 111 146 191 236 287 344
#     4  11  23  38  60  88 119 156 195 245 301 350
#     4  10  18  32  56  85 114 147 191 242 286 336
#
# _framework density 20.220400999999999
#
# number of rings (size 3 to 8) (size 9 to 14) (size 15 to 20)
#    0.000    2.000    1.250    3.375    0.000    3.500 
#    2.250    3.750    0.000    0.000    0.000    0.000 
#    0.000    0.000    0.000    0.000    0.000    0.000 
#
# Total GULP energy -396592.745410 kJ/mol
# GULP energy per Si atom -12393.523294 kJ/mol
# Density = 2.017438 g / cm^3
# Si number density = 20.220401 Si / 1000 Ang^3
#
#
#
# Elastic Constant Matrix: (Units=GPa)
#
#
# Indices 1 2 3 4 5 6 
#
# 1 56.9145 24.1649 24.9549 0.0000 0.0000 0.0000
# 2 24.1649 49.9182 16.9197 0.0000 0.0000 0.0000
# 3 24.9549 16.9197 102.4034 0.0000 0.0000 0.0000
# 4 0.0000 0.0000 0.0000 24.3257 0.0000 0.0000
# 5 0.0000 0.0000 0.0000 0.0000 22.8087 0.0000
# 6 0.0000 0.0000 0.0000 0.0000 0.0000 31.4890
#
#
#
# Elastic Compliance Matrix: (Units=1/GPa)
#
#
# Indices 1 2 3 4 5 6 
#
# 1 0.023636 -0.010052 -0.004099 0.000000 0.000000 0.000000
# 2 -0.010052 0.025497 -0.001763 0.000000 0.000000 0.000000
# 3 -0.004099 -0.001763 0.011055 0.000000 0.000000 0.000000
# 4 0.000000 0.000000 0.000000 0.041109 0.000000 0.000000
# 5 0.000000 0.000000 0.000000 0.000000 0.043843 0.000000
# 6 0.000000 0.000000 0.000000 0.000000 0.000000 0.031757
#
#
# Mechanical properties :
#
#
# Convention : Reuss Voigt Hill
#
# Bulk Modulus (GPa) = 35.26217 37.92390 36.59303
# Shear Modulus (GPa) = 22.91706 25.27112 24.09409
#
# Velocity S-wave (km/s) = 3.37020 3.53906 3.45566
# Velocity P-wave (km/s) = 5.71149 5.95785 5.83597
#
# Compressibility (1/GPa) = 0.02835900
#
# Stress axis : x y z
#
# Youngs Moduli (GPa) = 42.30917 39.22085 90.45313
#
# Poissons Ratio (x) = 0.39427 0.37075
# Poissons Ratio (y) = 0.42531 0.15947
# Poissons Ratio (z) = 0.17342 0.06915
#
# Static dielectric constant tensor:
#      x y z
#    x 3.583450 0.000000 0.000000 
#    y 0.000000 3.633200 0.000000 
#    z 0.000000 0.000000 3.795210 
# 
# 
# High freq. dielectric constant tensor:
#      x y z
#    x 1.777420 0.000000 0.000000 
#    y 0.000000 1.779970 0.000000 
#    z 0.000000 0.000000 1.792860 
# 
# From -- ./inp_files/10867.got.cif
#   From: 2010.03.12/outbox.cif.g09.slc.cpg/sg36_6_cif.got.tgz:10867.got - 2010.04.14 02:13:53.
