data_PCOD8174834
_publ_section_title
;
Structure prediction by ZEFSAII (Michael W. Deem and Ramdas Pophale) SiO2 
 PCOD8174834
Probable space group: C M C 21
;
_chemical_formula_sum "Si O2"
_cell_formula_units_Z 48
_cell_length_a 8.979366
_cell_length_b 20.102771
_cell_length_c 14.052511
_cell_angle_alpha 90.000000
_cell_angle_beta 90.000000
_cell_angle_gamma 90.000000
_cell_volume 2536.620706
_symmetry_space_group_name_H-M "C M C 21"
_symmetry_group_IT_number 36
_symmetry_cell_setting 'orthorhombic'
loop_
_space_group_symop_operation_xyz
x,y,z
-x,-y,1/2+z
x,-y,1/2+z
-x,y,z
1/2+x,1/2+y,z
1/2-x,1/2-y,1/2+z
1/2+x,1/2-y,1/2+z
1/2-x,1/2+y,z
loop_
_atom_site_type_symbol
_atom_site_label
_atom_site_fract_x
_atom_site_fract_y
_atom_site_fract_z
Si Si1 0.327347 0.065365 0.246650
Si Si2 0.323341 0.443973 0.348484
Si Si3 0.676021 0.108204 0.035754
Si Si4 0.823714 0.814306 0.243312
Si Si5 0.676549 0.260433 0.046549
Si Si6 0.327176 0.194240 0.368957
O O1 0.500000 0.045480 0.256433
O O2 0.282397 0.073575 0.136165
O O3 0.293068 0.134293 0.298566
O O4 0.227080 0.011638 0.299474
O O5 0.500000 0.443546 0.360524
O O6 0.253334 0.434452 0.452897
O O7 0.266658 0.385993 0.277648
O O8 0.500000 0.106676 0.019625
O O9 0.735056 0.184496 0.035245
O O10 0.756191 0.793471 0.141848
O O11 0.769073 0.761197 0.319972
O O12 0.000000 0.812610 0.235923
O O13 0.500000 0.259477 0.049249
O O14 0.733158 0.310293 0.965221
O O15 0.500000 0.197612 0.395667
#
# Coordination Sequence:
#
# PCOD8174834 Si02
#       6
#     8   8   8   8   8   8
#     4  10  22  40  61  83 115 156 197 237 283 344
#     4  11  23  38  59  86 120 155 188 237 293 347
#     4  10  20  37  61  85 112 152 195 238 288 343
#     4   9  18  35  57  81 111 148 186 227 283 338
#     4  10  19  34  59  88 115 148 191 237 284 339
#     4  10  19  36  59  83 111 147 189 236 285 333
#
# _framework density 18.922813000000001
#
# number of rings (size 3 to 8) (size 9 to 14) (size 15 to 20)
#    0.000    2.000    3.333    0.500    0.000    2.667 
#    0.000    5.833    0.000    0.000    0.000    0.000 
#    0.000    0.000    0.000    0.000    0.000    0.000 
#
# Total GULP energy -297585.027636 kJ/mol
# GULP energy per Si atom -12399.376152 kJ/mol
# Density = 1.887974 g / cm^3
# Si number density = 18.922813 Si / 1000 Ang^3
#
#
#
# Elastic Constant Matrix: (Units=GPa)
#
#
# Indices 1 2 3 4 5 6 
#
# 1 33.2893 27.0627 31.4640 0.0000 0.0000 0.0000
# 2 27.0627 57.7899 26.7613 0.0000 0.0000 0.0000
# 3 31.4640 26.7613 130.4291 0.0000 0.0000 0.0000
# 4 0.0000 0.0000 0.0000 33.7676 0.0000 0.0000
# 5 0.0000 0.0000 0.0000 0.0000 29.6434 0.0000
# 6 0.0000 0.0000 0.0000 0.0000 0.0000 26.9277
#
#
#
# Elastic Compliance Matrix: (Units=1/GPa)
#
#
# Indices 1 2 3 4 5 6 
#
# 1 0.056884 -0.022414 -0.009124 0.000000 0.000000 0.000000
# 2 -0.022414 0.027952 -0.000328 0.000000 0.000000 0.000000
# 3 -0.009124 -0.000328 0.009935 0.000000 0.000000 0.000000
# 4 0.000000 0.000000 0.000000 0.029614 0.000000 0.000000
# 5 0.000000 0.000000 0.000000 0.000000 0.033734 0.000000
# 6 0.000000 0.000000 0.000000 0.000000 0.000000 0.037137
#
#
# Mechanical properties :
#
#
# Convention : Reuss Voigt Hill
#
# Bulk Modulus (GPa) = 32.21573 43.56493 37.89033
# Shear Modulus (GPa) = 18.56426 27.14909 22.85667
#
# Velocity S-wave (km/s) = 3.13557 3.79189 3.47924
# Velocity P-wave (km/s) = 5.49280 6.49951 6.01725
#
# Compressibility (1/GPa) = 0.03104073
#
# Stress axis : x y z
#
# Youngs Moduli (GPa) = 17.57956 35.77535 100.65122
#
# Poissons Ratio (x) = 0.80185 0.91831
# Poissons Ratio (y) = 0.39402 0.03304
# Poissons Ratio (z) = 0.16039 0.01174
#
# Static dielectric constant tensor:
#      x y z
#    x 3.161310 0.000000 0.000000 
#    y 0.000000 3.524580 0.000000 
#    z 0.000000 0.000000 3.642130 
# 
# 
# High freq. dielectric constant tensor:
#      x y z
#    x 1.710100 0.000000 0.000000 
#    y 0.000000 1.734390 0.000000 
#    z 0.000000 0.000000 1.753070 
# 
# From -- ./inp_files/7690.got.cif
#   From: 2010.03.12/outbox.cif.g09.slc.cpg/sg36_4_cif.got.tgz:7690.got - 2010.04.14 02:13:53.
