data_PCOD8174491
_publ_section_title
;
Structure prediction by ZEFSAII (Michael W. Deem and Ramdas Pophale) SiO2 
 PCOD8174491
Probable space group: C M C 21
;
_chemical_formula_sum "Si O2"
_cell_formula_units_Z 64
_cell_length_a 9.337408
_cell_length_b 19.799973
_cell_length_c 19.740907
_cell_angle_alpha 90.000000
_cell_angle_beta 90.000000
_cell_angle_gamma 90.000000
_cell_volume 3649.707302
_symmetry_space_group_name_H-M "C M C 21"
_symmetry_group_IT_number 36
_symmetry_cell_setting 'orthorhombic'
loop_
_space_group_symop_operation_xyz
x,y,z
-x,-y,1/2+z
x,-y,1/2+z
-x,y,z
1/2+x,1/2+y,z
1/2-x,1/2-y,1/2+z
1/2+x,1/2-y,1/2+z
1/2-x,1/2+y,z
loop_
_atom_site_type_symbol
_atom_site_label
_atom_site_fract_x
_atom_site_fract_y
_atom_site_fract_z
Si Si1 0.837581 0.845252 0.970560
Si Si2 0.834852 0.303139 0.496832
Si Si3 0.835416 0.978453 0.346799
Si Si4 0.331945 0.579416 0.231123
Si Si5 0.335246 0.673711 0.863042
Si Si6 0.168197 0.524966 0.478100
Si Si7 0.164917 0.203777 0.319921
Si Si8 0.835244 0.580545 0.094487
O O1 0.809454 0.833346 0.891167
O O2 0.000000 0.869546 0.982684
O O3 0.730077 0.901796 0.997958
O O4 0.806402 0.775926 0.011354
O O5 0.736506 0.329742 0.436527
O O6 0.800151 0.345294 0.564323
O O7 0.000000 0.314330 0.474184
O O8 0.819698 0.899513 0.328566
O O9 0.739791 0.997276 0.410518
O O10 0.000000 0.997126 0.364333
O O11 0.782004 0.020539 0.282083
O O12 0.500000 0.575735 0.219136
O O13 0.287698 0.652361 0.261133
O O14 0.257397 0.567161 0.160169
O O15 0.500000 0.694501 0.872183
O O16 0.259743 0.728694 0.814662
O O17 0.205753 0.474976 0.538978
O O18 0.000000 0.530654 0.465562
O O19 0.000000 0.225284 0.312657
O O20 0.000000 0.574985 0.115495
#
# Coordination Sequence:
#
# PCOD8174491 Si02
#       8
#     8   8   8   8   8   8   8   8
#     4   9  17  32  55  78 104 138 175 218 265 317
#     4   9  18  35  54  74 107 144 174 214 269 325
#     4  10  20  36  55  79 110 142 182 226 267 322
#     4  10  21  38  57  77 105 147 188 222 268 329
#     4  10  19  30  53  84 108 132 174 228 267 307
#     4  11  21  33  54  82 111 141 177 227 277 319
#     4   9  18  34  54  76 107 142 174 216 270 325
#     4  10  22  38  54  78 110 144 182 225 275 328
#
# _framework density 17.535651999999999
#
# number of rings (size 3 to 8) (size 9 to 14) (size 15 to 20)
#    0.000    2.250    2.500    1.500    0.000    5.000 
#    0.000    1.250    0.000    7.500    0.000    0.000 
#    0.000    0.000    0.000    0.000    0.000    0.000 
#
# Total GULP energy -396837.009976 kJ/mol
# GULP energy per Si atom -12401.156562 kJ/mol
# Density = 1.749574 g / cm^3
# Si number density = 17.535652 Si / 1000 Ang^3
#
#
#
# Elastic Constant Matrix: (Units=GPa)
#
#
# Indices 1 2 3 4 5 6 
#
# 1 87.3383 66.9314 59.3668 0.0000 0.0000 0.0000
# 2 66.9314 130.4921 64.9543 0.0000 0.0000 0.0000
# 3 59.3668 64.9543 109.4508 0.0000 0.0000 0.0000
# 4 0.0000 0.0000 0.0000 23.8374 0.0000 0.0000
# 5 0.0000 0.0000 0.0000 0.0000 29.0533 0.0000
# 6 0.0000 0.0000 0.0000 0.0000 0.0000 32.1000
#
#
#
# Elastic Compliance Matrix: (Units=1/GPa)
#
#
# Indices 1 2 3 4 5 6 
#
# 1 0.022620 -0.007799 -0.007641 0.000000 0.000000 0.000000
# 2 -0.007799 0.013565 -0.003820 0.000000 0.000000 0.000000
# 3 -0.007641 -0.003820 0.015548 0.000000 0.000000 0.000000
# 4 0.000000 0.000000 0.000000 0.041951 0.000000 0.000000
# 5 0.000000 0.000000 0.000000 0.000000 0.034420 0.000000
# 6 0.000000 0.000000 0.000000 0.000000 0.000000 0.031153
#
#
# Mechanical properties :
#
#
# Convention : Reuss Voigt Hill
#
# Bulk Modulus (GPa) = 75.68102 78.86512 77.27307
# Shear Modulus (GPa) = 24.73034 26.06671 25.39852
#
# Velocity S-wave (km/s) = 3.75946 3.85970 3.80991
# Velocity P-wave (km/s) = 7.88015 8.05821 7.96968
#
# Compressibility (1/GPa) = 0.01321335
#
# Stress axis : x y z
#
# Youngs Moduli (GPa) = 44.20830 73.71968 64.31627
#
# Poissons Ratio (x) = 0.57492 0.49145
# Poissons Ratio (y) = 0.34477 0.24569
# Poissons Ratio (z) = 0.33780 0.28162
#
# Static dielectric constant tensor:
#      x y z
#    x 3.259240 0.000000 0.000000 
#    y 0.000000 3.568340 0.000000 
#    z 0.000000 0.000000 2.995010 
# 
# 
# High freq. dielectric constant tensor:
#      x y z
#    x 1.679220 0.000000 0.000000 
#    y 0.000000 1.693970 0.000000 
#    z 0.000000 0.000000 1.645880 
# 
# From -- ./inp_files/13950.got.cif
#   From: 2010.03.12/outbox.cif.g09.slc.cpg/sg36_7_cif.got.tgz:13950.got - 2010.04.14 02:13:53.
