data_PCOD8174306
_publ_section_title
;
Structure prediction by ZEFSAII (Michael W. Deem and Ramdas Pophale) SiO2 
 PCOD8174306
Probable space group: C M C 21
;
_chemical_formula_sum "Si O2"
_cell_formula_units_Z 64
_cell_length_a 9.060501
_cell_length_b 18.524640
_cell_length_c 20.774750
_cell_angle_alpha 90.000000
_cell_angle_beta 90.000000
_cell_angle_gamma 90.000000
_cell_volume 3486.886377
_symmetry_space_group_name_H-M "C M C 21"
_symmetry_group_IT_number 36
_symmetry_cell_setting 'orthorhombic'
loop_
_space_group_symop_operation_xyz
x,y,z
-x,-y,1/2+z
x,-y,1/2+z
-x,y,z
1/2+x,1/2+y,z
1/2-x,1/2-y,1/2+z
1/2+x,1/2-y,1/2+z
1/2-x,1/2+y,z
loop_
_atom_site_type_symbol
_atom_site_label
_atom_site_fract_x
_atom_site_fract_y
_atom_site_fract_z
Si Si1 0.326716 0.418363 0.829150
Si Si2 0.333829 0.913269 0.457565
Si Si3 0.825259 0.830354 0.708473
Si Si4 0.672258 0.928997 0.093040
Si Si5 0.824441 0.920507 0.586604
Si Si6 0.837074 0.584885 0.453392
Si Si7 0.672459 0.166063 0.715801
Si Si8 0.674343 0.584461 0.830344
O O1 0.500000 0.410262 0.831671
O O2 0.258882 0.372409 0.770299
O O3 0.267932 0.386304 0.896836
O O4 0.278928 0.501296 0.819599
O O5 0.500000 0.881825 0.458768
O O6 0.246799 0.889043 0.521429
O O7 0.249307 0.883546 0.394725
O O8 0.335894 0.998908 0.455077
O O9 0.769693 0.867966 0.643361
O O10 0.772172 0.748004 0.709672
O O11 0.000000 0.835193 0.711009
O O12 0.500000 0.952098 0.091105
O O13 0.706223 0.871854 0.148255
O O14 0.770019 0.999610 0.104710
O O15 0.714892 0.890592 0.024846
O O16 0.000000 0.922051 0.578651
O O17 0.000000 0.614697 0.438307
O O18 0.500000 0.160911 0.733894
O O19 0.768729 0.128998 0.770184
O O20 0.500000 0.592730 0.837143
#
# Coordination Sequence:
#
# PCOD8174306 Si02
#       8
#     8   8   8   8   8   8   8   8
#     4   9  17  31  51  73  97 126 161 201 246 297
#     4   9  17  31  51  76 104 130 160 201 248 301
#     4   9  19  34  50  70  99 135 169 201 245 297
#     4   9  18  32  51  74  98 128 167 206 246 297
#     4  10  18  31  53  77 101 130 165 208 253 295
#     4   8  15  28  46  71  99 123 155 200 244 288
#     4  10  20  35  52  69  97 137 173 205 245 296
#     4  10  19  32  52  78 103 127 162 208 253 297
#
# _framework density 18.354483999999999
#
# number of rings (size 3 to 8) (size 9 to 14) (size 15 to 20)
#    0.000    2.750    0.000    2.625    0.000    5.000 
#    0.000    4.375    0.000    1.500    0.000    0.000 
#    0.000    0.000    0.000    0.000    0.000    0.000 
#
# Total GULP energy -396735.527050 kJ/mol
# GULP energy per Si atom -12397.985220 kJ/mol
# Density = 1.831271 g / cm^3
# Si number density = 18.354484 Si / 1000 Ang^3
#
#
#
# Elastic Constant Matrix: (Units=GPa)
#
#
# Indices 1 2 3 4 5 6 
#
# 1 67.6099 36.8949 59.4740 0.0000 0.0000 0.0000
# 2 36.8949 76.7894 69.4578 0.0000 0.0000 0.0000
# 3 59.4740 69.4578 191.0861 0.0000 0.0000 0.0000
# 4 0.0000 0.0000 0.0000 1.4632 0.0000 0.0000
# 5 0.0000 0.0000 0.0000 0.0000 35.2842 0.0000
# 6 0.0000 0.0000 0.0000 0.0000 0.0000 14.9778
#
#
#
# Elastic Compliance Matrix: (Units=1/GPa)
#
#
# Indices 1 2 3 4 5 6 
#
# 1 0.022436 -0.006650 -0.004566 0.000000 0.000000 0.000000
# 2 -0.006650 0.021373 -0.005699 0.000000 0.000000 0.000000
# 3 -0.004566 -0.005699 0.008726 0.000000 0.000000 0.000000
# 4 0.000000 0.000000 0.000000 0.683444 0.000000 0.000000
# 5 0.000000 0.000000 0.000000 0.000000 0.028341 0.000000
# 6 0.000000 0.000000 0.000000 0.000000 0.000000 0.066765
#
#
# Mechanical properties :
#
#
# Convention : Reuss Voigt Hill
#
# Bulk Modulus (GPa) = 53.46172 74.12654 63.79413
# Shear Modulus (GPa) = 5.73955 21.65562 13.69758
#
# Velocity S-wave (km/s) = 1.77027 3.43863 2.73478
# Velocity P-wave (km/s) = 5.77659 7.49929 6.69359
#
# Compressibility (1/GPa) = 0.01870497
#
# Stress axis : x y z
#
# Youngs Moduli (GPa) = 44.57126 46.78903 114.60194
#
# Poissons Ratio (x) = 0.31114 0.52326
# Poissons Ratio (y) = 0.29639 0.65311
# Poissons Ratio (z) = 0.20351 0.26665
#
# Static dielectric constant tensor:
#      x y z
#    x 3.312550 0.000000 0.000000 
#    y 0.000000 3.128900 0.000000 
#    z 0.000000 0.000000 3.822060 
# 
# 
# High freq. dielectric constant tensor:
#      x y z
#    x 1.700830 0.000000 0.000000 
#    y 0.000000 1.673150 0.000000 
#    z 0.000000 0.000000 1.734130 
# 
# From -- ./inp_files/16713.got.cif
#   From: 2010.03.12/outbox.cif.g09.slc.cpg/sg36_9_cif.got.tgz:16713.got - 2010.04.14 02:13:53.
