data_PCOD8174016
_publ_section_title
;
Structure prediction by ZEFSAII (Michael W. Deem and Ramdas Pophale) SiO2 
 PCOD8174016
Probable space group: C M M 2
;
_chemical_formula_sum "Si O2"
_cell_formula_units_Z 40
_cell_length_a 8.636523
_cell_length_b 15.946097
_cell_length_c 14.486644
_cell_angle_alpha 90.000000
_cell_angle_beta 90.000000
_cell_angle_gamma 90.000000
_cell_volume 1995.083713
_symmetry_space_group_name_H-M "C M M 2"
_symmetry_group_IT_number 35
_symmetry_cell_setting 'orthorhombic'
loop_
_space_group_symop_operation_xyz
x,y,z
-x,-y,z
-x,y,z
x,-y,z
1/2+x,1/2+y,z
1/2-x,1/2-y,z
1/2-x,1/2+y,z
1/2+x,1/2-y,z
loop_
_atom_site_type_symbol
_atom_site_label
_atom_site_fract_x
_atom_site_fract_y
_atom_site_fract_z
Si Si1 0.816434 0.662452 0.949600
Si Si2 0.684032 0.000000 0.649786
Si Si3 0.817187 0.340554 0.529541
Si Si4 0.183504 0.661239 0.324326
Si Si5 0.182243 0.000000 0.850446
Si Si6 0.183314 0.408962 0.136968
O O1 0.750000 0.750000 0.910295
O O2 0.752947 0.584254 0.892665
O O3 0.000000 0.662357 0.939186
O O4 0.761835 0.654852 0.057015
O O5 0.736252 0.084049 0.595521
O O6 0.500000 0.000000 0.667054
O O7 0.778828 0.000000 0.743038
O O8 0.750000 0.250000 0.560435
O O9 0.759118 0.366320 0.426232
O O10 0.000000 0.330843 0.531273
O O11 0.250000 0.750000 0.299146
O O12 0.250282 0.605479 0.240134
O O13 0.000000 0.662520 0.323538
O O14 0.000000 0.000000 0.866358
O O15 0.240608 0.500000 0.104177
O O16 0.000000 0.405291 0.143516
#
# Coordination Sequence:
#
# PCOD8174016 Si02
#       6
#     8   4   8   8   4   8
#     4  11  22  40  64  90 121 158 197 242 295 351
#     4  10  22  40  61  84 112 148 191 242 297 352
#     4   9  19  35  57  85 116 151 190 234 283 339
#     4   9  17  30  51  79 113 150 190 230 272 332
#     4  12  26  44  63  88 116 150 197 250 305 360
#     4   9  17  30  53  84 117 154 193 233 278 335
#
# _framework density 20.049285000000001
#
# number of rings (size 3 to 8) (size 9 to 14) (size 15 to 20)
#    0.000    2.200    1.000    2.100    1.400    1.600 
#    0.000    3.000    0.000    0.000    0.000    0.000 
#    0.000    0.000    0.000    0.000    0.000    0.000 
#
# Total GULP energy -247820.467416 kJ/mol
# GULP energy per Si atom -12391.023371 kJ/mol
# Density = 2.000365 g / cm^3
# Si number density = 20.049285 Si / 1000 Ang^3
#
#
#
# Elastic Constant Matrix: (Units=GPa)
#
#
# Indices 1 2 3 4 5 6 
#
# 1 47.5706 36.4199 32.8986 0.0000 0.0000 0.0000
# 2 36.4199 163.0341 78.5304 0.0000 0.0000 0.0000
# 3 32.8986 78.5304 126.3206 0.0000 0.0000 0.0000
# 4 0.0000 0.0000 0.0000 33.1549 0.0000 0.0000
# 5 0.0000 0.0000 0.0000 0.0000 19.2145 0.0000
# 6 0.0000 0.0000 0.0000 0.0000 0.0000 31.4099
#
#
#
# Elastic Compliance Matrix: (Units=1/GPa)
#
#
# Indices 1 2 3 4 5 6 
#
# 1 0.027196 -0.003802 -0.004719 0.000000 0.000000 0.000000
# 2 -0.003802 0.009287 -0.004783 0.000000 0.000000 0.000000
# 3 -0.004719 -0.004783 0.012119 0.000000 0.000000 0.000000
# 4 0.000000 0.000000 0.000000 0.030161 0.000000 0.000000
# 5 0.000000 0.000000 0.000000 0.000000 0.052044 0.000000
# 6 0.000000 0.000000 0.000000 0.000000 0.000000 0.031837
#
#
# Mechanical properties :
#
#
# Convention : Reuss Voigt Hill
#
# Bulk Modulus (GPa) = 45.46931 70.29147 57.88039
# Shear Modulus (GPa) = 25.43432 29.36096 27.39764
#
# Velocity S-wave (km/s) = 3.56559 3.83095 3.70065
# Velocity P-wave (km/s) = 6.29915 7.39620 6.86961
#
# Compressibility (1/GPa) = 0.02199286
#
# Stress axis : x y z
#
# Youngs Moduli (GPa) = 36.77025 107.67658 82.51454
#
# Poissons Ratio (x) = 0.40940 0.38940
# Poissons Ratio (y) = 0.13981 0.39469
# Poissons Ratio (z) = 0.17352 0.51505
#
# Static dielectric constant tensor:
#      x y z
#    x 3.364110 0.000000 0.000000 
#    y 0.000000 3.742770 0.000000 
#    z 0.000000 0.000000 3.997280 
# 
# 
# High freq. dielectric constant tensor:
#      x y z
#    x 1.753660 0.000000 0.000000 
#    y 0.000000 1.789440 0.000000 
#    z 0.000000 0.000000 1.792420 
# 
# From -- ./inp_files/14757.got.cif
#   From: 2010.03.12/outbox.cif.g09.slc.cpg/sg35_8_cif.got.tgz:14757.got - 2010.04.14 02:02:04.
