data_PCOD8174004
_publ_section_title
;
Structure prediction by ZEFSAII (Michael W. Deem and Ramdas Pophale) SiO2 
 PCOD8174004
Probable space group: C M M 2
;
_chemical_formula_sum "Si O2"
_cell_formula_units_Z 64
_cell_length_a 28.499470
_cell_length_b 8.727034
_cell_length_c 12.879964
_cell_angle_alpha 90.000000
_cell_angle_beta 90.000000
_cell_angle_gamma 90.000000
_cell_volume 3203.451113
_symmetry_space_group_name_H-M "C M M 2"
_symmetry_group_IT_number 35
_symmetry_cell_setting 'orthorhombic'
loop_
_space_group_symop_operation_xyz
x,y,z
-x,-y,z
-x,y,z
x,-y,z
1/2+x,1/2+y,z
1/2-x,1/2-y,z
1/2-x,1/2+y,z
1/2+x,1/2-y,z
loop_
_atom_site_type_symbol
_atom_site_label
_atom_site_fract_x
_atom_site_fract_y
_atom_site_fract_z
Si Si1 0.448655 0.180995 0.177270
Si Si2 0.055264 0.332241 0.403335
Si Si3 0.800677 0.680253 0.514099
Si Si4 0.648960 0.819401 0.105160
Si Si5 0.948598 0.177408 0.609290
Si Si6 0.645699 0.677794 0.700144
Si Si7 0.301435 0.317748 0.301158
Si Si8 0.300872 0.680381 0.907366
O O1 0.500000 0.245088 0.140016
O O2 0.434492 0.247431 0.291436
O O3 0.407063 0.219111 0.095857
O O4 0.453208 0.000000 0.192935
O O5 0.079340 0.500000 0.409928
O O6 0.073866 0.235651 0.500865
O O7 0.000000 0.348295 0.415445
O O8 0.796065 0.500000 0.497111
O O9 0.750000 0.750000 0.536219
O O10 0.831992 0.715100 0.613438
O O11 0.822632 0.755961 0.410012
O O12 0.665999 0.739836 0.209320
O O13 0.658248 0.000000 0.111027
O O14 0.676282 0.751680 0.008704
O O15 0.910551 0.210145 0.699974
O O16 0.000000 0.251066 0.636685
O O17 0.956110 0.000000 0.593878
O O18 0.656688 0.500000 0.675277
O O19 0.665740 0.724396 0.811722
O O20 0.299005 0.500000 0.302002
O O21 0.250000 0.250000 0.283719
O O22 0.295979 0.500000 0.922935
O O23 0.250000 0.750000 0.886626
#
# Coordination Sequence:
#
# PCOD8174004 Si02
#       8
#     8   8   8   8   8   8   8   8
#     4   8  16  32  54  81 115 153 192 234 281 335
#     4   8  14  27  48  75 108 147 188 228 272 325
#     4  11  22  37  58  85 117 150 187 233 291 353
#     4  11  22  37  60  88 117 150 195 241 292 346
#     4   9  18  33  53  80 115 153 192 234 282 335
#     4  10  22  39  59  84 115 152 195 240 290 346
#     4  11  22  38  58  83 118 153 189 233 288 351
#     4  11  24  43  64  85 112 148 194 245 298 352
#
# _framework density 19.978453999999999
#
# number of rings (size 3 to 8) (size 9 to 14) (size 15 to 20)
#    0.000    2.125    0.000    5.250    1.750    2.500 
#    0.000    1.250    0.000    3.000    0.000    0.000 
#    0.000    0.000    0.000    0.000    0.000    0.000 
#
# Total GULP energy -396625.438691 kJ/mol
# GULP energy per Si atom -12394.544959 kJ/mol
# Density = 1.993298 g / cm^3
# Si number density = 19.978454 Si / 1000 Ang^3
#
#
#
# Elastic Constant Matrix: (Units=GPa)
#
#
# Indices 1 2 3 4 5 6 
#
# 1 93.5652 42.2263 46.3719 0.0000 0.0000 0.0000
# 2 42.2263 96.5821 36.9291 0.0000 0.0000 0.0000
# 3 46.3719 36.9291 78.0513 0.0000 0.0000 0.0000
# 4 0.0000 0.0000 0.0000 24.4307 0.0000 0.0000
# 5 0.0000 0.0000 0.0000 0.0000 37.3718 0.0000
# 6 0.0000 0.0000 0.0000 0.0000 0.0000 16.1332
#
#
#
# Elastic Compliance Matrix: (Units=1/GPa)
#
#
# Indices 1 2 3 4 5 6 
#
# 1 0.016444 -0.004217 -0.007775 0.000000 0.000000 0.000000
# 2 -0.004217 0.013722 -0.003987 0.000000 0.000000 0.000000
# 3 -0.007775 -0.003987 0.019318 0.000000 0.000000 0.000000
# 4 0.000000 0.000000 0.000000 0.040932 0.000000 0.000000
# 5 0.000000 0.000000 0.000000 0.000000 0.026758 0.000000
# 6 0.000000 0.000000 0.000000 0.000000 0.000000 0.061984
#
#
# Mechanical properties :
#
#
# Convention : Reuss Voigt Hill
#
# Bulk Modulus (GPa) = 57.05616 57.69482 57.37549
# Shear Modulus (GPa) = 23.04605 25.09856 24.07231
#
# Velocity S-wave (km/s) = 3.40007 3.54825 3.47495
# Velocity P-wave (km/s) = 6.63588 6.76225 6.69936
#
# Compressibility (1/GPa) = 0.01752659
#
# Stress axis : x y z
#
# Youngs Moduli (GPa) = 60.81283 72.87572 51.76626
#
# Poissons Ratio (x) = 0.30729 0.40246
# Poissons Ratio (y) = 0.25643 0.20640
# Poissons Ratio (z) = 0.47279 0.29057
#
# Static dielectric constant tensor:
#      x y z
#    x 3.841380 0.000000 0.000000 
#    y 0.000000 3.620530 0.000000 
#    z 0.000000 0.000000 3.593020 
# 
# 
# High freq. dielectric constant tensor:
#      x y z
#    x 1.792950 0.000000 0.000000 
#    y 0.000000 1.768130 0.000000 
#    z 0.000000 0.000000 1.761840 
# 
# From -- ./inp_files/14583.got.cif
#   From: 2010.03.12/outbox.cif.g09.slc.cpg/sg35_8_cif.got.tgz:14583.got - 2010.04.14 02:02:04.
