data_PCOD8174859
_publ_section_title
;
Structure prediction by ZEFSAII (Michael W. Deem and Ramdas Pophale) SiO2 
 PCOD8174859
Probable space group: C M C 21
;
_chemical_formula_sum "Si O2"
_cell_formula_units_Z 64
_cell_length_a 9.130960
_cell_length_b 29.098704
_cell_length_c 12.258826
_cell_angle_alpha 90.000000
_cell_angle_beta 90.000000
_cell_angle_gamma 90.000000
_cell_volume 3257.159063
_symmetry_space_group_name_H-M "C M C 21"
_symmetry_group_IT_number 36
_symmetry_cell_setting 'orthorhombic'
loop_
_space_group_symop_operation_xyz
x,y,z
-x,-y,1/2+z
x,-y,1/2+z
-x,y,z
1/2+x,1/2+y,z
1/2-x,1/2-y,1/2+z
1/2+x,1/2-y,1/2+z
1/2-x,1/2+y,z
loop_
_atom_site_type_symbol
_atom_site_label
_atom_site_fract_x
_atom_site_fract_y
_atom_site_fract_z
Si Si1 0.668174 0.573478 0.897360
Si Si2 0.335001 0.717426 0.157456
Si Si3 0.328912 0.183255 0.594032
Si Si4 0.169969 0.028817 0.445103
Si Si5 0.171770 0.633907 0.065498
Si Si6 0.328405 0.589866 0.651264
Si Si7 0.672504 0.090078 0.293255
Si Si8 0.332914 0.326790 0.887107
O O1 0.500000 0.588452 0.908447
O O2 0.696482 0.525479 0.959295
O O3 0.711776 0.569093 0.769735
O O4 0.763323 0.612654 0.955569
O O5 0.500000 0.710140 0.114006
O O6 0.294311 0.771104 0.163272
O O7 0.231768 0.685516 0.083002
O O8 0.318518 0.703555 0.281512
O O9 0.500000 0.172547 0.584856
O O10 0.250811 0.138777 0.642838
O O11 0.261447 0.198164 0.478606
O O12 0.222678 0.054316 0.556384
O O13 0.266836 0.041663 0.337721
O O14 0.000000 0.038997 0.419560
O O15 0.213393 0.600756 0.167684
O O16 0.000000 0.638199 0.051005
O O17 0.500000 0.598706 0.640026
O O18 0.500000 0.094711 0.312243
O O19 0.760177 0.123764 0.372851
O O20 0.500000 0.334077 0.924491
#
# Coordination Sequence:
#
# PCOD8174859 Si02
#       8
#     8   8   8   8   8   8   8   8
#     4  10  23  40  61  88 122 163 202 245 297 357
#     4   9  21  39  59  84 116 157 204 246 295 358
#     4  11  22  37  59  88 120 155 196 246 303 357
#     4  10  21  37  61  88 115 153 200 246 293 353
#     4  10  22  39  59  87 121 155 197 247 301 356
#     4  10  22  40  59  88 122 154 201 248 295 354
#     4  10  20  35  57  85 114 146 191 248 299 347
#     4  10  19  35  57  82 112 151 197 244 293 350
#
# _framework density 19.649025999999999
#
# number of rings (size 3 to 8) (size 9 to 14) (size 15 to 20)
#    0.000    2.000    1.250    1.500    1.750    5.000 
#    0.000    2.500    0.000    0.000    0.000    0.000 
#    0.000    0.000    0.000    0.000    0.000    0.000 
#
# Total GULP energy -396728.927519 kJ/mol
# GULP energy per Si atom -12397.778985 kJ/mol
# Density = 1.960430 g / cm^3
# Si number density = 19.649026 Si / 1000 Ang^3
#
#
#
# Elastic Constant Matrix: (Units=GPa)
#
#
# Indices 1 2 3 4 5 6 
#
# 1 70.9524 48.0481 40.9016 0.0000 0.0000 0.0000
# 2 48.0481 110.3319 46.6167 0.0000 0.0000 0.0000
# 3 40.9016 46.6167 88.8767 0.0000 0.0000 0.0000
# 4 0.0000 0.0000 0.0000 26.0706 0.0000 0.0000
# 5 0.0000 0.0000 0.0000 0.0000 31.7679 0.0000
# 6 0.0000 0.0000 0.0000 0.0000 0.0000 29.8648
#
#
#
# Elastic Compliance Matrix: (Units=1/GPa)
#
#
# Indices 1 2 3 4 5 6 
#
# 1 0.022782 -0.007055 -0.006784 0.000000 0.000000 0.000000
# 2 -0.007055 0.013829 -0.004007 0.000000 0.000000 0.000000
# 3 -0.006784 -0.004007 0.016475 0.000000 0.000000 0.000000
# 4 0.000000 0.000000 0.000000 0.038357 0.000000 0.000000
# 5 0.000000 0.000000 0.000000 0.000000 0.031478 0.000000
# 6 0.000000 0.000000 0.000000 0.000000 0.000000 0.033484
#
#
# Mechanical properties :
#
#
# Convention : Reuss Voigt Hill
#
# Bulk Modulus (GPa) = 57.48850 60.14376 58.81613
# Shear Modulus (GPa) = 25.26582 26.51365 25.88974
#
# Velocity S-wave (km/s) = 3.58977 3.67735 3.63383
# Velocity P-wave (km/s) = 6.81932 6.97897 6.89961
#
# Compressibility (1/GPa) = 0.01739478
#
# Stress axis : x y z
#
# Youngs Moduli (GPa) = 43.89362 72.31309 60.69761
#
# Poissons Ratio (x) = 0.51017 0.41178
# Poissons Ratio (y) = 0.30967 0.24319
# Poissons Ratio (z) = 0.29778 0.28973
#
# Static dielectric constant tensor:
#      x y z
#    x 3.597950 0.000000 0.000000 
#    y 0.000000 3.544330 0.000000 
#    z 0.000000 0.000000 3.687120 
# 
# 
# High freq. dielectric constant tensor:
#      x y z
#    x 1.765480 0.000000 0.000000 
#    y 0.000000 1.764160 0.000000 
#    z 0.000000 0.000000 1.765250 
# 
# From -- ./inp_files/7137.got.cif
#   From: 2010.03.12/outbox.cif.g09.slc.cpg/sg36_4_cif.got.tgz:7137.got - 2010.04.14 02:13:53.
