data_PCOD8174615
_publ_section_title
;
Structure prediction by ZEFSAII (Michael W. Deem and Ramdas Pophale) SiO2 
 PCOD8174615
Probable space group: C M C 21
;
_chemical_formula_sum "Si O2"
_cell_formula_units_Z 64
_cell_length_a 16.164479
_cell_length_b 15.008707
_cell_length_c 14.064834
_cell_angle_alpha 90.000000
_cell_angle_beta 90.000000
_cell_angle_gamma 90.000000
_cell_volume 3412.240250
_symmetry_space_group_name_H-M "C M C 21"
_symmetry_group_IT_number 36
_symmetry_cell_setting 'orthorhombic'
loop_
_space_group_symop_operation_xyz
x,y,z
-x,-y,1/2+z
x,-y,1/2+z
-x,y,z
1/2+x,1/2+y,z
1/2-x,1/2-y,1/2+z
1/2+x,1/2-y,1/2+z
1/2-x,1/2+y,z
loop_
_atom_site_type_symbol
_atom_site_label
_atom_site_fract_x
_atom_site_fract_y
_atom_site_fract_z
Si Si1 0.760877 0.152057 0.902440
Si Si2 0.679965 0.384718 0.202830
Si Si3 0.906448 0.298966 0.716462
Si Si4 0.833408 0.080893 0.185344
Si Si5 0.239123 0.347943 0.852639
Si Si6 0.093552 0.201034 0.038616
Si Si7 0.820035 0.384719 0.052248
Si Si8 0.833409 0.419107 0.569734
O O1 0.776920 0.099191 0.805123
O O2 0.728658 0.250000 0.877539
O O3 0.847147 0.156980 0.960295
O O4 0.686646 0.105541 0.960443
O O5 0.614001 0.305333 0.202535
O O6 0.635771 0.478452 0.176827
O O7 0.750001 0.358504 0.127540
O O8 0.847147 0.343019 0.794784
O O9 0.899880 0.352029 0.616114
O O10 0.000000 0.306311 0.753680
O O11 0.813353 0.105540 0.294636
O O12 0.899879 0.147971 0.138965
O O13 0.750000 0.094818 0.127539
O O14 0.223080 0.400808 0.949956
O O15 0.114000 0.305333 0.052543
O O16 0.000000 0.193688 0.001400
O O17 0.864229 0.478452 0.078252
#
# Coordination Sequence:
#
# PCOD8174615 Si02
#       8
#     8   8   8   8   8   8   8   8
#     4   9  17  31  53  76  99 128 165 209 251 294
#     4  10  19  32  54  76  97 130 170 211 247 289
#     4  10  20  33  49  74 105 132 162 202 250 302
#     4   9  18  33  52  75  99 128 167 206 246 290
#     4   9  17  31  53  76  99 128 165 209 251 294
#     4  10  20  33  49  74 105 132 162 202 250 302
#     4  10  19  32  54  76  97 130 170 211 247 289
#     4   9  18  33  52  75  99 128 167 206 246 290
#
# _framework density 18.756005999999999
#
# number of rings (size 3 to 8) (size 9 to 14) (size 15 to 20)
#    0.000    2.500    0.000    4.500    0.000    5.500 
#    0.000    0.000    0.000    6.750    0.000    0.000 
#    0.000    0.000    0.000    0.000    0.000    0.000 
#
# Total GULP energy -396704.764187 kJ/mol
# GULP energy per Si atom -12397.023881 kJ/mol
# Density = 1.871332 g / cm^3
# Si number density = 18.756006 Si / 1000 Ang^3
#
#
#
# Elastic Constant Matrix: (Units=GPa)
#
#
# Indices 1 2 3 4 5 6 
#
# 1 54.9710 14.8893 25.8005 0.0000 0.0000 0.0000
# 2 14.8893 74.3909 25.3200 0.0000 0.0000 0.0000
# 3 25.8005 25.3200 106.0784 0.0000 0.0000 0.0000
# 4 0.0000 0.0000 0.0000 22.3337 0.0000 0.0000
# 5 0.0000 0.0000 0.0000 0.0000 12.9631 0.0000
# 6 0.0000 0.0000 0.0000 0.0000 0.0000 9.0775
#
#
#
# Elastic Compliance Matrix: (Units=1/GPa)
#
#
# Indices 1 2 3 4 5 6 
#
# 1 0.021017 -0.002685 -0.004471 0.000000 0.000000 0.000000
# 2 -0.002685 0.014974 -0.002921 0.000000 0.000000 0.000000
# 3 -0.004471 -0.002921 0.011212 0.000000 0.000000 0.000000
# 4 0.000000 0.000000 0.000000 0.044775 0.000000 0.000000
# 5 0.000000 0.000000 0.000000 0.000000 0.077142 0.000000
# 6 0.000000 0.000000 0.000000 0.000000 0.000000 0.110163
#
#
# Mechanical properties :
#
#
# Convention : Reuss Voigt Hill
#
# Bulk Modulus (GPa) = 36.96998 40.82887 38.89943
# Shear Modulus (GPa) = 16.20991 20.17023 18.19007
#
# Velocity S-wave (km/s) = 2.94301 3.28289 3.11758
# Velocity P-wave (km/s) = 5.59483 6.01544 5.80894
#
# Compressibility (1/GPa) = 0.02704897
#
# Stress axis : x y z
#
# Youngs Moduli (GPa) = 47.58042 66.78183 89.19274
#
# Poissons Ratio (x) = 0.17930 0.39878
# Poissons Ratio (y) = 0.12774 0.26055
# Poissons Ratio (z) = 0.21273 0.19508
#
# Static dielectric constant tensor:
#      x y z
#    x 2.948620 0.000000 0.000000 
#    y 0.000000 3.553340 0.000000 
#    z 0.000000 0.000000 3.777880 
# 
# 
# High freq. dielectric constant tensor:
#      x y z
#    x 1.674250 0.000000 0.000000 
#    y 0.000000 1.742820 0.000000 
#    z 0.000000 0.000000 1.737690 
# 
# From -- ./inp_files/12691.got.cif
#   From: 2010.03.12/outbox.cif.g09.slc.cpg/sg36_7_cif.got.tgz:12691.got - 2010.04.14 02:13:53.
