data_PCOD8174638
_publ_section_title
;
Structure prediction by ZEFSAII (Michael W. Deem and Ramdas Pophale) SiO2 
 PCOD8174638
Probable space group: C M C 21
;
_chemical_formula_sum "Si O2"
_cell_formula_units_Z 64
_cell_length_a 17.262832
_cell_length_b 19.789163
_cell_length_c 9.207766
_cell_angle_alpha 90.000000
_cell_angle_beta 90.000000
_cell_angle_gamma 90.000000
_cell_volume 3145.529363
_symmetry_space_group_name_H-M "C M C 21"
_symmetry_group_IT_number 36
_symmetry_cell_setting 'orthorhombic'
loop_
_space_group_symop_operation_xyz
x,y,z
-x,-y,1/2+z
x,-y,1/2+z
-x,y,z
1/2+x,1/2+y,z
1/2-x,1/2-y,1/2+z
1/2+x,1/2-y,1/2+z
1/2-x,1/2+y,z
loop_
_atom_site_type_symbol
_atom_site_label
_atom_site_fract_x
_atom_site_fract_y
_atom_site_fract_z
Si Si1 0.583986 0.169627 0.599730
Si Si2 0.640039 0.423422 0.897524
Si Si3 0.755201 0.627136 0.618292
Si Si4 0.586538 0.768689 0.797620
Si Si5 0.086019 0.774640 0.832866
Si Si6 0.669992 0.638271 0.904767
Si Si7 0.796440 0.723407 0.055281
Si Si8 0.411699 0.530358 0.104176
O O1 0.500000 0.138588 0.645471
O O2 0.652264 0.116773 0.640033
O O3 0.586631 0.179318 0.428512
O O4 0.592171 0.244933 0.670221
O O5 0.603908 0.353631 0.841213
O O6 0.640357 0.469602 0.751897
O O7 0.723923 0.412085 0.974379
O O8 0.589216 0.457158 0.026215
O O9 0.712226 0.604370 0.765370
O O10 0.745678 0.707109 0.593679
O O11 0.500000 0.763678 0.729444
O O12 0.611053 0.693901 0.845284
O O13 0.649328 0.799979 0.687595
O O14 0.000000 0.763324 0.896772
O O15 0.148139 0.730981 0.918329
O O16 0.732490 0.667559 0.018952
O O17 0.621514 0.581876 0.986381
O O18 0.500000 0.548894 0.145722
#
# Coordination Sequence:
#
# PCOD8174638 Si02
#       8
#     8   8   8   8   8   8   8   8
#     4  10  19  32  55  85 120 154 190 239 306 376
#     4  11  25  40  61  85 119 164 211 260 298 351
#     4  10  21  37  56  86 119 156 202 252 308 366
#     4  10  20  32  49  79 118 156 193 243 306 362
#     4  10  19  35  57  85 117 157 198 244 302 364
#     4  11  21  35  58  82 120 163 205 251 300 357
#     4  10  20  31  53  81 117 153 197 245 306 362
#     4  12  25  42  61  87 120 165 216 254 296 352
#
# _framework density 20.346337999999999
#
# number of rings (size 3 to 8) (size 9 to 14) (size 15 to 20)
#    0.000    1.500    2.500    3.375    1.750    1.000 
#    0.000    5.000    0.000    0.000    0.000    5.250 
#    0.000    0.000    0.000    0.000    0.000    0.000 
#
# Total GULP energy -396594.895006 kJ/mol
# GULP energy per Si atom -12393.590469 kJ/mol
# Density = 2.030003 g / cm^3
# Si number density = 20.346338 Si / 1000 Ang^3
#
#
#
# Elastic Constant Matrix: (Units=GPa)
#
#
# Indices 1 2 3 4 5 6 
#
# 1 129.4082 27.2907 33.5755 0.0000 0.0000 0.0000
# 2 27.2907 39.3476 21.6976 0.0000 0.0000 0.0000
# 3 33.5755 21.6976 104.4784 0.0000 0.0000 0.0000
# 4 0.0000 0.0000 0.0000 26.2550 0.0000 0.0000
# 5 0.0000 0.0000 0.0000 0.0000 17.7446 0.0000
# 6 0.0000 0.0000 0.0000 0.0000 0.0000 19.7517
#
#
#
# Elastic Compliance Matrix: (Units=1/GPa)
#
#
# Indices 1 2 3 4 5 6 
#
# 1 0.009366 -0.005462 -0.001876 0.000000 0.000000 0.000000
# 2 -0.005462 0.031886 -0.004867 0.000000 0.000000 0.000000
# 3 -0.001876 -0.004867 0.011185 0.000000 0.000000 0.000000
# 4 0.000000 0.000000 0.000000 0.038088 0.000000 0.000000
# 5 0.000000 0.000000 0.000000 0.000000 0.056355 0.000000
# 6 0.000000 0.000000 0.000000 0.000000 0.000000 0.050628
#
#
# Mechanical properties :
#
#
# Convention : Reuss Voigt Hill
#
# Bulk Modulus (GPa) = 35.67755 48.70687 42.19221
# Shear Modulus (GPa) = 21.62067 25.46162 23.54115
#
# Velocity S-wave (km/s) = 3.26334 3.54137 3.40519
# Velocity P-wave (km/s) = 5.63670 6.38064 6.02017
#
# Compressibility (1/GPa) = 0.02802883
#
# Stress axis : x y z
#
# Youngs Moduli (GPa) = 106.76993 31.36132 89.40681
#
# Poissons Ratio (x) = 0.17129 0.16769
# Poissons Ratio (y) = 0.58315 0.43513
# Poissons Ratio (z) = 0.20026 0.15263
#
# Static dielectric constant tensor:
#      x y z
#    x 4.070870 0.000000 0.000000 
#    y 0.000000 3.226820 0.000000 
#    z 0.000000 0.000000 3.935250 
# 
# 
# High freq. dielectric constant tensor:
#      x y z
#    x 1.805810 0.000000 0.000000 
#    y 0.000000 1.738010 0.000000 
#    z 0.000000 0.000000 1.812110 
# 
# From -- ./inp_files/4937.got.cif
#   From: 2010.03.12/outbox.cif.g09.slc.cpg/sg36_3_cif.got.tgz:4937.got - 2010.04.14 02:13:53.
