data_PCOD8174279
_publ_section_title
;
Structure prediction by ZEFSAII (Michael W. Deem and Ramdas Pophale) SiO2 
 PCOD8174279
Probable space group: C M C 21
;
_chemical_formula_sum "Si O2"
_cell_formula_units_Z 64
_cell_length_a 9.275943
_cell_length_b 22.910721
_cell_length_c 16.275537
_cell_angle_alpha 90.000000
_cell_angle_beta 90.000000
_cell_angle_gamma 90.000000
_cell_volume 3458.853395
_symmetry_space_group_name_H-M "C M C 21"
_symmetry_group_IT_number 36
_symmetry_cell_setting 'orthorhombic'
loop_
_space_group_symop_operation_xyz
x,y,z
-x,-y,1/2+z
x,-y,1/2+z
-x,y,z
1/2+x,1/2+y,z
1/2-x,1/2-y,1/2+z
1/2+x,1/2-y,1/2+z
1/2-x,1/2+y,z
loop_
_atom_site_type_symbol
_atom_site_label
_atom_site_fract_x
_atom_site_fract_y
_atom_site_fract_z
Si Si1 0.171343 0.404702 0.030500
Si Si2 0.340134 0.371817 0.618950
Si Si3 0.670656 0.684844 0.430587
Si Si4 0.328706 0.719363 0.247314
Si Si5 0.831904 0.538581 0.020372
Si Si6 0.160244 0.789626 0.464602
Si Si7 0.333254 0.118631 0.872263
Si Si8 0.331968 0.846523 0.197816
O O1 0.231110 0.376318 0.115540
O O2 0.000000 0.396897 0.019522
O O3 0.256879 0.376498 0.954278
O O4 0.216806 0.472101 0.027232
O O5 0.500000 0.394688 0.642808
O O6 0.268924 0.334474 0.692660
O O7 0.243287 0.426899 0.594693
O O8 0.352385 0.328460 0.543828
O O9 0.500000 0.682051 0.443329
O O10 0.717589 0.703964 0.339460
O O11 0.745117 0.733124 0.489142
O O12 0.500000 0.721578 0.239089
O O13 0.265289 0.782134 0.217179
O O14 0.789053 0.563523 0.929486
O O15 0.000000 0.545787 0.035326
O O16 0.240698 0.824629 0.393140
O O17 0.000000 0.771303 0.434780
O O18 0.500000 0.135079 0.887622
O O19 0.305098 0.108826 0.774859
O O20 0.500000 0.838241 0.183011
#
# Coordination Sequence:
#
# PCOD8174279 Si02
#       8
#     8   8   8   8   8   8   8   8
#     4  10  21  37  54  77 108 143 181 222 266 315
#     4   9  18  33  55  77 100 136 177 214 257 315
#     4  11  21  34  53  76 107 142 176 215 264 322
#     4   9  17  31  52  78 101 132 177 214 255 322
#     4   9  19  35  53  78 108 136 178 224 263 308
#     4  10  18  30  52  80 107 133 167 216 270 315
#     4   9  16  31  55  77 101 140 181 216 256 313
#     4   9  16  31  56  77 100 140 181 213 259 326
#
# _framework density 18.503243000000001
#
# number of rings (size 3 to 8) (size 9 to 14) (size 15 to 20)
#    0.000    2.500    1.250    1.500    0.000    3.000 
#    2.250    1.875    0.000    0.000    0.000    0.000 
#    0.000    0.000    0.000    0.000    0.000    0.000 
#
# Total GULP energy -396594.864528 kJ/mol
# GULP energy per Si atom -12393.589516 kJ/mol
# Density = 1.846113 g / cm^3
# Si number density = 18.503243 Si / 1000 Ang^3
#
#
#
# Elastic Constant Matrix: (Units=GPa)
#
#
# Indices 1 2 3 4 5 6 
#
# 1 53.8505 45.1006 23.5681 0.0000 0.0000 0.0000
# 2 45.1006 149.2996 60.2007 0.0000 0.0000 0.0000
# 3 23.5681 60.2007 83.0088 0.0000 0.0000 0.0000
# 4 0.0000 0.0000 0.0000 26.8368 0.0000 0.0000
# 5 0.0000 0.0000 0.0000 0.0000 19.4319 0.0000
# 6 0.0000 0.0000 0.0000 0.0000 0.0000 25.6111
#
#
#
# Elastic Compliance Matrix: (Units=1/GPa)
#
#
# Indices 1 2 3 4 5 6 
#
# 1 0.025168 -0.006673 -0.002306 0.000000 0.000000 0.000000
# 2 -0.006673 0.011235 -0.006254 0.000000 0.000000 0.000000
# 3 -0.002306 -0.006254 0.017237 0.000000 0.000000 0.000000
# 4 0.000000 0.000000 0.000000 0.037262 0.000000 0.000000
# 5 0.000000 0.000000 0.000000 0.000000 0.051462 0.000000
# 6 0.000000 0.000000 0.000000 0.000000 0.000000 0.039046
#
#
# Mechanical properties :
#
#
# Convention : Reuss Voigt Hill
#
# Bulk Modulus (GPa) = 43.15067 60.43307 51.79187
# Shear Modulus (GPa) = 22.76864 24.86193 23.81528
#
# Velocity S-wave (km/s) = 3.51168 3.66956 3.59149
# Velocity P-wave (km/s) = 6.30982 7.11941 6.72680
#
# Compressibility (1/GPa) = 0.02317461
#
# Stress axis : x y z
#
# Youngs Moduli (GPa) = 39.73320 89.00572 58.01444
#
# Poissons Ratio (x) = 0.59391 0.13381
# Poissons Ratio (y) = 0.26513 0.36280
# Poissons Ratio (z) = 0.09164 0.55661
#
# Static dielectric constant tensor:
#      x y z
#    x 3.380760 0.000000 0.000000 
#    y 0.000000 3.510600 0.000000 
#    z 0.000000 0.000000 3.580570 
# 
# 
# High freq. dielectric constant tensor:
#      x y z
#    x 1.690840 0.000000 0.000000 
#    y 0.000000 1.710550 0.000000 
#    z 0.000000 0.000000 1.717590 
# 
# From -- ./inp_files/13906.got.cif
#   From: 2010.03.12/outbox.cif.g09.slc.cpg/sg36_7_cif.got.tgz:13906.got - 2010.04.14 02:13:53.
