data_PCOD8174743
_publ_section_title
;
Structure prediction by ZEFSAII (Michael W. Deem and Ramdas Pophale) SiO2 
 PCOD8174743
Probable space group: C M C 21
;
_chemical_formula_sum "Si O2"
_cell_formula_units_Z 64
_cell_length_a 8.763751
_cell_length_b 15.504569
_cell_length_c 23.542665
_cell_angle_alpha 90.000000
_cell_angle_beta 90.000000
_cell_angle_gamma 90.000000
_cell_volume 3198.934521
_symmetry_space_group_name_H-M "C M C 21"
_symmetry_group_IT_number 36
_symmetry_cell_setting 'orthorhombic'
loop_
_space_group_symop_operation_xyz
x,y,z
-x,-y,1/2+z
x,-y,1/2+z
-x,y,z
1/2+x,1/2+y,z
1/2-x,1/2-y,1/2+z
1/2+x,1/2-y,1/2+z
1/2-x,1/2+y,z
loop_
_atom_site_type_symbol
_atom_site_label
_atom_site_fract_x
_atom_site_fract_y
_atom_site_fract_z
Si Si1 0.819667 0.871073 0.536180
Si Si2 0.173748 0.712354 0.866573
Si Si3 0.822683 0.963942 0.363630
Si Si4 0.820119 0.050188 0.735278
Si Si5 0.681016 0.388973 0.665650
Si Si6 0.824113 0.205129 0.483049
Si Si7 0.677934 0.231745 0.738926
Si Si8 0.320786 0.970329 0.970139
O O1 0.765984 0.882432 0.600958
O O2 0.771534 0.776368 0.516533
O O3 0.000000 0.882997 0.529084
O O4 0.734017 0.942221 0.499413
O O5 0.288537 0.634836 0.880427
O O6 0.195207 0.783878 0.915061
O O7 0.212456 0.752910 0.805110
O O8 0.000000 0.676320 0.866966
O O9 0.725635 0.026950 0.403805
O O10 0.000000 0.983477 0.373873
O O11 0.772877 0.979542 0.298669
O O12 0.749491 0.141793 0.719043
O O13 0.000000 0.060769 0.731486
O O14 0.756543 0.978458 0.691894
O O15 0.500000 0.387754 0.671492
O O16 0.749338 0.308581 0.701263
O O17 0.759067 0.111623 0.499822
O O18 0.000000 0.211554 0.501631
O O19 0.500000 0.224144 0.727332
O O20 0.500000 0.960461 0.976620
#
# Coordination Sequence:
#
# PCOD8174743 Si02
#       8
#     8   8   8   8   8   8   8   8
#     4  11  23  42  63  87 120 159 202 249 296 350
#     4   9  18  33  58  86 120 155 189 235 294 357
#     4  10  19  33  59  88 121 156 193 242 299 354
#     4   9  19  36  58  86 119 154 192 238 290 347
#     4   9  20  38  62  86 114 155 197 237 288 351
#     4  11  23  39  61  90 119 157 199 244 299 357
#     4   9  18  35  58  85 117 152 189 234 289 350
#     4  12  25  40  59  86 120 160 203 249 299 354
#
# _framework density 20.006661999999999
#
# number of rings (size 3 to 8) (size 9 to 14) (size 15 to 20)
#    0.000    2.000    1.250    2.250    1.750    2.000 
#    0.000    5.625    0.000    0.000    0.000    0.000 
#    0.000    0.000    0.000    0.000    0.000    0.000 
#
# Total GULP energy -396857.174623 kJ/mol
# GULP energy per Si atom -12401.786707 kJ/mol
# Density = 1.996113 g / cm^3
# Si number density = 20.006662 Si / 1000 Ang^3
#
#
#
# Elastic Constant Matrix: (Units=GPa)
#
#
# Indices 1 2 3 4 5 6 
#
# 1 49.9632 11.4228 20.2232 0.0000 0.0000 0.0000
# 2 11.4228 87.1137 29.1620 0.0000 0.0000 0.0000
# 3 20.2232 29.1620 85.9637 0.0000 0.0000 0.0000
# 4 0.0000 0.0000 0.0000 25.3281 0.0000 0.0000
# 5 0.0000 0.0000 0.0000 0.0000 19.6690 0.0000
# 6 0.0000 0.0000 0.0000 0.0000 0.0000 33.2238
#
#
#
# Elastic Compliance Matrix: (Units=1/GPa)
#
#
# Indices 1 2 3 4 5 6 
#
# 1 0.022254 -0.001315 -0.004789 0.000000 0.000000 0.000000
# 2 -0.001315 0.013028 -0.004110 0.000000 0.000000 0.000000
# 3 -0.004789 -0.004110 0.014154 0.000000 0.000000 0.000000
# 4 0.000000 0.000000 0.000000 0.039482 0.000000 0.000000
# 5 0.000000 0.000000 0.000000 0.000000 0.050842 0.000000
# 6 0.000000 0.000000 0.000000 0.000000 0.000000 0.030099
#
#
# Mechanical properties :
#
#
# Convention : Reuss Voigt Hill
#
# Bulk Modulus (GPa) = 34.47457 38.29516 36.38487
# Shear Modulus (GPa) = 25.00566 26.45968 25.73267
#
# Velocity S-wave (km/s) = 3.53918 3.64062 3.59026
# Velocity P-wave (km/s) = 5.82838 6.07083 5.95084
#
# Compressibility (1/GPa) = 0.02900689
#
# Stress axis : x y z
#
# Youngs Moduli (GPa) = 44.93608 76.76048 70.65243
#
# Poissons Ratio (x) = 0.10092 0.33837
# Poissons Ratio (y) = 0.05908 0.29039
# Poissons Ratio (z) = 0.21521 0.31549
#
# Static dielectric constant tensor:
#      x y z
#    x 3.476800 0.000000 0.000000 
#    y 0.000000 3.639020 0.000000 
#    z 0.000000 0.000000 3.791580 
# 
# 
# High freq. dielectric constant tensor:
#      x y z
#    x 1.766230 0.000000 0.000000 
#    y 0.000000 1.782990 0.000000 
#    z 0.000000 0.000000 1.779760 
# 
# From -- ./inp_files/16554.got.cif
#   From: 2010.03.12/outbox.cif.g09.slc.cpg/sg36_9_cif.got.tgz:16554.got - 2010.04.14 02:13:53.
