data_PCOD8174778
_publ_section_title
;
Structure prediction by ZEFSAII (Michael W. Deem and Ramdas Pophale) SiO2 
 PCOD8174778
Probable space group: C M C 21
;
_chemical_formula_sum "Si O2"
_cell_formula_units_Z 64
_cell_length_a 9.090493
_cell_length_b 28.608140
_cell_length_c 12.531567
_cell_angle_alpha 90.000000
_cell_angle_beta 90.000000
_cell_angle_gamma 90.000000
_cell_volume 3258.985585
_symmetry_space_group_name_H-M "C M C 21"
_symmetry_group_IT_number 36
_symmetry_cell_setting 'orthorhombic'
loop_
_space_group_symop_operation_xyz
x,y,z
-x,-y,1/2+z
x,-y,1/2+z
-x,y,z
1/2+x,1/2+y,z
1/2-x,1/2-y,1/2+z
1/2+x,1/2-y,1/2+z
1/2-x,1/2+y,z
loop_
_atom_site_type_symbol
_atom_site_label
_atom_site_fract_x
_atom_site_fract_y
_atom_site_fract_z
Si Si1 0.838010 0.662022 0.061480
Si Si2 0.337765 0.938716 0.651085
Si Si3 0.666436 0.467403 0.453176
Si Si4 0.671367 0.324939 0.180713
Si Si5 0.173130 0.722139 0.249183
Si Si6 0.165313 0.066081 0.358224
Si Si7 0.823591 0.384446 0.350698
Si Si8 0.328167 0.332352 0.937498
O O1 0.846475 0.616144 0.132810
O O2 0.758191 0.699621 0.139300
O O3 0.000000 0.681658 0.034635
O O4 0.762861 0.649310 0.947478
O O5 0.500000 0.961175 0.638115
O O6 0.224178 0.962644 0.572287
O O7 0.281141 0.947068 0.768818
O O8 0.500000 0.448769 0.444348
O O9 0.673737 0.522758 0.437606
O O10 0.763795 0.436929 0.370349
O O11 0.500000 0.338597 0.185564
O O12 0.704060 0.277120 0.243544
O O13 0.764557 0.365493 0.238420
O O14 0.722655 0.320427 0.057924
O O15 0.246232 0.701742 0.355388
O O16 0.000000 0.710740 0.253769
O O17 0.212280 0.113588 0.417533
O O18 0.000000 0.071842 0.311467
O O19 0.000000 0.386638 0.352304
O O20 0.500000 0.322597 0.923170
#
# Coordination Sequence:
#
# PCOD8174778 Si02
#       8
#     8   8   8   8   8   8   8   8
#     4   8  16  32  55  80 108 144 184 236 288 336
#     4  10  19  34  56  83 114 150 193 244 298 348
#     4  10  21  37  58  84 118 157 201 248 299 357
#     4  10  23  39  58  85 122 162 196 238 298 359
#     4  10  20  37  59  84 114 153 196 238 293 352
#     4  10  21  37  58  84 114 153 197 246 299 353
#     4  10  21  38  60  86 118 154 199 245 297 354
#     4  10  22  40  60  86 118 153 198 245 296 355
#
# _framework density 19.638013000000001
#
# number of rings (size 3 to 8) (size 9 to 14) (size 15 to 20)
#    0.000    2.250    1.250    1.875    1.750    3.000 
#    0.000    3.125    0.000    0.000    0.000    0.000 
#    0.000    0.000    0.000    0.000    0.000    0.000 
#
# Total GULP energy -396656.979190 kJ/mol
# GULP energy per Si atom -12395.530600 kJ/mol
# Density = 1.959332 g / cm^3
# Si number density = 19.638013 Si / 1000 Ang^3
#
#
#
# Elastic Constant Matrix: (Units=GPa)
#
#
# Indices 1 2 3 4 5 6 
#
# 1 74.9143 41.4031 41.2638 0.0000 0.0000 0.0000
# 2 41.4031 89.8154 48.3282 0.0000 0.0000 0.0000
# 3 41.2638 48.3282 108.8233 0.0000 0.0000 0.0000
# 4 0.0000 0.0000 0.0000 25.4607 0.0000 0.0000
# 5 0.0000 0.0000 0.0000 0.0000 32.7777 0.0000
# 6 0.0000 0.0000 0.0000 0.0000 0.0000 24.3858
#
#
#
# Elastic Compliance Matrix: (Units=1/GPa)
#
#
# Indices 1 2 3 4 5 6 
#
# 1 0.019427 -0.006559 -0.004453 0.000000 0.000000 0.000000
# 2 -0.006559 0.016844 -0.004994 0.000000 0.000000 0.000000
# 3 -0.004453 -0.004994 0.013095 0.000000 0.000000 0.000000
# 4 0.000000 0.000000 0.000000 0.039276 0.000000 0.000000
# 5 0.000000 0.000000 0.000000 0.000000 0.030509 0.000000
# 6 0.000000 0.000000 0.000000 0.000000 0.000000 0.041007
#
#
# Mechanical properties :
#
#
# Convention : Reuss Voigt Hill
#
# Bulk Modulus (GPa) = 57.62125 59.50477 58.56301
# Shear Modulus (GPa) = 25.25822 26.02869 25.64345
#
# Velocity S-wave (km/s) = 3.59024 3.64459 3.61752
# Velocity P-wave (km/s) = 6.82582 6.93378 6.88001
#
# Compressibility (1/GPa) = 0.01735471
#
# Stress axis : x y z
#
# Youngs Moduli (GPa) = 51.47601 59.36676 76.36233
#
# Poissons Ratio (x) = 0.38938 0.34007
# Poissons Ratio (y) = 0.33763 0.38132
# Poissons Ratio (z) = 0.22924 0.29645
#
# Static dielectric constant tensor:
#      x y z
#    x 3.538240 0.000000 0.000000 
#    y 0.000000 3.551730 0.000000 
#    z 0.000000 0.000000 3.552730 
# 
# 
# High freq. dielectric constant tensor:
#      x y z
#    x 1.750630 0.000000 0.000000 
#    y 0.000000 1.762600 0.000000 
#    z 0.000000 0.000000 1.765860 
# 
# From -- ./inp_files/7267.got.cif
#   From: 2010.03.12/outbox.cif.g09.slc.cpg/sg36_4_cif.got.tgz:7267.got - 2010.04.14 02:13:53.
