data_PCOD8174749
_publ_section_title
;
Structure prediction by ZEFSAII (Michael W. Deem and Ramdas Pophale) SiO2 
 PCOD8174749
Probable space group: C M C 21
;
_chemical_formula_sum "Si O2"
_cell_formula_units_Z 48
_cell_length_a 13.394389
_cell_length_b 21.629378
_cell_length_c 9.598535
_cell_angle_alpha 90.000000
_cell_angle_beta 90.000000
_cell_angle_gamma 90.000000
_cell_volume 2780.813678
_symmetry_space_group_name_H-M "C M C 21"
_symmetry_group_IT_number 36
_symmetry_cell_setting 'orthorhombic'
loop_
_space_group_symop_operation_xyz
x,y,z
-x,-y,1/2+z
x,-y,1/2+z
-x,y,z
1/2+x,1/2+y,z
1/2-x,1/2-y,1/2+z
1/2+x,1/2-y,1/2+z
1/2-x,1/2+y,z
loop_
_atom_site_type_symbol
_atom_site_label
_atom_site_fract_x
_atom_site_fract_y
_atom_site_fract_z
Si Si1 0.613840 0.861707 0.557100
Si Si2 0.886462 0.865536 0.173141
Si Si3 0.885545 0.043491 0.433312
Si Si4 0.113623 0.773333 0.942113
Si Si5 0.701241 0.592211 0.947630
Si Si6 0.789912 0.141364 0.234967
O O1 0.500000 0.883110 0.579639
O O2 0.620986 0.799096 0.467086
O O3 0.677411 0.912325 0.467802
O O4 0.669376 0.853717 0.707493
O O5 0.820190 0.867797 0.310956
O O6 0.000000 0.852921 0.218774
O O7 0.877976 0.930114 0.089544
O O8 0.845146 0.809711 0.077450
O O9 0.815566 0.083363 0.332371
O O10 0.000000 0.045613 0.380041
O O11 0.847725 0.974091 0.434436
O O12 0.173926 0.794482 0.804371
O O13 0.000000 0.795432 0.918522
O O14 0.658478 0.629323 0.083247
#
# Coordination Sequence:
#
# PCOD8174749 Si02
#       6
#     8   8   8   8   8   8
#     4   9  21  37  53  73 107 148 182 220 262 305
#     4   9  18  30  50  79 110 137 167 215 280 326
#     4  10  19  34  52  81 117 138 163 224 288 325
#     4   9  18  35  55  77 109 141 170 221 280 320
#     4  10  20  29  53  78 108 143 180 212 262 324
#     4   9  20  33  57  80 103 143 184 216 268 328
#
# _framework density 17.261133999999998
#
# number of rings (size 3 to 8) (size 9 to 14) (size 15 to 20)
#    1.000    1.667    0.000    3.000    2.333    4.000 
#    0.000    0.833    0.000    6.000    0.000    0.000 
#    0.000    0.000    0.000    0.000    0.000    0.000 
#
# Total GULP energy -297334.957118 kJ/mol
# GULP energy per Si atom -12388.956547 kJ/mol
# Density = 1.722185 g / cm^3
# Si number density = 17.261134 Si / 1000 Ang^3
#
#
#
# Elastic Constant Matrix: (Units=GPa)
#
#
# Indices 1 2 3 4 5 6 
#
# 1 109.0862 17.4665 45.9197 0.0000 0.0000 0.0000
# 2 17.4665 38.6200 11.8480 0.0000 0.0000 0.0000
# 3 45.9197 11.8480 100.3130 0.0000 0.0000 0.0000
# 4 0.0000 0.0000 0.0000 19.6977 0.0000 0.0000
# 5 0.0000 0.0000 0.0000 0.0000 30.4623 0.0000
# 6 0.0000 0.0000 0.0000 0.0000 0.0000 22.0372
#
#
#
# Elastic Compliance Matrix: (Units=1/GPa)
#
#
# Indices 1 2 3 4 5 6 
#
# 1 0.011881 -0.003844 -0.004985 0.000000 0.000000 0.000000
# 2 -0.003844 0.028111 -0.001560 0.000000 0.000000 0.000000
# 3 -0.004985 -0.001560 0.012435 0.000000 0.000000 0.000000
# 4 0.000000 0.000000 0.000000 0.050767 0.000000 0.000000
# 5 0.000000 0.000000 0.000000 0.000000 0.032827 0.000000
# 6 0.000000 0.000000 0.000000 0.000000 0.000000 0.045378
#
#
# Mechanical properties :
#
#
# Convention : Reuss Voigt Hill
#
# Bulk Modulus (GPa) = 31.59756 44.27641 37.93699
# Shear Modulus (GPa) = 23.50436 25.95845 24.73140
#
# Velocity S-wave (km/s) = 3.69412 3.88218 3.78931
# Velocity P-wave (km/s) = 6.04489 6.76770 6.41648
#
# Compressibility (1/GPa) = 0.03164801
#
# Stress axis : x y z
#
# Youngs Moduli (GPa) = 84.16925 35.57373 80.41906
#
# Poissons Ratio (x) = 0.13675 0.40086
# Poissons Ratio (y) = 0.32356 0.12549
# Poissons Ratio (z) = 0.41955 0.05551
#
# Static dielectric constant tensor:
#      x y z
#    x 3.153050 0.000000 0.000000 
#    y 0.000000 3.049480 0.000000 
#    z 0.000000 0.000000 3.208870 
# 
# 
# High freq. dielectric constant tensor:
#      x y z
#    x 1.647260 0.000000 0.000000 
#    y 0.000000 1.657230 0.000000 
#    z 0.000000 0.000000 1.664830 
# 
# From -- ./inp_files/3380.got.cif
#   From: 2010.03.12/outbox.cif.g09.slc.cpg/sg36_2_cif.got.tgz:3380.got - 2010.04.14 02:13:53.
