data_PCOD8174211
_publ_section_title
;
Structure prediction by ZEFSAII (Michael W. Deem and Ramdas Pophale) SiO2 
 PCOD8174211
Probable space group: C M C 21
;
_chemical_formula_sum "Si O2"
_cell_formula_units_Z 64
_cell_length_a 9.116435
_cell_length_b 20.227895
_cell_length_c 19.969366
_cell_angle_alpha 90.000000
_cell_angle_beta 90.000000
_cell_angle_gamma 90.000000
_cell_volume 3682.476697
_symmetry_space_group_name_H-M "C M C 21"
_symmetry_group_IT_number 36
_symmetry_cell_setting 'orthorhombic'
loop_
_space_group_symop_operation_xyz
x,y,z
-x,-y,1/2+z
x,-y,1/2+z
-x,y,z
1/2+x,1/2+y,z
1/2-x,1/2-y,1/2+z
1/2+x,1/2-y,1/2+z
1/2-x,1/2+y,z
loop_
_atom_site_type_symbol
_atom_site_label
_atom_site_fract_x
_atom_site_fract_y
_atom_site_fract_z
Si Si1 0.327799 0.321076 0.004080
Si Si2 0.169911 0.936872 0.907211
Si Si3 0.825559 0.777476 0.406215
Si Si4 0.326658 0.538511 0.734556
Si Si5 0.328440 0.913590 0.770456
Si Si6 0.328418 0.765790 0.761030
Si Si7 0.670448 0.579295 0.879903
Si Si8 0.325705 0.663220 0.653719
O O1 0.500000 0.306396 0.002753
O O2 0.264698 0.323792 0.079416
O O3 0.292397 0.392147 0.970989
O O4 0.247378 0.262317 0.966185
O O5 0.268292 0.913750 0.845740
O O6 0.000000 0.929839 0.885574
O O7 0.203731 0.014133 0.924900
O O8 0.766345 0.749824 0.335070
O O9 0.767379 0.853486 0.412656
O O10 0.000000 0.770217 0.413102
O O11 0.500000 0.526517 0.735712
O O12 0.249325 0.467665 0.722885
O O13 0.267594 0.567282 0.805187
O O14 0.279017 0.589617 0.676862
O O15 0.500000 0.928423 0.773067
O O16 0.295113 0.841203 0.740065
O O17 0.500000 0.751177 0.764274
O O18 0.258507 0.717591 0.704857
O O19 0.500000 0.592444 0.871000
O O20 0.500000 0.668311 0.653284
#
# Coordination Sequence:
#
# PCOD8174211 Si02
#       8
#     8   8   8   8   8   8   8   8
#     4  10  20  32  49  74 102 129 160 204 252 292
#     4   9  17  30  47  70  97 125 158 198 243 288
#     4  10  17  30  51  72  94 127 167 201 237 291
#     4   9  16  30  51  72  94 123 160 202 242 285
#     4  10  18  28  47  74  98 120 155 203 246 284
#     4   9  16  28  49  73  94 125 169 201 231 288
#     4   8  14  26  48  70  88 117 161 199 228 274
#     4   9  17  32  52  71  95 132 172 200 235 296
#
# _framework density 17.379607
#
# number of rings (size 3 to 8) (size 9 to 14) (size 15 to 20)
#    0.000    2.750    2.500    1.125    0.000    0.000 
#    0.000    4.375    0.000    5.250    0.000    0.000 
#    0.000    0.000    0.000    0.000    0.000    0.000 
#
# Total GULP energy -396606.338999 kJ/mol
# GULP energy per Si atom -12393.948094 kJ/mol
# Density = 1.734005 g / cm^3
# Si number density = 17.379607 Si / 1000 Ang^3
#
#
#
# Elastic Constant Matrix: (Units=GPa)
#
#
# Indices 1 2 3 4 5 6 
#
# 1 34.5228 36.4335 21.8228 0.0000 0.0000 0.0000
# 2 36.4335 142.5442 59.4405 0.0000 0.0000 0.0000
# 3 21.8228 59.4405 99.0591 0.0000 0.0000 0.0000
# 4 0.0000 0.0000 0.0000 27.8483 0.0000 0.0000
# 5 0.0000 0.0000 0.0000 0.0000 17.0190 0.0000
# 6 0.0000 0.0000 0.0000 0.0000 0.0000 23.5009
#
#
#
# Elastic Compliance Matrix: (Units=1/GPa)
#
#
# Indices 1 2 3 4 5 6 
#
# 1 0.040619 -0.008870 -0.003626 0.000000 0.000000 0.000000
# 2 -0.008870 0.011294 -0.004823 0.000000 0.000000 0.000000
# 3 -0.003626 -0.004823 0.013788 0.000000 0.000000 0.000000
# 4 0.000000 0.000000 0.000000 0.035909 0.000000 0.000000
# 5 0.000000 0.000000 0.000000 0.000000 0.058758 0.000000
# 6 0.000000 0.000000 0.000000 0.000000 0.000000 0.042552
#
#
# Mechanical properties :
#
#
# Convention : Reuss Voigt Hill
#
# Bulk Modulus (GPa) = 32.19244 56.83553 44.51399
# Shear Modulus (GPa) = 20.16857 24.23560 22.20209
#
# Velocity S-wave (km/s) = 3.41027 3.73833 3.57806
# Velocity P-wave (km/s) = 5.83694 7.16986 6.53746
#
# Compressibility (1/GPa) = 0.03106319
#
# Stress axis : x y z
#
# Youngs Moduli (GPa) = 24.61877 88.54634 72.52893
#
# Poissons Ratio (x) = 0.78541 0.26299
# Poissons Ratio (y) = 0.21837 0.34978
# Poissons Ratio (z) = 0.08927 0.42702
#
# Static dielectric constant tensor:
#      x y z
#    x 2.876240 0.000000 0.000000 
#    y 0.000000 3.603410 0.000000 
#    z 0.000000 0.000000 3.149710 
# 
# 
# High freq. dielectric constant tensor:
#      x y z
#    x 1.630490 0.000000 0.000000 
#    y 0.000000 1.692210 0.000000 
#    z 0.000000 0.000000 1.643210 
# 
# From -- ./inp_files/15820.got.cif
#   From: 2010.03.12/outbox.cif.g09.slc.cpg/sg36_8_cif.got.tgz:15820.got - 2010.04.14 02:13:53.
