data_PCOD8174417
_publ_section_title
;
Structure prediction by ZEFSAII (Michael W. Deem and Ramdas Pophale) SiO2 
 PCOD8174417
Probable space group: C M C 21
;
_chemical_formula_sum "Si O2"
_cell_formula_units_Z 64
_cell_length_a 8.988538
_cell_length_b 20.557999
_cell_length_c 19.135120
_cell_angle_alpha 90.000000
_cell_angle_beta 90.000000
_cell_angle_gamma 90.000000
_cell_volume 3535.909081
_symmetry_space_group_name_H-M "C M C 21"
_symmetry_group_IT_number 36
_symmetry_cell_setting 'orthorhombic'
loop_
_space_group_symop_operation_xyz
x,y,z
-x,-y,1/2+z
x,-y,1/2+z
-x,y,z
1/2+x,1/2+y,z
1/2-x,1/2-y,1/2+z
1/2+x,1/2-y,1/2+z
1/2-x,1/2+y,z
loop_
_atom_site_type_symbol
_atom_site_label
_atom_site_fract_x
_atom_site_fract_y
_atom_site_fract_z
Si Si1 0.676079 0.940304 0.135180
Si Si2 0.824140 0.438030 0.550128
Si Si3 0.323211 0.187680 0.557828
Si Si4 0.170467 0.359029 0.780118
Si Si5 0.324543 0.640034 0.422379
Si Si6 0.174559 0.691565 0.130151
Si Si7 0.325813 0.490404 0.421045
Si Si8 0.328607 0.009549 0.780799
O O1 0.500000 0.943996 0.130023
O O2 0.736487 0.873677 0.102408
O O3 0.743083 0.001104 0.092844
O O4 0.723912 0.946101 0.215938
O O5 0.775913 0.372384 0.588300
O O6 0.753274 0.440829 0.473522
O O7 0.000000 0.442615 0.543066
O O8 0.500000 0.187898 0.550677
O O9 0.253101 0.184924 0.480510
O O10 0.270734 0.250591 0.599099
O O11 0.271448 0.337376 0.845524
O O12 0.213865 0.316953 0.712039
O O13 0.195065 0.434314 0.760258
O O14 0.000000 0.346767 0.801352
O O15 0.500000 0.649672 0.427091
O O16 0.276542 0.565093 0.435045
O O17 0.000000 0.705466 0.120153
O O18 0.500000 0.481915 0.427946
O O19 0.275332 0.469175 0.344233
O O20 0.500000 0.022289 0.800853
#
# Coordination Sequence:
#
# PCOD8174417 Si02
#       8
#     8   8   8   8   8   8   8   8
#     4   9  17  32  56  82 103 132 181 226 261 312
#     4  10  18  34  58  80 104 140 182 222 263 319
#     4  11  22  36  56  81 112 147 184 227 272 325
#     4   9  17  32  56  81 104 137 180 226 273 325
#     4  10  20  34  53  79 111 144 181 225 271 324
#     4  10  21  37  57  82 112 144 182 226 275 326
#     4  10  20  32  49  81 116 142 174 225 280 323
#     4   9  16  31  55  80 104 136 182 229 269 320
#
# _framework density 18.100014000000002
#
# number of rings (size 3 to 8) (size 9 to 14) (size 15 to 20)
#    0.000    2.250    2.500    1.125    0.000    2.000 
#    0.000    3.125    0.000    4.500    0.000    0.000 
#    0.000    0.000    0.000    0.000    0.000    0.000 
#
# Total GULP energy -396838.341259 kJ/mol
# GULP energy per Si atom -12401.198164 kJ/mol
# Density = 1.805882 g / cm^3
# Si number density = 18.100014 Si / 1000 Ang^3
#
#
#
# Elastic Constant Matrix: (Units=GPa)
#
#
# Indices 1 2 3 4 5 6 
#
# 1 52.1732 42.1437 43.2756 0.0000 0.0000 0.0000
# 2 42.1437 93.1950 66.9216 0.0000 0.0000 0.0000
# 3 43.2756 66.9216 135.9210 0.0000 0.0000 0.0000
# 4 0.0000 0.0000 0.0000 30.5614 0.0000 0.0000
# 5 0.0000 0.0000 0.0000 0.0000 24.5149 0.0000
# 6 0.0000 0.0000 0.0000 0.0000 0.0000 25.3599
#
#
#
# Elastic Compliance Matrix: (Units=1/GPa)
#
#
# Indices 1 2 3 4 5 6 
#
# 1 0.032063 -0.011090 -0.004749 0.000000 0.000000 0.000000
# 2 -0.011090 0.020434 -0.006530 0.000000 0.000000 0.000000
# 3 -0.004749 -0.006530 0.012084 0.000000 0.000000 0.000000
# 4 0.000000 0.000000 0.000000 0.032721 0.000000 0.000000
# 5 0.000000 0.000000 0.000000 0.000000 0.040791 0.000000
# 6 0.000000 0.000000 0.000000 0.000000 0.000000 0.039432
#
#
# Mechanical properties :
#
#
# Convention : Reuss Voigt Hill
#
# Bulk Modulus (GPa) = 50.38962 65.10786 57.74874
# Shear Modulus (GPa) = 21.84568 24.68380 23.26474
#
# Velocity S-wave (km/s) = 3.47788 3.69690 3.58906
# Velocity P-wave (km/s) = 6.63532 7.36695 7.01069
#
# Compressibility (1/GPa) = 0.01984536
#
# Stress axis : x y z
#
# Youngs Moduli (GPa) = 31.18817 48.93776 82.75231
#
# Poissons Ratio (x) = 0.54270 0.39296
# Poissons Ratio (y) = 0.34586 0.54038
# Poissons Ratio (z) = 0.14810 0.31957
#
# Static dielectric constant tensor:
#      x y z
#    x 3.121300 0.000000 0.000000 
#    y 0.000000 3.179010 0.000000 
#    z 0.000000 0.000000 3.448770 
# 
# 
# High freq. dielectric constant tensor:
#      x y z
#    x 1.687690 0.000000 0.000000 
#    y 0.000000 1.673790 0.000000 
#    z 0.000000 0.000000 1.716050 
# 
# From -- ./inp_files/13899.got.cif
#   From: 2010.03.12/outbox.cif.g09.slc.cpg/sg36_7_cif.got.tgz:13899.got - 2010.04.14 02:13:53.
