data_PCOD8174928
_publ_section_title
;
Structure prediction by ZEFSAII (Michael W. Deem and Ramdas Pophale) SiO2 
 PCOD8174928
Probable space group: C M C 21
;
_chemical_formula_sum "Si O2"
_cell_formula_units_Z 64
_cell_length_a 8.356357
_cell_length_b 29.374746
_cell_length_c 12.638275
_cell_angle_alpha 90.000000
_cell_angle_beta 90.000000
_cell_angle_gamma 90.000000
_cell_volume 3102.265097
_symmetry_space_group_name_H-M "C M C 21"
_symmetry_group_IT_number 36
_symmetry_cell_setting 'orthorhombic'
loop_
_space_group_symop_operation_xyz
x,y,z
-x,-y,1/2+z
x,-y,1/2+z
-x,y,z
1/2+x,1/2+y,z
1/2-x,1/2-y,1/2+z
1/2+x,1/2-y,1/2+z
1/2-x,1/2+y,z
loop_
_atom_site_type_symbol
_atom_site_label
_atom_site_fract_x
_atom_site_fract_y
_atom_site_fract_z
Si Si1 0.688136 0.569273 0.895060
Si Si2 0.314162 0.722545 0.176149
Si Si3 0.317275 0.181757 0.608122
Si Si4 0.189004 0.029704 0.458601
Si Si5 0.309376 0.628153 0.085289
Si Si6 0.313127 0.585002 0.662265
Si Si7 0.685074 0.093671 0.291778
Si Si8 0.319419 0.319964 0.891828
O O1 0.500000 0.572353 0.879427
O O2 0.733397 0.523627 0.959392
O O3 0.764410 0.571376 0.776498
O O4 0.744334 0.612014 0.967891
O O5 0.500000 0.725596 0.147619
O O6 0.236346 0.771537 0.151037
O O7 0.244090 0.679605 0.108662
O O8 0.283403 0.716146 0.300186
O O9 0.500000 0.175415 0.645206
O O10 0.216606 0.138387 0.644735
O O11 0.310690 0.187197 0.482130
O O12 0.257871 0.054561 0.565094
O O13 0.276598 0.047030 0.352320
O O14 0.000000 0.037792 0.448570
O O15 0.500000 0.626048 0.099554
O O16 0.231116 0.592336 0.167911
O O17 0.500000 0.575424 0.664462
O O18 0.500000 0.106817 0.305392
O O19 0.802092 0.129920 0.345551
O O20 0.500000 0.314749 0.935807
#
# Coordination Sequence:
#
# PCOD8174928 Si02
#       8
#     8   8   8   8   8   8   8   8
#     4   9  20  36  60  89 113 149 196 240 282 340
#     4   8  18  34  54  80 111 149 188 229 282 342
#     4  11  21  35  56  84 118 152 188 234 293 347
#     4  10  20  35  58  84 112 146 189 239 287 336
#     4   9  18  37  61  83 113 150 190 236 287 335
#     4  10  21  37  57  86 119 149 194 239 283 343
#     4  11  21  34  55  83 111 143 187 237 287 341
#     4  10  19  36  57  79 107 146 194 240 285 332
#
# _framework density 20.630088000000001
#
# number of rings (size 3 to 8) (size 9 to 14) (size 15 to 20)
#    0.000    2.250    1.250    2.625    1.750    1.000 
#    0.000    9.375    0.000    0.000    0.000    0.000 
#    0.000    0.000    0.000    0.000    0.000    0.000 
#
# Total GULP energy -396593.794142 kJ/mol
# GULP energy per Si atom -12393.556067 kJ/mol
# Density = 2.058313 g / cm^3
# Si number density = 20.630088 Si / 1000 Ang^3
#
#
#
# Elastic Constant Matrix: (Units=GPa)
#
#
# Indices 1 2 3 4 5 6 
#
# 1 25.7162 6.5170 13.4430 0.0000 0.0000 0.0000
# 2 6.5170 117.8094 64.4536 0.0000 0.0000 0.0000
# 3 13.4430 64.4536 130.0746 0.0000 0.0000 0.0000
# 4 0.0000 0.0000 0.0000 24.6522 0.0000 0.0000
# 5 0.0000 0.0000 0.0000 0.0000 15.4110 0.0000
# 6 0.0000 0.0000 0.0000 0.0000 0.0000 20.2982
#
#
#
# Elastic Compliance Matrix: (Units=1/GPa)
#
#
# Indices 1 2 3 4 5 6 
#
# 1 0.041107 0.000069 -0.004283 0.000000 0.000000 0.000000
# 2 0.000069 0.011645 -0.005778 0.000000 0.000000 0.000000
# 3 -0.004283 -0.005778 0.010993 0.000000 0.000000 0.000000
# 4 0.000000 0.000000 0.000000 0.040564 0.000000 0.000000
# 5 0.000000 0.000000 0.000000 0.000000 0.064889 0.000000
# 6 0.000000 0.000000 0.000000 0.000000 0.000000 0.049265
#
#
# Mechanical properties :
#
#
# Convention : Reuss Voigt Hill
#
# Bulk Modulus (GPa) = 22.84999 49.15860 36.00430
# Shear Modulus (GPa) = 19.76016 24.68473 22.22245
#
# Velocity S-wave (km/s) = 3.09824 3.46286 3.28561
# Velocity P-wave (km/s) = 4.88865 6.31418 5.64658
#
# Compressibility (1/GPa) = 0.04376369
#
# Stress axis : x y z
#
# Youngs Moduli (GPa) = 24.32667 85.87093 90.96406
#
# Poissons Ratio (x) = -0.00593 0.38956
# Poissons Ratio (y) = -0.00168 0.52555
# Poissons Ratio (z) = 0.10418 0.49613
#
# Static dielectric constant tensor:
#      x y z
#    x 3.262020 0.000000 0.000000 
#    y 0.000000 3.823790 0.000000 
#    z 0.000000 0.000000 4.110590 
# 
# 
# High freq. dielectric constant tensor:
#      x y z
#    x 1.768100 0.000000 0.000000 
#    y 0.000000 1.804600 0.000000 
#    z 0.000000 0.000000 1.811750 
# 
# From -- ./inp_files/7136.got.cif
#   From: 2010.03.12/outbox.cif.g09.slc.cpg/sg36_4_cif.got.tgz:7136.got - 2010.04.14 02:13:53.
