data_PCOD8174242
_publ_section_title
;
Structure prediction by ZEFSAII (Michael W. Deem and Ramdas Pophale) SiO2 
 PCOD8174242
Probable space group: C M C 21
;
_chemical_formula_sum "Si O2"
_cell_formula_units_Z 48
_cell_length_a 8.684915
_cell_length_b 18.549977
_cell_length_c 16.745999
_cell_angle_alpha 90.000000
_cell_angle_beta 90.000000
_cell_angle_gamma 90.000000
_cell_volume 2697.863725
_symmetry_space_group_name_H-M "C M C 21"
_symmetry_group_IT_number 36
_symmetry_cell_setting 'orthorhombic'
loop_
_space_group_symop_operation_xyz
x,y,z
-x,-y,1/2+z
x,-y,1/2+z
-x,y,z
1/2+x,1/2+y,z
1/2-x,1/2-y,1/2+z
1/2+x,1/2-y,1/2+z
1/2-x,1/2+y,z
loop_
_atom_site_type_symbol
_atom_site_label
_atom_site_fract_x
_atom_site_fract_y
_atom_site_fract_z
Si Si1 0.180273 0.545429 0.904920
Si Si2 0.681432 0.332489 0.321328
Si Si3 0.180188 0.587606 0.498759
Si Si4 0.817317 0.668772 0.343743
Si Si5 0.817537 0.043184 0.259975
Si Si6 0.316868 0.081083 0.674573
O O1 0.262172 0.623564 0.900398
O O2 0.251304 0.500040 0.833908
O O3 0.000000 0.556516 0.890776
O O4 0.215033 0.498118 0.983918
O O5 0.500000 0.339373 0.313050
O O6 0.735475 0.250875 0.334089
O O7 0.756126 0.363137 0.240432
O O8 0.250026 0.638305 0.428480
O O9 0.240594 0.608239 0.586967
O O10 0.000000 0.600620 0.495197
O O11 0.744093 0.624952 0.268991
O O12 0.000000 0.660082 0.339474
O O13 0.000000 0.042615 0.257496
O O14 0.751182 0.000077 0.183725
O O15 0.500000 0.077036 0.679117
#
# Coordination Sequence:
#
# PCOD8174242 Si02
#       6
#     8   8   8   8   8   8
#     4   9  16  30  50  69  92 122 158 193 230 280
#     4  10  19  31  49  73 100 128 159 195 238 286
#     4   8  16  31  51  71  90 123 165 200 237 283
#     4   9  18  34  52  69  95 129 162 196 238 286
#     4  10  18  29  47  71  95 119 156 196 231 278
#     4  10  18  31  51  71  96 127 160 198 240 285
#
# _framework density 17.791854000000001
#
# number of rings (size 3 to 8) (size 9 to 14) (size 15 to 20)
#    0.000    2.667    0.000    6.000    0.000    1.333 
#    0.000   10.000    0.000    4.000    0.000    0.000 
#    0.000    0.000    0.000    0.000    0.000    0.000 
#
# Total GULP energy -297316.503084 kJ/mol
# GULP energy per Si atom -12388.187628 kJ/mol
# Density = 1.775136 g / cm^3
# Si number density = 17.791854 Si / 1000 Ang^3
#
#
#
# Elastic Constant Matrix: (Units=GPa)
#
#
# Indices 1 2 3 4 5 6 
#
# 1 75.7319 44.9504 24.5466 0.0000 0.0000 0.0000
# 2 44.9504 148.0291 52.9262 0.0000 0.0000 0.0000
# 3 24.5466 52.9262 93.8265 0.0000 0.0000 0.0000
# 4 0.0000 0.0000 0.0000 20.8156 0.0000 0.0000
# 5 0.0000 0.0000 0.0000 0.0000 11.0659 0.0000
# 6 0.0000 0.0000 0.0000 0.0000 0.0000 28.8078
#
#
#
# Elastic Compliance Matrix: (Units=1/GPa)
#
#
# Indices 1 2 3 4 5 6 
#
# 1 0.016360 -0.004306 -0.001851 0.000000 0.000000 0.000000
# 2 -0.004306 0.009595 -0.004286 0.000000 0.000000 0.000000
# 3 -0.001851 -0.004286 0.013560 0.000000 0.000000 0.000000
# 4 0.000000 0.000000 0.000000 0.048041 0.000000 0.000000
# 5 0.000000 0.000000 0.000000 0.000000 0.090368 0.000000
# 6 0.000000 0.000000 0.000000 0.000000 0.000000 0.034713
#
#
# Mechanical properties :
#
#
# Convention : Reuss Voigt Hill
#
# Bulk Modulus (GPa) = 53.67945 62.49265 58.08605
# Shear Modulus (GPa) = 20.85646 25.14882 23.00264
#
# Velocity S-wave (km/s) = 3.42752 3.76374 3.59956
# Velocity P-wave (km/s) = 6.77497 7.35447 7.07066
#
# Compressibility (1/GPa) = 0.01862910
#
# Stress axis : x y z
#
# Youngs Moduli (GPa) = 61.12335 104.21574 73.74636
#
# Poissons Ratio (x) = 0.44877 0.13651
# Poissons Ratio (y) = 0.26321 0.31609
# Poissons Ratio (z) = 0.11315 0.44668
#
# Static dielectric constant tensor:
#      x y z
#    x 3.226720 0.000000 0.000000 
#    y 0.000000 3.850490 0.000000 
#    z 0.000000 0.000000 3.623230 
# 
# 
# High freq. dielectric constant tensor:
#      x y z
#    x 1.683930 0.000000 0.000000 
#    y 0.000000 1.685130 0.000000 
#    z 0.000000 0.000000 1.667020 
# 
# From -- ./inp_files/13559.got.cif
#   From: 2010.03.12/outbox.cif.g09.slc.cpg/sg36_7_cif.got.tgz:13559.got - 2010.04.14 02:13:53.
