data_PCOD8174145
_publ_section_title
;
Structure prediction by ZEFSAII (Michael W. Deem and Ramdas Pophale) SiO2 
 PCOD8174145
Probable space group: C M M 2
;
_chemical_formula_sum "Si O2"
_cell_formula_units_Z 48
_cell_length_a 30.387607
_cell_length_b 8.827378
_cell_length_c 9.322367
_cell_angle_alpha 90.000000
_cell_angle_beta 90.000000
_cell_angle_gamma 90.000000
_cell_volume 2500.658698
_symmetry_space_group_name_H-M "C M M 2"
_symmetry_group_IT_number 35
_symmetry_cell_setting 'orthorhombic'
loop_
_space_group_symop_operation_xyz
x,y,z
-x,-y,z
-x,y,z
x,-y,z
1/2+x,1/2+y,z
1/2-x,1/2-y,z
1/2-x,1/2+y,z
1/2+x,1/2-y,z
loop_
_atom_site_type_symbol
_atom_site_label
_atom_site_fract_x
_atom_site_fract_y
_atom_site_fract_z
Si Si1 0.358962 0.333692 0.494540
Si Si2 0.593825 0.821938 0.235239
Si Si3 0.000000 0.669911 0.577656
Si Si4 0.500000 0.678602 0.280158
Si Si5 0.202697 0.180205 0.733035
Si Si6 0.866401 0.825499 0.969445
Si Si7 0.430431 0.338222 0.731496
O O1 0.351277 0.500000 0.421587
O O2 0.382324 0.220759 0.384292
O O3 0.314878 0.268766 0.573211
O O4 0.388776 0.358765 0.632063
O O5 0.545434 0.746086 0.215936
O O6 0.586222 0.000000 0.233378
O O7 0.628421 0.772898 0.113224
O O8 0.000000 0.789595 0.449607
O O9 0.958530 0.696160 0.679455
O O10 0.000000 0.500000 0.515964
O O11 0.500000 0.500000 0.252965
O O12 0.250000 0.250000 0.758325
O O13 0.172547 0.237317 0.866941
O O14 0.204965 0.000000 0.735977
O O15 0.913403 0.806221 0.891084
O O16 0.857620 0.000000 0.011370
O O17 0.456552 0.500000 0.729762
#
# Coordination Sequence:
#
# PCOD8174145 Si02
#       7
#     8   8   4   4   8   8   8
#     4   9  18  35  58  81 109 148 187 227 279 346
#     4  12  24  37  56  87 119 150 192 244 293 332
#     4  12  22  31  50  83 114 140 184 244 290 323
#     4  12  24  39  58  77 110 160 200 234 280 341
#     4   9  19  37  63  91 115 146 190 236 287 346
#     4   9  20  39  59  81 112 155 195 228 281 353
#     4   9  18  34  56  76 100 144 194 228 271 336
#
# _framework density 19.194942000000001
#
# number of rings (size 3 to 8) (size 9 to 14) (size 15 to 20)
#    0.000    2.000    1.667    5.000    0.000    2.667 
#    0.000    5.000    0.000    0.000    0.000    0.000 
#    0.000    0.000    0.000    0.000    0.000    0.000 
#
# Total GULP energy -297359.359040 kJ/mol
# GULP energy per Si atom -12389.973293 kJ/mol
# Density = 1.915125 g / cm^3
# Si number density = 19.194942 Si / 1000 Ang^3
#
#
#
# Elastic Constant Matrix: (Units=GPa)
#
#
# Indices 1 2 3 4 5 6 
#
# 1 108.4647 39.3031 37.1513 0.0000 0.0000 0.0000
# 2 39.3031 100.6747 33.4043 0.0000 0.0000 0.0000
# 3 37.1513 33.4043 81.5381 0.0000 0.0000 0.0000
# 4 0.0000 0.0000 0.0000 20.5907 0.0000 0.0000
# 5 0.0000 0.0000 0.0000 0.0000 -16.1172 0.0000
# 6 0.0000 0.0000 0.0000 0.0000 0.0000 31.9954
#
#
#
# Elastic Compliance Matrix: (Units=1/GPa)
#
#
# Indices 1 2 3 4 5 6 
#
# 1 0.011783 -0.003262 -0.004032 0.000000 0.000000 0.000000
# 2 -0.003262 0.012399 -0.003593 0.000000 0.000000 0.000000
# 3 -0.004032 -0.003593 0.015573 0.000000 0.000000 0.000000
# 4 0.000000 0.000000 0.000000 0.048566 0.000000 0.000000
# 5 0.000000 0.000000 0.000000 0.000000 -0.062045 0.000000
# 6 0.000000 0.000000 0.000000 0.000000 0.000000 0.031254
#
#
# Mechanical properties :
#
#
# Convention : Reuss Voigt Hill
#
# Bulk Modulus (GPa) = 55.61722 56.71055 56.16388
# Shear Modulus (GPa) = 58.61822 19.34837 38.98329
#
# Velocity S-wave (km/s) = 5.53215 3.17833 4.51146
# Velocity P-wave (km/s) = 8.35728 6.56336 7.51405
#
# Compressibility (1/GPa) = 0.01798004
#
# Stress axis : x y z
#
# Youngs Moduli (GPa) = 84.87000 80.65361 64.21190
#
# Poissons Ratio (x) = 0.26310 0.25891
# Poissons Ratio (y) = 0.27685 0.23072
# Poissons Ratio (z) = 0.34221 0.28980
#
# Static dielectric constant tensor:
#      x y z
#    x 4.074130 0.000000 0.000000 
#    y 0.000000 3.327010 0.000000 
#    z 0.000000 0.000000 3.437110 
# 
# 
# High freq. dielectric constant tensor:
#      x y z
#    x 1.734960 0.000000 0.000000 
#    y 0.000000 1.735600 0.000000 
#    z 0.000000 0.000000 1.741590 
# 
# From -- ./inp_files/10511.got.cif
#   From: 2010.03.12/outbox.cif.g09.slc.cpg/sg35_6_cif.got.tgz:10511.got - 2010.04.14 02:02:04.
