data_PCOD8174759
_publ_section_title
;
Structure prediction by ZEFSAII (Michael W. Deem and Ramdas Pophale) SiO2 
 PCOD8174759
Probable space group: C M C 21
;
_chemical_formula_sum "Si O2"
_cell_formula_units_Z 64
_cell_length_a 16.830656
_cell_length_b 17.362150
_cell_length_c 10.919505
_cell_angle_alpha 90.000000
_cell_angle_beta 90.000000
_cell_angle_gamma 90.000000
_cell_volume 3190.858158
_symmetry_space_group_name_H-M "C M C 21"
_symmetry_group_IT_number 36
_symmetry_cell_setting 'orthorhombic'
loop_
_space_group_symop_operation_xyz
x,y,z
-x,-y,1/2+z
x,-y,1/2+z
-x,y,z
1/2+x,1/2+y,z
1/2-x,1/2-y,1/2+z
1/2+x,1/2-y,1/2+z
1/2-x,1/2+y,z
loop_
_atom_site_type_symbol
_atom_site_label
_atom_site_fract_x
_atom_site_fract_y
_atom_site_fract_z
Si Si1 0.095480 0.334561 0.741340
Si Si2 0.588385 0.288916 0.669289
Si Si3 0.413071 0.126437 0.801590
Si Si4 0.257732 0.550820 0.491885
Si Si5 0.311298 0.989696 0.731327
Si Si6 0.811078 0.285719 0.971881
Si Si7 0.087972 0.122992 0.402589
Si Si8 0.857177 0.725652 0.995697
O O1 0.124937 0.421672 0.726261
O O2 0.124448 0.295251 0.865748
O O3 0.141468 0.283769 0.641016
O O4 0.000000 0.331529 0.731731
O O5 0.500000 0.306895 0.617604
O O6 0.586116 0.208311 0.737889
O O7 0.652453 0.277597 0.563474
O O8 0.614775 0.358305 0.761249
O O9 0.500000 0.088556 0.806471
O O10 0.357490 0.069585 0.727916
O O11 0.384001 0.143313 0.940029
O O12 0.234896 0.514698 0.360299
O O13 0.244083 0.492782 0.607741
O O14 0.208683 0.628800 0.522246
O O15 0.351540 0.568060 0.475617
O O16 0.727422 0.248121 0.934401
O O17 0.081415 0.205789 0.468051
O O18 0.000000 0.085186 0.405365
#
# Coordination Sequence:
#
# PCOD8174759 Si02
#       8
#     8   8   8   8   8   8   8   8
#     4  11  23  37  54  84 122 156 193 241 297 356
#     4   9  17  32  57  83 107 140 189 235 288 348
#     4  10  19  34  55  79 108 149 193 227 278 345
#     4  10  22  37  57  83 117 149 201 238 295 349
#     4  11  22  38  55  84 117 162 192 242 284 358
#     4  10  21  34  56  82 116 150 189 245 300 347
#     4   9  19  37  61  83 107 145 192 247 298 347
#     4  10  21  33  57  84 112 147 191 243 294 360
#
# _framework density 20.057300000000001
#
# number of rings (size 3 to 8) (size 9 to 14) (size 15 to 20)
#    0.000    2.000    1.250    3.375    7.000    0.000 
#    0.000    1.875    0.000    0.000    0.000    0.000 
#    0.000    0.000    0.000    0.000    0.000    0.000 
#
# Total GULP energy -396457.648863 kJ/mol
# GULP energy per Si atom -12389.301527 kJ/mol
# Density = 2.001165 g / cm^3
# Si number density = 20.057300 Si / 1000 Ang^3
#
#
#
# Elastic Constant Matrix: (Units=GPa)
#
#
# Indices 1 2 3 4 5 6 
#
# 1 117.3681 32.1862 50.2268 0.0000 0.0000 0.0000
# 2 32.1862 38.7050 25.3702 0.0000 0.0000 0.0000
# 3 50.2268 25.3702 106.4192 0.0000 0.0000 0.0000
# 4 0.0000 0.0000 0.0000 25.0942 0.0000 0.0000
# 5 0.0000 0.0000 0.0000 0.0000 30.2330 0.0000
# 6 0.0000 0.0000 0.0000 0.0000 0.0000 24.8933
#
#
#
# Elastic Compliance Matrix: (Units=1/GPa)
#
#
# Indices 1 2 3 4 5 6 
#
# 1 0.012322 -0.007627 -0.003998 0.000000 0.000000 0.000000
# 2 -0.007627 0.035342 -0.004826 0.000000 0.000000 0.000000
# 3 -0.003998 -0.004826 0.012434 0.000000 0.000000 0.000000
# 4 0.000000 0.000000 0.000000 0.039850 0.000000 0.000000
# 5 0.000000 0.000000 0.000000 0.000000 0.033076 0.000000
# 6 0.000000 0.000000 0.000000 0.000000 0.000000 0.040171
#
#
# Mechanical properties :
#
#
# Convention : Reuss Voigt Hill
#
# Bulk Modulus (GPa) = 36.76747 53.11762 44.94255
# Shear Modulus (GPa) = 23.23821 26.35802 24.79812
#
# Velocity S-wave (km/s) = 3.40750 3.62903 3.52001
# Velocity P-wave (km/s) = 5.81828 6.64080 6.24310
#
# Compressibility (1/GPa) = 0.02719796
#
# Stress axis : x y z
#
# Youngs Moduli (GPa) = 81.15257 28.29499 80.42420
#
# Poissons Ratio (x) = 0.21580 0.32151
# Poissons Ratio (y) = 0.61893 0.38812
# Poissons Ratio (z) = 0.32442 0.13655
#
# Static dielectric constant tensor:
#      x y z
#    x 3.632350 0.000000 0.000000 
#    y 0.000000 3.345870 0.000000 
#    z 0.000000 0.000000 3.853200 
# 
# 
# High freq. dielectric constant tensor:
#      x y z
#    x 1.787420 0.000000 0.000000 
#    y 0.000000 1.753250 0.000000 
#    z 0.000000 0.000000 1.781870 
# 
# From -- ./inp_files/8620.got.cif
#   From: 2010.03.12/outbox.cif.g09.slc.cpg/sg36_5_cif.got.tgz:8620.got - 2010.04.14 02:13:53.
