data_PCOD8174254
_publ_section_title
;
Structure prediction by ZEFSAII (Michael W. Deem and Ramdas Pophale) SiO2 
 PCOD8174254
Probable space group: C M C 21
;
_chemical_formula_sum "Si O2"
_cell_formula_units_Z 28
_cell_length_a 16.088894
_cell_length_b 15.383045
_cell_length_c 5.147048
_cell_angle_alpha 90.000000
_cell_angle_beta 90.000000
_cell_angle_gamma 90.000000
_cell_volume 1273.874720
_symmetry_space_group_name_H-M "C M C 21"
_symmetry_group_IT_number 36
_symmetry_cell_setting 'orthorhombic'
loop_
_space_group_symop_operation_xyz
x,y,z
-x,-y,1/2+z
x,-y,1/2+z
-x,y,z
1/2+x,1/2+y,z
1/2-x,1/2-y,1/2+z
1/2+x,1/2-y,1/2+z
1/2-x,1/2+y,z
loop_
_atom_site_type_symbol
_atom_site_label
_atom_site_fract_x
_atom_site_fract_y
_atom_site_fract_z
Si Si1 0.906179 0.647610 0.633040
Si Si2 0.687755 0.845446 0.642396
Si Si3 0.144123 0.181576 0.916165
Si Si4 0.500000 0.444336 0.340700
O O1 0.846474 0.607654 0.405028
O O2 0.905811 0.753008 0.606969
O O3 0.000000 0.612682 0.602022
O O4 0.872033 0.621307 0.913234
O O5 0.782786 0.868606 0.573132
O O6 0.683807 0.739684 0.681073
O O7 0.082366 0.111999 0.792558
O O8 0.500000 0.521910 0.135329
#
# Coordination Sequence:
#
# PCOD8174254 Si02
#       4
#     8   8   8   4
#     4  10  18  29  50  81 107 133 165 242 309 340
#     4  10  19  30  56  79  96 150 179 260 298 297
#     4  10  20  36  53  76 111 142 212 226 285 339
#     4  12  30  38  54  80 128 182 188 214 268 376
#
# _framework density 21.980184999999999
#
# number of rings (size 3 to 8) (size 9 to 14) (size 15 to 20)
#    1.714    0.000    4.286    0.857    6.000    0.000 
#    0.000    0.000    0.000    0.000    0.000    0.000 
#    0.000   22.857    0.000    0.000    0.000    0.000 
#
# Total GULP energy -173494.096667 kJ/mol
# GULP energy per Si atom -12392.435476 kJ/mol
# Density = 2.193016 g / cm^3
# Si number density = 21.980185 Si / 1000 Ang^3
#
#
#
# Elastic Constant Matrix: (Units=GPa)
#
#
# Indices 1 2 3 4 5 6 
#
# 1 149.6621 7.7572 30.8906 0.0000 0.0000 0.0000
# 2 7.7572 18.0445 -4.2363 0.0000 0.0000 0.0000
# 3 30.8906 -4.2363 126.8328 0.0000 0.0000 0.0000
# 4 0.0000 0.0000 0.0000 15.3128 0.0000 0.0000
# 5 0.0000 0.0000 0.0000 0.0000 34.3738 0.0000
# 6 0.0000 0.0000 0.0000 0.0000 0.0000 9.7388
#
#
#
# Elastic Compliance Matrix: (Units=1/GPa)
#
#
# Indices 1 2 3 4 5 6 
#
# 1 0.007256 -0.003562 -0.001886 0.000000 0.000000 0.000000
# 2 -0.003562 0.057605 0.002792 0.000000 0.000000 0.000000
# 3 -0.001886 0.002792 0.008437 0.000000 0.000000 0.000000
# 4 0.000000 0.000000 0.000000 0.065305 0.000000 0.000000
# 5 0.000000 0.000000 0.000000 0.000000 0.029092 0.000000
# 6 0.000000 0.000000 0.000000 0.000000 0.000000 0.102682
#
#
# Mechanical properties :
#
#
# Convention : Reuss Voigt Hill
#
# Bulk Modulus (GPa) = 14.70917 40.37360 27.54139
# Shear Modulus (GPa) = 16.75878 29.22695 22.99286
#
# Velocity S-wave (km/s) = 2.76424 3.65045 3.23781
# Velocity P-wave (km/s) = 4.11030 6.01463 5.15123
#
# Compressibility (1/GPa) = 0.06798479
#
# Stress axis : x y z
#
# Youngs Moduli (GPa) = 137.82395 17.35957 118.52551
#
# Poissons Ratio (x) = 0.06183 0.22355
# Poissons Ratio (y) = 0.49092 -0.33087
# Poissons Ratio (z) = 0.25995 -0.04846
#
# Static dielectric constant tensor:
#      x y z
#    x 3.807410 0.000000 0.000000 
#    y 0.000000 3.169740 0.000000 
#    z 0.000000 0.000000 3.758280 
# 
# 
# High freq. dielectric constant tensor:
#      x y z
#    x 1.875930 0.000000 0.000000 
#    y 0.000000 1.792140 0.000000 
#    z 0.000000 0.000000 1.863970 
# 
# From -- ./inp_files/623.got.cif
#   From: 2010.03.12/outbox.cif.g09.slc.cpg/sg36_1_cif.got.tgz:623.got - 2010.04.14 02:13:53.
