data_PCOD8174208
_publ_section_title
;
Structure prediction by ZEFSAII (Michael W. Deem and Ramdas Pophale) SiO2 
 PCOD8174208
Probable space group: C M C 21
;
_chemical_formula_sum "Si O2"
_cell_formula_units_Z 64
_cell_length_a 18.211832
_cell_length_b 16.327046
_cell_length_c 11.682718
_cell_angle_alpha 90.000000
_cell_angle_beta 90.000000
_cell_angle_gamma 90.000000
_cell_volume 3473.802677
_symmetry_space_group_name_H-M "C M C 21"
_symmetry_group_IT_number 36
_symmetry_cell_setting 'orthorhombic'
loop_
_space_group_symop_operation_xyz
x,y,z
-x,-y,1/2+z
x,-y,1/2+z
-x,y,z
1/2+x,1/2+y,z
1/2-x,1/2-y,1/2+z
1/2+x,1/2-y,1/2+z
1/2-x,1/2+y,z
loop_
_atom_site_type_symbol
_atom_site_label
_atom_site_fract_x
_atom_site_fract_y
_atom_site_fract_z
Si Si1 0.690810 0.728922 0.618120
Si Si2 0.343667 0.156931 0.299852
Si Si3 0.820965 0.505268 0.161262
Si Si4 0.085142 0.195865 0.161535
Si Si5 0.914669 0.633239 0.541091
Si Si6 0.741288 0.873575 0.301640
Si Si7 0.680090 0.708890 0.368282
Si Si8 0.790769 0.880237 0.541922
O O1 0.636579 0.766642 0.715308
O O2 0.726206 0.650344 0.678151
O O3 0.655475 0.695675 0.500465
O O4 0.751710 0.797048 0.586193
O O5 0.364271 0.080089 0.219480
O O6 0.392986 0.158336 0.412298
O O7 0.257068 0.163961 0.335938
O O8 0.871153 0.447827 0.081095
O O9 0.797893 0.458589 0.276719
O O10 0.752051 0.539896 0.088442
O O11 0.102691 0.289236 0.122082
O O12 0.113628 0.178255 0.289941
O O13 0.125663 0.127737 0.083944
O O14 0.000000 0.176362 0.154473
O O15 0.000000 0.610743 0.544050
O O16 0.684696 0.806042 0.347430
O O17 0.798621 0.886358 0.404808
#
# Coordination Sequence:
#
# PCOD8174208 Si02
#       8
#     8   8   8   8   8   8   8   8
#     4   9  17  30  55  76 107 138 184 246 273 316
#     4  10  20  33  55  79 111 153 192 237 280 336
#     4  11  19  33  52  82 112 153 187 230 274 338
#     4  11  20  36  58  82 115 146 182 240 295 337
#     4  11  23  37  55  84 120 152 185 231 296 348
#     4  10  17  29  54  79 107 134 182 237 271 322
#     4  10  17  33  53  81 111 137 195 236 275 340
#     4  10  19  33  52  85 107 141 197 231 274 333
#
# _framework density 18.423613
#
# number of rings (size 3 to 8) (size 9 to 14) (size 15 to 20)
#    0.000    1.750    5.000    3.750    0.000    0.500 
#    0.000    0.625    0.000    1.500    0.000    0.000 
#    0.000    1.000    0.000    0.000    0.000    0.000 
#
# Total GULP energy -396439.365031 kJ/mol
# GULP energy per Si atom -12388.730157 kJ/mol
# Density = 1.838168 g / cm^3
# Si number density = 18.423613 Si / 1000 Ang^3
#
#
#
# Elastic Constant Matrix: (Units=GPa)
#
#
# Indices 1 2 3 4 5 6 
#
# 1 91.7055 31.1112 41.8578 0.0000 0.0000 0.0000
# 2 31.1112 40.7667 13.8585 0.0000 0.0000 0.0000
# 3 41.8578 13.8585 151.2146 0.0000 0.0000 0.0000
# 4 0.0000 0.0000 0.0000 18.6799 0.0000 0.0000
# 5 0.0000 0.0000 0.0000 0.0000 25.2743 0.0000
# 6 0.0000 0.0000 0.0000 0.0000 0.0000 23.1496
#
#
#
# Elastic Compliance Matrix: (Units=1/GPa)
#
#
# Indices 1 2 3 4 5 6 
#
# 1 0.016318 -0.011268 -0.003484 0.000000 0.000000 0.000000
# 2 -0.011268 0.033100 0.000086 0.000000 0.000000 0.000000
# 3 -0.003484 0.000086 0.007570 0.000000 0.000000 0.000000
# 4 0.000000 0.000000 0.000000 0.053533 0.000000 0.000000
# 5 0.000000 0.000000 0.000000 0.000000 0.039566 0.000000
# 6 0.000000 0.000000 0.000000 0.000000 0.000000 0.043197
#
#
# Mechanical properties :
#
#
# Convention : Reuss Voigt Hill
#
# Bulk Modulus (GPa) = 36.16150 50.81575 43.48863
# Shear Modulus (GPa) = 21.56699 26.54472 24.05586
#
# Velocity S-wave (km/s) = 3.42514 3.79990 3.61738
# Velocity P-wave (km/s) = 5.94243 6.84793 6.41119
#
# Compressibility (1/GPa) = 0.02765372
#
# Stress axis : x y z
#
# Youngs Moduli (GPa) = 61.28352 30.21127 132.10532
#
# Poissons Ratio (x) = 0.34043 0.46028
# Poissons Ratio (y) = 0.69057 -0.01131
# Poissons Ratio (z) = 0.21352 -0.00259
#
# Static dielectric constant tensor:
#      x y z
#    x 2.980980 0.000000 0.000000 
#    y 0.000000 3.339450 0.000000 
#    z 0.000000 0.000000 3.830270 
# 
# 
# High freq. dielectric constant tensor:
#      x y z
#    x 1.657440 0.000000 0.000000 
#    y 0.000000 1.703900 0.000000 
#    z 0.000000 0.000000 1.742490 
# 
# From -- ./inp_files/9015.got.cif
#   From: 2010.03.12/outbox.cif.g09.slc.cpg/sg36_5_cif.got.tgz:9015.got - 2010.04.14 02:13:53.
