data_PCOD8174162
_publ_section_title
;
Structure prediction by ZEFSAII (Michael W. Deem and Ramdas Pophale) SiO2 
 PCOD8174162
Probable space group: C M M 2
;
_chemical_formula_sum "Si O2"
_cell_formula_units_Z 56
_cell_length_a 27.246931
_cell_length_b 9.149577
_cell_length_c 15.637350
_cell_angle_alpha 90.000000
_cell_angle_beta 90.000000
_cell_angle_gamma 90.000000
_cell_volume 3898.358410
_symmetry_space_group_name_H-M "C M M 2"
_symmetry_group_IT_number 35
_symmetry_cell_setting 'orthorhombic'
loop_
_space_group_symop_operation_xyz
x,y,z
-x,-y,z
-x,y,z
x,-y,z
1/2+x,1/2+y,z
1/2-x,1/2-y,z
1/2-x,1/2+y,z
1/2+x,1/2-y,z
loop_
_atom_site_type_symbol
_atom_site_label
_atom_site_fract_x
_atom_site_fract_y
_atom_site_fract_z
Si Si1 0.058452 0.835150 0.026900
Si Si2 0.105445 0.834825 0.522120
Si Si3 0.442947 0.329918 0.694861
Si Si4 0.299305 0.334406 0.434703
Si Si5 0.556471 0.829804 0.194514
Si Si6 0.058467 0.335110 0.862501
Si Si7 0.616713 0.827280 0.360892
O O1 0.077117 0.757668 0.113116
O O2 0.000000 0.832117 0.024267
O O3 0.078579 0.000000 0.024856
O O4 0.079729 0.749948 0.944720
O O5 0.086773 0.772273 0.612297
O O6 0.165305 0.834526 0.518779
O O7 0.086224 0.733827 0.443388
O O8 0.085191 0.000000 0.509562
O O9 0.500000 0.297864 0.678552
O O10 0.433296 0.500000 0.712242
O O11 0.422635 0.242538 0.776443
O O12 0.287398 0.500000 0.405481
O O13 0.250000 0.250000 0.457972
O O14 0.329399 0.250049 0.359174
O O15 0.500000 0.790330 0.213474
O O16 0.587939 0.781626 0.276038
O O17 0.562468 0.000000 0.174015
O O18 0.078523 0.500000 0.864484
O O19 0.000000 0.331855 0.864696
O O20 0.622918 0.000000 0.369181
#
# Coordination Sequence:
#
# PCOD8174162 Si02
#       7
#     8   8   8   8   8   8   8
#     4   9  16  25  38  55  74 102 140 176 207 238
#     4   8  17  29  40  58  82 107 135 170 203 239
#     4   9  16  27  41  56  79 111 142 170 202 239
#     4   9  17  30  46  62  80 103 132 168 210 248
#     4   9  17  28  40  56  82 114 143 171 203 238
#     4   9  16  25  37  54  76 103 136 173 208 239
#     4   9  17  28  42  60  82 109 138 169 203 242
#
# _framework density 14.365021
#
# number of rings (size 3 to 8) (size 9 to 14) (size 15 to 20)
#    0.857    2.286    0.000    1.286    0.000    5.714 
#    0.000    0.000    0.000    0.000    0.000    0.000 
#    0.000    1.143    0.000   10.571    0.000    5.000 
#
# Total GULP energy -346966.903760 kJ/mol
# GULP energy per Si atom -12391.675134 kJ/mol
# Density = 1.433233 g / cm^3
# Si number density = 14.365021 Si / 1000 Ang^3
#
#
#
# Elastic Constant Matrix: (Units=GPa)
#
#
# Indices 1 2 3 4 5 6 
#
# 1 40.1024 27.5156 38.2394 0.0000 0.0000 0.0000
# 2 27.5156 96.2984 69.4588 0.0000 0.0000 0.0000
# 3 38.2394 69.4588 137.8341 0.0000 0.0000 0.0000
# 4 0.0000 0.0000 0.0000 28.8480 0.0000 0.0000
# 5 0.0000 0.0000 0.0000 0.0000 1.3742 0.0000
# 6 0.0000 0.0000 0.0000 0.0000 0.0000 15.8225
#
#
#
# Elastic Compliance Matrix: (Units=1/GPa)
#
#
# Indices 1 2 3 4 5 6 
#
# 1 0.035231 -0.004739 -0.007386 0.000000 0.000000 0.000000
# 2 -0.004739 0.016952 -0.007228 0.000000 0.000000 0.000000
# 3 -0.007386 -0.007228 0.012946 0.000000 0.000000 0.000000
# 4 0.000000 0.000000 0.000000 0.034664 0.000000 0.000000
# 5 0.000000 0.000000 0.000000 0.000000 0.727703 0.000000
# 6 0.000000 0.000000 0.000000 0.000000 0.000000 0.063201
#
#
# Mechanical properties :
#
#
# Convention : Reuss Voigt Hill
#
# Bulk Modulus (GPa) = 37.84537 60.51805 49.18171
# Shear Modulus (GPa) = 5.32929 18.47702 11.90316
#
# Velocity S-wave (km/s) = 1.92820 3.59033 2.88170
# Velocity P-wave (km/s) = 5.60000 7.70762 6.73674
#
# Compressibility (1/GPa) = 0.02642331
#
# Stress axis : x y z
#
# Youngs Moduli (GPa) = 28.38436 58.99078 77.24147
#
# Poissons Ratio (x) = 0.27957 0.57049
# Poissons Ratio (y) = 0.13452 0.55828
# Poissons Ratio (z) = 0.20964 0.42637
#
# Static dielectric constant tensor:
#      x y z
#    x 2.381400 0.000000 0.000000 
#    y 0.000000 2.905780 0.000000 
#    z 0.000000 0.000000 2.838690 
# 
# 
# High freq. dielectric constant tensor:
#      x y z
#    x 1.491130 0.000000 0.000000 
#    y 0.000000 1.562620 0.000000 
#    z 0.000000 0.000000 1.545760 
# 
# From -- ./inp_files/17700.got.cif
#   From: 2010.03.12/outbox.cif.g09.slc.cpg/sg35_9_cif.got.tgz:17700.got - 2010.04.14 02:02:04.
