data_PCOD8174268
_publ_section_title
;
Structure prediction by ZEFSAII (Michael W. Deem and Ramdas Pophale) SiO2 
 PCOD8174268
Probable space group: C M C 21
;
_chemical_formula_sum "Si O2"
_cell_formula_units_Z 64
_cell_length_a 9.446301
_cell_length_b 37.677348
_cell_length_c 10.316449
_cell_angle_alpha 90.000000
_cell_angle_beta 90.000000
_cell_angle_gamma 90.000000
_cell_volume 3671.743561
_symmetry_space_group_name_H-M "C M C 21"
_symmetry_group_IT_number 36
_symmetry_cell_setting 'orthorhombic'
loop_
_space_group_symop_operation_xyz
x,y,z
-x,-y,1/2+z
x,-y,1/2+z
-x,y,z
1/2+x,1/2+y,z
1/2-x,1/2-y,1/2+z
1/2+x,1/2-y,1/2+z
1/2-x,1/2+y,z
loop_
_atom_site_type_symbol
_atom_site_label
_atom_site_fract_x
_atom_site_fract_y
_atom_site_fract_z
Si Si1 0.168084 0.962553 0.229150
Si Si2 0.167833 0.917817 0.984089
Si Si3 0.834658 0.273227 0.377146
Si Si4 0.665341 0.773227 0.081153
Si Si5 0.337161 0.145227 0.878503
Si Si6 0.168077 0.042055 0.229150
Si Si7 0.832168 0.917817 0.474211
Si Si8 0.662839 0.145227 0.579797
O O1 0.221898 0.941976 0.102550
O O2 0.221896 0.941976 0.355751
O O3 0.000000 0.964556 0.229148
O O4 0.231898 0.002293 0.229150
O O5 0.238804 0.879184 0.990290
O O6 0.000000 0.912543 0.986161
O O7 0.221647 0.936991 0.854714
O O8 0.750001 0.250000 0.479150
O O9 0.788116 0.264475 0.229150
O O10 0.801277 0.314067 0.409439
O O11 0.000000 0.265303 0.393568
O O12 0.500000 0.765302 0.064732
O O13 0.698722 0.814067 0.048860
O O14 0.500000 0.137034 0.910124
O O15 0.303482 0.136926 0.729150
O O16 0.238805 0.120816 0.968010
O O17 0.221647 0.063009 0.103587
O O18 0.000000 0.039558 0.229150
O O19 0.000000 0.912543 0.472141
O O20 0.500000 0.137034 0.548176
#
# Coordination Sequence:
#
# PCOD8174268 Si02
#       8
#     8   8   8   8   8   8   8   8
#     4   9  16  28  49  73  96 127 168 207 246 297
#     4  10  18  30  50  75  98 127 169 207 245 294
#     4   9  19  36  56  79 105 135 171 210 255 305
#     4   9  19  36  56  79 105 135 171 210 255 305
#     4   9  18  34  54  73  99 134 167 202 246 294
#     4   9  18  30  45  71 106 131 154 207 264 291
#     4  10  18  30  50  75  98 127 169 207 245 294
#     4   9  18  34  54  73  99 134 167 202 246 294
#
# _framework density 17.430409999999998
#
# number of rings (size 3 to 8) (size 9 to 14) (size 15 to 20)
#    0.000    2.750    1.250    2.250    0.000    4.500 
#    2.250    3.125    0.000    4.500    0.000    0.000 
#    0.000    0.000    0.000    0.000    0.000    0.000 
#
# Total GULP energy -396779.169018 kJ/mol
# GULP energy per Si atom -12399.349032 kJ/mol
# Density = 1.739074 g / cm^3
# Si number density = 17.430410 Si / 1000 Ang^3
#
#
#
# Elastic Constant Matrix: (Units=GPa)
#
#
# Indices 1 2 3 4 5 6 
#
# 1 42.4801 53.0472 41.4571 0.0000 0.0000 0.0000
# 2 53.0472 136.1202 82.1434 0.0000 0.0000 0.0000
# 3 41.4571 82.1434 140.6696 0.0000 0.0000 0.0000
# 4 0.0000 0.0000 0.0000 32.1108 0.0000 0.0000
# 5 0.0000 0.0000 0.0000 0.0000 21.5676 0.0000
# 6 0.0000 0.0000 0.0000 0.0000 0.0000 28.8235
#
#
#
# Elastic Compliance Matrix: (Units=1/GPa)
#
#
# Indices 1 2 3 4 5 6 
#
# 1 0.048012 -0.015707 -0.004978 0.000000 0.000000 0.000000
# 2 -0.015707 0.016482 -0.004996 0.000000 0.000000 0.000000
# 3 -0.004978 -0.004996 0.011493 0.000000 0.000000 0.000000
# 4 0.000000 0.000000 0.000000 0.031142 0.000000 0.000000
# 5 0.000000 0.000000 0.000000 0.000000 0.046366 0.000000
# 6 0.000000 0.000000 0.000000 0.000000 0.000000 0.034694
#
#
# Mechanical properties :
#
#
# Convention : Reuss Voigt Hill
#
# Bulk Modulus (GPa) = 40.60612 74.72948 57.66780
# Shear Modulus (GPa) = 20.18082 26.00852 23.09467
#
# Velocity S-wave (km/s) = 3.40633 3.86701 3.64395
# Velocity P-wave (km/s) = 6.23037 7.93123 7.13169
#
# Compressibility (1/GPa) = 0.02462683
#
# Stress axis : x y z
#
# Youngs Moduli (GPa) = 20.82791 60.67105 87.00841
#
# Poissons Ratio (x) = 0.95296 0.43312
# Poissons Ratio (y) = 0.32714 0.43467
# Poissons Ratio (z) = 0.10368 0.30310
#
# Static dielectric constant tensor:
#      x y z
#    x 2.873070 0.000000 0.000000 
#    y 0.000000 3.302610 0.000000 
#    z 0.000000 0.000000 3.263280 
# 
# 
# High freq. dielectric constant tensor:
#      x y z
#    x 1.640250 0.000000 0.000000 
#    y 0.000000 1.683020 0.000000 
#    z 0.000000 0.000000 1.672180 
# 
# From -- ./inp_files/3593.got.cif
#   From: 2010.03.12/outbox.cif.g09.slc.cpg/sg36_2_cif.got.tgz:3593.got - 2010.04.14 02:13:53.
