data_PCOD8174542
_publ_section_title
;
Structure prediction by ZEFSAII (Michael W. Deem and Ramdas Pophale) SiO2 
 PCOD8174542
Probable space group: C M C 21
;
_chemical_formula_sum "Si O2"
_cell_formula_units_Z 64
_cell_length_a 9.336195
_cell_length_b 22.590965
_cell_length_c 16.266325
_cell_angle_alpha 90.000000
_cell_angle_beta 90.000000
_cell_angle_gamma 90.000000
_cell_volume 3430.790051
_symmetry_space_group_name_H-M "C M C 21"
_symmetry_group_IT_number 36
_symmetry_cell_setting 'orthorhombic'
loop_
_space_group_symop_operation_xyz
x,y,z
-x,-y,1/2+z
x,-y,1/2+z
-x,y,z
1/2+x,1/2+y,z
1/2-x,1/2-y,1/2+z
1/2+x,1/2-y,1/2+z
1/2-x,1/2+y,z
loop_
_atom_site_type_symbol
_atom_site_label
_atom_site_fract_x
_atom_site_fract_y
_atom_site_fract_z
Si Si1 0.169695 0.713794 0.823600
Si Si2 0.167098 0.595197 0.146282
Si Si3 0.660160 0.938801 0.917114
Si Si4 0.834726 0.631475 0.971326
Si Si5 0.834834 0.333939 0.804780
Si Si6 0.657544 0.539315 0.878104
Si Si7 0.332052 0.963098 0.105917
Si Si8 0.838471 0.120048 0.722382
O O1 0.205936 0.688161 0.915168
O O2 0.231415 0.779028 0.818071
O O3 0.247082 0.676079 0.752843
O O4 0.000000 0.713900 0.807482
O O5 0.226144 0.627136 0.228139
O O6 0.227796 0.528478 0.131112
O O7 0.000000 0.586591 0.157959
O O8 0.199597 0.639089 0.068460
O O9 0.500000 0.960739 0.897879
O O10 0.676851 0.870890 0.889250
O O11 0.766828 0.976899 0.860810
O O12 0.698796 0.949297 0.011274
O O13 0.747939 0.574138 0.945287
O O14 0.000000 0.615278 0.958164
O O15 0.000000 0.314006 0.789186
O O16 0.500000 0.529200 0.914792
O O17 0.650183 0.572628 0.793355
O O18 0.500000 0.956870 0.127119
O O19 0.244057 0.911008 0.148703
O O20 0.000000 0.139896 0.696269
#
# Coordination Sequence:
#
# PCOD8174542 Si02
#       8
#     8   8   8   8   8   8   8   8
#     4  10  21  38  59  79 106 146 193 233 273 330
#     4   9  17  33  58  84 110 143 184 227 272 332
#     4  10  20  35  56  80 113 153 184 221 274 337
#     4   9  17  34  58  80 105 142 186 228 270 326
#     4  10  21  37  57  81 112 149 188 229 279 330
#     4  10  19  31  52  82 113 142 176 222 279 333
#     4  10  19  34  57  85 114 143 185 228 272 335
#     4  10  21  36  55  81 111 144 182 230 283 329
#
# _framework density 18.654595
#
# number of rings (size 3 to 8) (size 9 to 14) (size 15 to 20)
#    0.000    2.250    1.250    1.875    0.000    4.000 
#    2.250    1.250    0.000    0.000    0.000    0.000 
#    0.000    0.000    0.000    0.000    0.000    0.000 
#
# Total GULP energy -396633.800787 kJ/mol
# GULP energy per Si atom -12394.806275 kJ/mol
# Density = 1.861214 g / cm^3
# Si number density = 18.654595 Si / 1000 Ang^3
#
#
#
# Elastic Constant Matrix: (Units=GPa)
#
#
# Indices 1 2 3 4 5 6 
#
# 1 87.1830 54.9853 35.3274 0.0000 0.0000 0.0000
# 2 54.9853 118.9674 53.8257 0.0000 0.0000 0.0000
# 3 35.3274 53.8257 79.9085 0.0000 0.0000 0.0000
# 4 0.0000 0.0000 0.0000 22.7088 0.0000 0.0000
# 5 0.0000 0.0000 0.0000 0.0000 18.9294 0.0000
# 6 0.0000 0.0000 0.0000 0.0000 0.0000 35.9338
#
#
#
# Elastic Compliance Matrix: (Units=1/GPa)
#
#
# Indices 1 2 3 4 5 6 
#
# 1 0.016721 -0.006305 -0.003145 0.000000 0.000000 0.000000
# 2 -0.006305 0.014468 -0.006958 0.000000 0.000000 0.000000
# 3 -0.003145 -0.006958 0.018592 0.000000 0.000000 0.000000
# 4 0.000000 0.000000 0.000000 0.044036 0.000000 0.000000
# 5 0.000000 0.000000 0.000000 0.000000 0.052828 0.000000
# 6 0.000000 0.000000 0.000000 0.000000 0.000000 0.027829
#
#
# Mechanical properties :
#
#
# Convention : Reuss Voigt Hill
#
# Bulk Modulus (GPa) = 58.94876 63.81509 61.38193
# Shear Modulus (GPa) = 23.48024 24.97578 24.22801
#
# Velocity S-wave (km/s) = 3.55164 3.66301 3.60775
# Velocity P-wave (km/s) = 6.96331 7.22310 7.09439
#
# Compressibility (1/GPa) = 0.01696389
#
# Stress axis : x y z
#
# Youngs Moduli (GPa) = 59.80390 69.11812 53.78775
#
# Poissons Ratio (x) = 0.43582 0.16917
# Poissons Ratio (y) = 0.37709 0.37425
# Poissons Ratio (z) = 0.18810 0.48092
#
# Static dielectric constant tensor:
#      x y z
#    x 3.518900 0.000000 0.000000 
#    y 0.000000 3.397860 0.000000 
#    z 0.000000 0.000000 3.679850 
# 
# 
# High freq. dielectric constant tensor:
#      x y z
#    x 1.714790 0.000000 0.000000 
#    y 0.000000 1.712800 0.000000 
#    z 0.000000 0.000000 1.723450 
# 
# From -- ./inp_files/10911.got.cif
#   From: 2010.03.12/outbox.cif.g09.slc.cpg/sg36_6_cif.got.tgz:10911.got - 2010.04.14 02:13:53.
