data_PCOD8174562
_publ_section_title
;
Structure prediction by ZEFSAII (Michael W. Deem and Ramdas Pophale) SiO2 
 PCOD8174562
Probable space group: C M C 21
;
_chemical_formula_sum "Si O2"
_cell_formula_units_Z 64
_cell_length_a 9.043956
_cell_length_b 22.742339
_cell_length_c 17.771651
_cell_angle_alpha 90.000000
_cell_angle_beta 90.000000
_cell_angle_gamma 90.000000
_cell_volume 3655.285853
_symmetry_space_group_name_H-M "C M C 21"
_symmetry_group_IT_number 36
_symmetry_cell_setting 'orthorhombic'
loop_
_space_group_symop_operation_xyz
x,y,z
-x,-y,1/2+z
x,-y,1/2+z
-x,y,z
1/2+x,1/2+y,z
1/2-x,1/2-y,1/2+z
1/2+x,1/2-y,1/2+z
1/2-x,1/2+y,z
loop_
_atom_site_type_symbol
_atom_site_label
_atom_site_fract_x
_atom_site_fract_y
_atom_site_fract_z
Si Si1 0.163704 0.167787 0.312440
Si Si2 0.825648 0.433872 0.334938
Si Si3 0.823392 0.111043 0.688503
Si Si4 0.334141 0.669641 0.911183
Si Si5 0.337580 0.267948 0.252264
Si Si6 0.174902 0.620514 0.538001
Si Si7 0.170718 0.434576 0.881114
Si Si8 0.832867 0.771896 0.973938
O O1 0.235799 0.210072 0.249217
O O2 0.247462 0.106061 0.320193
O O3 0.163641 0.201371 0.391081
O O4 0.000000 0.153437 0.284372
O O5 0.747667 0.428012 0.254225
O O6 0.757176 0.389663 0.396083
O O7 0.790277 0.498305 0.365758
O O8 0.000000 0.421704 0.326776
O O9 0.777238 0.179541 0.699662
O O10 0.753961 0.090290 0.609583
O O11 0.000000 0.102972 0.690307
O O12 0.500000 0.654503 0.940034
O O13 0.346461 0.707358 0.836103
O O14 0.246565 0.708237 0.973117
O O15 0.500000 0.248498 0.225238
O O16 0.218231 0.580720 0.466328
O O17 0.239178 0.686043 0.528303
O O18 0.000000 0.623850 0.550750
O O19 0.000000 0.420420 0.869971
O O20 0.000000 0.765258 0.005174
#
# Coordination Sequence:
#
# PCOD8174562 Si02
#       8
#     8   8   8   8   8   8   8   8
#     4   9  16  25  43  69  93 117 150 191 232 273
#     4  10  19  32  50  72  97 130 170 209 246 292
#     4  10  20  33  49  72  99 128 161 202 251 302
#     4   9  16  27  44  68  95 122 152 192 238 282
#     4   8  15  27  43  63  91 121 147 180 230 285
#     4  10  19  32  50  72  98 129 162 202 251 303
#     4   9  19  33  49  70  98 131 168 205 246 295
#     4   9  16  27  44  68  95 122 152 189 234 286
#
# _framework density 17.508890999999998
#
# number of rings (size 3 to 8) (size 9 to 14) (size 15 to 20)
#    0.000    2.750    0.000    3.000    0.000    8.000 
#    0.000    0.000    0.000    1.500    0.000    7.000 
#    0.000    0.000    0.000    0.000    0.000    0.000 
#
# Total GULP energy -396707.961443 kJ/mol
# GULP energy per Si atom -12397.123795 kJ/mol
# Density = 1.746904 g / cm^3
# Si number density = 17.508891 Si / 1000 Ang^3
#
#
#
# Elastic Constant Matrix: (Units=GPa)
#
#
# Indices 1 2 3 4 5 6 
#
# 1 119.5377 66.0119 37.5646 0.0000 0.0000 0.0000
# 2 66.0119 112.1646 38.7377 0.0000 0.0000 0.0000
# 3 37.5646 38.7377 58.6865 0.0000 0.0000 0.0000
# 4 0.0000 0.0000 0.0000 14.9707 0.0000 0.0000
# 5 0.0000 0.0000 0.0000 0.0000 21.6298 0.0000
# 6 0.0000 0.0000 0.0000 0.0000 0.0000 29.1676
#
#
#
# Elastic Compliance Matrix: (Units=1/GPa)
#
#
# Indices 1 2 3 4 5 6 
#
# 1 0.013180 -0.006273 -0.004295 0.000000 0.000000 0.000000
# 2 -0.006273 0.014534 -0.005578 0.000000 0.000000 0.000000
# 3 -0.004295 -0.005578 0.023471 0.000000 0.000000 0.000000
# 4 0.000000 0.000000 0.000000 0.066797 0.000000 0.000000
# 5 0.000000 0.000000 0.000000 0.000000 0.046233 0.000000
# 6 0.000000 0.000000 0.000000 0.000000 0.000000 0.034285
#
#
# Mechanical properties :
#
#
# Convention : Reuss Voigt Hill
#
# Bulk Modulus (GPa) = 52.93429 63.89078 58.41254
# Shear Modulus (GPa) = 21.08912 23.02525 22.05719
#
# Velocity S-wave (km/s) = 3.47433 3.63031 3.55318
# Velocity P-wave (km/s) = 6.81124 7.35812 7.08996
#
# Compressibility (1/GPa) = 0.01889134
#
# Stress axis : x y z
#
# Youngs Moduli (GPa) = 75.87536 68.80501 42.60548
#
# Poissons Ratio (x) = 0.43162 0.18301
# Poissons Ratio (y) = 0.47597 0.23766
# Poissons Ratio (z) = 0.32591 0.38381
#
# Static dielectric constant tensor:
#      x y z
#    x 3.487430 0.000000 0.000000 
#    y 0.000000 3.176550 0.000000 
#    z 0.000000 0.000000 2.992010 
# 
# 
# High freq. dielectric constant tensor:
#      x y z
#    x 1.693220 0.000000 0.000000 
#    y 0.000000 1.660640 0.000000 
#    z 0.000000 0.000000 1.637420 
# 
# From -- ./inp_files/13784.got.cif
#   From: 2010.03.12/outbox.cif.g09.slc.cpg/sg36_7_cif.got.tgz:13784.got - 2010.04.14 02:13:53.
