data_PCOD8174842
_publ_section_title
;
Structure prediction by ZEFSAII (Michael W. Deem and Ramdas Pophale) SiO2 
 PCOD8174842
Probable space group: C M C 21
;
_chemical_formula_sum "Si O2"
_cell_formula_units_Z 32
_cell_length_a 13.962265
_cell_length_b 26.129488
_cell_length_c 5.170535
_cell_angle_alpha 90.000000
_cell_angle_beta 90.000000
_cell_angle_gamma 90.000000
_cell_volume 1886.349923
_symmetry_space_group_name_H-M "C M C 21"
_symmetry_group_IT_number 36
_symmetry_cell_setting 'orthorhombic'
loop_
_space_group_symop_operation_xyz
x,y,z
-x,-y,1/2+z
x,-y,1/2+z
-x,y,z
1/2+x,1/2+y,z
1/2-x,1/2-y,1/2+z
1/2+x,1/2-y,1/2+z
1/2-x,1/2+y,z
loop_
_atom_site_type_symbol
_atom_site_label
_atom_site_fract_x
_atom_site_fract_y
_atom_site_fract_z
Si Si1 0.711132 0.138870 0.221420
Si Si2 0.608393 0.228532 0.010480
Si Si3 0.610440 0.032434 0.227476
Si Si4 0.224795 0.185439 0.731717
O O1 0.621577 0.178182 0.191007
O O2 0.676422 0.081372 0.187240
O O3 0.759018 0.145638 0.499752
O O4 0.788609 0.152227 0.994443
O O5 0.500000 0.231872 0.908968
O O6 0.632842 0.279551 0.174030
O O7 0.682205 0.223478 0.766952
O O8 0.500000 0.049556 0.211965
O O9 0.634417 0.007939 0.503669
#
# Coordination Sequence:
#
# PCOD8174842 Si02
#       4
#     8   8   8   8
#     4  10  19  35  49  69 105 135 168 204 250 294
#     4  10  20  34  53  73 105 142 166 208 256 294
#     4  10  20  32  47  71  98 129 173 209 242 302
#     4  10  20  35  47  77 102 132 179 207 232 318
#
# _framework density 16.963977
#
# number of rings (size 3 to 8) (size 9 to 14) (size 15 to 20)
#    1.500    0.500    2.500    2.250    0.000    2.000 
#    0.000    0.000    0.000    0.000    0.000    0.000 
#    0.000   20.000    0.000    0.000    0.000    0.000 
#
# Total GULP energy -198269.807391 kJ/mol
# GULP energy per Si atom -12391.862962 kJ/mol
# Density = 1.692537 g / cm^3
# Si number density = 16.963977 Si / 1000 Ang^3
#
#
#
# Elastic Constant Matrix: (Units=GPa)
#
#
# Indices 1 2 3 4 5 6 
#
# 1 36.7943 7.6406 0.2052 0.0000 0.0000 0.0000
# 2 7.6406 79.5915 10.2993 0.0000 0.0000 0.0000
# 3 0.2052 10.2993 93.0238 0.0000 0.0000 0.0000
# 4 0.0000 0.0000 0.0000 20.3291 0.0000 0.0000
# 5 0.0000 0.0000 0.0000 0.0000 16.3864 0.0000
# 6 0.0000 0.0000 0.0000 0.0000 0.0000 20.7563
#
#
#
# Elastic Compliance Matrix: (Units=1/GPa)
#
#
# Indices 1 2 3 4 5 6 
#
# 1 0.027736 -0.002693 0.000237 0.000000 0.000000 0.000000
# 2 -0.002693 0.013008 -0.001434 0.000000 0.000000 0.000000
# 3 0.000237 -0.001434 0.010908 0.000000 0.000000 0.000000
# 4 0.000000 0.000000 0.000000 0.049191 0.000000 0.000000
# 5 0.000000 0.000000 0.000000 0.000000 0.061026 0.000000
# 6 0.000000 0.000000 0.000000 0.000000 0.000000 0.048178
#
#
# Mechanical properties :
#
#
# Convention : Reuss Voigt Hill
#
# Bulk Modulus (GPa) = 22.79387 27.30000 25.04693
# Shear Modulus (GPa) = 21.50979 24.24533 22.87756
#
# Velocity S-wave (km/s) = 3.56472 3.78461 3.67631
# Velocity P-wave (km/s) = 5.51441 5.93511 5.72863
#
# Compressibility (1/GPa) = 0.04387145
#
# Stress axis : x y z
#
# Youngs Moduli (GPa) = 36.05414 76.87399 91.67405
#
# Poissons Ratio (x) = 0.20704 -0.02173
# Poissons Ratio (y) = 0.09710 0.13149
# Poissons Ratio (z) = -0.00855 0.11026
#
# Static dielectric constant tensor:
#      x y z
#    x 2.674680 0.000000 0.000000 
#    y 0.000000 2.959430 0.000000 
#    z 0.000000 0.000000 3.233930 
# 
# 
# High freq. dielectric constant tensor:
#      x y z
#    x 1.599220 0.000000 0.000000 
#    y 0.000000 1.644400 0.000000 
#    z 0.000000 0.000000 1.667860 
# 
# From -- ./inp_files/437.got.cif
#   From: 2010.03.12/outbox.cif.g09.slc.cpg/sg36_1_cif.got.tgz:437.got - 2010.04.14 02:13:53.
