data_PCOD8174009
_publ_section_title
;
Structure prediction by ZEFSAII (Michael W. Deem and Ramdas Pophale) SiO2 
 PCOD8174009
Probable space group: C M M 2
;
_chemical_formula_sum "Si O2"
_cell_formula_units_Z 48
_cell_length_a 9.900568
_cell_length_b 14.167411
_cell_length_c 15.660515
_cell_angle_alpha 90.000000
_cell_angle_beta 90.000000
_cell_angle_gamma 90.000000
_cell_volume 2196.628651
_symmetry_space_group_name_H-M "C M M 2"
_symmetry_group_IT_number 35
_symmetry_cell_setting 'orthorhombic'
loop_
_space_group_symop_operation_xyz
x,y,z
-x,-y,z
-x,y,z
x,-y,z
1/2+x,1/2+y,z
1/2-x,1/2-y,z
1/2-x,1/2+y,z
1/2+x,1/2-y,z
loop_
_atom_site_type_symbol
_atom_site_label
_atom_site_fract_x
_atom_site_fract_y
_atom_site_fract_z
Si Si1 0.750000 0.250000 0.493860
Si Si2 0.651128 0.107076 0.779051
Si Si3 0.852096 0.601553 0.366617
Si Si4 0.663643 0.659502 0.229835
Si Si5 0.250000 0.750000 0.913040
Si Si6 0.154083 0.101862 0.044464
Si Si7 0.651329 0.607205 0.628840
O O1 0.843783 0.314742 0.435247
O O2 0.660433 0.320586 0.550727
O O3 0.500000 0.110076 0.742054
O O4 0.657637 0.180815 0.856996
O O5 0.750851 0.140563 0.704791
O O6 0.687283 0.000000 0.809550
O O7 0.851709 0.500000 0.414703
O O8 0.726014 0.589928 0.300400
O O9 0.000000 0.615505 0.321202
O O10 0.500000 0.669255 0.237940
O O11 0.750000 0.750000 0.256635
O O12 0.715906 0.632190 0.135304
O O13 0.162977 0.818154 0.972946
O O14 0.000000 0.084596 0.064395
O O15 0.217979 0.000000 0.015914
O O16 0.500000 0.611301 0.665808
O O17 0.687078 0.500000 0.599874
#
# Coordination Sequence:
#
# PCOD8174009 Si02
#       7
#     4   8   8   8   4   8   8
#     4  12  23  39  66  96 128 164 204 261 313 376
#     4  10  23  42  63  90 125 164 206 256 317 376
#     4  11  25  43  64  94 131 170 212 260 316 378
#     4  11  22  41  67  93 125 168 217 264 316 373
#     4  12  21  37  62  92 124 162 208 257 311 370
#     4  10  22  39  60  89 125 165 208 256 312 370
#     4  10  23  43  66  92 123 163 212 258 307 373
#
# _framework density 21.851666999999999
#
# number of rings (size 3 to 8) (size 9 to 14) (size 15 to 20)
#    0.000    1.333    1.667    3.500    0.000    5.667 
#    0.000    3.333    0.000    4.000    0.000    0.000 
#    0.000    0.000    0.000    0.000    0.000    0.000 
#
# Total GULP energy -297329.108451 kJ/mol
# GULP energy per Si atom -12388.712852 kJ/mol
# Density = 2.180193 g / cm^3
# Si number density = 21.851667 Si / 1000 Ang^3
#
#
#
# Elastic Constant Matrix: (Units=GPa)
#
#
# Indices 1 2 3 4 5 6 
#
# 1 126.4745 42.7184 51.8622 0.0000 0.0000 0.0000
# 2 42.7184 146.8036 64.9823 0.0000 0.0000 0.0000
# 3 51.8622 64.9823 127.8081 0.0000 0.0000 0.0000
# 4 0.0000 0.0000 0.0000 17.3200 0.0000 0.0000
# 5 0.0000 0.0000 0.0000 0.0000 29.3109 0.0000
# 6 0.0000 0.0000 0.0000 0.0000 0.0000 18.0218
#
#
#
# Elastic Compliance Matrix: (Units=1/GPa)
#
#
# Indices 1 2 3 4 5 6 
#
# 1 0.009701 -0.001394 -0.003228 0.000000 0.000000 0.000000
# 2 -0.001394 0.008990 -0.004005 0.000000 0.000000 0.000000
# 3 -0.003228 -0.004005 0.011170 0.000000 0.000000 0.000000
# 4 0.000000 0.000000 0.000000 0.057737 0.000000 0.000000
# 5 0.000000 0.000000 0.000000 0.000000 0.034117 0.000000
# 6 0.000000 0.000000 0.000000 0.000000 0.000000 0.055488
#
#
# Mechanical properties :
#
#
# Convention : Reuss Voigt Hill
#
# Bulk Modulus (GPa) = 79.31726 80.02356 79.67041
# Shear Modulus (GPa) = 25.16848 29.03210 27.10029
#
# Velocity S-wave (km/s) = 3.39748 3.64895 3.52546
# Velocity P-wave (km/s) = 7.19495 7.37929 7.28770
#
# Compressibility (1/GPa) = 0.01260760
#
# Stress axis : x y z
#
# Youngs Moduli (GPa) = 103.08005 111.22877 89.52205
#
# Poissons Ratio (x) = 0.15508 0.28895
# Poissons Ratio (y) = 0.14372 0.35857
# Poissons Ratio (z) = 0.33271 0.44551
#
# Static dielectric constant tensor:
#      x y z
#    x 3.752480 0.000000 0.000000 
#    y 0.000000 4.378930 0.000000 
#    z 0.000000 0.000000 3.761360 
# 
# 
# High freq. dielectric constant tensor:
#      x y z
#    x 1.845870 0.000000 0.000000 
#    y 0.000000 1.889470 0.000000 
#    z 0.000000 0.000000 1.844700 
# 
# From -- ./inp_files/17865.got.cif
#   From: 2010.03.12/outbox.cif.g09.slc.cpg/sg35_9_cif.got.tgz:17865.got - 2010.04.14 02:02:04.
