data_PCOD8174039
_publ_section_title
;
Structure prediction by ZEFSAII (Michael W. Deem and Ramdas Pophale) SiO2 
 PCOD8174039
Probable space group: C M M 2
;
_chemical_formula_sum "Si O2"
_cell_formula_units_Z 40
_cell_length_a 14.482062
_cell_length_b 15.524911
_cell_length_c 7.312003
_cell_angle_alpha 90.000000
_cell_angle_beta 90.000000
_cell_angle_gamma 90.000000
_cell_volume 1643.977550
_symmetry_space_group_name_H-M "C M M 2"
_symmetry_group_IT_number 35
_symmetry_cell_setting 'orthorhombic'
loop_
_space_group_symop_operation_xyz
x,y,z
-x,-y,z
-x,y,z
x,-y,z
1/2+x,1/2+y,z
1/2-x,1/2-y,z
1/2-x,1/2+y,z
1/2+x,1/2-y,z
loop_
_atom_site_type_symbol
_atom_site_label
_atom_site_fract_x
_atom_site_fract_y
_atom_site_fract_z
Si Si1 0.109233 0.095771 0.950180
Si Si2 0.098994 0.097769 0.536076
Si Si3 0.890254 0.722046 0.091399
Si Si4 0.780341 0.338242 0.442035
Si Si5 0.605701 0.097010 0.768146
O O1 0.135678 0.116842 0.740595
O O2 0.143915 0.178369 0.067524
O O3 0.000000 0.090407 0.967537
O O4 0.149412 0.000000 0.007557
O O5 0.180593 0.119049 0.393359
O O6 0.000000 0.147176 0.495716
O O7 0.073418 0.000000 0.513876
O O8 0.858854 0.664563 0.918547
O O9 0.000000 0.716079 0.119209
O O10 0.839349 0.680374 0.262702
O O11 0.750000 0.250000 0.541122
O O12 0.838193 0.396174 0.580149
O O13 0.500000 0.116551 0.719202
O O14 0.618444 0.000000 0.844711
#
# Coordination Sequence:
#
# PCOD8174039 Si02
#       5
#     8   8   8   8   8
#     4   8  15  33  64  97 130 174 225 279 345 412
#     4   9  19  38  65  95 128 171 223 279 340 402
#     4  10  22  41  66 100 140 180 226 280 338 404
#     4  12  25  39  63  97 135 178 225 275 331 397
#     4  10  23  45  72 100 134 178 225 277 337 400
#
# _framework density 24.331232
#
# number of rings (size 3 to 8) (size 9 to 14) (size 15 to 20)
#    0.000    2.200    0.000    3.600    0.000    7.200 
#    0.000    4.000    0.000    4.800    0.000    8.400 
#    0.000    0.000    0.000    0.000    0.000    0.000 
#
# Total GULP energy -247772.801794 kJ/mol
# GULP energy per Si atom -12388.640090 kJ/mol
# Density = 2.427585 g / cm^3
# Si number density = 24.331232 Si / 1000 Ang^3
#
#
#
# Elastic Constant Matrix: (Units=GPa)
#
#
# Indices 1 2 3 4 5 6 
#
# 1 116.6579 50.3187 67.4413 0.0000 0.0000 0.0000
# 2 50.3187 125.4665 71.3691 0.0000 0.0000 0.0000
# 3 67.4413 71.3691 111.8858 0.0000 0.0000 0.0000
# 4 0.0000 0.0000 0.0000 9.7123 0.0000 0.0000
# 5 0.0000 0.0000 0.0000 0.0000 34.6918 0.0000
# 6 0.0000 0.0000 0.0000 0.0000 0.0000 22.7927
#
#
#
# Elastic Compliance Matrix: (Units=1/GPa)
#
#
# Indices 1 2 3 4 5 6 
#
# 1 0.013273 -0.001212 -0.007228 0.000000 0.000000 0.000000
# 2 -0.001212 0.012620 -0.007319 0.000000 0.000000 0.000000
# 3 -0.007228 -0.007319 0.017963 0.000000 0.000000 0.000000
# 4 0.000000 0.000000 0.000000 0.102963 0.000000 0.000000
# 5 0.000000 0.000000 0.000000 0.000000 0.028825 0.000000
# 6 0.000000 0.000000 0.000000 0.000000 0.000000 0.043874
#
#
# Mechanical properties :
#
#
# Convention : Reuss Voigt Hill
#
# Bulk Modulus (GPa) = 81.04844 81.36314 81.20579
# Shear Modulus (GPa) = 19.59648 24.43143 22.01395
#
# Velocity S-wave (km/s) = 2.84104 3.17222 3.01119
# Velocity P-wave (km/s) = 6.64416 6.85052 6.74813
#
# Compressibility (1/GPa) = 0.01233830
#
# Stress axis : x y z
#
# Youngs Moduli (GPa) = 75.33987 79.24097 55.66999
#
# Poissons Ratio (x) = 0.09604 0.40236
# Poissons Ratio (y) = 0.09131 0.40746
# Poissons Ratio (z) = 0.54452 0.57998
#
# Static dielectric constant tensor:
#      x y z
#    x 4.296520 0.000000 0.000000 
#    y 0.000000 4.790340 0.000000 
#    z 0.000000 0.000000 4.210480 
# 
# 
# High freq. dielectric constant tensor:
#      x y z
#    x 1.976950 0.000000 0.000000 
#    y 0.000000 1.969740 0.000000 
#    z 0.000000 0.000000 1.947870 
# 
# From -- ./inp_files/6997.got.cif
#   From: 2010.03.12/outbox.cif.g09.slc.cpg/sg35_4_cif.got.tgz:6997.got - 2010.04.14 02:02:04.
