data_PCOD8174787
_publ_section_title
;
Structure prediction by ZEFSAII (Michael W. Deem and Ramdas Pophale) SiO2 
 PCOD8174787
Probable space group: C M C 21
;
_chemical_formula_sum "Si O2"
_cell_formula_units_Z 64
_cell_length_a 8.851079
_cell_length_b 18.537479
_cell_length_c 20.447907
_cell_angle_alpha 90.000000
_cell_angle_beta 90.000000
_cell_angle_gamma 90.000000
_cell_volume 3355.024920
_symmetry_space_group_name_H-M "C M C 21"
_symmetry_group_IT_number 36
_symmetry_cell_setting 'orthorhombic'
loop_
_space_group_symop_operation_xyz
x,y,z
-x,-y,1/2+z
x,-y,1/2+z
-x,y,z
1/2+x,1/2+y,z
1/2-x,1/2-y,1/2+z
1/2+x,1/2-y,1/2+z
1/2-x,1/2+y,z
loop_
_atom_site_type_symbol
_atom_site_label
_atom_site_fract_x
_atom_site_fract_y
_atom_site_fract_z
Si Si1 0.679139 0.948451 0.869680
Si Si2 0.175996 0.703513 0.983461
Si Si3 0.324485 0.701863 0.362192
Si Si4 0.677627 0.303157 0.717121
Si Si5 0.679388 0.041111 0.991932
Si Si6 0.679045 0.464923 0.732902
Si Si7 0.820906 0.452997 0.116743
Si Si8 0.320905 0.210371 0.598575
O O1 0.500000 0.951827 0.862220
O O2 0.728130 0.866767 0.885067
O O3 0.738793 0.997436 0.929293
O O4 0.754661 0.979970 0.804493
O O5 0.205728 0.731083 0.909826
O O6 0.241827 0.622740 0.989252
O O7 0.000000 0.705237 0.001044
O O8 0.261859 0.756022 0.031996
O O9 0.500000 0.678337 0.361924
O O10 0.274684 0.725662 0.289006
O O11 0.500000 0.299006 0.709091
O O12 0.732339 0.385670 0.708831
O O13 0.750314 0.253614 0.660521
O O14 0.500000 0.040907 0.991092
O O15 0.738943 0.003478 0.058017
O O16 0.500000 0.470723 0.736329
O O17 0.744199 0.523904 0.684029
O O18 0.767181 0.371988 0.102004
O O19 0.000000 0.458182 0.124766
O O20 0.500000 0.215117 0.598276
#
# Coordination Sequence:
#
# PCOD8174787 Si02
#       8
#     8   8   8   8   8   8   8   8
#     4  10  19  34  57  80 104 136 171 210 258 309
#     4  10  20  34  53  75 102 136 170 208 255 306
#     4   9  18  33  52  74 101 133 169 209 253 304
#     4   8  16  32  52  72  96 130 170 209 251 301
#     4   9  19  34  52  77 106 135 171 214 258 306
#     4  10  20  35  54  77 106 137 172 214 257 307
#     4  10  20  34  53  77 105 137 174 216 259 306
#     4  10  20  34  53  76 102 134 173 216 259 305
#
# _framework density 19.075863999999999
#
# number of rings (size 3 to 8) (size 9 to 14) (size 15 to 20)
#    0.000    2.500    0.000    3.000    0.000    3.000 
#    0.000    8.750    0.000    3.000    0.000    0.000 
#    0.000    0.000    0.000    0.000    0.000    0.000 
#
# Total GULP energy -396814.214807 kJ/mol
# GULP energy per Si atom -12400.444213 kJ/mol
# Density = 1.903245 g / cm^3
# Si number density = 19.075864 Si / 1000 Ang^3
#
#
#
# Elastic Constant Matrix: (Units=GPa)
#
#
# Indices 1 2 3 4 5 6 
#
# 1 28.9011 21.2134 21.5681 0.0000 0.0000 0.0000
# 2 21.2134 93.1630 42.7190 0.0000 0.0000 0.0000
# 3 21.5681 42.7190 101.9366 0.0000 0.0000 0.0000
# 4 0.0000 0.0000 0.0000 43.3228 0.0000 0.0000
# 5 0.0000 0.0000 0.0000 0.0000 26.8666 0.0000
# 6 0.0000 0.0000 0.0000 0.0000 0.0000 20.7160
#
#
#
# Elastic Compliance Matrix: (Units=1/GPa)
#
#
# Indices 1 2 3 4 5 6 
#
# 1 0.044706 -0.007232 -0.006428 0.000000 0.000000 0.000000
# 2 -0.007232 0.014457 -0.004528 0.000000 0.000000 0.000000
# 3 -0.006428 -0.004528 0.013068 0.000000 0.000000 0.000000
# 4 0.000000 0.000000 0.000000 0.023083 0.000000 0.000000
# 5 0.000000 0.000000 0.000000 0.000000 0.037221 0.000000
# 6 0.000000 0.000000 0.000000 0.000000 0.000000 0.048272
#
#
# Mechanical properties :
#
#
# Convention : Reuss Voigt Hill
#
# Bulk Modulus (GPa) = 27.89111 43.88908 35.89009
# Shear Modulus (GPa) = 21.82113 27.41443 24.61778
#
# Velocity S-wave (km/s) = 3.38585 3.79506 3.59628
# Velocity P-wave (km/s) = 5.47158 6.50084 6.00829
#
# Compressibility (1/GPa) = 0.03585372
#
# Stress axis : x y z
#
# Youngs Moduli (GPa) = 22.36814 69.17029 76.52350
#
# Poissons Ratio (x) = 0.50024 0.49192
# Poissons Ratio (y) = 0.16177 0.34653
# Poissons Ratio (z) = 0.14379 0.31323
#
# Static dielectric constant tensor:
#      x y z
#    x 3.178590 0.000000 0.000000 
#    y 0.000000 3.638220 0.000000 
#    z 0.000000 0.000000 3.705860 
# 
# 
# High freq. dielectric constant tensor:
#      x y z
#    x 1.712150 0.000000 0.000000 
#    y 0.000000 1.742710 0.000000 
#    z 0.000000 0.000000 1.757350 
# 
# From -- ./inp_files/15675.got.cif
#   From: 2010.03.12/outbox.cif.g09.slc.cpg/sg36_8_cif.got.tgz:15675.got - 2010.04.14 02:13:53.
