data_PCOD8174509
_publ_section_title
;
Structure prediction by ZEFSAII (Michael W. Deem and Ramdas Pophale) SiO2 
 PCOD8174509
Probable space group: C M C 21
;
_chemical_formula_sum "Si O2"
_cell_formula_units_Z 60
_cell_length_a 27.538139
_cell_length_b 24.573012
_cell_length_c 4.933745
_cell_angle_alpha 90.000000
_cell_angle_beta 90.000000
_cell_angle_gamma 90.000000
_cell_volume 3338.640672
_symmetry_space_group_name_H-M "C M C 21"
_symmetry_group_IT_number 36
_symmetry_cell_setting 'orthorhombic'
loop_
_space_group_symop_operation_xyz
x,y,z
-x,-y,1/2+z
x,-y,1/2+z
-x,y,z
1/2+x,1/2+y,z
1/2-x,1/2-y,1/2+z
1/2+x,1/2-y,1/2+z
1/2-x,1/2+y,z
loop_
_atom_site_type_symbol
_atom_site_label
_atom_site_fract_x
_atom_site_fract_y
_atom_site_fract_z
Si Si1 0.500000 0.035448 0.646340
Si Si2 0.944901 0.792309 0.098403
Si Si3 0.081963 0.384961 0.321539
Si Si4 0.555978 0.181124 0.329148
Si Si5 0.055582 0.862661 0.614579
Si Si6 0.377518 0.536797 0.018534
Si Si7 0.669924 0.039258 0.906401
Si Si8 0.729103 0.465088 0.568864
O O1 0.451519 0.069103 0.692251
O O2 0.500000 0.017755 0.333934
O O3 0.920100 0.737125 0.212322
O O4 0.941239 0.839802 0.315262
O O5 0.000000 0.775366 0.032616
O O6 0.921955 0.817830 0.823957
O O7 0.057297 0.363148 0.592902
O O8 0.133106 0.410437 0.411306
O O9 0.086943 0.337663 0.092756
O O10 0.500000 0.189310 0.424282
O O11 0.084694 0.918436 0.615172
O O12 0.000000 0.875508 0.699750
O O13 0.384941 0.515200 0.714457
O O14 0.323159 0.563453 0.025519
O O15 0.723009 0.067575 0.965589
O O16 0.662575 0.008455 0.624297
O O17 0.731742 0.479506 0.886905
#
# Coordination Sequence:
#
# PCOD8174509 Si02
#       8
#     4   8   8   8   8   8   8   8
#     4  12  22  32  42  62  98 130 156 188 242 312
#     4   9  19  33  51  67  93 129 165 208 242 272
#     4  12  21  32  48  69  92 127 166 204 250 297
#     4  11  20  35  49  68  92 123 167 215 249 287
#     4  10  19  32  48  74 102 132 165 191 234 294
#     4  10  19  31  49  75 105 133 159 191 231 285
#     4  10  19  33  48  67  95 126 161 200 242 292
#     4   8  16  30  48  67  92 125 161 197 229 269
#
# _framework density 17.971385999999999
#
# number of rings (size 3 to 8) (size 9 to 14) (size 15 to 20)
#    0.000    1.867    1.333    4.000    0.000    2.667 
#    0.000    0.000    0.000    0.000    0.000    3.733 
#    0.000    0.000    0.000    0.000    0.000    0.000 
#
# Total GULP energy -371765.667331 kJ/mol
# GULP energy per Si atom -12392.188911 kJ/mol
# Density = 1.793048 g / cm^3
# Si number density = 17.971386 Si / 1000 Ang^3
#
#
#
# Elastic Constant Matrix: (Units=GPa)
#
#
# Indices 1 2 3 4 5 6 
#
# 1 86.1603 39.0429 11.2144 0.0000 0.0000 0.0000
# 2 39.0429 60.4679 4.5663 0.0000 0.0000 0.0000
# 3 11.2144 4.5663 69.7250 0.0000 0.0000 0.0000
# 4 0.0000 0.0000 0.0000 29.3797 0.0000 0.0000
# 5 0.0000 0.0000 0.0000 0.0000 20.0277 0.0000
# 6 0.0000 0.0000 0.0000 0.0000 0.0000 9.7307
#
#
#
# Elastic Compliance Matrix: (Units=1/GPa)
#
#
# Indices 1 2 3 4 5 6 
#
# 1 0.016676 -0.010617 -0.001987 0.000000 0.000000 0.000000
# 2 -0.010617 0.023380 0.000177 0.000000 0.000000 0.000000
# 3 -0.001987 0.000177 0.014650 0.000000 0.000000 0.000000
# 4 0.000000 0.000000 0.000000 0.034037 0.000000 0.000000
# 5 0.000000 0.000000 0.000000 0.000000 0.049931 0.000000
# 6 0.000000 0.000000 0.000000 0.000000 0.000000 0.102768
#
#
# Mechanical properties :
#
#
# Convention : Reuss Voigt Hill
#
# Bulk Modulus (GPa) = 33.50016 36.22226 34.86121
# Shear Modulus (GPa) = 18.09974 22.59626 20.34800
#
# Velocity S-wave (km/s) = 3.17699 3.54975 3.36853
# Velocity P-wave (km/s) = 5.66913 6.08279 5.87960
#
# Compressibility (1/GPa) = 0.02985060
#
# Stress axis : x y z
#
# Youngs Moduli (GPa) = 59.96628 42.77203 68.25919
#
# Poissons Ratio (x) = 0.45413 0.13562
# Poissons Ratio (y) = 0.63668 -0.01205
# Poissons Ratio (z) = 0.11914 -0.00755
#
# Static dielectric constant tensor:
#      x y z
#    x 3.337590 0.000000 0.000000 
#    y 0.000000 3.100280 0.000000 
#    z 0.000000 0.000000 3.558610 
# 
# 
# High freq. dielectric constant tensor:
#      x y z
#    x 1.666070 0.000000 0.000000 
#    y 0.000000 1.661650 0.000000 
#    z 0.000000 0.000000 1.725000 
# 
# From -- ./inp_files/1627.got.cif
#   From: 2010.03.12/outbox.cif.g09.slc.cpg/sg36_1_cif.got.tgz:1627.got - 2010.04.14 02:13:53.
