data_PCOD8174568
_publ_section_title
;
Structure prediction by ZEFSAII (Michael W. Deem and Ramdas Pophale) SiO2 
 PCOD8174568
Probable space group: C M C 21
;
_chemical_formula_sum "Si O2"
_cell_formula_units_Z 64
_cell_length_a 9.871480
_cell_length_b 22.860281
_cell_length_c 16.181357
_cell_angle_alpha 90.000000
_cell_angle_beta 90.000000
_cell_angle_gamma 90.000000
_cell_volume 3651.562799
_symmetry_space_group_name_H-M "C M C 21"
_symmetry_group_IT_number 36
_symmetry_cell_setting 'orthorhombic'
loop_
_space_group_symop_operation_xyz
x,y,z
-x,-y,1/2+z
x,-y,1/2+z
-x,y,z
1/2+x,1/2+y,z
1/2-x,1/2-y,1/2+z
1/2+x,1/2-y,1/2+z
1/2-x,1/2+y,z
loop_
_atom_site_type_symbol
_atom_site_label
_atom_site_fract_x
_atom_site_fract_y
_atom_site_fract_z
Si Si1 0.338563 0.710015 0.843700
Si Si2 0.839312 0.601845 0.146223
Si Si3 0.654306 0.939105 0.931309
Si Si4 0.658307 0.638030 0.000977
Si Si5 0.842227 0.338276 0.815741
Si Si6 0.645224 0.530777 0.889663
Si Si7 0.342706 0.966561 0.119590
Si Si8 0.850163 0.108272 0.730561
O O1 0.500000 0.709317 0.846173
O O2 0.274990 0.774276 0.827088
O O3 0.291991 0.669573 0.766531
O O4 0.290406 0.685551 0.933147
O O5 0.755238 0.641045 0.080899
O O6 0.791529 0.625936 0.235546
O O7 0.799504 0.533206 0.139423
O O8 0.000000 0.609751 0.130241
O O9 0.500000 0.954617 0.911462
O O10 0.688795 0.873861 0.900010
O O11 0.740493 0.982962 0.875903
O O12 0.689875 0.948998 0.025992
O O13 0.500000 0.648172 0.024643
O O14 0.681354 0.573466 0.964922
O O15 0.000000 0.327834 0.804083
O O16 0.500000 0.500400 0.908367
O O17 0.631718 0.566125 0.806861
O O18 0.500000 0.957386 0.140970
O O19 0.256653 0.919103 0.168540
O O20 0.000000 0.116236 0.689088
#
# Coordination Sequence:
#
# PCOD8174568 Si02
#       8
#     8   8   8   8   8   8   8   8
#     4   8  16  34  54  72  96 130 175 210 240 299
#     4  10  19  32  51  77 104 130 166 209 253 301
#     4  10  19  32  51  73 101 136 167 201 248 300
#     4   9  17  31  53  76  97 127 166 208 250 294
#     4   9  18  33  53  73  98 137 175 205 246 301
#     4   9  17  30  49  73  99 127 162 202 250 301
#     4  10  20  32  47  76 110 131 160 206 254 304
#     4   9  18  32  52  74  95 128 169 207 247 294
#
# _framework density 17.526743
#
# number of rings (size 3 to 8) (size 9 to 14) (size 15 to 20)
#    0.000    2.750    1.250    2.250    0.000    2.500 
#    2.250    2.500    0.000    2.250    0.000    0.000 
#    0.000    0.000    0.000    0.000    0.000    0.000 
#
# Total GULP energy -396559.039627 kJ/mol
# GULP energy per Si atom -12392.469988 kJ/mol
# Density = 1.748685 g / cm^3
# Si number density = 17.526743 Si / 1000 Ang^3
#
#
#
# Elastic Constant Matrix: (Units=GPa)
#
#
# Indices 1 2 3 4 5 6 
#
# 1 44.8624 41.5686 35.0011 0.0000 0.0000 0.0000
# 2 41.5686 135.7911 63.1048 0.0000 0.0000 0.0000
# 3 35.0011 63.1048 82.4596 0.0000 0.0000 0.0000
# 4 0.0000 0.0000 0.0000 16.9685 0.0000 0.0000
# 5 0.0000 0.0000 0.0000 0.0000 18.9589 0.0000
# 6 0.0000 0.0000 0.0000 0.0000 0.0000 16.7282
#
#
#
# Elastic Compliance Matrix: (Units=1/GPa)
#
#
# Indices 1 2 3 4 5 6 
#
# 1 0.036353 -0.006142 -0.010730 0.000000 0.000000 0.000000
# 2 -0.006142 0.012466 -0.006933 0.000000 0.000000 0.000000
# 3 -0.010730 -0.006933 0.021988 0.000000 0.000000 0.000000
# 4 0.000000 0.000000 0.000000 0.058933 0.000000 0.000000
# 5 0.000000 0.000000 0.000000 0.000000 0.052746 0.000000
# 6 0.000000 0.000000 0.000000 0.000000 0.000000 0.059779
#
#
# Mechanical properties :
#
#
# Convention : Reuss Voigt Hill
#
# Bulk Modulus (GPa) = 43.11054 60.27359 51.69207
# Shear Modulus (GPa) = 16.80064 18.76037 17.78050
#
# Velocity S-wave (km/s) = 3.09944 3.27522 3.18854
# Velocity P-wave (km/s) = 6.12038 6.98333 6.56605
#
# Compressibility (1/GPa) = 0.02319618
#
# Stress axis : x y z
#
# Youngs Moduli (GPa) = 27.50809 80.21511 45.47994
#
# Poissons Ratio (x) = 0.49267 0.48801
# Poissons Ratio (y) = 0.16895 0.31533
# Poissons Ratio (z) = 0.29517 0.55616
#
# Static dielectric constant tensor:
#      x y z
#    x 3.356040 0.000000 0.000000 
#    y 0.000000 3.610490 0.000000 
#    z 0.000000 0.000000 3.442170 
# 
# 
# High freq. dielectric constant tensor:
#      x y z
#    x 1.653000 0.000000 0.000000 
#    y 0.000000 1.669760 0.000000 
#    z 0.000000 0.000000 1.675490 
# 
# From -- ./inp_files/10912.got.cif
#   From: 2010.03.12/outbox.cif.g09.slc.cpg/sg36_6_cif.got.tgz:10912.got - 2010.04.14 02:13:53.
