data_PCOD8174097
_publ_section_title
;
Structure prediction by ZEFSAII (Michael W. Deem and Ramdas Pophale) SiO2 
 PCOD8174097
Probable space group: C M M 2
;
_chemical_formula_sum "Si O2"
_cell_formula_units_Z 48
_cell_length_a 8.321178
_cell_length_b 28.558871
_cell_length_c 10.033264
_cell_angle_alpha 90.000000
_cell_angle_beta 90.000000
_cell_angle_gamma 90.000000
_cell_volume 2384.339462
_symmetry_space_group_name_H-M "C M M 2"
_symmetry_group_IT_number 35
_symmetry_cell_setting 'orthorhombic'
loop_
_space_group_symop_operation_xyz
x,y,z
-x,-y,z
-x,y,z
x,-y,z
1/2+x,1/2+y,z
1/2-x,1/2-y,z
1/2-x,1/2+y,z
1/2+x,1/2-y,z
loop_
_atom_site_type_symbol
_atom_site_label
_atom_site_fract_x
_atom_site_fract_y
_atom_site_fract_z
Si Si1 0.187012 0.698046 0.135130
Si Si2 0.309377 0.449120 0.994079
Si Si3 0.312311 0.647492 0.885099
Si Si4 0.185557 0.697764 0.635857
Si Si5 0.309362 0.449039 0.293035
Si Si6 0.313421 0.351936 0.385782
O O1 0.250000 0.750000 0.150687
O O2 0.287131 0.666007 0.236193
O O3 0.000000 0.695853 0.170656
O O4 0.215819 0.680867 0.984991
O O5 0.500000 0.449497 0.998763
O O6 0.248861 0.500000 0.939174
O O7 0.250577 0.406268 0.901212
O O8 0.240731 0.441783 0.143620
O O9 0.500000 0.651667 0.918185
O O10 0.280028 0.663576 0.735057
O O11 0.250000 0.750000 0.647236
O O12 0.208801 0.678479 0.487090
O O13 0.000000 0.697840 0.674021
O O14 0.500000 0.447735 0.284151
O O15 0.251963 0.500000 0.349013
O O16 0.254053 0.406394 0.388603
O O17 0.500000 0.347161 0.424696
#
# Coordination Sequence:
#
# PCOD8174097 Si02
#       6
#     8   8   8   8   8   8
#     4  12  24  38  57  84 117 151 192 243 295 348
#     4   8  14  28  55  90 121 149 187 236 284 334
#     4  11  21  38  62  89 117 152 196 243 290 343
#     4  12  26  44  61  82 115 157 198 243 297 358
#     4   8  14  28  55  90 121 149 187 236 284 334
#     4  11  21  38  62  89 117 152 196 243 290 343
#
# _framework density 20.131360000000001
#
# number of rings (size 3 to 8) (size 9 to 14) (size 15 to 20)
#    0.000    1.667    1.667    6.000    0.000    0.000 
#    0.000    0.833    0.000   10.000    0.000    0.000 
#    0.000    0.000    0.000    0.000    0.000    0.000 
#
# Total GULP energy -297554.702615 kJ/mol
# GULP energy per Si atom -12398.112609 kJ/mol
# Density = 2.008554 g / cm^3
# Si number density = 20.131360 Si / 1000 Ang^3
#
#
#
# Elastic Constant Matrix: (Units=GPa)
#
#
# Indices 1 2 3 4 5 6 
#
# 1 54.1515 41.7253 14.7467 0.0000 0.0000 0.0000
# 2 41.7253 157.4246 28.1142 0.0000 0.0000 0.0000
# 3 14.7467 28.1142 62.9310 0.0000 0.0000 0.0000
# 4 0.0000 0.0000 0.0000 21.9792 0.0000 0.0000
# 5 0.0000 0.0000 0.0000 0.0000 29.8141 0.0000
# 6 0.0000 0.0000 0.0000 0.0000 0.0000 15.6732
#
#
#
# Elastic Compliance Matrix: (Units=1/GPa)
#
#
# Indices 1 2 3 4 5 6 
#
# 1 0.023712 -0.005751 -0.002987 0.000000 0.000000 0.000000
# 2 -0.005751 0.008298 -0.002359 0.000000 0.000000 0.000000
# 3 -0.002987 -0.002359 0.017644 0.000000 0.000000 0.000000
# 4 0.000000 0.000000 0.000000 0.045498 0.000000 0.000000
# 5 0.000000 0.000000 0.000000 0.000000 0.033541 0.000000
# 6 0.000000 0.000000 0.000000 0.000000 0.000000 0.063803
#
#
# Mechanical properties :
#
#
# Convention : Reuss Voigt Hill
#
# Bulk Modulus (GPa) = 36.41836 49.29772 42.85804
# Shear Modulus (GPa) = 22.33696 26.15470 24.24583
#
# Velocity S-wave (km/s) = 3.33462 3.60835 3.47418
# Velocity P-wave (km/s) = 5.74072 6.47314 6.11790
#
# Compressibility (1/GPa) = 0.02745868
#
# Stress axis : x y z
#
# Youngs Moduli (GPa) = 42.17323 120.51109 56.67521
#
# Poissons Ratio (x) = 0.69310 0.16929
# Poissons Ratio (y) = 0.24255 0.13372
# Poissons Ratio (z) = 0.12597 0.28433
#
# Static dielectric constant tensor:
#      x y z
#    x 3.343370 0.000000 0.000000 
#    y 0.000000 4.280590 0.000000 
#    z 0.000000 0.000000 3.375150 
# 
# 
# High freq. dielectric constant tensor:
#      x y z
#    x 1.761170 0.000000 0.000000 
#    y 0.000000 1.811320 0.000000 
#    z 0.000000 0.000000 1.760340 
# 
# From -- ./inp_files/5312.got.cif
#   From: 2010.03.12/outbox.cif.g09.slc.cpg/sg35_3_cif.got.tgz:5312.got - 2010.04.14 02:02:04.
