data_PCOD8174751
_publ_section_title
;
Structure prediction by ZEFSAII (Michael W. Deem and Ramdas Pophale) SiO2 
 PCOD8174751
Probable space group: C M C 21
;
_chemical_formula_sum "Si O2"
_cell_formula_units_Z 56
_cell_length_a 13.437708
_cell_length_b 22.070033
_cell_length_c 10.518076
_cell_angle_alpha 90.000000
_cell_angle_beta 90.000000
_cell_angle_gamma 90.000000
_cell_volume 3119.352731
_symmetry_space_group_name_H-M "C M C 21"
_symmetry_group_IT_number 36
_symmetry_cell_setting 'orthorhombic'
loop_
_space_group_symop_operation_xyz
x,y,z
-x,-y,1/2+z
x,-y,1/2+z
-x,y,z
1/2+x,1/2+y,z
1/2-x,1/2-y,1/2+z
1/2+x,1/2-y,1/2+z
1/2-x,1/2+y,z
loop_
_atom_site_type_symbol
_atom_site_label
_atom_site_fract_x
_atom_site_fract_y
_atom_site_fract_z
Si Si1 0.389279 0.861546 0.727010
Si Si2 0.884784 0.578738 0.958368
Si Si3 0.199259 0.796416 0.807830
Si Si4 0.241396 0.833099 0.336618
Si Si5 0.887228 0.559339 0.465960
Si Si6 0.885371 0.218184 0.049581
Si Si7 0.746351 0.838901 0.058158
O O1 0.500000 0.833457 0.735295
O O2 0.365914 0.885482 0.587816
O O3 0.313375 0.808362 0.763436
O O4 0.378907 0.918688 0.820644
O O5 0.813169 0.609466 0.855269
O O6 0.850366 0.509587 0.973554
O O7 0.000000 0.582144 0.914636
O O8 0.187980 0.726003 0.843203
O O9 0.127064 0.812659 0.689858
O O10 0.177508 0.835538 0.936764
O O11 0.154719 0.828392 0.442049
O O12 0.196029 0.837664 0.192957
O O13 0.817637 0.599825 0.555457
O O14 0.000000 0.564417 0.517034
O O15 0.827220 0.281463 0.043615
O O16 0.000000 0.230934 0.022294
#
# Coordination Sequence:
#
# PCOD8174751 Si02
#       7
#     8   8   8   8   8   8   8
#     4   9  17  32  51  73 104 138 167 205 254 306
#     4  10  20  31  48  76 110 139 166 203 250 308
#     4   9  18  34  52  71 101 134 174 211 249 303
#     4  10  20  32  50  75 105 133 171 215 252 297
#     4   9  18  30  48  75 106 139 170 197 245 317
#     4  10  19  34  54  75 103 138 174 210 255 302
#     4   9  19  33  53  75 105 135 168 211 255 303
#
# _framework density 17.952442000000001
#
# number of rings (size 3 to 8) (size 9 to 14) (size 15 to 20)
#    0.000    2.571    1.429    0.429    2.000    6.286 
#    0.000    0.714    0.000    0.000    0.000    9.000 
#    0.000    0.000    0.000    0.000    0.000    0.000 
#
# Total GULP energy -347041.759954 kJ/mol
# GULP energy per Si atom -12394.348570 kJ/mol
# Density = 1.791158 g / cm^3
# Si number density = 17.952442 Si / 1000 Ang^3
#
#
#
# Elastic Constant Matrix: (Units=GPa)
#
#
# Indices 1 2 3 4 5 6 
#
# 1 41.6290 20.5286 26.0862 0.0000 0.0000 0.0000
# 2 20.5286 85.8029 19.9775 0.0000 0.0000 0.0000
# 3 26.0862 19.9775 125.4866 0.0000 0.0000 0.0000
# 4 0.0000 0.0000 0.0000 18.6247 0.0000 0.0000
# 5 0.0000 0.0000 0.0000 0.0000 12.9614 0.0000
# 6 0.0000 0.0000 0.0000 0.0000 0.0000 24.4497
#
#
#
# Elastic Compliance Matrix: (Units=1/GPa)
#
#
# Indices 1 2 3 4 5 6 
#
# 1 0.030339 -0.006013 -0.005350 0.000000 0.000000 0.000000
# 2 -0.006013 0.013295 -0.000867 0.000000 0.000000 0.000000
# 3 -0.005350 -0.000867 0.009219 0.000000 0.000000 0.000000
# 4 0.000000 0.000000 0.000000 0.053692 0.000000 0.000000
# 5 0.000000 0.000000 0.000000 0.000000 0.077152 0.000000
# 6 0.000000 0.000000 0.000000 0.000000 0.000000 0.040900
#
#
# Mechanical properties :
#
#
# Convention : Reuss Voigt Hill
#
# Bulk Modulus (GPa) = 35.21801 42.90034 39.05918
# Shear Modulus (GPa) = 19.34073 23.62891 21.48482
#
# Velocity S-wave (km/s) = 3.28583 3.63188 3.46318
# Velocity P-wave (km/s) = 5.83572 6.44483 6.14782
#
# Compressibility (1/GPa) = 0.02839456
#
# Stress axis : x y z
#
# Youngs Moduli (GPa) = 32.96056 75.21595 108.47144
#
# Poissons Ratio (x) = 0.45229 0.58028
# Poissons Ratio (y) = 0.19820 0.09400
# Poissons Ratio (z) = 0.17633 0.06518
#
# Static dielectric constant tensor:
#      x y z
#    x 2.960770 0.000000 0.000000 
#    y 0.000000 3.168700 0.000000 
#    z 0.000000 0.000000 3.750590 
# 
# 
# High freq. dielectric constant tensor:
#      x y z
#    x 1.645150 0.000000 0.000000 
#    y 0.000000 1.677000 0.000000 
#    z 0.000000 0.000000 1.719320 
# 
# From -- ./inp_files/7957.got.cif
#   From: 2010.03.12/outbox.cif.g09.slc.cpg/sg36_4_cif.got.tgz:7957.got - 2010.04.14 02:13:53.
