data_PCOD8174914
_publ_section_title
;
Structure prediction by ZEFSAII (Michael W. Deem and Ramdas Pophale) SiO2 
 PCOD8174914
Probable space group: C M C 21
;
_chemical_formula_sum "Si O2"
_cell_formula_units_Z 64
_cell_length_a 8.544905
_cell_length_b 15.366829
_cell_length_c 23.709076
_cell_angle_alpha 90.000000
_cell_angle_beta 90.000000
_cell_angle_gamma 90.000000
_cell_volume 3113.193579
_symmetry_space_group_name_H-M "C M C 21"
_symmetry_group_IT_number 36
_symmetry_cell_setting 'orthorhombic'
loop_
_space_group_symop_operation_xyz
x,y,z
-x,-y,1/2+z
x,-y,1/2+z
-x,y,z
1/2+x,1/2+y,z
1/2-x,1/2-y,1/2+z
1/2+x,1/2-y,1/2+z
1/2-x,1/2+y,z
loop_
_atom_site_type_symbol
_atom_site_label
_atom_site_fract_x
_atom_site_fract_y
_atom_site_fract_z
Si Si1 0.683288 0.643157 0.031510
Si Si2 0.179617 0.538395 0.727464
Si Si3 0.315209 0.290976 0.958782
Si Si4 0.820535 0.965333 0.833773
Si Si5 0.818495 0.719039 0.339483
Si Si6 0.818696 0.621961 0.151999
Si Si7 0.818951 0.985535 0.958975
Si Si8 0.821134 0.268024 0.226745
O O1 0.500000 0.653365 0.019412
O O2 0.711923 0.633052 0.097496
O O3 0.769062 0.730247 0.010754
O O4 0.757125 0.559525 0.998782
O O5 0.284320 0.531630 0.783630
O O6 0.233867 0.467978 0.681358
O O7 0.202160 0.634791 0.701755
O O8 0.000000 0.521761 0.744452
O O9 0.500000 0.294334 0.950312
O O10 0.240325 0.253562 0.901407
O O11 0.249502 0.388836 0.970584
O O12 0.708262 0.882721 0.827557
O O13 0.000000 0.933173 0.830851
O O14 0.789841 0.012127 0.893767
O O15 0.723407 0.772690 0.292638
O O16 0.000000 0.742037 0.334103
O O17 0.791330 0.702052 0.194171
O O18 0.000000 0.619837 0.134581
O O19 0.000000 0.982649 0.974383
O O20 0.000000 0.237086 0.219693
#
# Coordination Sequence:
#
# PCOD8174914 Si02
#       8
#     8   8   8   8   8   8   8   8
#     4  11  23  41  64  90 120 161 206 253 302 367
#     4  10  23  40  60  89 124 158 202 256 310 365
#     4  10  21  40  62  90 123 161 203 253 306 367
#     4  10  19  35  61  90 124 163 202 249 306 367
#     4  11  21  36  59  90 128 166 202 252 309 368
#     4  11  24  44  63  86 122 164 205 255 306 365
#     4   8  19  38  59  87 122 158 198 245 300 362
#     4  11  23  40  62  92 123 161 206 257 311 369
#
# _framework density 20.557666999999999
#
# number of rings (size 3 to 8) (size 9 to 14) (size 15 to 20)
#    0.000    1.750    1.250    3.750    1.750    2.500 
#    0.000    9.375    0.000    0.000    0.000    0.000 
#    0.000    0.000    0.000    0.000    0.000    0.000 
#
# Total GULP energy -396880.116004 kJ/mol
# GULP energy per Si atom -12402.503625 kJ/mol
# Density = 2.051088 g / cm^3
# Si number density = 20.557667 Si / 1000 Ang^3
#
#
#
# Elastic Constant Matrix: (Units=GPa)
#
#
# Indices 1 2 3 4 5 6 
#
# 1 56.3931 19.9719 13.7662 0.0000 0.0000 0.0000
# 2 19.9719 94.2941 34.6747 0.0000 0.0000 0.0000
# 3 13.7662 34.6747 91.3484 0.0000 0.0000 0.0000
# 4 0.0000 0.0000 0.0000 24.6991 0.0000 0.0000
# 5 0.0000 0.0000 0.0000 0.0000 32.7555 0.0000
# 6 0.0000 0.0000 0.0000 0.0000 0.0000 25.9462
#
#
#
# Elastic Compliance Matrix: (Units=1/GPa)
#
#
# Indices 1 2 3 4 5 6 
#
# 1 0.019365 -0.003520 -0.001582 0.000000 0.000000 0.000000
# 2 -0.003520 0.012965 -0.004391 0.000000 0.000000 0.000000
# 3 -0.001582 -0.004391 0.012852 0.000000 0.000000 0.000000
# 4 0.000000 0.000000 0.000000 0.040487 0.000000 0.000000
# 5 0.000000 0.000000 0.000000 0.000000 0.030529 0.000000
# 6 0.000000 0.000000 0.000000 0.000000 0.000000 0.038541
#
#
# Mechanical properties :
#
#
# Convention : Reuss Voigt Hill
#
# Bulk Modulus (GPa) = 38.17257 42.09570 40.13413
# Shear Modulus (GPa) = 27.40334 28.25503 27.82919
#
# Velocity S-wave (km/s) = 3.65499 3.71135 3.68328
# Velocity P-wave (km/s) = 6.03496 6.23593 6.13627
#
# Compressibility (1/GPa) = 0.02619682
#
# Stress axis : x y z
#
# Youngs Moduli (GPa) = 51.63823 77.12869 77.80682
#
# Poissons Ratio (x) = 0.27148 0.12311
# Poissons Ratio (y) = 0.18176 0.34165
# Poissons Ratio (z) = 0.08171 0.33868
#
# Static dielectric constant tensor:
#      x y z
#    x 3.533480 0.000000 0.000000 
#    y 0.000000 3.824150 0.000000 
#    z 0.000000 0.000000 3.624260 
# 
# 
# High freq. dielectric constant tensor:
#      x y z
#    x 1.795370 0.000000 0.000000 
#    y 0.000000 1.807280 0.000000 
#    z 0.000000 0.000000 1.797100 
# 
# From -- ./inp_files/16624.got.cif
#   From: 2010.03.12/outbox.cif.g09.slc.cpg/sg36_9_cif.got.tgz:16624.got - 2010.04.14 02:13:53.
