data_PCOD8174150
_publ_section_title
;
Structure prediction by ZEFSAII (Michael W. Deem and Ramdas Pophale) SiO2 
 PCOD8174150
Probable space group: C M M 2
;
_chemical_formula_sum "Si O2"
_cell_formula_units_Z 48
_cell_length_a 18.870735
_cell_length_b 7.959434
_cell_length_c 17.114274
_cell_angle_alpha 90.000000
_cell_angle_beta 90.000000
_cell_angle_gamma 90.000000
_cell_volume 2570.570283
_symmetry_space_group_name_H-M "C M M 2"
_symmetry_group_IT_number 35
_symmetry_cell_setting 'orthorhombic'
loop_
_space_group_symop_operation_xyz
x,y,z
-x,-y,z
-x,y,z
x,-y,z
1/2+x,1/2+y,z
1/2-x,1/2-y,z
1/2-x,1/2+y,z
1/2+x,1/2-y,z
loop_
_atom_site_type_symbol
_atom_site_label
_atom_site_fract_x
_atom_site_fract_y
_atom_site_fract_z
Si Si1 0.915416 0.000000 0.987700
Si Si2 0.919479 0.304969 0.535772
Si Si3 0.584312 0.186154 0.712056
Si Si4 0.915807 0.689263 0.088350
Si Si5 0.915442 0.000000 0.810651
Si Si6 0.923017 0.306725 0.259208
Si Si7 0.171176 0.811147 0.396554
O O1 0.887563 0.000000 0.898938
O O2 0.885870 0.170856 0.028096
O O3 0.000000 0.000000 0.990760
O O4 0.915087 0.500000 0.513184
O O5 0.891370 0.274360 0.623564
O O6 0.870349 0.201497 0.477727
O O7 0.000000 0.240348 0.526976
O O8 0.500000 0.183123 0.713999
O O9 0.614420 0.331781 0.768421
O O10 0.612159 0.000000 0.737716
O O11 0.885525 0.500000 0.070236
O O12 0.894341 0.757600 0.175092
O O13 0.000000 0.681597 0.082336
O O14 0.000000 0.000000 0.806753
O O15 0.937387 0.500000 0.245227
O O16 0.866492 0.288875 0.327532
O O17 0.000000 0.223062 0.280801
O O18 0.250000 0.750000 0.410949
O O19 0.172579 0.000000 0.367466
#
# Coordination Sequence:
#
# PCOD8174150 Si02
#       7
#     4   8   8   8   4   8   8
#     4   9  16  24  38  63  97 131 161 202 248 293
#     4   9  18  34  54  73  97 132 171 211 252 298
#     4   8  15  27  43  64  92 128 165 202 244 292
#     4   8  15  27  43  64  92 128 165 202 244 292
#     4   9  16  24  38  63  97 131 161 202 248 293
#     4   9  18  34  54  73  97 132 171 211 252 298
#     4  12  25  36  49  71 101 135 165 212 257 302
#
# _framework density 18.672899000000001
#
# number of rings (size 3 to 8) (size 9 to 14) (size 15 to 20)
#    0.000    2.833    0.000    4.000    2.333    3.333 
#    0.000    3.333    0.000    0.000    0.000    0.000 
#    0.000    1.333    0.667    0.000    0.000    0.000 
#
# Total GULP energy -297414.727890 kJ/mol
# GULP energy per Si atom -12392.280329 kJ/mol
# Density = 1.863040 g / cm^3
# Si number density = 18.672899 Si / 1000 Ang^3
#
#
#
# Elastic Constant Matrix: (Units=GPa)
#
#
# Indices 1 2 3 4 5 6 
#
# 1 45.9383 16.1274 31.3611 0.0000 0.0000 0.0000
# 2 16.1274 103.1759 65.7223 0.0000 0.0000 0.0000
# 3 31.3611 65.7223 142.8878 0.0000 0.0000 0.0000
# 4 0.0000 0.0000 0.0000 35.2253 0.0000 0.0000
# 5 0.0000 0.0000 0.0000 0.0000 0.2281 0.0000
# 6 0.0000 0.0000 0.0000 0.0000 0.0000 12.8014
#
#
#
# Elastic Compliance Matrix: (Units=1/GPa)
#
#
# Indices 1 2 3 4 5 6 
#
# 1 0.025631 -0.000598 -0.005350 0.000000 0.000000 0.000000
# 2 -0.000598 0.013723 -0.006181 0.000000 0.000000 0.000000
# 3 -0.005350 -0.006181 0.011016 0.000000 0.000000 0.000000
# 4 0.000000 0.000000 0.000000 0.028389 0.000000 0.000000
# 5 0.000000 0.000000 0.000000 0.000000 4.384061 0.000000
# 6 0.000000 0.000000 0.000000 0.000000 0.000000 0.078117
#
#
# Mechanical properties :
#
#
# Convention : Reuss Voigt Hill
#
# Bulk Modulus (GPa) = 38.29813 57.60263 47.95038
# Shear Modulus (GPa) = 1.09316 21.57037 11.33176
#
# Velocity S-wave (km/s) = 0.76596 3.40247 2.46612
# Velocity P-wave (km/s) = 4.61918 6.80815 5.81755
#
# Compressibility (1/GPa) = 0.02611094
#
# Stress axis : x y z
#
# Youngs Moduli (GPa) = 39.01537 72.87225 90.78051
#
# Poissons Ratio (x) = 0.04359 0.48571
# Poissons Ratio (y) = 0.02334 0.56107
# Poissons Ratio (z) = 0.20875 0.45039
#
# Static dielectric constant tensor:
#      x y z
#    x 2.797980 0.000000 0.000000 
#    y 0.000000 3.693500 0.000000 
#    z 0.000000 0.000000 3.539330 
# 
# 
# High freq. dielectric constant tensor:
#      x y z
#    x 1.652860 0.000000 0.000000 
#    y 0.000000 1.733560 0.000000 
#    z 0.000000 0.000000 1.728380 
# 
# From -- ./inp_files/15203.got.cif
#   From: 2010.03.12/outbox.cif.g09.slc.cpg/sg35_8_cif.got.tgz:15203.got - 2010.04.14 02:02:04.
