data_PCOD8174008
_publ_section_title
;
Structure prediction by ZEFSAII (Michael W. Deem and Ramdas Pophale) SiO2 
 PCOD8174008
Probable space group: C M M 2
;
_chemical_formula_sum "Si O2"
_cell_formula_units_Z 40
_cell_length_a 9.072550
_cell_length_b 28.644932
_cell_length_c 7.765058
_cell_angle_alpha 90.000000
_cell_angle_beta 90.000000
_cell_angle_gamma 90.000000
_cell_volume 2018.003290
_symmetry_space_group_name_H-M "C M M 2"
_symmetry_group_IT_number 35
_symmetry_cell_setting 'orthorhombic'
loop_
_space_group_symop_operation_xyz
x,y,z
-x,-y,z
-x,y,z
x,-y,z
1/2+x,1/2+y,z
1/2-x,1/2-y,z
1/2-x,1/2+y,z
1/2+x,1/2-y,z
loop_
_atom_site_type_symbol
_atom_site_label
_atom_site_fract_x
_atom_site_fract_y
_atom_site_fract_z
Si Si1 0.169326 0.051383 0.846780
Si Si2 0.328178 0.351984 0.700861
Si Si3 0.172377 0.448571 0.199531
Si Si4 0.828561 0.354514 0.360081
Si Si5 0.825867 0.700369 0.012770
O O1 0.200423 0.092079 0.708927
O O2 0.000000 0.051495 0.901892
O O3 0.214380 0.000000 0.772445
O O4 0.257830 0.063416 0.017319
O O5 0.500000 0.339154 0.715021
O O6 0.266279 0.334152 0.517960
O O7 0.240938 0.327174 0.852725
O O8 0.221980 0.500000 0.266768
O O9 0.217172 0.408873 0.335577
O O10 0.000000 0.446605 0.165921
O O11 0.000000 0.349286 0.406210
O O12 0.788237 0.326670 0.188049
O O13 0.750000 0.750000 0.025819
O O14 0.000000 0.705788 0.985324
#
# Coordination Sequence:
#
# PCOD8174008 Si02
#       5
#     8   8   8   8   8
#     4   9  18  33  54  83 120 160 200 241 288 344
#     4  11  23  38  61  91 123 160 200 244 293 353
#     4   9  17  32  56  85 117 156 200 243 291 345
#     4  10  22  39  60  88 122 158 197 245 296 351
#     4  11  24  44  67  89 116 152 194 248 305 359
#
# _framework density 19.821570999999999
#
# number of rings (size 3 to 8) (size 9 to 14) (size 15 to 20)
#    0.000    2.000    2.000    1.200    0.000    4.800 
#    0.000    2.000    0.000    0.000    0.000    0.000 
#    0.000    0.000    0.000    0.000    0.000    0.000 
#
# Total GULP energy -247954.927539 kJ/mol
# GULP energy per Si atom -12397.746377 kJ/mol
# Density = 1.977646 g / cm^3
# Si number density = 19.821571 Si / 1000 Ang^3
#
#
#
# Elastic Constant Matrix: (Units=GPa)
#
#
# Indices 1 2 3 4 5 6 
#
# 1 76.8387 60.6988 66.6535 0.0000 0.0000 0.0000
# 2 60.6988 109.4786 61.0754 0.0000 0.0000 0.0000
# 3 66.6535 61.0754 140.4768 0.0000 0.0000 0.0000
# 4 0.0000 0.0000 0.0000 8.2047 0.0000 0.0000
# 5 0.0000 0.0000 0.0000 0.0000 25.1718 0.0000
# 6 0.0000 0.0000 0.0000 0.0000 0.0000 -8.9437
#
#
#
# Elastic Compliance Matrix: (Units=1/GPa)
#
#
# Indices 1 2 3 4 5 6 
#
# 1 0.030230 -0.011563 -0.009316 0.000000 0.000000 0.000000
# 2 -0.011563 0.016482 -0.001679 0.000000 0.000000 0.000000
# 3 -0.009316 -0.001679 0.012269 0.000000 0.000000 0.000000
# 4 0.000000 0.000000 0.000000 0.121882 0.000000 0.000000
# 5 0.000000 0.000000 0.000000 0.000000 0.039727 0.000000
# 6 0.000000 0.000000 0.000000 0.000000 0.000000 -0.111810
#
#
# Mechanical properties :
#
#
# Convention : Reuss Voigt Hill
#
# Bulk Modulus (GPa) = 72.13168 78.18327 75.15748
# Shear Modulus (GPa) = 31.54198 14.11097 22.82648
#
# Velocity S-wave (km/s) = 3.99343 2.67104 3.39720
# Velocity P-wave (km/s) = 7.59821 7.00298 7.30666
#
# Compressibility (1/GPa) = 0.01386353
#
# Stress axis : x y z
#
# Youngs Moduli (GPa) = 33.07974 60.67139 81.50546
#
# Poissons Ratio (x) = 0.70156 0.75932
# Poissons Ratio (y) = 0.38251 0.13688
# Poissons Ratio (z) = 0.30818 0.10189
#
# Static dielectric constant tensor:
#      x y z
#    x 3.710840 0.000000 0.000000 
#    y 0.000000 4.102670 0.000000 
#    z 0.000000 0.000000 3.417640 
# 
# 
# High freq. dielectric constant tensor:
#      x y z
#    x 1.774270 0.000000 0.000000 
#    y 0.000000 1.782590 0.000000 
#    z 0.000000 0.000000 1.760980 
# 
# From -- ./inp_files/4955.got.cif
#   From: 2010.03.12/outbox.cif.g09.slc.cpg/sg35_3_cif.got.tgz:4955.got - 2010.04.14 02:02:04.
