data_PCOD8174063
_publ_section_title
;
Structure prediction by ZEFSAII (Michael W. Deem and Ramdas Pophale) SiO2 
 PCOD8174063
Probable space group: C M M 2
;
_chemical_formula_sum "Si O2"
_cell_formula_units_Z 32
_cell_length_a 15.421036
_cell_length_b 7.580830
_cell_length_c 13.568613
_cell_angle_alpha 90.000000
_cell_angle_beta 90.000000
_cell_angle_gamma 90.000000
_cell_volume 1586.228558
_symmetry_space_group_name_H-M "C M M 2"
_symmetry_group_IT_number 35
_symmetry_cell_setting 'orthorhombic'
loop_
_space_group_symop_operation_xyz
x,y,z
-x,-y,z
-x,y,z
x,-y,z
1/2+x,1/2+y,z
1/2-x,1/2-y,z
1/2-x,1/2+y,z
1/2+x,1/2-y,z
loop_
_atom_site_type_symbol
_atom_site_label
_atom_site_fract_x
_atom_site_fract_y
_atom_site_fract_z
Si Si1 0.397353 0.500000 0.433000
Si Si2 0.156947 0.301806 0.066154
Si Si3 0.344959 0.205582 0.578718
Si Si4 0.500000 0.697604 0.940590
Si Si5 0.000000 0.294858 0.721447
Si Si6 0.102317 0.000000 0.208733
O O1 0.500000 0.500000 0.442028
O O2 0.359828 0.322792 0.481918
O O3 0.365082 0.500000 0.320804
O O4 0.159032 0.500000 0.107889
O O5 0.250000 0.250000 0.019633
O O6 0.137298 0.176071 0.157756
O O7 0.086186 0.292286 0.979592
O O8 0.250000 0.250000 0.622095
O O9 0.414744 0.260039 0.660964
O O10 0.354585 0.000000 0.549959
O O11 0.500000 0.500000 0.983500
O O12 0.500000 0.690019 0.823073
O O13 0.000000 0.500000 0.746765
O O14 0.000000 0.000000 0.202825
#
# Coordination Sequence:
#
# PCOD8174063 Si02
#       6
#     4   8   8   4   4   4
#     4  11  24  42  68  93 130 169 217 264 317 375
#     4  12  23  43  67  92 133 170 209 266 318 373
#     4  11  23  42  66  94 132 170 212 263 318 376
#     4  12  24  42  68  96 129 168 214 261 321 385
#     4  10  24  42  64  95 128 167 216 262 316 383
#     4  11  24  44  64  99 126 167 223 258 317 383
#
# _framework density 20.173636999999999
#
# number of rings (size 3 to 8) (size 9 to 14) (size 15 to 20)
#    0.000    0.750    6.250    1.125    1.750    3.000 
#    0.000    5.000    0.000    0.000    0.000    0.000 
#    0.000    0.000    0.000    0.000    0.000    0.000 
#
# Total GULP energy -198475.661748 kJ/mol
# GULP energy per Si atom -12404.728859 kJ/mol
# Density = 2.012772 g / cm^3
# Si number density = 20.173637 Si / 1000 Ang^3
#
#
#
# Elastic Constant Matrix: (Units=GPa)
#
#
# Indices 1 2 3 4 5 6 
#
# 1 172.5944 40.9183 69.9207 0.0000 0.0000 0.0000
# 2 40.9183 155.3142 57.0036 0.0000 0.0000 0.0000
# 3 69.9207 57.0036 139.3583 0.0000 0.0000 0.0000
# 4 0.0000 0.0000 0.0000 32.2843 0.0000 0.0000
# 5 0.0000 0.0000 0.0000 0.0000 8.8589 0.0000
# 6 0.0000 0.0000 0.0000 0.0000 0.0000 29.5668
#
#
#
# Elastic Compliance Matrix: (Units=1/GPa)
#
#
# Indices 1 2 3 4 5 6 
#
# 1 0.007333 -0.000684 -0.003399 0.000000 0.000000 0.000000
# 2 -0.000684 0.007640 -0.002782 0.000000 0.000000 0.000000
# 3 -0.003399 -0.002782 0.010019 0.000000 0.000000 0.000000
# 4 0.000000 0.000000 0.000000 0.030975 0.000000 0.000000
# 5 0.000000 0.000000 0.000000 0.000000 0.112881 0.000000
# 6 0.000000 0.000000 0.000000 0.000000 0.000000 0.033822
#
#
# Mechanical properties :
#
#
# Convention : Reuss Voigt Hill
#
# Bulk Modulus (GPa) = 88.79873 89.21691 89.00782
# Shear Modulus (GPa) = 22.71130 34.10363 28.40747
#
# Velocity S-wave (km/s) = 3.35892 4.11604 3.75660
# Velocity P-wave (km/s) = 7.69129 8.17982 7.93931
#
# Compressibility (1/GPa) = 0.01126142
#
# Stress axis : x y z
#
# Youngs Moduli (GPa) = 136.36334 130.89394 99.80852
#
# Poissons Ratio (x) = 0.08957 0.33930
# Poissons Ratio (y) = 0.09332 0.27763
# Poissons Ratio (z) = 0.46356 0.36410
#
# Static dielectric constant tensor:
#      x y z
#    x 4.014260 0.000000 0.000000 
#    y 0.000000 3.772850 0.000000 
#    z 0.000000 0.000000 3.477200 
# 
# 
# High freq. dielectric constant tensor:
#      x y z
#    x 1.807450 0.000000 0.000000 
#    y 0.000000 1.806020 0.000000 
#    z 0.000000 0.000000 1.767870 
# 
# From -- ./inp_files/12739.got.cif
#   From: 2010.03.12/outbox.cif.g09.slc.cpg/sg35_7_cif.got.tgz:12739.got - 2010.04.14 02:02:04.
