data_PCOD8174421
_publ_section_title
;
Structure prediction by ZEFSAII (Michael W. Deem and Ramdas Pophale) SiO2 
 PCOD8174421
Probable space group: C M C 21
;
_chemical_formula_sum "Si O2"
_cell_formula_units_Z 64
_cell_length_a 8.950206
_cell_length_b 23.915751
_cell_length_c 15.439594
_cell_angle_alpha 90.000000
_cell_angle_beta 90.000000
_cell_angle_gamma 90.000000
_cell_volume 3304.858962
_symmetry_space_group_name_H-M "C M C 21"
_symmetry_group_IT_number 36
_symmetry_cell_setting 'orthorhombic'
loop_
_space_group_symop_operation_xyz
x,y,z
-x,-y,1/2+z
x,-y,1/2+z
-x,y,z
1/2+x,1/2+y,z
1/2-x,1/2-y,1/2+z
1/2+x,1/2-y,1/2+z
1/2-x,1/2+y,z
loop_
_atom_site_type_symbol
_atom_site_label
_atom_site_fract_x
_atom_site_fract_y
_atom_site_fract_z
Si Si1 0.322830 0.750012 0.675840
Si Si2 0.176917 0.435936 0.775319
Si Si3 0.323091 0.867102 0.608911
Si Si4 0.322993 0.444231 0.271601
Si Si5 0.674422 0.364161 0.923271
Si Si6 0.675428 0.246193 0.374401
Si Si7 0.825392 0.868056 0.117549
Si Si8 0.825592 0.130742 0.933590
O O1 0.500000 0.749653 0.669226
O O2 0.260467 0.804376 0.625646
O O3 0.273526 0.754073 0.775115
O O4 0.253792 0.693342 0.634944
O O5 0.231339 0.406688 0.686986
O O6 0.243282 0.497107 0.780126
O O7 0.232537 0.400609 0.856718
O O8 0.000000 0.438626 0.780281
O O9 0.500000 0.867430 0.602767
O O10 0.256810 0.890668 0.519684
O O11 0.500000 0.453541 0.268828
O O12 0.262019 0.413845 0.184675
O O13 0.274167 0.406899 0.353196
O O14 0.500000 0.367160 0.900250
O O15 0.728429 0.300187 0.923796
O O16 0.705640 0.388007 0.019744
O O17 0.500000 0.232975 0.383325
O O18 0.718455 0.305410 0.415378
O O19 0.000000 0.862040 0.136914
O O20 0.000000 0.124108 0.949058
#
# Coordination Sequence:
#
# PCOD8174421 Si02
#       8
#     8   8   8   8   8   8   8   8
#     4   9  15  31  58  83 111 150 186 220 273 342
#     4  11  24  42  60  80 111 154 196 238 291 342
#     4  10  21  37  59  83 113 152 191 233 286 345
#     4  10  21  40  62  83 110 149 195 240 284 336
#     4  11  22  36  59  90 119 149 190 237 283 335
#     4  10  18  34  59  86 119 155 187 225 281 345
#     4   9  18  34  59  86 112 147 188 229 280 340
#     4  10  21  36  60  89 117 150 189 234 286 339
#
# _framework density 19.365424000000001
#
# number of rings (size 3 to 8) (size 9 to 14) (size 15 to 20)
#    0.000    2.000    2.500    1.500    0.000    4.000 
#    0.000    5.000    0.000    1.500    0.000    0.000 
#    0.000    0.000    0.000    0.000    0.000    0.000 
#
# Total GULP energy -396832.111296 kJ/mol
# GULP energy per Si atom -12401.003478 kJ/mol
# Density = 1.932135 g / cm^3
# Si number density = 19.365424 Si / 1000 Ang^3
#
#
#
# Elastic Constant Matrix: (Units=GPa)
#
#
# Indices 1 2 3 4 5 6 
#
# 1 30.0931 32.2429 37.7084 0.0000 0.0000 0.0000
# 2 32.2429 130.7446 63.1143 0.0000 0.0000 0.0000
# 3 37.7084 63.1143 144.3989 0.0000 0.0000 0.0000
# 4 0.0000 0.0000 0.0000 9.3579 0.0000 0.0000
# 5 0.0000 0.0000 0.0000 0.0000 26.2573 0.0000
# 6 0.0000 0.0000 0.0000 0.0000 0.0000 29.4691
#
#
#
# Elastic Compliance Matrix: (Units=1/GPa)
#
#
# Indices 1 2 3 4 5 6 
#
# 1 0.056061 -0.008565 -0.010896 0.000000 0.000000 0.000000
# 2 -0.008565 0.011002 -0.002572 0.000000 0.000000 0.000000
# 3 -0.010896 -0.002572 0.010895 0.000000 0.000000 0.000000
# 4 0.000000 0.000000 0.000000 0.106862 0.000000 0.000000
# 5 0.000000 0.000000 0.000000 0.000000 0.038085 0.000000
# 6 0.000000 0.000000 0.000000 0.000000 0.000000 0.033934
#
#
# Mechanical properties :
#
#
# Convention : Reuss Voigt Hill
#
# Bulk Modulus (GPa) = 29.50633 63.48532 46.49582
# Shear Modulus (GPa) = 16.01527 24.49492 20.25509
#
# Velocity S-wave (km/s) = 2.87889 3.56037 3.23761
# Velocity P-wave (km/s) = 5.13033 7.05377 6.16749
#
# Compressibility (1/GPa) = 0.03389103
#
# Stress axis : x y z
#
# Youngs Moduli (GPa) = 17.83785 90.88857 91.78596
#
# Poissons Ratio (x) = 0.77849 1.00009
# Poissons Ratio (y) = 0.15279 0.23610
# Poissons Ratio (z) = 0.19436 0.23379
#
# Static dielectric constant tensor:
#      x y z
#    x 3.174860 0.000000 0.000000 
#    y 0.000000 3.650740 0.000000 
#    z 0.000000 0.000000 3.686010 
# 
# 
# High freq. dielectric constant tensor:
#      x y z
#    x 1.721330 0.000000 0.000000 
#    y 0.000000 1.756710 0.000000 
#    z 0.000000 0.000000 1.770020 
# 
# From -- ./inp_files/11076.got.cif
#   From: 2010.03.12/outbox.cif.g09.slc.cpg/sg36_6_cif.got.tgz:11076.got - 2010.04.14 02:13:53.
