data_PCOD8174592
_publ_section_title
;
Structure prediction by ZEFSAII (Michael W. Deem and Ramdas Pophale) SiO2 
 PCOD8174592
Probable space group: C M C 21
;
_chemical_formula_sum "Si O2"
_cell_formula_units_Z 64
_cell_length_a 9.004748
_cell_length_b 20.706839
_cell_length_c 19.121338
_cell_angle_alpha 90.000000
_cell_angle_beta 90.000000
_cell_angle_gamma 90.000000
_cell_volume 3565.362142
_symmetry_space_group_name_H-M "C M C 21"
_symmetry_group_IT_number 36
_symmetry_cell_setting 'orthorhombic'
loop_
_space_group_symop_operation_xyz
x,y,z
-x,-y,1/2+z
x,-y,1/2+z
-x,y,z
1/2+x,1/2+y,z
1/2-x,1/2-y,1/2+z
1/2+x,1/2-y,1/2+z
1/2-x,1/2+y,z
loop_
_atom_site_type_symbol
_atom_site_label
_atom_site_fract_x
_atom_site_fract_y
_atom_site_fract_z
Si Si1 0.830298 0.257494 0.690540
Si Si2 0.673932 0.189300 0.895464
Si Si3 0.324111 0.063849 0.818643
Si Si4 0.170764 0.249063 0.534326
Si Si5 0.327666 0.931087 0.890324
Si Si6 0.324679 0.313781 0.815175
Si Si7 0.324723 0.391772 0.183291
Si Si8 0.326867 0.884041 0.040754
O O1 0.805884 0.279499 0.610577
O O2 0.727859 0.304962 0.735445
O O3 0.782069 0.182701 0.698631
O O4 0.000000 0.266463 0.713982
O O5 0.500000 0.187039 0.881964
O O6 0.741851 0.123916 0.863497
O O7 0.740216 0.252311 0.857279
O O8 0.710538 0.195488 0.977974
O O9 0.500000 0.068279 0.807812
O O10 0.247494 0.063286 0.742634
O O11 0.278534 0.000515 0.861442
O O12 0.274735 0.187833 0.521455
O O13 0.000000 0.225383 0.525398
O O14 0.500000 0.917458 0.876294
O O15 0.236080 0.878814 0.847768
O O16 0.293621 0.928763 0.973299
O O17 0.500000 0.317207 0.818070
O O18 0.500000 0.402211 0.181697
O O19 0.260482 0.412229 0.107647
O O20 0.500000 0.882582 0.059300
#
# Coordination Sequence:
#
# PCOD8174592 Si02
#       8
#     8   8   8   8   8   8   8   8
#     4   9  18  31  50  77 110 139 173 220 270 322
#     4   9  17  31  54  80 103 133 176 222 267 314
#     4  10  20  37  57  79 109 144 182 222 267 323
#     4   9  17  32  52  78 107 138 176 223 275 321
#     4  10  22  37  54  79 112 147 182 222 268 320
#     4  11  20  32  55  80 106 139 178 223 268 317
#     4  10  20  34  54  80 108 141 179 222 269 321
#     4  10  19  32  52  79 107 139 180 222 266 320
#
# _framework density 17.950492000000001
#
# number of rings (size 3 to 8) (size 9 to 14) (size 15 to 20)
#    0.000    2.250    2.500    1.875    0.000    3.000 
#    0.000    1.875    0.000    4.500    0.000    0.000 
#    0.000    0.000    0.000    0.000    0.000    0.000 
#
# Total GULP energy -396788.960965 kJ/mol
# GULP energy per Si atom -12399.655030 kJ/mol
# Density = 1.790964 g / cm^3
# Si number density = 17.950492 Si / 1000 Ang^3
#
#
#
# Elastic Constant Matrix: (Units=GPa)
#
#
# Indices 1 2 3 4 5 6 
#
# 1 61.6259 43.9701 54.7326 0.0000 0.0000 0.0000
# 2 43.9701 104.7573 72.1189 0.0000 0.0000 0.0000
# 3 54.7326 72.1189 153.2981 0.0000 0.0000 0.0000
# 4 0.0000 0.0000 0.0000 30.1379 0.0000 0.0000
# 5 0.0000 0.0000 0.0000 0.0000 27.9332 0.0000
# 6 0.0000 0.0000 0.0000 0.0000 0.0000 23.0734
#
#
#
# Elastic Compliance Matrix: (Units=1/GPa)
#
#
# Indices 1 2 3 4 5 6 
#
# 1 0.026740 -0.006879 -0.006311 0.000000 0.000000 0.000000
# 2 -0.006879 0.015888 -0.005019 0.000000 0.000000 0.000000
# 3 -0.006311 -0.005019 0.011137 0.000000 0.000000 0.000000
# 4 0.000000 0.000000 0.000000 0.033181 0.000000 0.000000
# 5 0.000000 0.000000 0.000000 0.000000 0.035800 0.000000
# 6 0.000000 0.000000 0.000000 0.000000 0.000000 0.043340
#
#
# Mechanical properties :
#
#
# Convention : Reuss Voigt Hill
#
# Bulk Modulus (GPa) = 57.64099 73.48051 65.56075
# Shear Modulus (GPa) = 24.00545 26.15287 25.07916
#
# Velocity S-wave (km/s) = 3.66090 3.82114 3.74187
# Velocity P-wave (km/s) = 7.07463 7.77766 7.43446
#
# Compressibility (1/GPa) = 0.01734876
#
# Stress axis : x y z
#
# Youngs Moduli (GPa) = 37.39704 62.93987 89.78764
#
# Poissons Ratio (x) = 0.43297 0.56664
# Poissons Ratio (y) = 0.25726 0.45060
# Poissons Ratio (z) = 0.23601 0.31587
#
# Static dielectric constant tensor:
#      x y z
#    x 3.194710 0.000000 0.000000 
#    y 0.000000 3.147480 0.000000 
#    z 0.000000 0.000000 3.530460 
# 
# 
# High freq. dielectric constant tensor:
#      x y z
#    x 1.685750 0.000000 0.000000 
#    y 0.000000 1.662820 0.000000 
#    z 0.000000 0.000000 1.711780 
# 
# From -- ./inp_files/13840.got.cif
#   From: 2010.03.12/outbox.cif.g09.slc.cpg/sg36_7_cif.got.tgz:13840.got - 2010.04.14 02:13:53.
