data_PCOD8174126
_publ_section_title
;
Structure prediction by ZEFSAII (Michael W. Deem and Ramdas Pophale) SiO2 
 PCOD8174126
Probable space group: C M M 2
;
_chemical_formula_sum "Si O2"
_cell_formula_units_Z 54
_cell_length_a 16.146184
_cell_length_b 15.026001
_cell_length_c 10.604596
_cell_angle_alpha 90.000000
_cell_angle_beta 90.000000
_cell_angle_gamma 90.000000
_cell_volume 2572.808363
_symmetry_space_group_name_H-M "C M M 2"
_symmetry_group_IT_number 35
_symmetry_cell_setting 'orthorhombic'
loop_
_space_group_symop_operation_xyz
x,y,z
-x,-y,z
-x,y,z
x,-y,z
1/2+x,1/2+y,z
1/2-x,1/2-y,z
1/2-x,1/2+y,z
1/2+x,1/2-y,z
loop_
_atom_site_type_symbol
_atom_site_label
_atom_site_fract_x
_atom_site_fract_y
_atom_site_fract_z
Si Si1 0.593007 0.342924 0.032210
Si Si2 0.341522 0.602562 0.299167
Si Si3 0.500000 0.000000 0.929025
Si Si4 0.876652 0.636811 0.036274
Si Si5 0.651956 0.099888 0.319153
Si Si6 0.230847 0.897995 0.864072
Si Si7 0.093013 0.244511 0.483034
Si Si8 0.750000 0.250000 0.663885
O O1 0.500000 0.379376 0.029586
O O2 0.637931 0.382443 0.154046
O O3 0.592554 0.237158 0.032704
O O4 0.636529 0.379400 0.905251
O O5 0.355426 0.500000 0.335501
O O6 0.246959 0.632095 0.322548
O O7 0.399510 0.662106 0.387439
O O8 0.431009 0.075851 0.947339
O O9 0.883205 0.601844 0.178462
O O10 0.782901 0.630235 0.986944
O O11 0.598470 0.163212 0.407710
O O12 0.643219 0.000000 0.372408
O O13 0.258984 0.838832 0.746026
O O14 0.243476 0.000000 0.823488
O O15 0.165170 0.240715 0.586241
O O16 0.000000 0.240638 0.543360
#
# Coordination Sequence:
#
# PCOD8174126 Si02
#       8
#     8   8   2   8   8   8   8   4
#     4  12  24  39  67 107 143 177 215 265 340 416
#     4  11  23  41  68 102 141 178 216 268 336 409
#     4  12  24  36  68 112 146 164 220 268 340 434
#     4  12  22  40  65 105 139 175 209 268 343 410
#     4  11  22  39  70 101 140 175 212 266 340 413
#     4  12  26  47  72  95 132 178 226 281 340 401
#     4  12  27  46  70  99 132 177 230 283 338 397
#     4  12  28  50  68  94 130 180 238 288 338 392
#
# _framework density 20.988738000000001
#
# number of rings (size 3 to 8) (size 9 to 14) (size 15 to 20)
#    0.000    0.296    8.148    0.889    1.037    4.148 
#    1.333    0.000    0.000    0.000    0.000    0.000 
#    0.000    0.000    0.000    0.000    0.000    0.000 
#
# Total GULP energy -334486.975206 kJ/mol
# GULP energy per Si atom -12388.406489 kJ/mol
# Density = 2.094097 g / cm^3
# Si number density = 20.988738 Si / 1000 Ang^3
#
#
#
# Elastic Constant Matrix: (Units=GPa)
#
#
# Indices 1 2 3 4 5 6 
#
# 1 123.3254 24.8324 20.1923 0.0000 0.0000 0.0000
# 2 24.8324 110.6362 25.4893 0.0000 0.0000 0.0000
# 3 20.1923 25.4893 60.7279 0.0000 0.0000 0.0000
# 4 0.0000 0.0000 0.0000 0.9699 0.0000 0.0000
# 5 0.0000 0.0000 0.0000 0.0000 16.8819 0.0000
# 6 0.0000 0.0000 0.0000 0.0000 0.0000 26.6745
#
#
#
# Elastic Compliance Matrix: (Units=1/GPa)
#
#
# Indices 1 2 3 4 5 6 
#
# 1 0.008777 -0.001437 -0.002315 0.000000 0.000000 0.000000
# 2 -0.001437 0.010241 -0.003821 0.000000 0.000000 0.000000
# 3 -0.002315 -0.003821 0.018841 0.000000 0.000000 0.000000
# 4 0.000000 0.000000 0.000000 1.031060 0.000000 0.000000
# 5 0.000000 0.000000 0.000000 0.000000 0.059235 0.000000
# 6 0.000000 0.000000 0.000000 0.000000 0.000000 0.037489
#
#
# Mechanical properties :
#
#
# Convention : Reuss Voigt Hill
#
# Bulk Modulus (GPa) = 44.02754 48.41307 46.22031
# Shear Modulus (GPa) = 4.20748 23.85028 14.02888
#
# Velocity S-wave (km/s) = 1.41739 3.37462 2.58815
# Velocity P-wave (km/s) = 4.86836 6.18873 5.56782
#
# Compressibility (1/GPa) = 0.02271306
#
# Stress axis : x y z
#
# Youngs Moduli (GPa) = 113.93408 97.64317 53.07699
#
# Poissons Ratio (x) = 0.14027 0.12290
# Poissons Ratio (y) = 0.16367 0.20280
# Poissons Ratio (z) = 0.26381 0.37309
#
# Static dielectric constant tensor:
#      x y z
#    x 4.362900 0.000000 0.000000 
#    y 0.000000 4.296800 0.000000 
#    z 0.000000 0.000000 3.472180 
# 
# 
# High freq. dielectric constant tensor:
#      x y z
#    x 1.842220 0.000000 0.000000 
#    y 0.000000 1.848140 0.000000 
#    z 0.000000 0.000000 1.780240 
# 
# From -- ./inp_files/13035.got.cif
#   From: 2010.03.12/outbox.cif.g09.slc.cpg/sg35_7_cif.got.tgz:13035.got - 2010.04.14 02:02:04.
