data_PCOD8174846
_publ_section_title
;
Structure prediction by ZEFSAII (Michael W. Deem and Ramdas Pophale) SiO2 
 PCOD8174846
Probable space group: C M C 21
;
_chemical_formula_sum "Si O2"
_cell_formula_units_Z 56
_cell_length_a 13.570509
_cell_length_b 12.738000
_cell_length_c 16.945896
_cell_angle_alpha 90.000000
_cell_angle_beta 90.000000
_cell_angle_gamma 90.000000
_cell_volume 2929.286963
_symmetry_space_group_name_H-M "C M C 21"
_symmetry_group_IT_number 36
_symmetry_cell_setting 'orthorhombic'
loop_
_space_group_symop_operation_xyz
x,y,z
-x,-y,1/2+z
x,-y,1/2+z
-x,y,z
1/2+x,1/2+y,z
1/2-x,1/2-y,1/2+z
1/2+x,1/2-y,1/2+z
1/2-x,1/2+y,z
loop_
_atom_site_type_symbol
_atom_site_label
_atom_site_fract_x
_atom_site_fract_y
_atom_site_fract_z
Si Si1 0.792471 0.913430 0.992840
Si Si2 0.612782 0.585104 0.894746
Si Si3 0.229939 0.876808 0.238866
Si Si4 0.114765 0.760899 0.110806
Si Si5 0.747640 0.564126 0.135868
Si Si6 0.111333 0.238923 0.170578
Si Si7 0.609751 0.209681 0.492015
O O1 0.691578 0.867059 0.954135
O O2 0.857424 0.970074 0.926238
O O3 0.853348 0.815885 0.028965
O O4 0.762581 0.999128 0.056663
O O5 0.500000 0.579992 0.864500
O O6 0.687298 0.617766 0.826126
O O7 0.624254 0.670701 0.964016
O O8 0.141840 0.839323 0.181738
O O9 0.320560 0.794833 0.235963
O O10 0.272697 0.988555 0.209578
O O11 0.167719 0.649876 0.123087
O O12 0.000000 0.738131 0.109994
O O13 0.644133 0.618890 0.158518
O O14 0.000000 0.241267 0.201168
O O15 0.124552 0.297138 0.086491
O O16 0.500000 0.170408 0.468625
#
# Coordination Sequence:
#
# PCOD8174846 Si02
#       7
#     8   8   8   8   8   8   8
#     4  11  19  36  57  87 114 149 195 236 286 345
#     4  11  23  38  59  86 120 158 193 241 301 355
#     4  10  22  38  55  84 118 150 192 238 292 348
#     4  10  20  34  55  82 114 146 187 238 285 337
#     4  10  19  35  55  83 113 143 188 236 284 341
#     4  10  19  36  61  85 109 149 197 239 285 345
#     4  10  20  37  60  85 114 151 194 240 291 349
#
# _framework density 19.117280999999998
#
# number of rings (size 3 to 8) (size 9 to 14) (size 15 to 20)
#    0.000    1.714    5.714    0.857    0.000    6.286 
#    0.000    0.714    0.000    0.857    0.000    0.000 
#    0.000    0.000    0.000    0.000    0.000    0.000 
#
# Total GULP energy -347173.839754 kJ/mol
# GULP energy per Si atom -12399.065705 kJ/mol
# Density = 1.907377 g / cm^3
# Si number density = 19.117281 Si / 1000 Ang^3
#
#
#
# Elastic Constant Matrix: (Units=GPa)
#
#
# Indices 1 2 3 4 5 6 
#
# 1 133.9322 50.3852 23.7892 0.0000 0.0000 0.0000
# 2 50.3852 96.6139 13.9153 0.0000 0.0000 0.0000
# 3 23.7892 13.9153 48.8182 0.0000 0.0000 0.0000
# 4 0.0000 0.0000 0.0000 21.2731 0.0000 0.0000
# 5 0.0000 0.0000 0.0000 0.0000 22.4773 0.0000
# 6 0.0000 0.0000 0.0000 0.0000 0.0000 27.9951
#
#
#
# Elastic Compliance Matrix: (Units=1/GPa)
#
#
# Indices 1 2 3 4 5 6 
#
# 1 0.009821 -0.004622 -0.003468 0.000000 0.000000 0.000000
# 2 -0.004622 0.012969 -0.001444 0.000000 0.000000 0.000000
# 3 -0.003468 -0.001444 0.022586 0.000000 0.000000 0.000000
# 4 0.000000 0.000000 0.000000 0.047008 0.000000 0.000000
# 5 0.000000 0.000000 0.000000 0.000000 0.044489 0.000000
# 6 0.000000 0.000000 0.000000 0.000000 0.000000 0.035721
#
#
# Mechanical properties :
#
#
# Convention : Reuss Voigt Hill
#
# Bulk Modulus (GPa) = 38.01356 50.61595 44.31476
# Shear Modulus (GPa) = 24.94596 27.10074 26.02335
#
# Velocity S-wave (km/s) = 3.61625 3.76919 3.69351
# Velocity P-wave (km/s) = 6.11260 6.74362 6.43585
#
# Compressibility (1/GPa) = 0.02630640
#
# Stress axis : x y z
#
# Youngs Moduli (GPa) = 101.81745 77.10600 44.27525
#
# Poissons Ratio (x) = 0.35642 0.15357
# Poissons Ratio (y) = 0.47065 0.06394
# Poissons Ratio (z) = 0.35315 0.11136
#
# Static dielectric constant tensor:
#      x y z
#    x 3.562740 0.000000 0.000000 
#    y 0.000000 3.614760 0.000000 
#    z 0.000000 0.000000 3.199830 
# 
# 
# High freq. dielectric constant tensor:
#      x y z
#    x 1.747240 0.000000 0.000000 
#    y 0.000000 1.749100 0.000000 
#    z 0.000000 0.000000 1.712920 
# 
# From -- ./inp_files/12140.got.cif
#   From: 2010.03.12/outbox.cif.g09.slc.cpg/sg36_7_cif.got.tgz:12140.got - 2010.04.14 02:13:53.
