data_PCOD8174654
_publ_section_title
;
Structure prediction by ZEFSAII (Michael W. Deem and Ramdas Pophale) SiO2 
 PCOD8174654
Probable space group: C M C 21
;
_chemical_formula_sum "Si O2"
_cell_formula_units_Z 64
_cell_length_a 14.200751
_cell_length_b 12.172276
_cell_length_c 18.807998
_cell_angle_alpha 90.000000
_cell_angle_beta 90.000000
_cell_angle_gamma 90.000000
_cell_volume 3251.065157
_symmetry_space_group_name_H-M "C M C 21"
_symmetry_group_IT_number 36
_symmetry_cell_setting 'orthorhombic'
loop_
_space_group_symop_operation_xyz
x,y,z
-x,-y,1/2+z
x,-y,1/2+z
-x,y,z
1/2+x,1/2+y,z
1/2-x,1/2-y,1/2+z
1/2+x,1/2-y,1/2+z
1/2-x,1/2+y,z
loop_
_atom_site_type_symbol
_atom_site_label
_atom_site_fract_x
_atom_site_fract_y
_atom_site_fract_z
Si Si1 0.107418 0.425196 0.717250
Si Si2 0.607026 0.084561 0.063331
Si Si3 0.393523 0.863815 0.995639
Si Si4 0.711025 0.431560 0.920957
Si Si5 0.887855 0.703427 0.922916
Si Si6 0.895774 0.211929 0.803961
Si Si7 0.894727 0.134288 0.963748
Si Si8 0.728321 0.923512 0.302921
O O1 0.148144 0.381375 0.640881
O O2 0.115403 0.337601 0.780420
O O3 0.163995 0.532995 0.739720
O O4 0.000000 0.461570 0.704676
O O5 0.500000 0.123577 0.059632
O O6 0.616541 0.951167 0.059480
O O7 0.653004 0.146683 0.995406
O O8 0.500000 0.872846 0.962697
O O9 0.317287 0.898120 0.937446
O O10 0.375830 0.735704 0.019289
O O11 0.638122 0.331584 0.925583
O O12 0.674279 0.530444 0.973084
O O13 0.714743 0.477592 0.841171
O O14 0.834941 0.645895 0.857793
O O15 0.000000 0.688849 0.913254
O O16 0.880995 0.197233 0.888299
O O17 0.810787 0.147708 0.765578
O O18 0.000000 0.168876 0.781133
O O19 0.000000 0.087673 0.971920
#
# Coordination Sequence:
#
# PCOD8174654 Si02
#       8
#     8   8   8   8   8   8   8   8
#     4  10  20  37  57  78 106 146 190 226 271 334
#     4   9  20  37  55  79 112 146 182 230 281 324
#     4  10  19  33  52  75 106 140 176 220 264 314
#     4  11  20  33  54  81 112 138 177 218 276 330
#     4  11  22  36  55  85 119 144 175 232 289 330
#     4   9  19  34  53  78 109 143 182 227 270 326
#     4   9  18  32  52  78 105 138 175 217 265 320
#     4  11  20  34  57  86 109 141 186 232 275 328
#
# _framework density 19.685855
#
# number of rings (size 3 to 8) (size 9 to 14) (size 15 to 20)
#    0.000    2.000    1.250    3.750    0.000    2.000 
#    2.250    0.000    0.000    0.000    0.000    1.750 
#    0.000    0.000    0.000    0.000    0.000    0.000 
#
# Total GULP energy -396418.144683 kJ/mol
# GULP energy per Si atom -12388.067021 kJ/mol
# Density = 1.964105 g / cm^3
# Si number density = 19.685855 Si / 1000 Ang^3
#
#
#
# Elastic Constant Matrix: (Units=GPa)
#
#
# Indices 1 2 3 4 5 6 
#
# 1 106.9327 48.4677 18.9533 0.0000 0.0000 0.0000
# 2 48.4677 117.3025 28.3222 0.0000 0.0000 0.0000
# 3 18.9533 28.3222 51.9955 0.0000 0.0000 0.0000
# 4 0.0000 0.0000 0.0000 15.7485 0.0000 0.0000
# 5 0.0000 0.0000 0.0000 0.0000 10.9791 0.0000
# 6 0.0000 0.0000 0.0000 0.0000 0.0000 40.7739
#
#
#
# Elastic Compliance Matrix: (Units=1/GPa)
#
#
# Indices 1 2 3 4 5 6 
#
# 1 0.011663 -0.004367 -0.001873 0.000000 0.000000 0.000000
# 2 -0.004367 0.011451 -0.004646 0.000000 0.000000 0.000000
# 3 -0.001873 -0.004646 0.022446 0.000000 0.000000 0.000000
# 4 0.000000 0.000000 0.000000 0.063498 0.000000 0.000000
# 5 0.000000 0.000000 0.000000 0.000000 0.091082 0.000000
# 6 0.000000 0.000000 0.000000 0.000000 0.000000 0.024525
#
#
# Mechanical properties :
#
#
# Convention : Reuss Voigt Hill
#
# Bulk Modulus (GPa) = 42.03598 51.96857 47.00228
# Shear Modulus (GPa) = 19.65678 25.53279 22.59478
#
# Velocity S-wave (km/s) = 3.16337 3.60531 3.39155
# Velocity P-wave (km/s) = 5.89426 6.61720 6.26616
#
# Compressibility (1/GPa) = 0.02378914
#
# Stress axis : x y z
#
# Youngs Moduli (GPa) = 85.74218 87.32919 44.55226
#
# Poissons Ratio (x) = 0.38135 0.08343
# Poissons Ratio (y) = 0.37442 0.20697
# Poissons Ratio (z) = 0.16057 0.40570
#
# Static dielectric constant tensor:
#      x y z
#    x 3.829260 0.000000 0.000000 
#    y 0.000000 3.783830 0.000000 
#    z 0.000000 0.000000 3.281500 
# 
# 
# High freq. dielectric constant tensor:
#      x y z
#    x 1.779440 0.000000 0.000000 
#    y 0.000000 1.770800 0.000000 
#    z 0.000000 0.000000 1.715080 
# 
# From -- ./inp_files/14711.got.cif
#   From: 2010.03.12/outbox.cif.g09.slc.cpg/sg36_8_cif.got.tgz:14711.got - 2010.04.14 02:13:53.
