data_PCOD8174933
_publ_section_title
;
Structure prediction by ZEFSAII (Michael W. Deem and Ramdas Pophale) SiO2 
 PCOD8174933
Probable space group: C M C 21
;
_chemical_formula_sum "Si O2"
_cell_formula_units_Z 64
_cell_length_a 8.786149
_cell_length_b 19.833054
_cell_length_c 18.730606
_cell_angle_alpha 90.000000
_cell_angle_beta 90.000000
_cell_angle_gamma 90.000000
_cell_volume 3263.923618
_symmetry_space_group_name_H-M "C M C 21"
_symmetry_group_IT_number 36
_symmetry_cell_setting 'orthorhombic'
loop_
_space_group_symop_operation_xyz
x,y,z
-x,-y,1/2+z
x,-y,1/2+z
-x,y,z
1/2+x,1/2+y,z
1/2-x,1/2-y,1/2+z
1/2+x,1/2-y,1/2+z
1/2-x,1/2+y,z
loop_
_atom_site_type_symbol
_atom_site_label
_atom_site_fract_x
_atom_site_fract_y
_atom_site_fract_z
Si Si1 0.180836 0.920486 0.439950
Si Si2 0.679594 0.310219 0.553008
Si Si3 0.320038 0.698032 0.465785
Si Si4 0.818374 0.023580 0.671742
Si Si5 0.320588 0.373188 0.702701
Si Si6 0.680585 0.627157 0.788717
Si Si7 0.319004 0.552763 0.514131
Si Si8 0.320466 0.776245 0.814616
O O1 0.236381 0.868207 0.499565
O O2 0.249393 0.900347 0.363263
O O3 0.000000 0.920281 0.437250
O O4 0.241438 0.994340 0.461579
O O5 0.500000 0.297842 0.546282
O O6 0.769992 0.242614 0.533474
O O7 0.726497 0.331635 0.632554
O O8 0.500000 0.700554 0.455772
O O9 0.260988 0.622941 0.482215
O O10 0.240478 0.725032 0.394906
O O11 0.753952 0.080990 0.725026
O O12 0.753026 0.040412 0.593480
O O13 0.000000 0.023580 0.670605
O O14 0.760480 0.949910 0.696602
O O15 0.500000 0.372830 0.713665
O O16 0.246743 0.338850 0.771506
O O17 0.500000 0.620866 0.791119
O O18 0.728130 0.705281 0.777835
O O19 0.500000 0.551515 0.518708
O O20 0.500000 0.783377 0.817725
#
# Coordination Sequence:
#
# PCOD8174933 Si02
#       8
#     8   8   8   8   8   8   8   8
#     4   9  15  30  53  77 102 140 188 229 272 324
#     4  10  19  36  59  81 111 149 183 222 284 346
#     4  11  23  36  57  87 115 144 189 242 283 327
#     4   9  17  32  53  82 112 139 182 238 281 319
#     4  10  21  36  59  87 113 144 185 234 283 335
#     4   9  18  30  52  78 105 144 189 230 272 325
#     4   9  18  31  52  82 112 139 181 241 281 313
#     4  11  23  39  57  80 116 155 187 226 282 345
#
# _framework density 19.608302999999999
#
# number of rings (size 3 to 8) (size 9 to 14) (size 15 to 20)
#    0.000    2.250    2.500    0.750    3.500    0.500 
#    0.000    0.000    0.000    6.000    0.000    0.000 
#    0.000    0.000    0.000    0.000    0.000    0.000 
#
# Total GULP energy -396795.438411 kJ/mol
# GULP energy per Si atom -12399.857450 kJ/mol
# Density = 1.956367 g / cm^3
# Si number density = 19.608303 Si / 1000 Ang^3
#
#
#
# Elastic Constant Matrix: (Units=GPa)
#
#
# Indices 1 2 3 4 5 6 
#
# 1 19.4967 20.8052 14.5899 0.0000 0.0000 0.0000
# 2 20.8052 135.7181 31.9634 0.0000 0.0000 0.0000
# 3 14.5899 31.9634 80.6016 0.0000 0.0000 0.0000
# 4 0.0000 0.0000 0.0000 43.1630 0.0000 0.0000
# 5 0.0000 0.0000 0.0000 0.0000 21.5665 0.0000
# 6 0.0000 0.0000 0.0000 0.0000 0.0000 20.9884
#
#
#
# Elastic Compliance Matrix: (Units=1/GPa)
#
#
# Indices 1 2 3 4 5 6 
#
# 1 0.066568 -0.008126 -0.008827 0.000000 0.000000 0.000000
# 2 -0.008126 0.009119 -0.002145 0.000000 0.000000 0.000000
# 3 -0.008827 -0.002145 0.014855 0.000000 0.000000 0.000000
# 4 0.000000 0.000000 0.000000 0.023168 0.000000 0.000000
# 5 0.000000 0.000000 0.000000 0.000000 0.046368 0.000000
# 6 0.000000 0.000000 0.000000 0.000000 0.000000 0.047645
#
#
# Mechanical properties :
#
#
# Convention : Reuss Voigt Hill
#
# Bulk Modulus (GPa) = 19.10391 41.17036 30.13713
# Shear Modulus (GPa) = 18.98478 28.37410 23.67944
#
# Velocity S-wave (km/s) = 3.11497 3.80813 3.47886
# Velocity P-wave (km/s) = 4.76459 6.35435 5.61601
#
# Compressibility (1/GPa) = 0.05234530
#
# Stress axis : x y z
#
# Youngs Moduli (GPa) = 15.02233 109.65957 67.31578
#
# Poissons Ratio (x) = 0.89106 0.59422
# Poissons Ratio (y) = 0.12207 0.14442
# Poissons Ratio (z) = 0.13261 0.23527
#
# Static dielectric constant tensor:
#      x y z
#    x 2.980080 0.000000 0.000000 
#    y 0.000000 3.852820 0.000000 
#    z 0.000000 0.000000 3.722540 
# 
# 
# High freq. dielectric constant tensor:
#      x y z
#    x 1.704930 0.000000 0.000000 
#    y 0.000000 1.781530 0.000000 
#    z 0.000000 0.000000 1.773640 
# 
# From -- ./inp_files/13947.got.cif
#   From: 2010.03.12/outbox.cif.g09.slc.cpg/sg36_7_cif.got.tgz:13947.got - 2010.04.14 02:13:53.
