data_PCOD8174731
_publ_section_title
;
Structure prediction by ZEFSAII (Michael W. Deem and Ramdas Pophale) SiO2 
 PCOD8174731
Probable space group: C M C 21
;
_chemical_formula_sum "Si O2"
_cell_formula_units_Z 64
_cell_length_a 8.874084
_cell_length_b 22.903296
_cell_length_c 16.530913
_cell_angle_alpha 90.000000
_cell_angle_beta 90.000000
_cell_angle_gamma 90.000000
_cell_volume 3359.838184
_symmetry_space_group_name_H-M "C M C 21"
_symmetry_group_IT_number 36
_symmetry_cell_setting 'orthorhombic'
loop_
_space_group_symop_operation_xyz
x,y,z
-x,-y,1/2+z
x,-y,1/2+z
-x,y,z
1/2+x,1/2+y,z
1/2-x,1/2-y,1/2+z
1/2+x,1/2-y,1/2+z
1/2-x,1/2+y,z
loop_
_atom_site_type_symbol
_atom_site_label
_atom_site_fract_x
_atom_site_fract_y
_atom_site_fract_z
Si Si1 0.677628 0.716060 0.311780
Si Si2 0.821535 0.468659 0.043930
Si Si3 0.820125 0.908656 0.508734
Si Si4 0.163736 0.700632 0.586458
Si Si5 0.821950 0.841635 0.346609
Si Si6 0.825325 0.104988 0.678262
Si Si7 0.834315 0.365277 0.928920
Si Si8 0.326526 0.677039 0.140723
O O1 0.500000 0.726213 0.308209
O O2 0.749307 0.777389 0.339001
O O3 0.713780 0.659758 0.366494
O O4 0.747726 0.694682 0.226068
O O5 0.750058 0.527779 0.012257
O O6 0.762966 0.447535 0.132514
O O7 0.000000 0.473850 0.051118
O O8 0.774013 0.423041 0.973965
O O9 0.766440 0.873981 0.428351
O O10 0.757620 0.876998 0.590369
O O11 0.000000 0.912816 0.508529
O O12 0.293026 0.665774 0.633018
O O13 0.149345 0.685226 0.493904
O O14 0.200188 0.768466 0.582191
O O15 0.000000 0.689143 0.629717
O O16 0.776535 0.884732 0.271784
O O17 0.000000 0.831674 0.346889
O O18 0.000000 0.089375 0.671950
O O19 0.000000 0.376404 0.889229
O O20 0.500000 0.662744 0.157164
#
# Coordination Sequence:
#
# PCOD8174731 Si02
#       8
#     8   8   8   8   8   8   8   8
#     4  11  21  33  55  87 118 146 184 231 278 336
#     4  10  22  41  60  80 109 148 194 236 283 337
#     4  10  21  40  61  80 110 152 195 237 281 337
#     4   9  16  32  56  79 109 146 182 221 275 333
#     4  10  21  37  59  87 117 150 187 233 290 343
#     4  10  19  33  57  87 114 144 185 232 280 335
#     4   9  19  35  56  78 107 146 182 225 279 335
#     4   9  18  33  54  80 112 148 181 223 280 334
#
# _framework density 19.048538000000001
#
# number of rings (size 3 to 8) (size 9 to 14) (size 15 to 20)
#    0.000    2.250    1.250    2.625    0.000    5.500 
#    2.250    1.875    0.000    0.000    0.000    0.000 
#    0.000    0.000    0.000    0.000    0.000    0.000 
#
# Total GULP energy -396468.835475 kJ/mol
# GULP energy per Si atom -12389.651109 kJ/mol
# Density = 1.900518 g / cm^3
# Si number density = 19.048538 Si / 1000 Ang^3
#
#
#
# Elastic Constant Matrix: (Units=GPa)
#
#
# Indices 1 2 3 4 5 6 
#
# 1 45.8185 33.0942 36.9473 0.0000 0.0000 0.0000
# 2 33.0942 127.9950 77.6621 0.0000 0.0000 0.0000
# 3 36.9473 77.6621 113.3975 0.0000 0.0000 0.0000
# 4 0.0000 0.0000 0.0000 29.0158 0.0000 0.0000
# 5 0.0000 0.0000 0.0000 0.0000 21.4148 0.0000
# 6 0.0000 0.0000 0.0000 0.0000 0.0000 30.4687
#
#
#
# Elastic Compliance Matrix: (Units=1/GPa)
#
#
# Indices 1 2 3 4 5 6 
#
# 1 0.030332 -0.003159 -0.007719 0.000000 0.000000 0.000000
# 2 -0.003159 0.013697 -0.008351 0.000000 0.000000 0.000000
# 3 -0.007719 -0.008351 0.017053 0.000000 0.000000 0.000000
# 4 0.000000 0.000000 0.000000 0.034464 0.000000 0.000000
# 5 0.000000 0.000000 0.000000 0.000000 0.046697 0.000000
# 6 0.000000 0.000000 0.000000 0.000000 0.000000 0.032821
#
#
# Mechanical properties :
#
#
# Convention : Reuss Voigt Hill
#
# Bulk Modulus (GPa) = 44.20323 64.73535 54.46929
# Shear Modulus (GPa) = 22.61809 25.48036 24.04923
#
# Velocity S-wave (km/s) = 3.44959 3.66136 3.55706
# Velocity P-wave (km/s) = 6.25478 7.20641 6.74739
#
# Compressibility (1/GPa) = 0.02262278
#
# Stress axis : x y z
#
# Youngs Moduli (GPa) = 32.96902 73.01037 58.64023
#
# Poissons Ratio (x) = 0.23062 0.45267
# Poissons Ratio (y) = 0.10414 0.48972
# Poissons Ratio (z) = 0.25450 0.60973
#
# Static dielectric constant tensor:
#      x y z
#    x 3.420010 0.000000 0.000000 
#    y 0.000000 3.455500 0.000000 
#    z 0.000000 0.000000 3.711650 
# 
# 
# High freq. dielectric constant tensor:
#      x y z
#    x 1.723010 0.000000 0.000000 
#    y 0.000000 1.736250 0.000000 
#    z 0.000000 0.000000 1.743590 
# 
# From -- ./inp_files/13964.got.cif
#   From: 2010.03.12/outbox.cif.g09.slc.cpg/sg36_7_cif.got.tgz:13964.got - 2010.04.14 02:13:53.
