data_PCOD8174155
_publ_section_title
;
Structure prediction by ZEFSAII (Michael W. Deem and Ramdas Pophale) SiO2 
 PCOD8174155
Probable space group: C M M 2
;
_chemical_formula_sum "Si O2"
_cell_formula_units_Z 56
_cell_length_a 30.378891
_cell_length_b 9.463118
_cell_length_c 12.743903
_cell_angle_alpha 90.000000
_cell_angle_beta 90.000000
_cell_angle_gamma 90.000000
_cell_volume 3663.604876
_symmetry_space_group_name_H-M "C M M 2"
_symmetry_group_IT_number 35
_symmetry_cell_setting 'orthorhombic'
loop_
_space_group_symop_operation_xyz
x,y,z
-x,-y,z
-x,y,z
x,-y,z
1/2+x,1/2+y,z
1/2-x,1/2-y,z
1/2-x,1/2+y,z
1/2+x,1/2-y,z
loop_
_atom_site_type_symbol
_atom_site_label
_atom_site_fract_x
_atom_site_fract_y
_atom_site_fract_z
Si Si1 0.614159 0.831859 0.529950
Si Si2 0.114159 0.668141 0.297538
Si Si3 0.289131 0.843732 0.538302
Si Si4 0.210869 0.343732 0.289186
Si Si5 0.051232 0.335212 0.713801
Si Si6 0.551232 0.835212 0.113687
Si Si7 0.447744 0.339919 0.913744
O O1 0.602306 0.772383 0.413744
O O2 0.662741 0.778748 0.565897
O O3 0.577514 0.780376 0.611941
O O4 0.615650 0.000000 0.524420
O O5 0.115650 0.500000 0.303068
O O6 0.162741 0.721253 0.261591
O O7 0.077514 0.719624 0.215547
O O8 0.250000 0.750000 0.587584
O O9 0.284546 0.851694 0.413744
O O10 0.284247 0.000000 0.586950
O O11 0.215753 0.500000 0.240537
O O12 0.250000 0.250000 0.239904
O O13 0.060176 0.500000 0.737722
O O14 0.068865 0.244031 0.811496
O O15 0.000000 0.308045 0.691486
O O16 0.500000 0.808045 0.136002
O O17 0.560176 0.000000 0.089766
O O18 0.568865 0.744031 0.015992
O O19 0.500000 0.341412 0.913744
O O20 0.429051 0.500000 0.913744
#
# Coordination Sequence:
#
# PCOD8174155 Si02
#       7
#     8   8   8   8   8   8   8
#     4   8  14  24  38  59  86 110 130 157 196 237
#     4   8  14  24  38  59  86 110 130 157 196 237
#     4   8  13  22  36  53  75 103 132 160 190 225
#     4   8  13  22  36  53  75 103 132 160 190 225
#     4   9  16  26  42  62  81 103 134 167 194 228
#     4   9  16  26  42  62  81 103 134 167 194 228
#     4   9  17  29  43  57  76 103 134 169 206 235
#
# _framework density 15.285489999999999
#
# number of rings (size 3 to 8) (size 9 to 14) (size 15 to 20)
#    0.000    3.571    0.000    2.143    0.000    2.286 
#    0.000    4.286    0.000    2.571    0.000    5.000 
#    0.000    0.000    0.000    0.000    0.000    0.000 
#
# Total GULP energy -346973.908647 kJ/mol
# GULP energy per Si atom -12391.925309 kJ/mol
# Density = 1.525070 g / cm^3
# Si number density = 15.285490 Si / 1000 Ang^3
#
#
#
# Elastic Constant Matrix: (Units=GPa)
#
#
# Indices 1 2 3 4 5 6 
#
# 1 89.1453 36.6416 61.1459 0.0000 0.0000 0.0000
# 2 36.6416 56.1577 40.2127 0.0000 0.0000 0.0000
# 3 61.1459 40.2127 100.3641 0.0000 0.0000 0.0000
# 4 0.0000 0.0000 0.0000 10.0609 0.0000 0.0000
# 5 0.0000 0.0000 0.0000 0.0000 2.8130 0.0000
# 6 0.0000 0.0000 0.0000 0.0000 0.0000 18.3888
#
#
#
# Elastic Compliance Matrix: (Units=1/GPa)
#
#
# Indices 1 2 3 4 5 6 
#
# 1 0.020742 -0.006289 -0.010117 0.000000 0.000000 0.000000
# 2 -0.006289 0.026878 -0.006938 0.000000 0.000000 0.000000
# 3 -0.010117 -0.006938 0.018907 0.000000 0.000000 0.000000
# 4 0.000000 0.000000 0.000000 0.099394 0.000000 0.000000
# 5 0.000000 0.000000 0.000000 0.000000 0.355498 0.000000
# 6 0.000000 0.000000 0.000000 0.000000 0.000000 0.054381
#
#
# Mechanical properties :
#
#
# Convention : Reuss Voigt Hill
#
# Bulk Modulus (GPa) = 50.40382 57.96307 54.18344
# Shear Modulus (GPa) = 7.94784 13.43033 10.68908
#
# Velocity S-wave (km/s) = 2.28274 2.96739 2.64729
# Velocity P-wave (km/s) = 6.32411 7.05288 6.69842
#
# Compressibility (1/GPa) = 0.01983977
#
# Stress axis : x y z
#
# Youngs Moduli (GPa) = 48.21102 37.20456 52.89009
#
# Poissons Ratio (x) = 0.23399 0.53509
# Poissons Ratio (y) = 0.30321 0.36693
# Poissons Ratio (z) = 0.48775 0.25811
#
# Static dielectric constant tensor:
#      x y z
#    x 3.039690 0.000000 0.000000 
#    y 0.000000 2.902120 0.000000 
#    z 0.000000 0.000000 2.874850 
# 
# 
# High freq. dielectric constant tensor:
#      x y z
#    x 1.576490 0.000000 0.000000 
#    y 0.000000 1.560420 0.000000 
#    z 0.000000 0.000000 1.554710 
# 
# From -- ./inp_files/14351.got.cif
#   From: 2010.03.12/outbox.cif.g09.slc.cpg/sg35_8_cif.got.tgz:14351.got - 2010.04.14 02:02:04.
