data_PCOD8174772
_publ_section_title
;
Structure prediction by ZEFSAII (Michael W. Deem and Ramdas Pophale) SiO2 
 PCOD8174772
Probable space group: C M C 21
;
_chemical_formula_sum "Si O2"
_cell_formula_units_Z 64
_cell_length_a 8.834517
_cell_length_b 20.082824
_cell_length_c 19.315953
_cell_angle_alpha 90.000000
_cell_angle_beta 90.000000
_cell_angle_gamma 90.000000
_cell_volume 3427.075980
_symmetry_space_group_name_H-M "C M C 21"
_symmetry_group_IT_number 36
_symmetry_cell_setting 'orthorhombic'
loop_
_space_group_symop_operation_xyz
x,y,z
-x,-y,1/2+z
x,-y,1/2+z
-x,y,z
1/2+x,1/2+y,z
1/2-x,1/2-y,1/2+z
1/2+x,1/2-y,1/2+z
1/2-x,1/2+y,z
loop_
_atom_site_type_symbol
_atom_site_label
_atom_site_fract_x
_atom_site_fract_y
_atom_site_fract_z
Si Si1 0.825712 0.695704 0.197190
Si Si2 0.321153 0.887811 0.061036
Si Si3 0.178226 0.762491 0.564436
Si Si4 0.821026 0.548473 0.700818
Si Si5 0.177909 0.759987 0.410765
Si Si6 0.175487 0.168970 0.776164
Si Si7 0.679342 0.109516 0.408369
Si Si8 0.178337 0.924512 0.772346
O O1 0.766869 0.691010 0.118403
O O2 0.800973 0.770535 0.223323
O O3 0.730380 0.647236 0.245668
O O4 0.000000 0.673846 0.200809
O O5 0.500000 0.882138 0.063630
O O6 0.259709 0.812921 0.071339
O O7 0.261844 0.934559 0.123051
O O8 0.273829 0.916320 0.985421
O O9 0.216962 0.788408 0.486941
O O10 0.000000 0.767091 0.579735
O O11 0.775223 0.606937 0.752965
O O12 0.744027 0.480052 0.721725
O O13 0.000000 0.539623 0.702776
O O14 0.239672 0.809402 0.351668
O O15 0.240556 0.685211 0.400991
O O16 0.000000 0.753398 0.400863
O O17 0.000000 0.147375 0.779416
O O18 0.500000 0.104702 0.397026
O O19 0.761346 0.064553 0.350653
O O20 0.000000 0.929816 0.772214
#
# Coordination Sequence:
#
# PCOD8174772 Si02
#       8
#     8   8   8   8   8   8   8   8
#     4  11  21  35  57  83 113 147 183 227 278 330
#     4   8  16  31  57  85 110 141 182 226 275 335
#     4   9  16  31  55  84 113 143 183 230 278 328
#     4  11  22  38  58  83 113 149 187 228 278 333
#     4   8  15  30  55  82 112 147 181 223 279 332
#     4  10  19  34  56  83 112 144 182 223 273 330
#     4   9  16  34  59  83 109 143 183 226 279 335
#     4  12  25  39  55  81 114 150 191 235 278 329
#
# _framework density 18.674810999999998
#
# number of rings (size 3 to 8) (size 9 to 14) (size 15 to 20)
#    0.000    2.250    2.500    3.375    0.000    0.500 
#    0.000    5.625    0.000    0.000    0.000    0.000 
#    0.000    0.000    0.000    0.000    0.000    0.000 
#
# Total GULP energy -396714.740404 kJ/mol
# GULP energy per Si atom -12397.335638 kJ/mol
# Density = 1.863231 g / cm^3
# Si number density = 18.674811 Si / 1000 Ang^3
#
#
#
# Elastic Constant Matrix: (Units=GPa)
#
#
# Indices 1 2 3 4 5 6 
#
# 1 66.1475 20.0248 35.2911 0.0000 0.0000 0.0000
# 2 20.0248 40.2333 22.2316 0.0000 0.0000 0.0000
# 3 35.2911 22.2316 144.2317 0.0000 0.0000 0.0000
# 4 0.0000 0.0000 0.0000 29.7523 0.0000 0.0000
# 5 0.0000 0.0000 0.0000 0.0000 26.3090 0.0000
# 6 0.0000 0.0000 0.0000 0.0000 0.0000 25.3118
#
#
#
# Elastic Compliance Matrix: (Units=1/GPa)
#
#
# Indices 1 2 3 4 5 6 
#
# 1 0.019330 -0.007660 -0.003549 0.000000 0.000000 0.000000
# 2 -0.007660 0.030204 -0.002781 0.000000 0.000000 0.000000
# 3 -0.003549 -0.002781 0.008230 0.000000 0.000000 0.000000
# 4 0.000000 0.000000 0.000000 0.033611 0.000000 0.000000
# 5 0.000000 0.000000 0.000000 0.000000 0.038010 0.000000
# 6 0.000000 0.000000 0.000000 0.000000 0.000000 0.039507
#
#
# Mechanical properties :
#
#
# Convention : Reuss Voigt Hill
#
# Bulk Modulus (GPa) = 33.57479 45.07862 39.32670
# Shear Modulus (GPa) = 24.17778 27.81230 25.99504
#
# Velocity S-wave (km/s) = 3.60206 3.86332 3.73498
# Velocity P-wave (km/s) = 5.94285 6.64014 6.30115
#
# Compressibility (1/GPa) = 0.02978425
#
# Stress axis : x y z
#
# Youngs Moduli (GPa) = 51.73280 33.10779 121.50063
#
# Poissons Ratio (x) = 0.25360 0.43122
# Poissons Ratio (y) = 0.39626 0.33794
# Poissons Ratio (z) = 0.18360 0.09209
#
# Static dielectric constant tensor:
#      x y z
#    x 3.138480 0.000000 0.000000 
#    y 0.000000 3.168300 0.000000 
#    z 0.000000 0.000000 3.929990 
# 
# 
# High freq. dielectric constant tensor:
#      x y z
#    x 1.699760 0.000000 0.000000 
#    y 0.000000 1.691730 0.000000 
#    z 0.000000 0.000000 1.746910 
# 
# From -- ./inp_files/15715.got.cif
#   From: 2010.03.12/outbox.cif.g09.slc.cpg/sg36_8_cif.got.tgz:15715.got - 2010.04.14 02:13:53.
