data_PCOD8174251
_publ_section_title
;
Structure prediction by ZEFSAII (Michael W. Deem and Ramdas Pophale) SiO2 
 PCOD8174251
Probable space group: C M C 21
;
_chemical_formula_sum "Si O2"
_cell_formula_units_Z 64
_cell_length_a 20.704971
_cell_length_b 28.482220
_cell_length_c 5.264569
_cell_angle_alpha 90.000000
_cell_angle_beta 90.000000
_cell_angle_gamma 90.000000
_cell_volume 3104.640263
_symmetry_space_group_name_H-M "C M C 21"
_symmetry_group_IT_number 36
_symmetry_cell_setting 'orthorhombic'
loop_
_space_group_symop_operation_xyz
x,y,z
-x,-y,1/2+z
x,-y,1/2+z
-x,y,z
1/2+x,1/2+y,z
1/2-x,1/2-y,1/2+z
1/2+x,1/2-y,1/2+z
1/2-x,1/2+y,z
loop_
_atom_site_type_symbol
_atom_site_label
_atom_site_fract_x
_atom_site_fract_y
_atom_site_fract_z
Si Si1 0.574442 0.837643 0.740430
Si Si2 0.925636 0.190751 0.263416
Si Si3 0.185517 0.524482 0.741319
Si Si4 0.867710 0.628482 0.740983
Si Si5 0.738380 0.670128 0.751394
Si Si6 0.126845 0.237622 0.765720
Si Si7 0.684947 0.375917 0.749053
Si Si8 0.827168 0.984857 0.746923
O O1 0.500000 0.821055 0.740665
O O2 0.587731 0.868600 0.490460
O O3 0.622504 0.793226 0.735235
O O4 0.587910 0.868279 0.991283
O O5 0.911839 0.213867 0.535454
O O6 0.889044 0.141150 0.237152
O O7 0.000000 0.178657 0.239685
O O8 0.904724 0.224970 0.035765
O O9 0.154919 0.499837 0.491724
O O10 0.170612 0.579628 0.739744
O O11 0.262728 0.517270 0.740490
O O12 0.816330 0.672236 0.741165
O O13 0.702431 0.720973 0.759320
O O14 0.717321 0.642842 0.501747
O O15 0.722346 0.641469 0.003430
O O16 0.690732 0.431118 0.753750
O O17 0.867602 0.999032 0.495240
#
# Coordination Sequence:
#
# PCOD8174251 Si02
#       8
#     8   8   8   8   8   8   8   8
#     4  12  26  43  61  83 118 160 198 231 276 344
#     4  10  19  34  58  85 117 158 204 238 267 321
#     4  10  19  34  58  86 111 140 182 230 288 354
#     4  12  24  39  64  90 118 151 187 241 293 342
#     4  10  20  36  58  90 121 145 184 236 299 338
#     4  10  22  38  61  87 116 155 196 240 279 332
#     4  10  19  33  54  86 122 150 184 240 291 340
#     4  10  18  29  50  77 110 143 179 226 283 345
#
# _framework density 20.614304000000001
#
# number of rings (size 3 to 8) (size 9 to 14) (size 15 to 20)
#    0.000    1.500    0.000    7.500    0.000    1.000 
#    0.000    0.000    0.000    8.250    0.000    0.000 
#    0.000    0.000    0.000    0.000    0.000    0.000 
#
# Total GULP energy -396700.223380 kJ/mol
# GULP energy per Si atom -12396.881981 kJ/mol
# Density = 2.056739 g / cm^3
# Si number density = 20.614304 Si / 1000 Ang^3
#
#
#
# Elastic Constant Matrix: (Units=GPa)
#
#
# Indices 1 2 3 4 5 6 
#
# 1 68.5307 13.9042 18.3609 0.0000 0.0000 0.0000
# 2 13.9042 80.6573 20.8884 0.0000 0.0000 0.0000
# 3 18.3609 20.8884 167.3113 0.0000 0.0000 0.0000
# 4 0.0000 0.0000 0.0000 26.6149 0.0000 0.0000
# 5 0.0000 0.0000 0.0000 0.0000 16.4943 0.0000
# 6 0.0000 0.0000 0.0000 0.0000 0.0000 18.8274
#
#
#
# Elastic Compliance Matrix: (Units=1/GPa)
#
#
# Indices 1 2 3 4 5 6 
#
# 1 0.015435 -0.002296 -0.001407 0.000000 0.000000 0.000000
# 2 -0.002296 0.013154 -0.001390 0.000000 0.000000 0.000000
# 3 -0.001407 -0.001390 0.006305 0.000000 0.000000 0.000000
# 4 0.000000 0.000000 0.000000 0.037573 0.000000 0.000000
# 5 0.000000 0.000000 0.000000 0.000000 0.060627 0.000000
# 6 0.000000 0.000000 0.000000 0.000000 0.000000 0.053114
#
#
# Mechanical properties :
#
#
# Convention : Reuss Voigt Hill
#
# Bulk Modulus (GPa) = 40.47546 46.97849 43.72698
# Shear Modulus (GPa) = 24.43426 29.94371 27.18898
#
# Velocity S-wave (km/s) = 3.44656 3.81539 3.63566
# Velocity P-wave (km/s) = 5.95950 6.49988 6.23554
#
# Compressibility (1/GPa) = 0.02470633
#
# Stress axis : x y z
#
# Youngs Moduli (GPa) = 64.78821 76.02232 158.60751
#
# Poissons Ratio (x) = 0.17457 0.22318
# Poissons Ratio (y) = 0.14878 0.22050
# Poissons Ratio (z) = 0.09117 0.10569
#
# Static dielectric constant tensor:
#      x y z
#    x 3.482660 0.000000 0.000000 
#    y 0.000000 3.566180 0.000000 
#    z 0.000000 0.000000 4.891410 
# 
# 
# High freq. dielectric constant tensor:
#      x y z
#    x 1.765160 0.000000 0.000000 
#    y 0.000000 1.796960 0.000000 
#    z 0.000000 0.000000 1.849660 
# 
# From -- ./inp_files/1497.got.cif
#   From: 2010.03.12/outbox.cif.g09.slc.cpg/sg36_1_cif.got.tgz:1497.got - 2010.04.14 02:13:53.
