data_PCOD8174583
_publ_section_title
;
Structure prediction by ZEFSAII (Michael W. Deem and Ramdas Pophale) SiO2 
 PCOD8174583
Probable space group: C M C 21
;
_chemical_formula_sum "Si O2"
_cell_formula_units_Z 64
_cell_length_a 8.954198
_cell_length_b 20.025131
_cell_length_c 19.724937
_cell_angle_alpha 90.000000
_cell_angle_beta 90.000000
_cell_angle_gamma 90.000000
_cell_volume 3536.858491
_symmetry_space_group_name_H-M "C M C 21"
_symmetry_group_IT_number 36
_symmetry_cell_setting 'orthorhombic'
loop_
_space_group_symop_operation_xyz
x,y,z
-x,-y,1/2+z
x,-y,1/2+z
-x,y,z
1/2+x,1/2+y,z
1/2-x,1/2-y,1/2+z
1/2+x,1/2-y,1/2+z
1/2-x,1/2+y,z
loop_
_atom_site_type_symbol
_atom_site_label
_atom_site_fract_x
_atom_site_fract_y
_atom_site_fract_z
Si Si1 0.325162 0.187569 0.649920
Si Si2 0.328579 0.212244 0.976133
Si Si3 0.326272 0.328617 0.610841
Si Si4 0.176848 0.343777 0.999207
Si Si5 0.673637 0.475818 0.644925
Si Si6 0.323789 0.520236 0.495468
Si Si7 0.827600 0.417565 0.397469
Si Si8 0.177354 0.573848 0.744560
O O1 0.500000 0.176278 0.651255
O O2 0.285615 0.266009 0.660182
O O3 0.266186 0.164430 0.576495
O O4 0.255139 0.140625 0.708282
O O5 0.500000 0.232009 0.987769
O O6 0.237200 0.279482 0.958113
O O7 0.310244 0.160852 0.914100
O O8 0.269134 0.174975 0.042812
O O9 0.500000 0.324872 0.588970
O O10 0.291360 0.396913 0.649813
O O11 0.246875 0.411613 0.970022
O O12 0.000000 0.346790 0.992039
O O13 0.500000 0.490637 0.656214
O O14 0.726700 0.503645 0.572166
O O15 0.766315 0.508928 0.705042
O O16 0.500000 0.527711 0.490181
O O17 0.272934 0.460721 0.447337
O O18 0.765936 0.428318 0.321549
O O19 0.000000 0.439846 0.404923
O O20 0.000000 0.574472 0.743221
#
# Coordination Sequence:
#
# PCOD8174583 Si02
#       8
#     8   8   8   8   8   8   8   8
#     4   8  15  29  52  76  98 131 174 216 259 316
#     4  10  19  32  51  79 110 140 180 227 272 319
#     4   9  17  32  52  77 106 138 179 223 272 323
#     4  10  19  33  55  81 108 139 179 224 278 331
#     4  10  20  33  52  81 112 140 179 231 277 325
#     4  11  21  34  55  82 112 143 184 233 278 326
#     4  10  22  37  54  77 111 151 189 225 271 333
#     4  10  20  36  55  77 107 146 186 223 271 335
#
# _framework density 18.095154999999998
#
# number of rings (size 3 to 8) (size 9 to 14) (size 15 to 20)
#    0.000    2.250    2.500    1.875    0.000    2.000 
#    0.000    1.250    0.000    3.000    0.000    0.000 
#    0.000    0.000    0.000    0.000    0.000    0.000 
#
# Total GULP energy -396760.880951 kJ/mol
# GULP energy per Si atom -12398.777530 kJ/mol
# Density = 1.805397 g / cm^3
# Si number density = 18.095155 Si / 1000 Ang^3
#
#
#
# Elastic Constant Matrix: (Units=GPa)
#
#
# Indices 1 2 3 4 5 6 
#
# 1 61.0432 36.0691 24.8712 0.0000 0.0000 0.0000
# 2 36.0691 121.1135 27.2546 0.0000 0.0000 0.0000
# 3 24.8712 27.2546 63.7440 0.0000 0.0000 0.0000
# 4 0.0000 0.0000 0.0000 24.3209 0.0000 0.0000
# 5 0.0000 0.0000 0.0000 0.0000 19.1262 0.0000
# 6 0.0000 0.0000 0.0000 0.0000 0.0000 30.9435
#
#
#
# Elastic Compliance Matrix: (Units=1/GPa)
#
#
# Indices 1 2 3 4 5 6 
#
# 1 0.022012 -0.005115 -0.006402 0.000000 0.000000 0.000000
# 2 -0.005115 0.010324 -0.002419 0.000000 0.000000 0.000000
# 3 -0.006402 -0.002419 0.019220 0.000000 0.000000 0.000000
# 4 0.000000 0.000000 0.000000 0.041117 0.000000 0.000000
# 5 0.000000 0.000000 0.000000 0.000000 0.052284 0.000000
# 6 0.000000 0.000000 0.000000 0.000000 0.000000 0.032317
#
#
# Mechanical properties :
#
#
# Convention : Reuss Voigt Hill
#
# Bulk Modulus (GPa) = 42.21924 46.92116 44.57020
# Shear Modulus (GPa) = 23.46975 25.39186 24.43080
#
# Velocity S-wave (km/s) = 3.60532 3.75005 3.67840
# Velocity P-wave (km/s) = 6.38072 6.68857 6.53646
#
# Compressibility (1/GPa) = 0.02368588
#
# Stress axis : x y z
#
# Youngs Moduli (GPa) = 45.42887 96.85912 52.03022
#
# Poissons Ratio (x) = 0.49543 0.33308
# Poissons Ratio (y) = 0.23237 0.12584
# Poissons Ratio (z) = 0.29082 0.23426
#
# Static dielectric constant tensor:
#      x y z
#    x 3.198000 0.000000 0.000000 
#    y 0.000000 3.606920 0.000000 
#    z 0.000000 0.000000 3.208960 
# 
# 
# High freq. dielectric constant tensor:
#      x y z
#    x 1.691160 0.000000 0.000000 
#    y 0.000000 1.718470 0.000000 
#    z 0.000000 0.000000 1.667200 
# 
# From -- ./inp_files/13863.got.cif
#   From: 2010.03.12/outbox.cif.g09.slc.cpg/sg36_7_cif.got.tgz:13863.got - 2010.04.14 02:13:53.
