data_PCOD8174243
_publ_section_title
;
Structure prediction by ZEFSAII (Michael W. Deem and Ramdas Pophale) SiO2 
 PCOD8174243
Probable space group: C M C 21
;
_chemical_formula_sum "Si O2"
_cell_formula_units_Z 60
_cell_length_a 21.725020
_cell_length_b 31.885488
_cell_length_c 5.023794
_cell_angle_alpha 90.000000
_cell_angle_beta 90.000000
_cell_angle_gamma 90.000000
_cell_volume 3480.046732
_symmetry_space_group_name_H-M "C M C 21"
_symmetry_group_IT_number 36
_symmetry_cell_setting 'orthorhombic'
loop_
_space_group_symop_operation_xyz
x,y,z
-x,-y,1/2+z
x,-y,1/2+z
-x,y,z
1/2+x,1/2+y,z
1/2-x,1/2-y,1/2+z
1/2+x,1/2-y,1/2+z
1/2-x,1/2+y,z
loop_
_atom_site_type_symbol
_atom_site_label
_atom_site_fract_x
_atom_site_fract_y
_atom_site_fract_z
Si Si1 0.500000 0.975011 0.531930
Si Si2 0.427443 0.863318 0.015990
Si Si3 0.270545 0.804966 0.456226
Si Si4 0.067720 0.727060 0.619933
Si Si5 0.142013 0.383893 0.505932
Si Si6 0.634899 0.971725 0.631040
Si Si7 0.068842 0.221768 0.632381
Si Si8 0.306117 0.289254 0.956938
O O1 0.500000 0.982408 0.214392
O O2 0.564215 0.953385 0.616495
O O3 0.500000 0.868316 0.066599
O O4 0.411791 0.872280 0.712644
O O5 0.398975 0.817501 0.095432
O O6 0.389802 0.892739 0.219523
O O7 0.308095 0.847116 0.509328
O O8 0.310661 0.762025 0.475557
O O9 0.242436 0.808116 0.162509
O O10 0.214506 0.803129 0.665416
O O11 0.094497 0.762552 0.420480
O O12 0.000000 0.719581 0.498571
O O13 0.064454 0.739831 0.926060
O O14 0.173832 0.428705 0.588993
O O15 0.649106 0.007366 0.413504
O O16 0.124595 0.192739 0.518662
O O17 0.000000 0.200179 0.649838
#
# Coordination Sequence:
#
# PCOD8174243 Si02
#       8
#     4   8   8   8   8   8   8   8
#     4   8  16  30  48  64  82 108 142 182 234 294
#     4  11  22  32  46  68  92 118 149 199 254 288
#     4  10  21  33  49  69  90 130 160 194 234 274
#     4   9  17  28  41  62  91 117 147 186 236 283
#     4  12  23  36  52  68  94 118 161 201 238 303
#     4  10  21  37  52  69  88 118 153 198 248 298
#     4  10  18  29  48  68  89 122 158 197 239 278
#     4  10  19  33  49  67  96 122 163 195 229 284
#
# _framework density 17.241149
#
# number of rings (size 3 to 8) (size 9 to 14) (size 15 to 20)
#    0.000    1.867    0.000    5.200    1.867    4.267 
#    2.400    0.000    0.000    0.000    0.000    0.000 
#    0.000    0.000    0.000    0.000    0.000   13.333 
#
# Total GULP energy -371642.848684 kJ/mol
# GULP energy per Si atom -12388.094956 kJ/mol
# Density = 1.720191 g / cm^3
# Si number density = 17.241149 Si / 1000 Ang^3
#
#
#
# Elastic Constant Matrix: (Units=GPa)
#
#
# Indices 1 2 3 4 5 6 
#
# 1 58.7857 16.1860 -2.8777 0.0000 0.0000 0.0000
# 2 16.1860 63.5204 -0.3095 0.0000 0.0000 0.0000
# 3 -2.8777 -0.3095 48.4055 0.0000 0.0000 0.0000
# 4 0.0000 0.0000 0.0000 11.5858 0.0000 0.0000
# 5 0.0000 0.0000 0.0000 0.0000 8.5683 0.0000
# 6 0.0000 0.0000 0.0000 0.0000 0.0000 14.6054
#
#
#
# Elastic Compliance Matrix: (Units=1/GPa)
#
#
# Indices 1 2 3 4 5 6 
#
# 1 0.018349 -0.004670 0.001061 0.000000 0.000000 0.000000
# 2 -0.004670 0.016932 -0.000169 0.000000 0.000000 0.000000
# 3 0.001061 -0.000169 0.020721 0.000000 0.000000 0.000000
# 4 0.000000 0.000000 0.000000 0.086312 0.000000 0.000000
# 5 0.000000 0.000000 0.000000 0.000000 0.116709 0.000000
# 6 0.000000 0.000000 0.000000 0.000000 0.000000 0.068468
#
#
# Mechanical properties :
#
#
# Convention : Reuss Voigt Hill
#
# Bulk Modulus (GPa) = 20.64231 21.85659 21.24945
# Shear Modulus (GPa) = 14.23701 17.46608 15.85155
#
# Velocity S-wave (km/s) = 2.87672 3.18629 3.03545
# Velocity P-wave (km/s) = 4.79924 5.12261 4.96356
#
# Compressibility (1/GPa) = 0.04844420
#
# Stress axis : x y z
#
# Youngs Moduli (GPa) = 54.49945 59.05888 48.26067
#
# Poissons Ratio (x) = 0.27583 -0.05120
# Poissons Ratio (y) = 0.25453 0.00817
# Poissons Ratio (z) = -0.05782 0.01000
#
# Static dielectric constant tensor:
#      x y z
#    x 3.141220 0.000000 0.000000 
#    y 0.000000 2.896790 0.000000 
#    z 0.000000 0.000000 3.426450 
# 
# 
# High freq. dielectric constant tensor:
#      x y z
#    x 1.635040 0.000000 0.000000 
#    y 0.000000 1.609510 0.000000 
#    z 0.000000 0.000000 1.697040 
# 
# From -- ./inp_files/1509.got.cif
#   From: 2010.03.12/outbox.cif.g09.slc.cpg/sg36_1_cif.got.tgz:1509.got - 2010.04.14 02:13:53.
