data_PCOD8174164
_publ_section_title
;
Structure prediction by ZEFSAII (Michael W. Deem and Ramdas Pophale) SiO2 
 PCOD8174164
Probable space group: C M M 2
;
_chemical_formula_sum "Si O2"
_cell_formula_units_Z 64
_cell_length_a 9.334683
_cell_length_b 28.704844
_cell_length_c 15.534162
_cell_angle_alpha 90.000000
_cell_angle_beta 90.000000
_cell_angle_gamma 90.000000
_cell_volume 4162.388328
_symmetry_space_group_name_H-M "C M M 2"
_symmetry_group_IT_number 35
_symmetry_cell_setting 'orthorhombic'
loop_
_space_group_symop_operation_xyz
x,y,z
-x,-y,z
-x,y,z
x,-y,z
1/2+x,1/2+y,z
1/2-x,1/2-y,z
1/2-x,1/2+y,z
1/2+x,1/2-y,z
loop_
_atom_site_type_symbol
_atom_site_label
_atom_site_fract_x
_atom_site_fract_y
_atom_site_fract_z
Si Si1 0.669917 0.393335 0.524680
Si Si2 0.166577 0.204825 0.260376
Si Si3 0.669917 0.606665 0.195629
Si Si4 0.666577 0.295175 0.459933
Si Si5 0.832605 0.054321 0.026530
Si Si6 0.671189 0.447522 0.360154
Si Si7 0.838396 0.444713 0.860154
Si Si8 0.332605 0.445679 0.693779
O O1 0.500000 0.397005 0.520995
O O2 0.717811 0.339478 0.516135
O O3 0.733684 0.422265 0.444676
O O4 0.725498 0.415656 0.613387
O O5 0.250000 0.250000 0.226518
O O6 0.217811 0.160522 0.204174
O O7 0.201350 0.194350 0.360155
O O8 0.000000 0.214712 0.247240
O O9 0.500000 0.602995 0.199314
O O10 0.725498 0.584344 0.106922
O O11 0.733684 0.577735 0.275634
O O12 0.500000 0.285288 0.473069
O O13 0.750000 0.250000 0.493791
O O14 0.000000 0.062886 0.008734
O O15 0.803420 0.000000 0.045773
O O16 0.745097 0.072891 0.944453
O O17 0.500000 0.445790 0.360154
O O18 0.728387 0.500000 0.360154
O O19 0.839437 0.500000 0.860154
O O20 0.754903 0.427109 0.775856
O O21 0.000000 0.424750 0.860155
O O22 0.500000 0.437114 0.711575
O O23 0.303420 0.500000 0.674537
#
# Coordination Sequence:
#
# PCOD8174164 Si02
#       8
#     8   8   8   8   8   8   8   8
#     4   9  15  24  38  60  87 113 139 171 210 246
#     4   9  16  27  42  59  82 111 143 177 210 243
#     4   9  15  24  38  60  87 113 139 171 210 246
#     4   9  16  27  42  59  82 111 143 177 210 243
#     4   9  16  26  42  64  87 110 139 174 209 247
#     4   9  14  20  33  56  87 117 141 165 198 243
#     4   9  17  29  43  59  82 113 144 173 208 247
#     4   9  16  26  42  64  87 110 139 174 209 247
#
# _framework density 15.375788
#
# number of rings (size 3 to 8) (size 9 to 14) (size 15 to 20)
#    0.000    3.000    1.250    1.125    0.000    4.500 
#    0.000    1.250    0.000    0.000    0.000    0.875 
#    0.000    6.000    0.000    0.000    0.000    0.000 
#
# Total GULP energy -396707.512656 kJ/mol
# GULP energy per Si atom -12397.109771 kJ/mol
# Density = 1.534079 g / cm^3
# Si number density = 15.375788 Si / 1000 Ang^3
#
#
#
# Elastic Constant Matrix: (Units=GPa)
#
#
# Indices 1 2 3 4 5 6 
#
# 1 40.3846 32.8976 41.5013 0.0000 0.0000 0.0000
# 2 32.8976 110.0205 70.2337 0.0000 0.0000 0.0000
# 3 41.5013 70.2337 138.7641 0.0000 0.0000 0.0000
# 4 0.0000 0.0000 0.0000 14.2954 0.0000 0.0000
# 5 0.0000 0.0000 0.0000 0.0000 9.6244 0.0000
# 6 0.0000 0.0000 0.0000 0.0000 0.0000 17.2497
#
#
#
# Elastic Compliance Matrix: (Units=1/GPa)
#
#
# Indices 1 2 3 4 5 6 
#
# 1 0.038353 -0.006124 -0.008371 0.000000 0.000000 0.000000
# 2 -0.006124 0.014406 -0.005460 0.000000 0.000000 0.000000
# 3 -0.008371 -0.005460 0.012473 0.000000 0.000000 0.000000
# 4 0.000000 0.000000 0.000000 0.069952 0.000000 0.000000
# 5 0.000000 0.000000 0.000000 0.000000 0.103902 0.000000
# 6 0.000000 0.000000 0.000000 0.000000 0.000000 0.057972
#
#
# Mechanical properties :
#
#
# Convention : Reuss Voigt Hill
#
# Bulk Modulus (GPa) = 39.49049 64.27051 51.88050
# Shear Modulus (GPa) = 14.47557 17.86968 16.17263
#
# Velocity S-wave (km/s) = 3.07164 3.41280 3.24670
# Velocity P-wave (km/s) = 6.19026 7.57761 6.91879
#
# Compressibility (1/GPa) = 0.02532255
#
# Stress axis : x y z
#
# Youngs Moduli (GPa) = 26.07345 69.41669 80.17127
#
# Poissons Ratio (x) = 0.42514 0.67110
# Poissons Ratio (y) = 0.15969 0.43770
# Poissons Ratio (z) = 0.21825 0.37899
#
# Static dielectric constant tensor:
#      x y z
#    x 2.656970 0.000000 0.000000 
#    y 0.000000 2.923610 0.000000 
#    z 0.000000 0.000000 3.021870 
# 
# 
# High freq. dielectric constant tensor:
#      x y z
#    x 1.552890 0.000000 0.000000 
#    y 0.000000 1.574160 0.000000 
#    z 0.000000 0.000000 1.582000 
# 
# From -- ./inp_files/16180.got.cif
#   From: 2010.03.12/outbox.cif.g09.slc.cpg/sg35_9_cif.got.tgz:16180.got - 2010.04.14 02:02:04.
