data_PCOD8174447
_publ_section_title
;
Structure prediction by ZEFSAII (Michael W. Deem and Ramdas Pophale) SiO2 
 PCOD8174447
Probable space group: C M C 21
;
_chemical_formula_sum "Si O2"
_cell_formula_units_Z 64
_cell_length_a 22.935012
_cell_length_b 15.038372
_cell_length_c 9.090055
_cell_angle_alpha 90.000000
_cell_angle_beta 90.000000
_cell_angle_gamma 90.000000
_cell_volume 3135.207622
_symmetry_space_group_name_H-M "C M C 21"
_symmetry_group_IT_number 36
_symmetry_cell_setting 'orthorhombic'
loop_
_space_group_symop_operation_xyz
x,y,z
-x,-y,1/2+z
x,-y,1/2+z
-x,y,z
1/2+x,1/2+y,z
1/2-x,1/2-y,1/2+z
1/2+x,1/2-y,1/2+z
1/2-x,1/2+y,z
loop_
_atom_site_type_symbol
_atom_site_label
_atom_site_fract_x
_atom_site_fract_y
_atom_site_fract_z
Si Si1 0.747094 0.282911 0.558620
Si Si2 0.268518 0.366894 0.862806
Si Si3 0.644995 0.934060 0.832011
Si Si4 0.567789 0.758197 0.324781
Si Si5 0.391212 0.431932 0.790045
Si Si6 0.857385 0.390313 0.498820
Si Si7 0.566007 0.587414 0.976836
Si Si8 0.618315 0.763037 0.005067
O O1 0.741369 0.293298 0.734076
O O2 0.775436 0.187246 0.516038
O O3 0.789329 0.359876 0.492471
O O4 0.682480 0.281126 0.489391
O O5 0.213729 0.431978 0.866017
O O6 0.324178 0.428245 0.838058
O O7 0.628229 0.924164 0.662207
O O8 0.612447 0.855379 0.919289
O O9 0.626116 0.030992 0.886708
O O10 0.500000 0.785126 0.317225
O O11 0.573511 0.652547 0.353795
O O12 0.599850 0.809150 0.457425
O O13 0.600905 0.781982 0.173580
O O14 0.392137 0.434049 0.613824
O O15 0.419827 0.522911 0.843079
O O16 0.500000 0.574607 0.028943
O O17 0.575487 0.690406 0.930472
#
# Coordination Sequence:
#
# PCOD8174447 Si02
#       8
#     8   8   8   8   8   8   8   8
#     4  10  18  37  60  90 125 158 204 255 310 376
#     4  10  20  36  60  94 122 164 198 254 317 376
#     4  10  24  37  63  90 131 159 202 260 319 376
#     4  11  22  42  68  89 123 170 213 257 310 370
#     4  11  22  40  60  93 125 165 211 253 312 371
#     4  11  22  40  60  93 126 163 206 257 316 371
#     4  11  23  40  62  88 127 169 212 257 304 367
#     4  10  20  40  63  91 121 166 211 259 316 365
#
# _framework density 20.413321
#
# number of rings (size 3 to 8) (size 9 to 14) (size 15 to 20)
#    0.000    1.500    3.750    3.000    1.750    2.000 
#    2.250    5.625    0.000    0.000    0.000    0.000 
#    0.000    0.000    0.000    0.000    0.000    0.000 
#
# Total GULP energy -396748.669133 kJ/mol
# GULP energy per Si atom -12398.395910 kJ/mol
# Density = 2.036686 g / cm^3
# Si number density = 20.413321 Si / 1000 Ang^3
#
#
#
# Elastic Constant Matrix: (Units=GPa)
#
#
# Indices 1 2 3 4 5 6 
#
# 1 84.9926 22.5391 23.7913 0.0000 0.0000 0.0000
# 2 22.5391 78.6515 29.1632 0.0000 0.0000 0.0000
# 3 23.7913 29.1632 58.2518 0.0000 0.0000 0.0000
# 4 0.0000 0.0000 0.0000 38.0921 0.0000 0.0000
# 5 0.0000 0.0000 0.0000 0.0000 25.1331 0.0000
# 6 0.0000 0.0000 0.0000 0.0000 0.0000 25.9118
#
#
#
# Elastic Compliance Matrix: (Units=1/GPa)
#
#
# Indices 1 2 3 4 5 6 
#
# 1 0.013603 -0.002257 -0.004426 0.000000 0.000000 0.000000
# 2 -0.002257 0.015987 -0.007082 0.000000 0.000000 0.000000
# 3 -0.004426 -0.007082 0.022520 0.000000 0.000000 0.000000
# 4 0.000000 0.000000 0.000000 0.026252 0.000000 0.000000
# 5 0.000000 0.000000 0.000000 0.000000 0.039788 0.000000
# 6 0.000000 0.000000 0.000000 0.000000 0.000000 0.038592
#
#
# Mechanical properties :
#
#
# Convention : Reuss Voigt Hill
#
# Bulk Modulus (GPa) = 40.68281 41.43147 41.05714
# Shear Modulus (GPa) = 25.97861 27.58756 26.78308
#
# Velocity S-wave (km/s) = 3.57126 3.68019 3.62614
# Velocity P-wave (km/s) = 6.08096 6.19668 6.13909
#
# Compressibility (1/GPa) = 0.02458041
#
# Stress axis : x y z
#
# Youngs Moduli (GPa) = 73.51211 62.55063 44.40518
#
# Poissons Ratio (x) = 0.14119 0.19653
# Poissons Ratio (y) = 0.16593 0.31447
# Poissons Ratio (z) = 0.32535 0.44297
#
# Static dielectric constant tensor:
#      x y z
#    x 3.715160 0.000000 0.000000 
#    y 0.000000 3.650270 0.000000 
#    z 0.000000 0.000000 3.602700 
# 
# 
# High freq. dielectric constant tensor:
#      x y z
#    x 1.793010 0.000000 0.000000 
#    y 0.000000 1.794380 0.000000 
#    z 0.000000 0.000000 1.786720 
# 
# From -- ./inp_files/5661.got.cif
#   From: 2010.03.12/outbox.cif.g09.slc.cpg/sg36_3_cif.got.tgz:5661.got - 2010.04.14 02:13:53.
