data_PCOD8174397
_publ_section_title
;
Structure prediction by ZEFSAII (Michael W. Deem and Ramdas Pophale) SiO2 
 PCOD8174397
Probable space group: C M C 21
;
_chemical_formula_sum "Si O2"
_cell_formula_units_Z 64
_cell_length_a 9.154276
_cell_length_b 15.369602
_cell_length_c 23.910429
_cell_angle_alpha 90.000000
_cell_angle_beta 90.000000
_cell_angle_gamma 90.000000
_cell_volume 3364.139466
_symmetry_space_group_name_H-M "C M C 21"
_symmetry_group_IT_number 36
_symmetry_cell_setting 'orthorhombic'
loop_
_space_group_symop_operation_xyz
x,y,z
-x,-y,1/2+z
x,-y,1/2+z
-x,y,z
1/2+x,1/2+y,z
1/2-x,1/2-y,1/2+z
1/2+x,1/2-y,1/2+z
1/2-x,1/2+y,z
loop_
_atom_site_type_symbol
_atom_site_label
_atom_site_fract_x
_atom_site_fract_y
_atom_site_fract_z
Si Si1 0.169881 0.644350 0.204640
Si Si2 0.827946 0.392064 0.320566
Si Si3 0.672992 0.245806 0.521373
Si Si4 0.328645 0.087330 0.323526
Si Si5 0.166942 0.901434 0.086768
Si Si6 0.831610 0.152992 0.709644
Si Si7 0.668695 0.595667 0.096070
Si Si8 0.173734 0.748181 0.394414
O O1 0.238285 0.608412 0.262520
O O2 0.201528 0.746101 0.201016
O O3 0.248537 0.595875 0.154420
O O4 0.000000 0.622696 0.199490
O O5 0.790865 0.489429 0.342313
O O6 0.773065 0.384795 0.257123
O O7 0.744809 0.326664 0.360738
O O8 0.000000 0.373265 0.322063
O O9 0.500000 0.240468 0.522691
O O10 0.732236 0.158209 0.548776
O O11 0.731152 0.330734 0.554294
O O12 0.729310 0.252524 0.457941
O O13 0.500000 0.101286 0.317900
O O14 0.269788 0.156434 0.369001
O O15 0.208815 0.894630 0.152024
O O16 0.000000 0.871263 0.078372
O O17 0.190499 0.001225 0.067699
O O18 0.000000 0.137712 0.727078
O O19 0.500000 0.613717 0.108914
O O20 0.000000 0.757990 0.389777
#
# Coordination Sequence:
#
# PCOD8174397 Si02
#       8
#     8   8   8   8   8   8   8   8
#     4  10  18  33  58  82 106 147 187 216 264 334
#     4  11  22  35  56  86 111 136 177 232 279 316
#     4  10  22  38  58  81 107 146 191 231 274 322
#     4   9  19  36  56  78 108 142 179 223 270 325
#     4  10  21  37  57  81 114 149 180 223 279 331
#     4  10  19  34  57  82 110 149 182 211 271 342
#     4  10  21  36  54  83 117 143 175 230 284 323
#     4  10  21  41  60  75 107 152 189 224 273 335
#
# _framework density 19.024182
#
# number of rings (size 3 to 8) (size 9 to 14) (size 15 to 20)
#    0.000    2.000    2.500    1.125    0.000    3.000 
#    0.000    1.875    0.000    0.000    0.000    0.000 
#    0.000    0.000    0.000    0.000    0.000    0.000 
#
# Total GULP energy -396850.609542 kJ/mol
# GULP energy per Si atom -12401.581548 kJ/mol
# Density = 1.898088 g / cm^3
# Si number density = 19.024182 Si / 1000 Ang^3
#
#
#
# Elastic Constant Matrix: (Units=GPa)
#
#
# Indices 1 2 3 4 5 6 
#
# 1 31.2669 29.8177 26.2879 0.0000 0.0000 0.0000
# 2 29.8177 120.8915 56.5572 0.0000 0.0000 0.0000
# 3 26.2879 56.5572 120.2325 0.0000 0.0000 0.0000
# 4 0.0000 0.0000 0.0000 11.9051 0.0000 0.0000
# 5 0.0000 0.0000 0.0000 0.0000 28.1845 0.0000
# 6 0.0000 0.0000 0.0000 0.0000 0.0000 23.3053
#
#
#
# Elastic Compliance Matrix: (Units=1/GPa)
#
#
# Indices 1 2 3 4 5 6 
#
# 1 0.044865 -0.008304 -0.005903 0.000000 0.000000 0.000000
# 2 -0.008304 0.012143 -0.003896 0.000000 0.000000 0.000000
# 3 -0.005903 -0.003896 0.011441 0.000000 0.000000 0.000000
# 4 0.000000 0.000000 0.000000 0.083998 0.000000 0.000000
# 5 0.000000 0.000000 0.000000 0.000000 0.035480 0.000000
# 6 0.000000 0.000000 0.000000 0.000000 0.000000 0.042909
#
#
# Mechanical properties :
#
#
# Convention : Reuss Voigt Hill
#
# Bulk Modulus (GPa) = 31.01600 55.30184 43.15892
# Shear Modulus (GPa) = 17.99919 23.32753 20.66336
#
# Velocity S-wave (km/s) = 3.07925 3.50552 3.29927
# Velocity P-wave (km/s) = 5.38342 6.74665 6.10321
#
# Compressibility (1/GPa) = 0.03224142
#
# Stress axis : x y z
#
# Youngs Moduli (GPa) = 22.28896 82.35210 87.40695
#
# Poissons Ratio (x) = 0.68387 0.51597
# Poissons Ratio (y) = 0.18509 0.34057
# Poissons Ratio (z) = 0.13157 0.32087
#
# Static dielectric constant tensor:
#      x y z
#    x 3.263270 0.000000 0.000000 
#    y 0.000000 3.627000 0.000000 
#    z 0.000000 0.000000 3.575010 
# 
# 
# High freq. dielectric constant tensor:
#      x y z
#    x 1.718180 0.000000 0.000000 
#    y 0.000000 1.754870 0.000000 
#    z 0.000000 0.000000 1.737200 
# 
# From -- ./inp_files/16581.got.cif
#   From: 2010.03.12/outbox.cif.g09.slc.cpg/sg36_9_cif.got.tgz:16581.got - 2010.04.14 02:13:53.
