data_PCOD8174520
_publ_section_title
;
Structure prediction by ZEFSAII (Michael W. Deem and Ramdas Pophale) SiO2 
 PCOD8174520
Probable space group: C M C 21
;
_chemical_formula_sum "Si O2"
_cell_formula_units_Z 64
_cell_length_a 14.300641
_cell_length_b 17.209847
_cell_length_c 14.085931
_cell_angle_alpha 90.000000
_cell_angle_beta 90.000000
_cell_angle_gamma 90.000000
_cell_volume 3466.714447
_symmetry_space_group_name_H-M "C M C 21"
_symmetry_group_IT_number 36
_symmetry_cell_setting 'orthorhombic'
loop_
_space_group_symop_operation_xyz
x,y,z
-x,-y,1/2+z
x,-y,1/2+z
-x,y,z
1/2+x,1/2+y,z
1/2-x,1/2-y,1/2+z
1/2+x,1/2-y,1/2+z
1/2-x,1/2+y,z
loop_
_atom_site_type_symbol
_atom_site_label
_atom_site_fract_x
_atom_site_fract_y
_atom_site_fract_z
Si Si1 0.893721 0.557646 0.070130
Si Si2 0.250000 0.688761 0.469517
Si Si3 0.250000 0.782101 0.759974
Si Si4 0.750000 0.962728 0.722741
Si Si5 0.393721 0.557646 0.070130
Si Si6 0.106471 0.760801 0.607047
Si Si7 0.893529 0.260802 0.607047
Si Si8 0.750000 0.506821 0.431073
O O1 0.841924 0.518243 0.160153
O O2 0.886485 0.650110 0.075716
O O3 0.000000 0.528263 0.069435
O O4 0.843433 0.531194 0.973786
O O5 0.250000 0.738370 0.371360
O O6 0.156505 0.709774 0.526823
O O7 0.343495 0.709775 0.526823
O O8 0.250000 0.597901 0.450824
O O9 0.250000 0.873894 0.751456
O O10 0.157636 0.748139 0.708231
O O11 0.342364 0.748139 0.708231
O O12 0.841924 0.981757 0.660153
O O13 0.750000 0.013102 0.818779
O O14 0.500000 0.528263 0.069435
O O15 0.386485 0.650110 0.075716
O O16 0.343433 0.531194 0.973786
O O17 0.000000 0.732748 0.617303
O O18 0.000000 0.232748 0.617302
#
# Coordination Sequence:
#
# PCOD8174520 Si02
#       8
#     8   8   8   8   8   8   8   8
#     4   9  18  34  53  70  93 128 165 196 230 281
#     4  10  19  31  50  75 100 123 153 200 246 280
#     4   8  16  31  50  71  94 125 163 196 230 278
#     4   8  16  31  50  71  94 125 163 196 230 278
#     4   9  18  34  53  70  93 128 165 196 230 281
#     4   9  18  34  53  70  93 128 165 196 230 281
#     4   9  18  34  53  70  93 128 165 196 230 281
#     4  10  19  31  50  75 100 123 153 200 246 280
#
# _framework density 18.461283000000002
#
# number of rings (size 3 to 8) (size 9 to 14) (size 15 to 20)
#    0.000    3.000    0.000    2.250    0.000    3.000 
#    0.000   15.000    0.000    0.000    0.000    0.000 
#    0.000    0.000    0.000    0.000    0.000    0.000 
#
# Total GULP energy -396712.317118 kJ/mol
# GULP energy per Si atom -12397.259910 kJ/mol
# Density = 1.841926 g / cm^3
# Si number density = 18.461283 Si / 1000 Ang^3
#
#
#
# Elastic Constant Matrix: (Units=GPa)
#
#
# Indices 1 2 3 4 5 6 
#
# 1 156.2633 6.3332 17.5302 0.0000 0.0000 0.0000
# 2 6.3332 14.4751 -14.1300 0.0000 0.0000 0.0000
# 3 17.5302 -14.1300 44.9761 0.0000 0.0000 0.0000
# 4 0.0000 0.0000 0.0000 25.7950 0.0000 0.0000
# 5 0.0000 0.0000 0.0000 0.0000 13.1657 0.0000
# 6 0.0000 0.0000 0.0000 0.0000 0.0000 17.6328
#
#
#
# Elastic Compliance Matrix: (Units=1/GPa)
#
#
# Indices 1 2 3 4 5 6 
#
# 1 0.007382 -0.008710 -0.005614 0.000000 0.000000 0.000000
# 2 -0.008710 0.109918 0.037927 0.000000 0.000000 0.000000
# 3 -0.005614 0.037927 0.036337 0.000000 0.000000 0.000000
# 4 0.000000 0.000000 0.000000 0.038767 0.000000 0.000000
# 5 0.000000 0.000000 0.000000 0.000000 0.075955 0.000000
# 6 0.000000 0.000000 0.000000 0.000000 0.000000 0.056712
#
#
# Mechanical properties :
#
#
# Convention : Reuss Voigt Hill
#
# Bulk Modulus (GPa) = 4.97895 26.13127 15.55511
# Shear Modulus (GPa) = 14.50063 25.05078 19.77570
#
# Velocity S-wave (km/s) = 2.80565 3.68766 3.27647
# Velocity P-wave (km/s) = 3.63296 5.68481 4.77051
#
# Compressibility (1/GPa) = 0.20084546
#
# Stress axis : x y z
#
# Youngs Moduli (GPa) = 135.46081 9.09769 27.51982
#
# Poissons Ratio (x) = 0.07924 0.15449
# Poissons Ratio (y) = 1.17982 -1.04375
# Poissons Ratio (z) = 0.76043 -0.34505
#
# Static dielectric constant tensor:
#      x y z
#    x 3.560660 0.000000 0.000000 
#    y 0.000000 3.085470 0.000000 
#    z 0.000000 0.000000 3.703990 
# 
# 
# High freq. dielectric constant tensor:
#      x y z
#    x 1.719130 0.000000 0.000000 
#    y 0.000000 1.690860 0.000000 
#    z 0.000000 0.000000 1.718790 
# 
# From -- ./inp_files/12356.got.cif
#   From: 2010.03.12/outbox.cif.g09.slc.cpg/sg36_7_cif.got.tgz:12356.got - 2010.04.14 02:13:53.
