data_PCOD8174630
_publ_section_title
;
Structure prediction by ZEFSAII (Michael W. Deem and Ramdas Pophale) SiO2 
 PCOD8174630
Probable space group: C M C 21
;
_chemical_formula_sum "Si O2"
_cell_formula_units_Z 64
_cell_length_a 9.145906
_cell_length_b 24.293334
_cell_length_c 14.454335
_cell_angle_alpha 90.000000
_cell_angle_beta 90.000000
_cell_angle_gamma 90.000000
_cell_volume 3211.529906
_symmetry_space_group_name_H-M "C M C 21"
_symmetry_group_IT_number 36
_symmetry_cell_setting 'orthorhombic'
loop_
_space_group_symop_operation_xyz
x,y,z
-x,-y,1/2+z
x,-y,1/2+z
-x,y,z
1/2+x,1/2+y,z
1/2-x,1/2-y,1/2+z
1/2+x,1/2-y,1/2+z
1/2-x,1/2+y,z
loop_
_atom_site_type_symbol
_atom_site_label
_atom_site_fract_x
_atom_site_fract_y
_atom_site_fract_z
Si Si1 0.164140 0.516142 0.504390
Si Si2 0.671827 0.191337 0.917484
Si Si3 0.334955 0.591549 0.999398
Si Si4 0.835418 0.858220 0.695632
Si Si5 0.329965 0.332900 0.242520
Si Si6 0.664986 0.056578 0.306577
Si Si7 0.170403 0.445329 0.206151
Si Si8 0.668464 0.760488 0.608120
O O1 0.282550 0.469943 0.482915
O O2 0.171021 0.557068 0.417647
O O3 0.205180 0.548384 0.597555
O O4 0.000000 0.490974 0.514309
O O5 0.500000 0.191731 0.897959
O O6 0.757327 0.205180 0.822891
O O7 0.722628 0.130664 0.946784
O O8 0.715520 0.234092 0.999967
O O9 0.500000 0.599402 0.961132
O O10 0.329619 0.601875 0.108140
O O11 0.758719 0.890690 0.778377
O O12 0.758388 0.800840 0.673940
O O13 0.000000 0.844595 0.726136
O O14 0.500000 0.339425 0.264514
O O15 0.258864 0.392919 0.242199
O O16 0.305008 0.301567 0.144574
O O17 0.500000 0.064892 0.270117
O O18 0.724126 0.999273 0.262428
O O19 0.000000 0.434194 0.225111
O O20 0.500000 0.778083 0.617268
#
# Coordination Sequence:
#
# PCOD8174630 Si02
#       8
#     8   8   8   8   8   8   8   8
#     4  10  20  34  54  82 114 154 198 231 278 348
#     4  10  20  37  62  87 113 152 198 239 288 350
#     4  10  19  32  54  84 115 146 188 241 289 332
#     4  10  20  34  56  84 111 141 185 237 287 336
#     4  11  23  40  61  87 118 152 194 245 295 344
#     4  10  20  35  56  81 114 152 191 232 281 343
#     4  10  21  37  57  84 118 158 197 235 285 347
#     4   9  21  41  62  83 113 153 193 236 291 348
#
# _framework density 19.928197000000001
#
# number of rings (size 3 to 8) (size 9 to 14) (size 15 to 20)
#    0.000    2.000    1.250    2.250    0.000    5.000 
#    2.250    0.000    0.000    0.000    0.000    0.000 
#    0.000    0.000    0.000    0.000    0.000    0.000 
#
# Total GULP energy -396801.034400 kJ/mol
# GULP energy per Si atom -12400.032325 kJ/mol
# Density = 1.988284 g / cm^3
# Si number density = 19.928197 Si / 1000 Ang^3
#
#
#
# Elastic Constant Matrix: (Units=GPa)
#
#
# Indices 1 2 3 4 5 6 
#
# 1 73.7787 18.6925 25.0725 0.0000 0.0000 0.0000
# 2 18.6925 42.4876 14.8848 0.0000 0.0000 0.0000
# 3 25.0725 14.8848 104.3973 0.0000 0.0000 0.0000
# 4 0.0000 0.0000 0.0000 25.4468 0.0000 0.0000
# 5 0.0000 0.0000 0.0000 0.0000 26.3963 0.0000
# 6 0.0000 0.0000 0.0000 0.0000 0.0000 27.1191
#
#
#
# Elastic Compliance Matrix: (Units=1/GPa)
#
#
# Indices 1 2 3 4 5 6 
#
# 1 0.016104 -0.006031 -0.003008 0.000000 0.000000 0.000000
# 2 -0.006031 0.027033 -0.002406 0.000000 0.000000 0.000000
# 3 -0.003008 -0.002406 0.010644 0.000000 0.000000 0.000000
# 4 0.000000 0.000000 0.000000 0.039298 0.000000 0.000000
# 5 0.000000 0.000000 0.000000 0.000000 0.037884 0.000000
# 6 0.000000 0.000000 0.000000 0.000000 0.000000 0.036874
#
#
# Mechanical properties :
#
#
# Convention : Reuss Voigt Hill
#
# Bulk Modulus (GPa) = 32.37156 37.55147 34.96151
# Shear Modulus (GPa) = 24.87265 26.59337 25.73301
#
# Velocity S-wave (km/s) = 3.53670 3.65699 3.59735
# Velocity P-wave (km/s) = 5.74082 6.05935 5.90223
#
# Compressibility (1/GPa) = 0.03089132
#
# Stress axis : x y z
#
# Youngs Moduli (GPa) = 62.09523 36.99229 93.94832
#
# Poissons Ratio (x) = 0.22312 0.28257
# Poissons Ratio (y) = 0.37452 0.22601
# Poissons Ratio (z) = 0.18677 0.08899
#
# Static dielectric constant tensor:
#      x y z
#    x 3.655750 0.000000 0.000000 
#    y 0.000000 3.262710 0.000000 
#    z 0.000000 0.000000 3.827230 
# 
# 
# High freq. dielectric constant tensor:
#      x y z
#    x 1.778690 0.000000 0.000000 
#    y 0.000000 1.751720 0.000000 
#    z 0.000000 0.000000 1.785360 
# 
# From -- ./inp_files/10941.got.cif
#   From: 2010.03.12/outbox.cif.g09.slc.cpg/sg36_6_cif.got.tgz:10941.got - 2010.04.14 02:13:53.
