data_PCOD8174317
_publ_section_title
;
Structure prediction by ZEFSAII (Michael W. Deem and Ramdas Pophale) SiO2 
 PCOD8174317
Probable space group: C M C 21
;
_chemical_formula_sum "Si O2"
_cell_formula_units_Z 64
_cell_length_a 8.853943
_cell_length_b 22.528727
_cell_length_c 16.583042
_cell_angle_alpha 90.000000
_cell_angle_beta 90.000000
_cell_angle_gamma 90.000000
_cell_volume 3307.787295
_symmetry_space_group_name_H-M "C M C 21"
_symmetry_group_IT_number 36
_symmetry_cell_setting 'orthorhombic'
loop_
_space_group_symop_operation_xyz
x,y,z
-x,-y,1/2+z
x,-y,1/2+z
-x,y,z
1/2+x,1/2+y,z
1/2-x,1/2-y,1/2+z
1/2+x,1/2-y,1/2+z
1/2-x,1/2+y,z
loop_
_atom_site_type_symbol
_atom_site_label
_atom_site_fract_x
_atom_site_fract_y
_atom_site_fract_z
Si Si1 0.172518 0.352999 0.245190
Si Si2 0.832734 0.103734 0.515021
Si Si3 0.679003 0.659017 0.069198
Si Si4 0.826100 0.026495 0.366309
Si Si5 0.674417 0.430097 0.699125
Si Si6 0.327971 0.280687 0.106231
Si Si7 0.332092 0.035990 0.640810
Si Si8 0.179212 0.402286 0.413138
O O1 0.274846 0.309049 0.191661
O O2 0.190006 0.420856 0.216659
O O3 0.222489 0.357661 0.338973
O O4 0.000000 0.330983 0.236185
O O5 0.815434 0.084595 0.422811
O O6 0.814932 0.173824 0.531148
O O7 0.695684 0.072549 0.560306
O O8 0.000000 0.084563 0.547099
O O9 0.500000 0.652611 0.058045
O O10 0.734387 0.628386 0.153227
O O11 0.724145 0.727030 0.077695
O O12 0.756358 0.627153 0.993624
O O13 0.748113 0.052007 0.284319
O O14 0.000000 0.007453 0.352373
O O15 0.742246 0.968926 0.401484
O O16 0.500000 0.421823 0.716045
O O17 0.708375 0.484494 0.639644
O O18 0.500000 0.259474 0.118386
O O19 0.500000 0.008800 0.639142
O O20 0.000000 0.407743 0.420141
#
# Coordination Sequence:
#
# PCOD8174317 Si02
#       8
#     8   8   8   8   8   8   8   8
#     4   9  19  36  58  84 114 149 187 233 288 345
#     4   9  19  35  56  82 110 144 186 232 282 343
#     4  11  24  41  58  82 118 159 201 242 291 347
#     4  10  20  36  58  85 116 148 187 232 287 351
#     4  10  21  36  55  79 113 154 189 228 283 347
#     4  10  21  39  61  84 112 149 198 244 288 345
#     4  10  18  31  54  83 113 144 180 226 284 338
#     4  11  22  38  60  89 120 151 192 241 295 348
#
# _framework density 19.348282000000001
#
# number of rings (size 3 to 8) (size 9 to 14) (size 15 to 20)
#    0.000    2.000    1.250    2.250    0.000    6.500 
#    2.250    0.000    0.000    0.000    0.000    0.000 
#    0.000    0.000    0.000    0.000    0.000    0.000 
#
# Total GULP energy -396556.515169 kJ/mol
# GULP energy per Si atom -12392.391099 kJ/mol
# Density = 1.930424 g / cm^3
# Si number density = 19.348282 Si / 1000 Ang^3
#
#
#
# Elastic Constant Matrix: (Units=GPa)
#
#
# Indices 1 2 3 4 5 6 
#
# 1 56.0138 33.9939 44.2313 0.0000 0.0000 0.0000
# 2 33.9939 107.5964 67.1992 0.0000 0.0000 0.0000
# 3 44.2313 67.1992 106.4847 0.0000 0.0000 0.0000
# 4 0.0000 0.0000 0.0000 26.3776 0.0000 0.0000
# 5 0.0000 0.0000 0.0000 0.0000 25.3588 0.0000
# 6 0.0000 0.0000 0.0000 0.0000 0.0000 30.2002
#
#
#
# Elastic Compliance Matrix: (Units=1/GPa)
#
#
# Indices 1 2 3 4 5 6 
#
# 1 0.026973 -0.002516 -0.009616 0.000000 0.000000 0.000000
# 2 -0.002516 0.015575 -0.008784 0.000000 0.000000 0.000000
# 3 -0.009616 -0.008784 0.018928 0.000000 0.000000 0.000000
# 4 0.000000 0.000000 0.000000 0.037911 0.000000 0.000000
# 5 0.000000 0.000000 0.000000 0.000000 0.039434 0.000000
# 6 0.000000 0.000000 0.000000 0.000000 0.000000 0.033112
#
#
# Mechanical properties :
#
#
# Convention : Reuss Voigt Hill
#
# Bulk Modulus (GPa) = 50.90478 62.32706 56.61592
# Shear Modulus (GPa) = 22.69492 24.69868 23.69680
#
# Velocity S-wave (km/s) = 3.42858 3.57673 3.50344
# Velocity P-wave (km/s) = 6.48385 7.02428 6.75947
#
# Compressibility (1/GPa) = 0.01964452
#
# Stress axis : x y z
#
# Youngs Moduli (GPa) = 37.07393 64.20674 52.83058
#
# Poissons Ratio (x) = 0.16155 0.50803
# Poissons Ratio (y) = 0.09328 0.46404
# Poissons Ratio (z) = 0.35651 0.56397
#
# Static dielectric constant tensor:
#      x y z
#    x 3.546660 0.000000 0.000000 
#    y 0.000000 3.409020 0.000000 
#    z 0.000000 0.000000 3.738110 
# 
# 
# High freq. dielectric constant tensor:
#      x y z
#    x 1.751710 0.000000 0.000000 
#    y 0.000000 1.739590 0.000000 
#    z 0.000000 0.000000 1.756750 
# 
# From -- ./inp_files/10885.got.cif
#   From: 2010.03.12/outbox.cif.g09.slc.cpg/sg36_6_cif.got.tgz:10885.got - 2010.04.14 02:13:53.
