data_PCOD8174252
_publ_section_title
;
Structure prediction by ZEFSAII (Michael W. Deem and Ramdas Pophale) SiO2 
 PCOD8174252
Probable space group: C M C 21
;
_chemical_formula_sum "Si O2"
_cell_formula_units_Z 64
_cell_length_a 8.929031
_cell_length_b 20.787824
_cell_length_c 18.595841
_cell_angle_alpha 90.000000
_cell_angle_beta 90.000000
_cell_angle_gamma 90.000000
_cell_volume 3451.669350
_symmetry_space_group_name_H-M "C M C 21"
_symmetry_group_IT_number 36
_symmetry_cell_setting 'orthorhombic'
loop_
_space_group_symop_operation_xyz
x,y,z
-x,-y,1/2+z
x,-y,1/2+z
-x,y,z
1/2+x,1/2+y,z
1/2-x,1/2-y,1/2+z
1/2+x,1/2-y,1/2+z
1/2-x,1/2+y,z
loop_
_atom_site_type_symbol
_atom_site_label
_atom_site_fract_x
_atom_site_fract_y
_atom_site_fract_z
Si Si1 0.829306 0.753150 0.089480
Si Si2 0.827485 0.386320 0.595913
Si Si3 0.175366 0.258608 0.941555
Si Si4 0.174792 0.111816 0.444061
Si Si5 0.176082 0.629908 0.934365
Si Si6 0.830423 0.891037 0.112755
Si Si7 0.677182 0.001938 0.193889
Si Si8 0.323645 0.999674 0.355971
O O1 0.806151 0.685253 0.131063
O O2 0.807408 0.816467 0.138814
O O3 0.000000 0.755118 0.057135
O O4 0.709894 0.754976 0.025930
O O5 0.762899 0.387391 0.514692
O O6 0.750180 0.439701 0.646982
O O7 0.000000 0.405688 0.591514
O O8 0.248339 0.324215 0.910874
O O9 0.243944 0.194485 0.904612
O O10 0.000000 0.260822 0.926630
O O11 0.210101 0.104930 0.528620
O O12 0.000000 0.116828 0.428947
O O13 0.239613 0.049518 0.406067
O O14 0.217332 0.572080 0.881404
O O15 0.000000 0.643542 0.937422
O O16 0.000000 0.913957 0.126407
O O17 0.720508 0.934241 0.159090
O O18 0.500000 0.005806 0.196222
O O19 0.737803 0.007099 0.274961
O O20 0.500000 0.012437 0.362329
#
# Coordination Sequence:
#
# PCOD8174252 Si02
#       8
#     8   8   8   8   8   8   8   8
#     4   8  15  30  50  72  98 129 165 204 251 303
#     4   8  14  28  51  72  92 126 167 202 243 295
#     4  10  18  29  50  79 104 125 161 214 260 302
#     4  10  20  35  55  77 103 135 170 210 257 308
#     4   9  17  32  52  72 100 137 170 204 252 304
#     4   9  18  32  51  74  98 128 167 207 249 302
#     4  10  20  33  50  74 104 136 169 207 251 300
#     4  10  21  35  51  74 105 140 177 214 253 302
#
# _framework density 18.541751999999999
#
# number of rings (size 3 to 8) (size 9 to 14) (size 15 to 20)
#    0.000    2.750    0.000    3.750    0.000    4.500 
#    0.000    5.000    0.000    1.500    0.000    0.000 
#    0.000    0.000    0.000    0.000    0.000    0.000 
#
# Total GULP energy -396592.380760 kJ/mol
# GULP energy per Si atom -12393.511899 kJ/mol
# Density = 1.849955 g / cm^3
# Si number density = 18.541752 Si / 1000 Ang^3
#
#
#
# Elastic Constant Matrix: (Units=GPa)
#
#
# Indices 1 2 3 4 5 6 
#
# 1 59.2356 41.8600 19.8136 0.0000 0.0000 0.0000
# 2 41.8600 116.7283 29.0174 0.0000 0.0000 0.0000
# 3 19.8136 29.0174 51.3676 0.0000 0.0000 0.0000
# 4 0.0000 0.0000 0.0000 5.9334 0.0000 0.0000
# 5 0.0000 0.0000 0.0000 0.0000 16.3690 0.0000
# 6 0.0000 0.0000 0.0000 0.0000 0.0000 30.9632
#
#
#
# Elastic Compliance Matrix: (Units=1/GPa)
#
#
# Indices 1 2 3 4 5 6 
#
# 1 0.023686 -0.007239 -0.005047 0.000000 0.000000 0.000000
# 2 -0.007239 0.012179 -0.004088 0.000000 0.000000 0.000000
# 3 -0.005047 -0.004088 0.023723 0.000000 0.000000 0.000000
# 4 0.000000 0.000000 0.000000 0.168537 0.000000 0.000000
# 5 0.000000 0.000000 0.000000 0.000000 0.061091 0.000000
# 6 0.000000 0.000000 0.000000 0.000000 0.000000 0.032296
#
#
# Mechanical properties :
#
#
# Convention : Reuss Voigt Hill
#
# Bulk Modulus (GPa) = 37.25659 45.41263 41.33461
# Shear Modulus (GPa) = 13.76628 19.76249 16.76438
#
# Velocity S-wave (km/s) = 2.72775 3.26826 3.01016
# Velocity P-wave (km/s) = 5.48250 6.22794 5.86707
#
# Compressibility (1/GPa) = 0.02684089
#
# Stress axis : x y z
#
# Youngs Moduli (GPa) = 42.21972 82.10746 42.15289
#
# Poissons Ratio (x) = 0.59441 0.21273
# Poissons Ratio (y) = 0.30565 0.17230
# Poissons Ratio (z) = 0.21306 0.33562
#
# Static dielectric constant tensor:
#      x y z
#    x 3.154080 0.000000 0.000000 
#    y 0.000000 3.825190 0.000000 
#    z 0.000000 0.000000 3.182180 
# 
# 
# High freq. dielectric constant tensor:
#      x y z
#    x 1.698010 0.000000 0.000000 
#    y 0.000000 1.745160 0.000000 
#    z 0.000000 0.000000 1.675070 
# 
# From -- ./inp_files/15796.got.cif
#   From: 2010.03.12/outbox.cif.g09.slc.cpg/sg36_8_cif.got.tgz:15796.got - 2010.04.14 02:13:53.
