data_PCOD8174034
_publ_section_title
;
Structure prediction by ZEFSAII (Michael W. Deem and Ramdas Pophale) SiO2 
 PCOD8174034
Probable space group: C M M 2
;
_chemical_formula_sum "Si O2"
_cell_formula_units_Z 40
_cell_length_a 9.917204
_cell_length_b 15.319264
_cell_length_c 12.849957
_cell_angle_alpha 90.000000
_cell_angle_beta 90.000000
_cell_angle_gamma 90.000000
_cell_volume 1952.220288
_symmetry_space_group_name_H-M "C M M 2"
_symmetry_group_IT_number 35
_symmetry_cell_setting 'orthorhombic'
loop_
_space_group_symop_operation_xyz
x,y,z
-x,-y,z
-x,y,z
x,-y,z
1/2+x,1/2+y,z
1/2-x,1/2-y,z
1/2-x,1/2+y,z
1/2+x,1/2-y,z
loop_
_atom_site_type_symbol
_atom_site_label
_atom_site_fract_x
_atom_site_fract_y
_atom_site_fract_z
Si Si1 0.000000 0.593724 0.801141
Si Si2 0.500000 0.596769 0.802476
Si Si3 0.655590 0.102142 0.459955
Si Si4 0.500000 0.246461 0.962475
Si Si5 0.252839 0.848977 0.678792
Si Si6 0.841614 0.101567 0.263733
Si Si7 0.750000 0.750000 0.108222
O O1 0.874704 0.597530 0.725237
O O2 0.000000 0.500000 0.859189
O O3 0.000000 0.670523 0.880696
O O4 0.500000 0.500000 0.852058
O O5 0.500000 0.661358 0.901598
O O6 0.378534 0.605836 0.722636
O O7 0.500000 0.135066 0.444589
O O8 0.731839 0.149615 0.554396
O O9 0.747496 0.125247 0.361134
O O10 0.655451 0.000000 0.481829
O O11 0.372966 0.230171 0.033854
O O12 0.250000 0.750000 0.718786
O O13 0.786945 0.163804 0.173204
O O14 0.000000 0.120491 0.287544
O O15 0.822866 0.000000 0.231219
#
# Coordination Sequence:
#
# PCOD8174034 Si02
#       7
#     4   4   8   4   8   8   4
#     4  12  24  46  71  95 134 177 219 272 335 396
#     4  12  26  44  69  99 136 179 225 274 331 394
#     4  10  22  40  67 102 138 178 221 264 323 402
#     4  12  26  46  68 100 132 168 230 288 334 396
#     4  12  23  42  66 101 143 176 218 271 325 397
#     4  10  24  47  71  99 135 175 221 273 335 402
#     4  12  26  46  72  96 136 168 222 292 344 388
#
# _framework density 20.48949
#
# number of rings (size 3 to 8) (size 9 to 14) (size 15 to 20)
#    0.000    0.800    4.000    3.000    4.200    1.600 
#    0.000    0.000    0.000    0.000    0.000    0.000 
#    0.000    0.000    0.000    0.000    0.000    0.000 
#
# Total GULP energy -247973.441712 kJ/mol
# GULP energy per Si atom -12398.672086 kJ/mol
# Density = 2.044286 g / cm^3
# Si number density = 20.489490 Si / 1000 Ang^3
#
#
#
# Elastic Constant Matrix: (Units=GPa)
#
#
# Indices 1 2 3 4 5 6 
#
# 1 156.6008 21.5054 50.0795 0.0000 0.0000 0.0000
# 2 21.5054 109.5329 33.3430 0.0000 0.0000 0.0000
# 3 50.0795 33.3430 102.9664 0.0000 0.0000 0.0000
# 4 0.0000 0.0000 0.0000 568.2336 0.0000 0.0000
# 5 0.0000 0.0000 0.0000 0.0000 111.4325 0.0000
# 6 0.0000 0.0000 0.0000 0.0000 0.0000 13.9451
#
#
#
# Elastic Compliance Matrix: (Units=1/GPa)
#
#
# Indices 1 2 3 4 5 6 
#
# 1 0.007578 -0.000406 -0.003554 0.000000 0.000000 0.000000
# 2 -0.000406 0.010150 -0.003089 0.000000 0.000000 0.000000
# 3 -0.003554 -0.003089 0.012441 0.000000 0.000000 0.000000
# 4 0.000000 0.000000 0.000000 0.001760 0.000000 0.000000
# 5 0.000000 0.000000 0.000000 0.000000 0.008974 0.000000
# 6 0.000000 0.000000 0.000000 0.000000 0.000000 0.071710
#
#
# Mechanical properties :
#
#
# Convention : Reuss Voigt Hill
#
# Bulk Modulus (GPa) = 62.22845 64.32842 63.27844
# Shear Modulus (GPa) = 37.85924 156.33371 97.09647
#
# Velocity S-wave (km/s) = 4.30320 8.74443 6.89139
# Velocity P-wave (km/s) = 7.42475 11.55065 9.70938
#
# Compressibility (1/GPa) = 0.01606982
#
# Stress axis : x y z
#
# Youngs Moduli (GPa) = 131.96048 98.52417 80.37949
#
# Poissons Ratio (x) = 0.03999 0.28569
# Poissons Ratio (y) = 0.05356 0.24832
# Poissons Ratio (z) = 0.46902 0.30437
#
# Static dielectric constant tensor:
#      x y z
#    x 3.872050 0.000000 0.000000 
#    y 0.000000 3.807500 0.000000 
#    z 0.000000 0.000000 3.767680 
# 
# 
# High freq. dielectric constant tensor:
#      x y z
#    x 1.822830 0.000000 0.000000 
#    y 0.000000 1.811750 0.000000 
#    z 0.000000 0.000000 1.799540 
# 
# From -- ./inp_files/14868.got.cif
#   From: 2010.03.12/outbox.cif.g09.slc.cpg/sg35_8_cif.got.tgz:14868.got - 2010.04.14 02:02:04.
