data_PCOD8174199
_publ_section_title
;
Structure prediction by ZEFSAII (Michael W. Deem and Ramdas Pophale) SiO2 
 PCOD8174199
Probable space group: C M C 21
;
_chemical_formula_sum "Si O2"
_cell_formula_units_Z 64
_cell_length_a 9.056025
_cell_length_b 19.368095
_cell_length_c 21.641252
_cell_angle_alpha 90.000000
_cell_angle_beta 90.000000
_cell_angle_gamma 90.000000
_cell_volume 3795.831291
_symmetry_space_group_name_H-M "C M C 21"
_symmetry_group_IT_number 36
_symmetry_cell_setting 'orthorhombic'
loop_
_space_group_symop_operation_xyz
x,y,z
-x,-y,1/2+z
x,-y,1/2+z
-x,y,z
1/2+x,1/2+y,z
1/2-x,1/2-y,1/2+z
1/2+x,1/2-y,1/2+z
1/2-x,1/2+y,z
loop_
_atom_site_type_symbol
_atom_site_label
_atom_site_fract_x
_atom_site_fract_y
_atom_site_fract_z
Si Si1 0.332078 0.499045 0.053210
Si Si2 0.829792 0.846425 0.088142
Si Si3 0.326295 0.525245 0.238475
Si Si4 0.167940 0.399746 0.196453
Si Si5 0.329965 0.202206 0.039556
Si Si6 0.169496 0.401873 0.642480
Si Si7 0.168684 0.897419 0.448717
Si Si8 0.832705 0.435685 0.327370
O O1 0.500000 0.512862 0.076900
O O2 0.296660 0.417334 0.051319
O O3 0.215351 0.537845 0.095486
O O4 0.314176 0.529642 0.984077
O O5 0.733649 0.841528 0.151331
O O6 0.786219 0.782874 0.043692
O O7 0.000000 0.839740 0.107567
O O8 0.500000 0.528851 0.247556
O O9 0.275162 0.466820 0.188190
O O10 0.264534 0.595487 0.206639
O O11 0.250821 0.506242 0.304521
O O12 0.172127 0.380612 0.269841
O O13 0.000000 0.417582 0.177054
O O14 0.500000 0.191524 0.019809
O O15 0.302718 0.170555 0.107947
O O16 0.228602 0.166395 0.988683
O O17 0.000000 0.412340 0.660865
O O18 0.255687 0.900563 0.384892
O O19 0.000000 0.881208 0.433044
O O20 0.000000 0.455390 0.344663
#
# Coordination Sequence:
#
# PCOD8174199 Si02
#       8
#     8   8   8   8   8   8   8   8
#     4   9  17  28  46  69  93 121 158 198 237 282
#     4  10  18  31  50  72  99 131 164 198 242 289
#     4  10  17  27  46  71  95 120 152 195 241 285
#     4   9  18  29  46  73  97 121 154 196 240 284
#     4   9  20  33  47  69 101 137 165 196 241 290
#     4  10  17  28  45  69  98 125 156 192 236 284
#     4  10  19  31  48  72  97 126 163 203 245 288
#     4   9  18  31  48  71  96 123 158 200 244 292
#
# _framework density 16.860603000000001
#
# number of rings (size 3 to 8) (size 9 to 14) (size 15 to 20)
#    0.750    1.750    1.250    2.250    0.000    1.500 
#    0.000    0.000    0.000    1.500    0.000    1.750 
#    0.000    0.000    0.000    0.000    0.000    0.000 
#
# Total GULP energy -396473.613639 kJ/mol
# GULP energy per Si atom -12389.800426 kJ/mol
# Density = 1.682223 g / cm^3
# Si number density = 16.860603 Si / 1000 Ang^3
#
#
#
# Elastic Constant Matrix: (Units=GPa)
#
#
# Indices 1 2 3 4 5 6 
#
# 1 110.3774 28.6891 40.8207 0.0000 0.0000 0.0000
# 2 28.6891 78.2605 23.1900 0.0000 0.0000 0.0000
# 3 40.8207 23.1900 70.0274 0.0000 0.0000 0.0000
# 4 0.0000 0.0000 0.0000 16.5623 0.0000 0.0000
# 5 0.0000 0.0000 0.0000 0.0000 29.2756 0.0000
# 6 0.0000 0.0000 0.0000 0.0000 0.0000 17.6229
#
#
#
# Elastic Compliance Matrix: (Units=1/GPa)
#
#
# Indices 1 2 3 4 5 6 
#
# 1 0.012002 -0.002580 -0.006142 0.000000 0.000000 0.000000
# 2 -0.002580 0.014723 -0.003372 0.000000 0.000000 0.000000
# 3 -0.006142 -0.003372 0.018977 0.000000 0.000000 0.000000
# 4 0.000000 0.000000 0.000000 0.060378 0.000000 0.000000
# 5 0.000000 0.000000 0.000000 0.000000 0.034158 0.000000
# 6 0.000000 0.000000 0.000000 0.000000 0.000000 0.056744
#
#
# Mechanical properties :
#
#
# Convention : Reuss Voigt Hill
#
# Bulk Modulus (GPa) = 46.47967 49.34054 47.91011
# Shear Modulus (GPa) = 21.89715 23.75652 22.82684
#
# Velocity S-wave (km/s) = 3.60768 3.75773 3.68347
# Velocity P-wave (km/s) = 6.70676 6.93936 6.82405
#
# Compressibility (1/GPa) = 0.02151478
#
# Stress axis : x y z
#
# Youngs Moduli (GPa) = 83.32102 67.92271 52.69563
#
# Poissons Ratio (x) = 0.17522 0.32365
# Poissons Ratio (y) = 0.21495 0.17767
# Poissons Ratio (z) = 0.51174 0.22901
#
# Static dielectric constant tensor:
#      x y z
#    x 3.216720 0.000000 0.000000 
#    y 0.000000 2.984530 0.000000 
#    z 0.000000 0.000000 3.023470 
# 
# 
# High freq. dielectric constant tensor:
#      x y z
#    x 1.663750 0.000000 0.000000 
#    y 0.000000 1.611370 0.000000 
#    z 0.000000 0.000000 1.633580 
# 
# From -- ./inp_files/16751.got.cif
#   From: 2010.03.12/outbox.cif.g09.slc.cpg/sg36_9_cif.got.tgz:16751.got - 2010.04.14 02:13:53.
