data_PCOD8174378
_publ_section_title
;
Structure prediction by ZEFSAII (Michael W. Deem and Ramdas Pophale) SiO2 
 PCOD8174378
Probable space group: C M C 21
;
_chemical_formula_sum "Si O2"
_cell_formula_units_Z 56
_cell_length_a 26.616891
_cell_length_b 5.283618
_cell_length_c 21.794915
_cell_angle_alpha 90.000000
_cell_angle_beta 90.000000
_cell_angle_gamma 90.000000
_cell_volume 3065.094838
_symmetry_space_group_name_H-M "C M C 21"
_symmetry_group_IT_number 36
_symmetry_cell_setting 'orthorhombic'
loop_
_space_group_symop_operation_xyz
x,y,z
-x,-y,1/2+z
x,-y,1/2+z
-x,y,z
1/2+x,1/2+y,z
1/2-x,1/2-y,1/2+z
1/2+x,1/2-y,1/2+z
1/2-x,1/2+y,z
loop_
_atom_site_type_symbol
_atom_site_label
_atom_site_fract_x
_atom_site_fract_y
_atom_site_fract_z
Si Si1 0.885400 0.750001 0.088520
Si Si2 0.701644 0.250003 0.290211
Si Si3 0.690244 0.249996 0.840437
Si Si4 0.556006 0.750001 0.088129
Si Si5 0.721984 0.249999 0.148691
Si Si6 0.615326 0.749999 0.443509
Si Si7 0.056206 0.749999 0.442886
O O1 0.915564 0.502091 0.110177
O O2 0.833831 0.750004 0.124263
O O3 0.915564 0.997910 0.110177
O O4 0.874811 0.750001 0.015952
O O5 0.669323 0.501448 0.304482
O O6 0.749120 0.250006 0.337530
O O7 0.722764 0.249999 0.221992
O O8 0.669323 0.998562 0.304483
O O9 0.669497 0.250000 0.909969
O O10 0.500000 0.750002 0.116519
O O11 0.552371 0.750002 0.015548
O O12 0.750001 0.499997 0.123818
O O13 0.584901 0.502586 0.421483
O O14 0.584900 0.997410 0.421483
O O15 0.000000 0.750000 0.414699
#
# Coordination Sequence:
#
# PCOD8174378 Si02
#       7
#     8   8   8   8   8   8   8
#     4  10  21  33  51  84 111 139 173 210 272 321
#     4  10  19  35  53  71  94 125 189 213 242 286
#     4  10  18  33  52  73  97 130 165 226 240 291
#     4   9  17  33  54  77 109 141 174 213 255 318
#     4  12  21  38  55  74 108 139 184 225 252 311
#     4  10  19  32  49  79 110 130 169 207 260 317
#     4   9  17  30  50  74 106 140 166 202 249 312
#
# _framework density 18.270233999999999
#
# number of rings (size 3 to 8) (size 9 to 14) (size 15 to 20)
#    0.000    2.000    2.857    2.571    0.000    3.429 
#    5.143    0.000    0.000    0.000    0.000   20.000 
#    0.000    0.000    0.000    0.000    0.000    0.000 
#
# Total GULP energy -347051.219156 kJ/mol
# GULP energy per Si atom -12394.686398 kJ/mol
# Density = 1.822865 g / cm^3
# Si number density = 18.270234 Si / 1000 Ang^3
#
#
#
# Elastic Constant Matrix: (Units=GPa)
#
#
# Indices 1 2 3 4 5 6 
#
# 1 133.8534 65.2549 41.3228 0.0000 0.0000 0.0000
# 2 65.2549 209.3570 26.5389 0.0000 0.0000 0.0000
# 3 41.3228 26.5389 31.6022 0.0000 0.0000 0.0000
# 4 0.0000 0.0000 0.0000 10.6418 0.0000 0.0000
# 5 0.0000 0.0000 0.0000 0.0000 4.6054 0.0000
# 6 0.0000 0.0000 0.0000 0.0000 0.0000 25.8746
#
#
#
# Elastic Compliance Matrix: (Units=1/GPa)
#
#
# Indices 1 2 3 4 5 6 
#
# 1 0.013364 -0.002183 -0.015641 0.000000 0.000000 0.000000
# 2 -0.002183 0.005702 -0.001935 0.000000 0.000000 0.000000
# 3 -0.015641 -0.001935 0.053720 0.000000 0.000000 0.000000
# 4 0.000000 0.000000 0.000000 0.093969 0.000000 0.000000
# 5 0.000000 0.000000 0.000000 0.000000 0.217138 0.000000
# 6 0.000000 0.000000 0.000000 0.000000 0.000000 0.038648
#
#
# Mechanical properties :
#
#
# Convention : Reuss Voigt Hill
#
# Bulk Modulus (GPa) = 30.05775 71.22732 50.64253
# Shear Modulus (GPa) = 10.56750 24.33740 17.45245
#
# Velocity S-wave (km/s) = 2.40760 3.65373 3.09405
# Velocity P-wave (km/s) = 4.92100 7.54120 6.36734
#
# Compressibility (1/GPa) = 0.03326929
#
# Stress axis : x y z
#
# Youngs Moduli (GPa) = 74.82998 175.37537 18.61487
#
# Poissons Ratio (x) = 0.38277 0.29116
# Poissons Ratio (y) = 0.16332 0.03601
# Poissons Ratio (z) = 1.17044 0.33927
#
# Static dielectric constant tensor:
#      x y z
#    x 3.256060 0.000000 0.000000 
#    y 0.000000 4.566500 0.000000 
#    z 0.000000 0.000000 2.921250 
# 
# 
# High freq. dielectric constant tensor:
#      x y z
#    x 1.690310 0.000000 0.000000 
#    y 0.000000 1.747190 0.000000 
#    z 0.000000 0.000000 1.657650 
# 
# From -- ./inp_files/16329.got.cif
#   From: 2010.03.12/outbox.cif.g09.slc.cpg/sg36_9_cif.got.tgz:16329.got - 2010.04.14 02:13:53.
