data_PCOD8174391
_publ_section_title
;
Structure prediction by ZEFSAII (Michael W. Deem and Ramdas Pophale) SiO2 
 PCOD8174391
Probable space group: C M C 21
;
_chemical_formula_sum "Si O2"
_cell_formula_units_Z 64
_cell_length_a 8.984190
_cell_length_b 24.664312
_cell_length_c 14.301035
_cell_angle_alpha 90.000000
_cell_angle_beta 90.000000
_cell_angle_gamma 90.000000
_cell_volume 3168.950117
_symmetry_space_group_name_H-M "C M C 21"
_symmetry_group_IT_number 36
_symmetry_cell_setting 'orthorhombic'
loop_
_space_group_symop_operation_xyz
x,y,z
-x,-y,1/2+z
x,-y,1/2+z
-x,y,z
1/2+x,1/2+y,z
1/2-x,1/2-y,1/2+z
1/2+x,1/2-y,1/2+z
1/2-x,1/2+y,z
loop_
_atom_site_type_symbol
_atom_site_label
_atom_site_fract_x
_atom_site_fract_y
_atom_site_fract_z
Si Si1 0.675673 0.709829 0.563520
Si Si2 0.674311 0.458622 0.893307
Si Si3 0.666768 0.871039 0.196348
Si Si4 0.674152 0.691764 0.163964
Si Si5 0.169315 0.406916 0.579989
Si Si6 0.173149 0.567544 0.868260
Si Si7 0.664419 0.025008 0.578023
Si Si8 0.823757 0.837855 0.867343
O O1 0.500000 0.715687 0.559662
O O2 0.718448 0.665753 0.641063
O O3 0.741915 0.766664 0.596641
O O4 0.739127 0.692069 0.461090
O O5 0.500000 0.462645 0.876812
O O6 0.747684 0.510455 0.842622
O O7 0.736168 0.399874 0.858005
O O8 0.709841 0.460566 0.003349
O O9 0.500000 0.845121 0.191318
O O10 0.721922 0.881603 0.302350
O O11 0.665327 0.931751 0.158821
O O12 0.500000 0.701968 0.153628
O O13 0.714000 0.631966 0.129626
O O14 0.721735 0.695943 0.274003
O O15 0.212580 0.412544 0.471431
O O16 0.192287 0.466321 0.625284
O O17 0.000000 0.385428 0.592496
O O18 0.000000 0.556787 0.853771
O O19 0.500000 0.023030 0.528353
O O20 0.000000 0.840753 0.877258
#
# Coordination Sequence:
#
# PCOD8174391 Si02
#       8
#     8   8   8   8   8   8   8   8
#     4  11  23  43  64  85 116 154 197 246 299 350
#     4  10  18  33  56  84 116 154 198 239 288 345
#     4  10  20  36  59  88 119 157 197 237 289 348
#     4  11  24  42  62  86 114 153 202 245 293 351
#     4   9  19  37  56  83 120 156 192 237 292 344
#     4   9  20  36  56  85 125 165 195 234 293 353
#     4   9  18  33  55  84 119 153 189 235 290 346
#     4   9  21  40  60  83 115 152 188 237 298 353
#
# _framework density 20.195962999999999
#
# number of rings (size 3 to 8) (size 9 to 14) (size 15 to 20)
#    0.000    2.250    1.250    1.875    1.750    3.500 
#    0.000    9.375    0.000    0.000    0.000    0.000 
#    0.000    0.000    0.000    0.000    0.000    0.000 
#
# Total GULP energy -396611.725645 kJ/mol
# GULP energy per Si atom -12394.116426 kJ/mol
# Density = 2.015000 g / cm^3
# Si number density = 20.195963 Si / 1000 Ang^3
#
#
#
# Elastic Constant Matrix: (Units=GPa)
#
#
# Indices 1 2 3 4 5 6 
#
# 1 54.6998 26.4095 21.4432 0.0000 0.0000 0.0000
# 2 26.4095 87.5193 27.8843 0.0000 0.0000 0.0000
# 3 21.4432 27.8843 63.0007 0.0000 0.0000 0.0000
# 4 0.0000 0.0000 0.0000 27.2336 0.0000 0.0000
# 5 0.0000 0.0000 0.0000 0.0000 25.6994 0.0000
# 6 0.0000 0.0000 0.0000 0.0000 0.0000 34.2106
#
#
#
# Elastic Compliance Matrix: (Units=1/GPa)
#
#
# Indices 1 2 3 4 5 6 
#
# 1 0.022939 -0.005162 -0.005523 0.000000 0.000000 0.000000
# 2 -0.005162 0.014464 -0.004645 0.000000 0.000000 0.000000
# 3 -0.005523 -0.004645 0.019808 0.000000 0.000000 0.000000
# 4 0.000000 0.000000 0.000000 0.036719 0.000000 0.000000
# 5 0.000000 0.000000 0.000000 0.000000 0.038911 0.000000
# 6 0.000000 0.000000 0.000000 0.000000 0.000000 0.029231
#
#
# Mechanical properties :
#
#
# Convention : Reuss Voigt Hill
#
# Bulk Modulus (GPa) = 37.66257 39.63264 38.64761
# Shear Modulus (GPa) = 24.80377 26.06091 25.43234
#
# Velocity S-wave (km/s) = 3.50831 3.59611 3.55248
# Velocity P-wave (km/s) = 5.92452 6.07531 6.00039
#
# Compressibility (1/GPa) = 0.02655156
#
# Stress axis : x y z
#
# Youngs Moduli (GPa) = 43.59383 69.13890 50.48401
#
# Poissons Ratio (x) = 0.35692 0.27881
# Poissons Ratio (y) = 0.22505 0.23448
# Poissons Ratio (z) = 0.24076 0.32112
#
# Static dielectric constant tensor:
#      x y z
#    x 3.470170 0.000000 0.000000 
#    y 0.000000 3.751310 0.000000 
#    z 0.000000 0.000000 3.868950 
# 
# 
# High freq. dielectric constant tensor:
#      x y z
#    x 1.767300 0.000000 0.000000 
#    y 0.000000 1.790200 0.000000 
#    z 0.000000 0.000000 1.789680 
# 
# From -- ./inp_files/11065.got.cif
#   From: 2010.03.12/outbox.cif.g09.slc.cpg/sg36_6_cif.got.tgz:11065.got - 2010.04.14 02:13:53.
