data_PCOD8174735
_publ_section_title
;
Structure prediction by ZEFSAII (Michael W. Deem and Ramdas Pophale) SiO2 
 PCOD8174735
Probable space group: C M C 21
;
_chemical_formula_sum "Si O2"
_cell_formula_units_Z 64
_cell_length_a 8.840185
_cell_length_b 22.960519
_cell_length_c 14.299281
_cell_angle_alpha 90.000000
_cell_angle_beta 90.000000
_cell_angle_gamma 90.000000
_cell_volume 2902.399931
_symmetry_space_group_name_H-M "C M C 21"
_symmetry_group_IT_number 36
_symmetry_cell_setting 'orthorhombic'
loop_
_space_group_symop_operation_xyz
x,y,z
-x,-y,1/2+z
x,-y,1/2+z
-x,y,z
1/2+x,1/2+y,z
1/2-x,1/2-y,1/2+z
1/2+x,1/2-y,1/2+z
1/2-x,1/2+y,z
loop_
_atom_site_type_symbol
_atom_site_label
_atom_site_fract_x
_atom_site_fract_y
_atom_site_fract_z
Si Si1 0.323773 0.967056 0.649310
Si Si2 0.673897 0.411109 0.351829
Si Si3 0.176693 0.664899 0.133518
Si Si4 0.822184 0.764155 0.784049
Si Si5 0.177851 0.645518 0.683177
Si Si6 0.677515 0.974082 0.865128
Si Si7 0.173536 0.209519 0.955524
Si Si8 0.178655 0.927646 0.037513
O O1 0.500000 0.983454 0.639899
O O2 0.290323 0.902458 0.609108
O O3 0.274768 0.965250 0.757950
O O4 0.228455 0.013923 0.592119
O O5 0.500000 0.428577 0.336904
O O6 0.751990 0.402551 0.251821
O O7 0.764130 0.463101 0.401774
O O8 0.691443 0.354352 0.413831
O O9 0.250291 0.679641 0.234308
O O10 0.000000 0.677389 0.140307
O O11 0.247460 0.708074 0.056231
O O12 0.778728 0.709571 0.718014
O O13 0.752589 0.756049 0.887262
O O14 0.000000 0.771837 0.795137
O O15 0.251261 0.631076 0.582980
O O16 0.000000 0.636004 0.679350
O O17 0.500000 0.968660 0.881099
O O18 0.760957 0.927286 0.931071
O O19 0.000000 0.228021 0.969124
O O20 0.000000 0.923143 0.038365
#
# Coordination Sequence:
#
# PCOD8174735 Si02
#       8
#     8   8   8   8   8   8   8   8
#     4  10  23  42  63  89 123 166 206 247 304 368
#     4  10  19  33  57  89 120 152 197 251 298 344
#     4  11  23  41  64  91 124 162 207 255 305 365
#     4  10  22  41  65  91 119 158 204 254 308 360
#     4  10  20  37  60  84 114 153 197 243 298 362
#     4  11  22  37  58  84 121 165 205 242 297 368
#     4  10  21  38  62  92 123 159 205 254 304 362
#     4  12  24  37  59  90 124 159 201 252 304 359
#
# _framework density 22.050716999999999
#
# number of rings (size 3 to 8) (size 9 to 14) (size 15 to 20)
#    0.000    1.500    1.250    4.125    0.000    6.500 
#    2.250    0.000    0.000    0.000    0.000    0.000 
#    0.000    0.000    0.000    0.000    0.000    0.000 
#
# Total GULP energy -396900.543701 kJ/mol
# GULP energy per Si atom -12403.141991 kJ/mol
# Density = 2.200053 g / cm^3
# Si number density = 22.050717 Si / 1000 Ang^3
#
#
#
# Elastic Constant Matrix: (Units=GPa)
#
#
# Indices 1 2 3 4 5 6 
#
# 1 132.6483 13.5743 32.6555 0.0000 0.0000 0.0000
# 2 13.5743 22.6064 -5.2215 0.0000 0.0000 0.0000
# 3 32.6555 -5.2215 81.9257 0.0000 0.0000 0.0000
# 4 0.0000 0.0000 0.0000 30.8364 0.0000 0.0000
# 5 0.0000 0.0000 0.0000 0.0000 38.3696 0.0000
# 6 0.0000 0.0000 0.0000 0.0000 0.0000 29.1250
#
#
#
# Elastic Compliance Matrix: (Units=1/GPa)
#
#
# Indices 1 2 3 4 5 6 
#
# 1 0.009206 -0.006470 -0.004082 0.000000 0.000000 0.000000
# 2 -0.006470 0.049444 0.005730 0.000000 0.000000 0.000000
# 3 -0.004082 0.005730 0.014198 0.000000 0.000000 0.000000
# 4 0.000000 0.000000 0.000000 0.032429 0.000000 0.000000
# 5 0.000000 0.000000 0.000000 0.000000 0.026062 0.000000
# 6 0.000000 0.000000 0.000000 0.000000 0.000000 0.034335
#
#
# Mechanical properties :
#
#
# Convention : Reuss Voigt Hill
#
# Bulk Modulus (GPa) = 15.82165 35.46633 25.64399
# Shear Modulus (GPa) = 25.46002 32.74436 29.10219
#
# Velocity S-wave (km/s) = 3.40164 3.85769 3.63682
# Velocity P-wave (km/s) = 4.75594 5.99677 5.41203
#
# Compressibility (1/GPa) = 0.06320454
#
# Stress axis : x y z
#
# Youngs Moduli (GPa) = 108.62802 20.22486 70.43052
#
# Poissons Ratio (x) = 0.13086 0.28748
# Poissons Ratio (y) = 0.70287 -0.40360
# Poissons Ratio (z) = 0.44340 -0.11590
#
# Static dielectric constant tensor:
#      x y z
#    x 3.904930 0.000000 0.000000 
#    y 0.000000 3.824270 0.000000 
#    z 0.000000 0.000000 4.053520 
# 
# 
# High freq. dielectric constant tensor:
#      x y z
#    x 1.871290 0.000000 0.000000 
#    y 0.000000 1.856360 0.000000 
#    z 0.000000 0.000000 1.874440 
# 
# From -- ./inp_files/10990.got.cif
#   From: 2010.03.12/outbox.cif.g09.slc.cpg/sg36_6_cif.got.tgz:10990.got - 2010.04.14 02:13:53.
