data_PCOD8174752
_publ_section_title
;
Structure prediction by ZEFSAII (Michael W. Deem and Ramdas Pophale) SiO2 
 PCOD8174752
Probable space group: C M C 21
;
_chemical_formula_sum "Si O2"
_cell_formula_units_Z 48
_cell_length_a 8.677582
_cell_length_b 15.308605
_cell_length_c 19.051194
_cell_angle_alpha 90.000000
_cell_angle_beta 90.000000
_cell_angle_gamma 90.000000
_cell_volume 2530.792525
_symmetry_space_group_name_H-M "C M C 21"
_symmetry_group_IT_number 36
_symmetry_cell_setting 'orthorhombic'
loop_
_space_group_symop_operation_xyz
x,y,z
-x,-y,1/2+z
x,-y,1/2+z
-x,y,z
1/2+x,1/2+y,z
1/2-x,1/2-y,1/2+z
1/2+x,1/2-y,1/2+z
1/2-x,1/2+y,z
loop_
_atom_site_type_symbol
_atom_site_label
_atom_site_fract_x
_atom_site_fract_y
_atom_site_fract_z
Si Si1 0.317157 0.502052 0.829990
Si Si2 0.318910 0.349719 0.576687
Si Si3 0.316337 0.504430 0.671764
Si Si4 0.182032 0.164926 0.918746
Si Si5 0.182770 0.654477 0.581352
Si Si6 0.817686 0.150587 0.430749
O O1 0.500000 0.501717 0.830616
O O2 0.253810 0.495006 0.750951
O O3 0.258826 0.592714 0.863939
O O4 0.256422 0.419958 0.874574
O O5 0.500000 0.353673 0.586076
O O6 0.246106 0.423510 0.627084
O O7 0.273162 0.369340 0.496308
O O8 0.260663 0.253210 0.597997
O O9 0.500000 0.505945 0.669430
O O10 0.254921 0.594665 0.640983
O O11 0.268727 0.254866 0.901994
O O12 0.000000 0.182481 0.914053
O O13 0.241227 0.626490 0.504775
O O14 0.000000 0.647225 0.582132
O O15 0.000000 0.145885 0.440137
#
# Coordination Sequence:
#
# PCOD8174752 Si02
#       6
#     8   8   8   8   8   8
#     4   9  19  33  52  76 105 137 169 204 254 310
#     4   8  16  31  52  71  96 134 171 203 248 302
#     4  10  19  34  54  76 101 137 176 207 243 306
#     4   9  17  33  52  73 101 134 167 209 259 301
#     4  10  20  35  53  76 103 134 169 215 266 303
#     4  10  19  34  55  78 100 132 176 216 248 300
#
# _framework density 18.966391000000002
#
# number of rings (size 3 to 8) (size 9 to 14) (size 15 to 20)
#    0.000    2.667    0.000    3.000    0.000    4.000 
#    0.000   13.333    0.000    0.000    0.000    0.000 
#    0.000    0.000    0.000    0.000    0.000    0.000 
#
# Total GULP energy -297576.301949 kJ/mol
# GULP energy per Si atom -12399.012581 kJ/mol
# Density = 1.892322 g / cm^3
# Si number density = 18.966391 Si / 1000 Ang^3
#
#
#
# Elastic Constant Matrix: (Units=GPa)
#
#
# Indices 1 2 3 4 5 6 
#
# 1 22.6047 21.1378 22.6368 0.0000 0.0000 0.0000
# 2 21.1378 108.8625 76.5882 0.0000 0.0000 0.0000
# 3 22.6368 76.5882 135.1870 0.0000 0.0000 0.0000
# 4 0.0000 0.0000 0.0000 25.5509 0.0000 0.0000
# 5 0.0000 0.0000 0.0000 0.0000 19.9223 0.0000
# 6 0.0000 0.0000 0.0000 0.0000 0.0000 28.8660
#
#
#
# Elastic Compliance Matrix: (Units=1/GPa)
#
#
# Indices 1 2 3 4 5 6 
#
# 1 0.056311 -0.007150 -0.005378 0.000000 0.000000 0.000000
# 2 -0.007150 0.016181 -0.007970 0.000000 0.000000 0.000000
# 3 -0.005378 -0.007970 0.012813 0.000000 0.000000 0.000000
# 4 0.000000 0.000000 0.000000 0.039138 0.000000 0.000000
# 5 0.000000 0.000000 0.000000 0.000000 0.050195 0.000000
# 6 0.000000 0.000000 0.000000 0.000000 0.000000 0.034643
#
#
# Mechanical properties :
#
#
# Convention : Reuss Voigt Hill
#
# Bulk Modulus (GPa) = 22.56915 56.37554 39.47234
# Shear Modulus (GPa) = 18.86458 24.62059 21.74258
#
# Velocity S-wave (km/s) = 3.15720 3.60685 3.38949
# Velocity P-wave (km/s) = 5.02155 6.86544 6.01457
#
# Compressibility (1/GPa) = 0.04430826
#
# Stress axis : x y z
#
# Youngs Moduli (GPa) = 17.75864 61.79928 78.04504
#
# Poissons Ratio (x) = 0.44186 0.41976
# Poissons Ratio (y) = 0.12697 0.62203
# Poissons Ratio (z) = 0.09551 0.49255
#
# Static dielectric constant tensor:
#      x y z
#    x 3.116860 0.000000 0.000000 
#    y 0.000000 3.757710 0.000000 
#    z 0.000000 0.000000 3.655520 
# 
# 
# High freq. dielectric constant tensor:
#      x y z
#    x 1.703260 0.000000 0.000000 
#    y 0.000000 1.751410 0.000000 
#    z 0.000000 0.000000 1.735770 
# 
# From -- ./inp_files/11532.got.cif
#   From: 2010.03.12/outbox.cif.g09.slc.cpg/sg36_6_cif.got.tgz:11532.got - 2010.04.14 02:13:53.
