data_PCOD8174363
_publ_section_title
;
Structure prediction by ZEFSAII (Michael W. Deem and Ramdas Pophale) SiO2 
 PCOD8174363
Probable space group: C M C 21
;
_chemical_formula_sum "Si O2"
_cell_formula_units_Z 64
_cell_length_a 8.957763
_cell_length_b 23.424729
_cell_length_c 14.306553
_cell_angle_alpha 90.000000
_cell_angle_beta 90.000000
_cell_angle_gamma 90.000000
_cell_volume 3001.989378
_symmetry_space_group_name_H-M "C M C 21"
_symmetry_group_IT_number 36
_symmetry_cell_setting 'orthorhombic'
loop_
_space_group_symop_operation_xyz
x,y,z
-x,-y,1/2+z
x,-y,1/2+z
-x,y,z
1/2+x,1/2+y,z
1/2-x,1/2-y,1/2+z
1/2+x,1/2-y,1/2+z
1/2-x,1/2+y,z
loop_
_atom_site_type_symbol
_atom_site_label
_atom_site_fract_x
_atom_site_fract_y
_atom_site_fract_z
Si Si1 0.171639 0.319040 0.444030
Si Si2 0.826230 0.109418 0.807453
Si Si3 0.830415 0.542298 0.548653
Si Si4 0.824530 0.588454 0.355911
Si Si5 0.673414 0.490084 0.716463
Si Si6 0.329098 0.162781 0.639822
Si Si7 0.176387 0.794713 0.835285
Si Si8 0.828345 0.726830 0.140684
O O1 0.272113 0.373254 0.411302
O O2 0.227371 0.260315 0.395003
O O3 0.191307 0.317549 0.555862
O O4 0.000000 0.330344 0.417487
O O5 0.789427 0.044228 0.782077
O O6 0.728112 0.151464 0.744238
O O7 0.000000 0.122066 0.792755
O O8 0.789311 0.542492 0.438721
O O9 0.724887 0.501287 0.609644
O O10 0.807376 0.607631 0.577173
O O11 0.000000 0.522481 0.566414
O O12 0.760573 0.563608 0.259053
O O13 0.750977 0.649102 0.380067
O O14 0.000000 0.598136 0.345343
O O15 0.500000 0.475484 0.714969
O O16 0.500000 0.182938 0.645003
O O17 0.226977 0.212861 0.598188
O O18 0.227873 0.790665 0.727962
O O19 0.000000 0.802488 0.838727
O O20 0.000000 0.730957 0.172422
#
# Coordination Sequence:
#
# PCOD8174363 Si02
#       8
#     8   8   8   8   8   8   8   8
#     4  10  22  38  58  86 121 158 197 240 297 358
#     4  10  20  35  58  84 112 148 194 243 293 349
#     4   9  20  38  62  91 118 155 204 250 299 357
#     4  11  23  41  64  90 121 160 203 249 302 361
#     4  10  22  40  62  90 120 155 198 250 304 356
#     4  10  18  32  56  84 116 151 192 244 295 347
#     4  11  23  40  61  88 123 163 199 246 302 357
#     4  11  22  36  55  85 121 160 199 240 294 359
#
# _framework density 21.319198
#
# number of rings (size 3 to 8) (size 9 to 14) (size 15 to 20)
#    0.000    1.750    1.250    3.000    0.000    4.500 
#    2.250    0.000    0.000    0.000    0.000    0.000 
#    0.000    0.000    0.000    0.000    0.000    0.000 
#
# Total GULP energy -396828.207653 kJ/mol
# GULP energy per Si atom -12400.881489 kJ/mol
# Density = 2.127067 g / cm^3
# Si number density = 21.319198 Si / 1000 Ang^3
#
#
#
# Elastic Constant Matrix: (Units=GPa)
#
#
# Indices 1 2 3 4 5 6 
#
# 1 76.7887 16.9221 23.2294 0.0000 0.0000 0.0000
# 2 16.9221 32.7544 2.2600 0.0000 0.0000 0.0000
# 3 23.2294 2.2600 72.7908 0.0000 0.0000 0.0000
# 4 0.0000 0.0000 0.0000 26.4847 0.0000 0.0000
# 5 0.0000 0.0000 0.0000 0.0000 31.4995 0.0000
# 6 0.0000 0.0000 0.0000 0.0000 0.0000 33.3472
#
#
#
# Elastic Compliance Matrix: (Units=1/GPa)
#
#
# Indices 1 2 3 4 5 6 
#
# 1 0.016301 -0.008080 -0.004951 0.000000 0.000000 0.000000
# 2 -0.008080 0.034601 0.001504 0.000000 0.000000 0.000000
# 3 -0.004951 0.001504 0.015271 0.000000 0.000000 0.000000
# 4 0.000000 0.000000 0.000000 0.037758 0.000000 0.000000
# 5 0.000000 0.000000 0.000000 0.000000 0.031747 0.000000
# 6 0.000000 0.000000 0.000000 0.000000 0.000000 0.029988
#
#
# Mechanical properties :
#
#
# Convention : Reuss Voigt Hill
#
# Bulk Modulus (GPa) = 23.19145 29.68408 26.43777
# Shear Modulus (GPa) = 24.61931 27.59443 26.10687
#
# Velocity S-wave (km/s) = 3.40191 3.60161 3.50318
# Velocity P-wave (km/s) = 5.13152 5.59011 5.36571
#
# Compressibility (1/GPa) = 0.04311934
#
# Stress axis : x y z
#
# Youngs Moduli (GPa) = 61.34522 28.90093 65.48198
#
# Poissons Ratio (x) = 0.23352 0.32422
# Poissons Ratio (y) = 0.49568 -0.09851
# Poissons Ratio (z) = 0.30374 -0.04348
#
# Static dielectric constant tensor:
#      x y z
#    x 3.807410 0.000000 0.000000 
#    y 0.000000 3.704350 0.000000 
#    z 0.000000 0.000000 3.836800 
# 
# 
# High freq. dielectric constant tensor:
#      x y z
#    x 1.838690 0.000000 0.000000 
#    y 0.000000 1.821750 0.000000 
#    z 0.000000 0.000000 1.837460 
# 
# From -- ./inp_files/11019.got.cif
#   From: 2010.03.12/outbox.cif.g09.slc.cpg/sg36_6_cif.got.tgz:11019.got - 2010.04.14 02:13:53.
