data_PCOD8174396
_publ_section_title
;
Structure prediction by ZEFSAII (Michael W. Deem and Ramdas Pophale) SiO2 
 PCOD8174396
Probable space group: C M C 21
;
_chemical_formula_sum "Si O2"
_cell_formula_units_Z 64
_cell_length_a 8.893273
_cell_length_b 15.541596
_cell_length_c 24.017026
_cell_angle_alpha 90.000000
_cell_angle_beta 90.000000
_cell_angle_gamma 90.000000
_cell_volume 3319.529006
_symmetry_space_group_name_H-M "C M C 21"
_symmetry_group_IT_number 36
_symmetry_cell_setting 'orthorhombic'
loop_
_space_group_symop_operation_xyz
x,y,z
-x,-y,1/2+z
x,-y,1/2+z
-x,y,z
1/2+x,1/2+y,z
1/2-x,1/2-y,1/2+z
1/2+x,1/2-y,1/2+z
1/2-x,1/2+y,z
loop_
_atom_site_type_symbol
_atom_site_label
_atom_site_fract_x
_atom_site_fract_y
_atom_site_fract_z
Si Si1 0.321683 0.899695 0.955510
Si Si2 0.824326 0.403824 0.461326
Si Si3 0.821078 0.495713 0.769708
Si Si4 0.821320 0.666749 0.338696
Si Si5 0.677385 0.838486 0.072672
Si Si6 0.821136 0.497166 0.144044
Si Si7 0.176451 0.853699 0.573014
Si Si8 0.675898 0.842509 0.339327
O O1 0.500000 0.894634 0.953811
O O2 0.257884 0.852643 0.900682
O O3 0.270426 0.998380 0.954799
O O4 0.254822 0.854892 0.010919
O O5 0.726368 0.359918 0.509097
O O6 0.788346 0.354869 0.404294
O O7 0.000000 0.399140 0.477117
O O8 0.762049 0.407883 0.797588
O O9 0.759236 0.500653 0.706850
O O10 0.759188 0.577101 0.804357
O O11 0.000000 0.497146 0.771168
O O12 0.756355 0.756868 0.317267
O O13 0.000000 0.670773 0.338150
O O14 0.500000 0.850302 0.068394
O O15 0.741355 0.909889 0.115351
O O16 0.718188 0.742847 0.093609
O O17 0.763851 0.580137 0.111483
O O18 0.000000 0.499552 0.142863
O O19 0.000000 0.871429 0.577421
O O20 0.500000 0.833042 0.328515
#
# Coordination Sequence:
#
# PCOD8174396 Si02
#       8
#     8   8   8   8   8   8   8   8
#     4   9  15  29  55  78 101 139 181 212 252 320
#     4  10  18  33  58  81 107 145 184 218 262 325
#     4   9  19  36  58  80 104 143 192 227 257 315
#     4  10  19  34  56  81 109 143 178 219 272 327
#     4   9  18  32  53  77 102 139 180 214 262 323
#     4  10  20  38  60  77 101 146 195 226 257 317
#     4  11  22  35  54  84 114 138 173 227 283 326
#     4  10  20  35  56  84 112 141 181 227 267 315
#
# _framework density 19.279843
#
# number of rings (size 3 to 8) (size 9 to 14) (size 15 to 20)
#    0.000    2.250    2.500    1.125    0.000    2.500 
#    0.000    5.000    0.000    0.000    0.000    0.000 
#    0.000    0.000    0.000    0.000    0.000    0.000 
#
# Total GULP energy -396786.653810 kJ/mol
# GULP energy per Si atom -12399.582932 kJ/mol
# Density = 1.923596 g / cm^3
# Si number density = 19.279843 Si / 1000 Ang^3
#
#
#
# Elastic Constant Matrix: (Units=GPa)
#
#
# Indices 1 2 3 4 5 6 
#
# 1 17.8545 21.1901 20.2312 0.0000 0.0000 0.0000
# 2 21.1901 163.2219 68.4630 0.0000 0.0000 0.0000
# 3 20.2312 68.4630 135.9520 0.0000 0.0000 0.0000
# 4 0.0000 0.0000 0.0000 15.6321 0.0000 0.0000
# 5 0.0000 0.0000 0.0000 0.0000 10.5589 0.0000
# 6 0.0000 0.0000 0.0000 0.0000 0.0000 27.9478
#
#
#
# Elastic Compliance Matrix: (Units=1/GPa)
#
#
# Indices 1 2 3 4 5 6 
#
# 1 0.071923 -0.006146 -0.007608 0.000000 0.000000 0.000000
# 2 -0.006146 0.008293 -0.003261 0.000000 0.000000 0.000000
# 3 -0.007608 -0.003261 0.010130 0.000000 0.000000 0.000000
# 4 0.000000 0.000000 0.000000 0.063971 0.000000 0.000000
# 5 0.000000 0.000000 0.000000 0.000000 0.094707 0.000000
# 6 0.000000 0.000000 0.000000 0.000000 0.000000 0.035781
#
#
# Mechanical properties :
#
#
# Convention : Reuss Voigt Hill
#
# Bulk Modulus (GPa) = 17.75730 59.64412 38.70071
# Shear Modulus (GPa) = 14.81011 24.63736 19.72373
#
# Velocity S-wave (km/s) = 2.77459 3.57863 3.20194
# Velocity P-wave (km/s) = 4.41528 6.93387 5.81263
#
# Compressibility (1/GPa) = 0.05631487
#
# Stress axis : x y z
#
# Youngs Moduli (GPa) = 13.90372 120.59068 98.71642
#
# Poissons Ratio (x) = 0.74118 0.75102
# Poissons Ratio (y) = 0.08546 0.32195
# Poissons Ratio (z) = 0.10578 0.39329
#
# Static dielectric constant tensor:
#      x y z
#    x 3.003530 0.000000 0.000000 
#    y 0.000000 3.695430 0.000000 
#    z 0.000000 0.000000 3.727860 
# 
# 
# High freq. dielectric constant tensor:
#      x y z
#    x 1.700460 0.000000 0.000000 
#    y 0.000000 1.767230 0.000000 
#    z 0.000000 0.000000 1.752280 
# 
# From -- ./inp_files/16595.got.cif
#   From: 2010.03.12/outbox.cif.g09.slc.cpg/sg36_9_cif.got.tgz:16595.got - 2010.04.14 02:13:53.
