data_PCOD8174435
_publ_section_title
;
Structure prediction by ZEFSAII (Michael W. Deem and Ramdas Pophale) SiO2 
 PCOD8174435
Probable space group: C M C 21
;
_chemical_formula_sum "Si O2"
_cell_formula_units_Z 48
_cell_length_a 7.829909
_cell_length_b 15.480659
_cell_length_c 18.594163
_cell_angle_alpha 90.000000
_cell_angle_beta 90.000000
_cell_angle_gamma 90.000000
_cell_volume 2253.838498
_symmetry_space_group_name_H-M "C M C 21"
_symmetry_group_IT_number 36
_symmetry_cell_setting 'orthorhombic'
loop_
_space_group_symop_operation_xyz
x,y,z
-x,-y,1/2+z
x,-y,1/2+z
-x,y,z
1/2+x,1/2+y,z
1/2-x,1/2-y,1/2+z
1/2+x,1/2-y,1/2+z
1/2-x,1/2+y,z
loop_
_atom_site_type_symbol
_atom_site_label
_atom_site_fract_x
_atom_site_fract_y
_atom_site_fract_z
Si Si1 0.500000 0.298197 0.385641
Si Si2 0.187553 0.583002 0.513791
Si Si3 0.500000 0.575342 0.762661
Si Si4 0.000000 0.111997 0.029510
Si Si5 0.500000 0.415642 0.094257
Si Si6 0.803749 0.453740 0.756610
Si Si7 0.318117 0.093774 0.093883
Si Si8 0.200749 0.166954 0.375966
O O1 0.500000 0.335322 0.305297
O O2 0.500000 0.376022 0.443932
O O3 0.324041 0.246008 0.397200
O O4 0.326607 0.630301 0.565584
O O5 0.168651 0.483328 0.535886
O O6 0.258912 0.589975 0.432403
O O7 0.000000 0.627848 0.520557
O O8 0.500000 0.593325 0.678755
O O9 0.672263 0.525245 0.785482
O O10 0.168593 0.156696 0.064890
O O11 0.000000 0.012464 0.058785
O O12 0.771396 0.443455 0.671918
O O13 0.756708 0.364814 0.796812
O O14 0.000000 0.481113 0.772085
O O15 0.500000 0.143402 0.097264
O O16 0.000000 0.193422 0.377430
#
# Coordination Sequence:
#
# PCOD8174435 Si02
#       8
#     4   8   4   4   4   8   8   8
#     4  12  30  46  58 100 142 174 208 282 328 398
#     4  10  18  35  64  94 126 162 212 269 313 381
#     4  12  24  42  72 100 133 168 226 278 326 381
#     4  10  20  40  62  88 136 157 208 268 329 366
#     4  10  20  38  68 106 121 159 222 276 323 379
#     4  11  21  39  71 101 127 172 227 271 321 392
#     4   9  19  34  64 103 126 150 217 280 315 369
#     4  12  25  43  67  90 137 188 220 258 338 408
#
# _framework density 21.297001000000002
#
# number of rings (size 3 to 8) (size 9 to 14) (size 15 to 20)
#    0.000    1.333    6.667    0.000    4.667    1.333 
#    0.000    1.667    0.000    0.000    0.000    0.000 
#    0.000    0.000    0.000    0.000    0.000    0.000 
#
# Total GULP energy -297328.154533 kJ/mol
# GULP energy per Si atom -12388.673106 kJ/mol
# Density = 2.124853 g / cm^3
# Si number density = 21.297001 Si / 1000 Ang^3
#
#
#
# Elastic Constant Matrix: (Units=GPa)
#
#
# Indices 1 2 3 4 5 6 
#
# 1 230.4951 28.5934 51.9866 0.0000 0.0000 0.0000
# 2 28.5934 36.5195 43.4567 0.0000 0.0000 0.0000
# 3 51.9866 43.4567 113.0754 0.0000 0.0000 0.0000
# 4 0.0000 0.0000 0.0000 14.5203 0.0000 0.0000
# 5 0.0000 0.0000 0.0000 0.0000 32.7724 0.0000
# 6 0.0000 0.0000 0.0000 0.0000 0.0000 16.1183
#
#
#
# Elastic Compliance Matrix: (Units=1/GPa)
#
#
# Indices 1 2 3 4 5 6 
#
# 1 0.004930 -0.002143 -0.001443 0.000000 0.000000 0.000000
# 2 -0.002143 0.051390 -0.018765 0.000000 0.000000 0.000000
# 3 -0.001443 -0.018765 0.016719 0.000000 0.000000 0.000000
# 4 0.000000 0.000000 0.000000 0.068869 0.000000 0.000000
# 5 0.000000 0.000000 0.000000 0.000000 0.030513 0.000000
# 6 0.000000 0.000000 0.000000 0.000000 0.000000 0.062041
#
#
# Mechanical properties :
#
#
# Convention : Reuss Voigt Hill
#
# Bulk Modulus (GPa) = 35.28942 69.79594 52.54268
# Shear Modulus (GPa) = 17.32452 29.75242 23.53847
#
# Velocity S-wave (km/s) = 2.85524 3.74173 3.32813
# Velocity P-wave (km/s) = 5.24175 7.17713 6.28439
#
# Compressibility (1/GPa) = 0.02833711
#
# Stress axis : x y z
#
# Youngs Moduli (GPa) = 202.85003 19.45920 59.81336
#
# Poissons Ratio (x) = 0.04170 0.08631
# Poissons Ratio (y) = 0.43465 1.12238
# Poissons Ratio (z) = 0.29271 0.36515
#
# Static dielectric constant tensor:
#      x y z
#    x 5.649830 0.000000 0.000000 
#    y 0.000000 3.174710 0.000000 
#    z 0.000000 0.000000 3.848960 
# 
# 
# High freq. dielectric constant tensor:
#      x y z
#    x 1.881660 0.000000 0.000000 
#    y 0.000000 1.763100 0.000000 
#    z 0.000000 0.000000 1.844420 
# 
# From -- ./inp_files/13521.got.cif
#   From: 2010.03.12/outbox.cif.g09.slc.cpg/sg36_7_cif.got.tgz:13521.got - 2010.04.14 02:13:53.
