data_PCOD8174844
_publ_section_title
;
Structure prediction by ZEFSAII (Michael W. Deem and Ramdas Pophale) SiO2 
 PCOD8174844
Probable space group: C M C 21
;
_chemical_formula_sum "Si O2"
_cell_formula_units_Z 48
_cell_length_a 15.704052
_cell_length_b 9.550193
_cell_length_c 16.907811
_cell_angle_alpha 90.000000
_cell_angle_beta 90.000000
_cell_angle_gamma 90.000000
_cell_volume 2535.778163
_symmetry_space_group_name_H-M "C M C 21"
_symmetry_group_IT_number 36
_symmetry_cell_setting 'orthorhombic'
loop_
_space_group_symop_operation_xyz
x,y,z
-x,-y,1/2+z
x,-y,1/2+z
-x,y,z
1/2+x,1/2+y,z
1/2-x,1/2-y,1/2+z
1/2+x,1/2-y,1/2+z
1/2-x,1/2+y,z
loop_
_atom_site_type_symbol
_atom_site_label
_atom_site_fract_x
_atom_site_fract_y
_atom_site_fract_z
Si Si1 0.183958 0.769159 0.594300
Si Si2 0.000000 0.444347 0.588404
Si Si3 0.500000 0.944347 0.413112
Si Si4 0.000000 0.223989 0.913785
Si Si5 0.816042 0.769159 0.407216
Si Si6 0.325179 0.033527 0.842372
Si Si7 0.500000 0.276011 0.587731
Si Si8 0.674821 0.966473 0.659144
O O1 0.192593 0.797376 0.500758
O O2 0.252922 0.852692 0.643629
O O3 0.196066 0.604099 0.608496
O O4 0.090117 0.819141 0.627714
O O5 0.000000 0.376432 0.500758
O O6 0.084785 0.396316 0.634635
O O7 0.000000 0.609858 0.581397
O O8 0.500000 0.109858 0.420119
O O9 0.584785 0.896316 0.366881
O O10 0.909883 0.180859 0.873802
O O11 0.000000 0.157277 0.000758
O O12 0.803934 0.604099 0.393020
O O13 0.747078 0.852692 0.357887
O O14 0.328365 1.000000 0.750758
#
# Coordination Sequence:
#
# PCOD8174844 Si02
#       8
#     8   4   4   4   8   8   4   8
#     4  10  19  35  55  75 101 140 182 217 257 318
#     4   9  17  33  54  75 100 139 180 212 254 320
#     4   9  17  33  54  75 100 139 180 212 254 320
#     4   7  14  29  51  71  93 131 176 208 246 310
#     4  10  19  35  55  75 101 140 182 217 257 318
#     4  11  21  34  53  81 110 137 173 224 270 306
#     4   7  14  29  51  71  93 131 176 208 246 310
#     4  11  21  34  53  81 110 137 173 224 270 306
#
# _framework density 18.929099999999998
#
# number of rings (size 3 to 8) (size 9 to 14) (size 15 to 20)
#    0.000    2.333    0.000    6.500    0.000    0.000 
#    0.000    2.500    0.000    2.000    0.000    0.000 
#    0.000    0.000    0.000    0.000    0.000    0.000 
#
# Total GULP energy -297396.968070 kJ/mol
# GULP energy per Si atom -12391.540336 kJ/mol
# Density = 1.888602 g / cm^3
# Si number density = 18.929100 Si / 1000 Ang^3
#
#
#
# Elastic Constant Matrix: (Units=GPa)
#
#
# Indices 1 2 3 4 5 6 
#
# 1 168.9209 36.0468 18.8446 0.0000 0.0000 0.0000
# 2 36.0468 31.0313 -6.6698 0.0000 0.0000 0.0000
# 3 18.8446 -6.6698 71.9605 0.0000 0.0000 0.0000
# 4 0.0000 0.0000 0.0000 -15.3252 0.0000 0.0000
# 5 0.0000 0.0000 0.0000 0.0000 15.9983 0.0000
# 6 0.0000 0.0000 0.0000 0.0000 0.0000 29.2396
#
#
#
# Elastic Compliance Matrix: (Units=1/GPa)
#
#
# Indices 1 2 3 4 5 6 
#
# 1 0.008545 -0.010619 -0.003222 0.000000 0.000000 0.000000
# 2 -0.010619 0.046077 0.007052 0.000000 0.000000 0.000000
# 3 -0.003222 0.007052 0.015394 0.000000 0.000000 0.000000
# 4 0.000000 0.000000 0.000000 -0.065252 0.000000 0.000000
# 5 0.000000 0.000000 0.000000 0.000000 0.062507 0.000000
# 6 0.000000 0.000000 0.000000 0.000000 0.000000 0.034200
#
#
# Mechanical properties :
#
#
# Convention : Reuss Voigt Hill
#
# Bulk Modulus (GPa) = 17.71897 40.92845 29.32371
# Shear Modulus (GPa) = 37.35174 20.89527 29.12351
#
# Velocity S-wave (km/s) = 4.44694 3.32606 3.92670
# Velocity P-wave (km/s) = 5.97897 6.03483 6.00696
#
# Compressibility (1/GPa) = 0.05643670
#
# Stress axis : x y z
#
# Youngs Moduli (GPa) = 117.02109 21.70291 64.96089
#
# Poissons Ratio (x) = 0.23047 0.20931
# Poissons Ratio (y) = 1.24267 -0.45808
# Poissons Ratio (z) = 0.37705 -0.15304
#
# Static dielectric constant tensor:
#      x y z
#    x 4.088340 0.000000 0.000000 
#    y 0.000000 3.041890 0.000000 
#    z 0.000000 0.000000 3.381240 
# 
# 
# High freq. dielectric constant tensor:
#      x y z
#    x 1.762770 0.000000 0.000000 
#    y 0.000000 1.685670 0.000000 
#    z 0.000000 0.000000 1.728450 
# 
# From -- ./inp_files/12129.got.cif
#   From: 2010.03.12/outbox.cif.g09.slc.cpg/sg36_7_cif.got.tgz:12129.got - 2010.04.14 02:13:53.
