data_PCOD8174657
_publ_section_title
;
Structure prediction by ZEFSAII (Michael W. Deem and Ramdas Pophale) SiO2 
 PCOD8174657
Probable space group: C M C 21
;
_chemical_formula_sum "Si O2"
_cell_formula_units_Z 64
_cell_length_a 21.675201
_cell_length_b 15.308273
_cell_length_c 10.154876
_cell_angle_alpha 90.000000
_cell_angle_beta 90.000000
_cell_angle_gamma 90.000000
_cell_volume 3369.488332
_symmetry_space_group_name_H-M "C M C 21"
_symmetry_group_IT_number 36
_symmetry_cell_setting 'orthorhombic'
loop_
_space_group_symop_operation_xyz
x,y,z
-x,-y,1/2+z
x,-y,1/2+z
-x,y,z
1/2+x,1/2+y,z
1/2-x,1/2-y,1/2+z
1/2+x,1/2-y,1/2+z
1/2-x,1/2+y,z
loop_
_atom_site_type_symbol
_atom_site_label
_atom_site_fract_x
_atom_site_fract_y
_atom_site_fract_z
Si Si1 0.262346 0.428716 0.892240
Si Si2 0.569181 0.736688 0.901069
Si Si3 0.812613 0.825032 0.118036
Si Si4 0.176333 0.108169 0.900984
Si Si5 0.433775 0.251107 0.090664
Si Si6 0.262098 0.859384 0.626491
Si Si7 0.110548 0.565181 0.108334
Si Si8 0.118355 0.575551 0.404579
O O1 0.310404 0.506016 0.931886
O O2 0.280860 0.390945 0.748367
O O3 0.190057 0.450265 0.889736
O O4 0.266928 0.357253 0.006665
O O5 0.500000 0.729024 0.963684
O O6 0.608476 0.648048 0.933745
O O7 0.563110 0.745619 0.746855
O O8 0.605006 0.824238 0.949360
O O9 0.808203 0.884792 0.246862
O O10 0.880720 0.819920 0.049932
O O11 0.795901 0.729030 0.170916
O O12 0.222984 0.160236 0.995775
O O13 0.500000 0.279168 0.029792
O O14 0.418626 0.152650 0.045249
O O15 0.314894 0.930986 0.598893
O O16 0.088601 0.554554 0.260796
O O17 0.087926 0.484627 0.018052
#
# Coordination Sequence:
#
# PCOD8174657 Si02
#       8
#     8   8   8   8   8   8   8   8
#     4  11  21  33  52  81 114 135 172 221 277 325
#     4   9  19  36  55  75 103 147 190 221 258 322
#     4  10  20  33  54  78 102 142 179 215 269 322
#     4  11  20  34  54  79 104 139 179 223 266 313
#     4   8  16  33  53  72 100 136 182 219 257 319
#     4  10  19  34  50  79 111 139 170 214 276 334
#     4   9  18  30  50  78 106 136 170 217 271 321
#     4  10  19  33  52  78 108 140 176 218 272 326
#
# _framework density 18.993981000000002
#
# number of rings (size 3 to 8) (size 9 to 14) (size 15 to 20)
#    0.000    2.250    1.250    4.500    1.750    0.500 
#    0.000    0.625    0.000    4.500    0.000    0.000 
#    0.000    0.000    0.000    0.000    0.000    0.000 
#
# Total GULP energy -396451.088877 kJ/mol
# GULP energy per Si atom -12389.096527 kJ/mol
# Density = 1.895075 g / cm^3
# Si number density = 18.993981 Si / 1000 Ang^3
#
#
#
# Elastic Constant Matrix: (Units=GPa)
#
#
# Indices 1 2 3 4 5 6 
#
# 1 80.2818 25.2075 19.8745 0.0000 0.0000 0.0000
# 2 25.2075 66.0630 13.0599 0.0000 0.0000 0.0000
# 3 19.8745 13.0599 64.4796 0.0000 0.0000 0.0000
# 4 0.0000 0.0000 0.0000 27.4737 0.0000 0.0000
# 5 0.0000 0.0000 0.0000 0.0000 9.7047 0.0000
# 6 0.0000 0.0000 0.0000 0.0000 0.0000 21.2414
#
#
#
# Elastic Compliance Matrix: (Units=1/GPa)
#
#
# Indices 1 2 3 4 5 6 
#
# 1 0.014907 -0.004979 -0.003586 0.000000 0.000000 0.000000
# 2 -0.004979 0.017432 -0.001996 0.000000 0.000000 0.000000
# 3 -0.003586 -0.001996 0.017018 0.000000 0.000000 0.000000
# 4 0.000000 0.000000 0.000000 0.036398 0.000000 0.000000
# 5 0.000000 0.000000 0.000000 0.000000 0.103043 0.000000
# 6 0.000000 0.000000 0.000000 0.000000 0.000000 0.047078
#
#
# Mechanical properties :
#
#
# Convention : Reuss Voigt Hill
#
# Bulk Modulus (GPa) = 35.41777 36.34535 35.88156
# Shear Modulus (GPa) = 18.76800 21.86281 20.31540
#
# Velocity S-wave (km/s) = 3.14682 3.39638 3.27398
# Velocity P-wave (km/s) = 5.64718 5.87854 5.76402
#
# Compressibility (1/GPa) = 0.02823442
#
# Stress axis : x y z
#
# Youngs Moduli (GPa) = 67.08101 57.36735 58.75972
#
# Poissons Ratio (x) = 0.28564 0.21073
# Poissons Ratio (y) = 0.33401 0.11728
# Poissons Ratio (z) = 0.24058 0.11450
#
# Static dielectric constant tensor:
#      x y z
#    x 3.847210 0.000000 0.000000 
#    y 0.000000 3.353380 0.000000 
#    z 0.000000 0.000000 3.311430 
# 
# 
# High freq. dielectric constant tensor:
#      x y z
#    x 1.722080 0.000000 0.000000 
#    y 0.000000 1.728040 0.000000 
#    z 0.000000 0.000000 1.718660 
# 
# From -- ./inp_files/9334.got.cif
#   From: 2010.03.12/outbox.cif.g09.slc.cpg/sg36_5_cif.got.tgz:9334.got - 2010.04.14 02:13:53.
