data_PCOD8174711
_publ_section_title
;
Structure prediction by ZEFSAII (Michael W. Deem and Ramdas Pophale) SiO2 
 PCOD8174711
Probable space group: C M C 21
;
_chemical_formula_sum "Si O2"
_cell_formula_units_Z 64
_cell_length_a 27.454667
_cell_length_b 20.785893
_cell_length_c 5.344680
_cell_angle_alpha 90.000000
_cell_angle_beta 90.000000
_cell_angle_gamma 90.000000
_cell_volume 3050.047310
_symmetry_space_group_name_H-M "C M C 21"
_symmetry_group_IT_number 36
_symmetry_cell_setting 'orthorhombic'
loop_
_space_group_symop_operation_xyz
x,y,z
-x,-y,1/2+z
x,-y,1/2+z
-x,y,z
1/2+x,1/2+y,z
1/2-x,1/2-y,1/2+z
1/2+x,1/2-y,1/2+z
1/2-x,1/2+y,z
loop_
_atom_site_type_symbol
_atom_site_label
_atom_site_fract_x
_atom_site_fract_y
_atom_site_fract_z
Si Si1 0.856899 0.830378 0.940240
Si Si2 0.412291 0.181041 0.466304
Si Si3 0.746250 0.019639 0.894215
Si Si4 0.647964 0.468127 0.796248
Si Si5 0.311675 0.769760 0.084083
Si Si6 0.270484 0.656304 0.793792
Si Si7 0.056992 0.461060 0.995849
Si Si8 0.445216 0.247222 0.980773
O O1 0.863294 0.891885 0.757862
O O2 0.832535 0.766600 0.826221
O O3 0.910127 0.808317 0.034185
O O4 0.821544 0.856755 0.156176
O O5 0.357012 0.205681 0.419204
O O6 0.412508 0.104587 0.499538
O O7 0.434036 0.212670 0.717221
O O8 0.441760 0.198381 0.215097
O O9 0.759699 0.093235 0.957080
O O10 0.716931 0.012254 0.628305
O O11 0.793924 0.978710 0.809887
O O12 0.624850 0.504047 0.554317
O O13 0.278164 0.831960 0.131884
O O14 0.275710 0.719919 0.954563
O O15 0.071148 0.499968 0.745804
O O16 0.000000 0.443729 0.996806
O O17 0.500000 0.273844 0.968416
#
# Coordination Sequence:
#
# PCOD8174711 Si02
#       8
#     8   8   8   8   8   8   8   8
#     4  11  22  37  59  86 119 153 197 251 293 355
#     4  11  23  41  62  89 126 158 200 252 306 359
#     4  10  20  34  55  80 109 148 201 241 280 336
#     4  10  19  33  56  81 109 148 197 238 281 338
#     4  11  24  37  58  90 120 166 200 250 307 361
#     4  12  21  37  59  85 120 156 203 247 290 360
#     4  10  20  36  61  87 114 155 203 247 297 362
#     4  11  23  39  63  92 122 156 196 248 311 365
#
# _framework density 20.983279
#
# number of rings (size 3 to 8) (size 9 to 14) (size 15 to 20)
#    0.000    1.250    5.000    3.375    0.000    1.000 
#    0.000    1.250    0.000    0.750    0.000    0.000 
#    0.000    0.000    0.000    0.000    0.000    0.000 
#
# Total GULP energy -396603.017265 kJ/mol
# GULP energy per Si atom -12393.844290 kJ/mol
# Density = 2.093552 g / cm^3
# Si number density = 20.983279 Si / 1000 Ang^3
#
#
#
# Elastic Constant Matrix: (Units=GPa)
#
#
# Indices 1 2 3 4 5 6 
#
# 1 84.8567 29.5340 18.6981 0.0000 0.0000 0.0000
# 2 29.5340 113.9123 23.9596 0.0000 0.0000 0.0000
# 3 18.6981 23.9596 129.7547 0.0000 0.0000 0.0000
# 4 0.0000 0.0000 0.0000 28.0563 0.0000 0.0000
# 5 0.0000 0.0000 0.0000 0.0000 15.9458 0.0000
# 6 0.0000 0.0000 0.0000 0.0000 0.0000 12.5317
#
#
#
# Elastic Compliance Matrix: (Units=1/GPa)
#
#
# Indices 1 2 3 4 5 6 
#
# 1 0.013167 -0.003136 -0.001318 0.000000 0.000000 0.000000
# 2 -0.003136 0.009881 -0.001373 0.000000 0.000000 0.000000
# 3 -0.001318 -0.001373 0.008150 0.000000 0.000000 0.000000
# 4 0.000000 0.000000 0.000000 0.035643 0.000000 0.000000
# 5 0.000000 0.000000 0.000000 0.000000 0.062712 0.000000
# 6 0.000000 0.000000 0.000000 0.000000 0.000000 0.079798
#
#
# Mechanical properties :
#
#
# Convention : Reuss Voigt Hill
#
# Bulk Modulus (GPa) = 51.16885 52.54525 51.85705
# Shear Modulus (GPa) = 21.97621 28.39557 25.18589
#
# Velocity S-wave (km/s) = 3.23974 3.68264 3.46827
# Velocity P-wave (km/s) = 6.19944 6.57102 6.38793
#
# Compressibility (1/GPa) = 0.01954314
#
# Stress axis : x y z
#
# Youngs Moduli (GPa) = 75.94935 101.20889 122.69575
#
# Poissons Ratio (x) = 0.31744 0.16174
# Poissons Ratio (y) = 0.23821 0.16840
# Poissons Ratio (z) = 0.10012 0.13891
#
# Static dielectric constant tensor:
#      x y z
#    x 3.612280 0.000000 0.000000 
#    y 0.000000 3.788070 0.000000 
#    z 0.000000 0.000000 4.386180 
# 
# 
# High freq. dielectric constant tensor:
#      x y z
#    x 1.779380 0.000000 0.000000 
#    y 0.000000 1.828320 0.000000 
#    z 0.000000 0.000000 1.834680 
# 
# From -- ./inp_files/1813.got.cif
#   From: 2010.03.12/outbox.cif.g09.slc.cpg/sg36_1_cif.got.tgz:1813.got - 2010.04.14 02:13:53.
