data_PCOD8174411
_publ_section_title
;
Structure prediction by ZEFSAII (Michael W. Deem and Ramdas Pophale) SiO2 
 PCOD8174411
Probable space group: C M C 21
;
_chemical_formula_sum "Si O2"
_cell_formula_units_Z 64
_cell_length_a 8.425536
_cell_length_b 30.845502
_cell_length_c 12.058019
_cell_angle_alpha 90.000000
_cell_angle_beta 90.000000
_cell_angle_gamma 90.000000
_cell_volume 3133.757202
_symmetry_space_group_name_H-M "C M C 21"
_symmetry_group_IT_number 36
_symmetry_cell_setting 'orthorhombic'
loop_
_space_group_symop_operation_xyz
x,y,z
-x,-y,1/2+z
x,-y,1/2+z
-x,y,z
1/2+x,1/2+y,z
1/2-x,1/2-y,1/2+z
1/2+x,1/2-y,1/2+z
1/2-x,1/2+y,z
loop_
_atom_site_type_symbol
_atom_site_label
_atom_site_fract_x
_atom_site_fract_y
_atom_site_fract_z
Si Si1 0.816282 0.795333 0.481360
Si Si2 0.818915 0.323799 0.256824
Si Si3 0.189468 0.874175 0.889811
Si Si4 0.311020 0.448539 0.482854
Si Si5 0.688843 0.372347 0.638481
Si Si6 0.815839 0.043320 0.522521
Si Si7 0.315656 0.705754 0.538064
Si Si8 0.816276 0.086525 0.747666
O O1 0.795574 0.816232 0.360796
O O2 0.753754 0.829188 0.574102
O O3 0.711705 0.752059 0.481869
O O4 0.000000 0.784063 0.500845
O O5 0.776800 0.292602 0.154578
O O6 0.789014 0.372391 0.214492
O O7 0.000000 0.316147 0.292197
O O8 0.255083 0.871688 0.763957
O O9 0.000000 0.874489 0.889769
O O10 0.257767 0.917865 0.947838
O O11 0.250415 0.832072 0.957211
O O12 0.500000 0.450530 0.490498
O O13 0.245220 0.415187 0.575632
O O14 0.236954 0.496544 0.498612
O O15 0.254674 0.432700 0.362841
O O16 0.500000 0.373605 0.637216
O O17 0.789639 0.051154 0.652644
O O18 0.000000 0.041104 0.491878
O O19 0.500000 0.697788 0.561421
O O20 0.000000 0.100673 0.754228
#
# Coordination Sequence:
#
# PCOD8174411 Si02
#       8
#     8   8   8   8   8   8   8   8
#     4  11  23  40  61  88 120 154 195 245 301 357
#     4  12  24  40  62  85 114 157 207 251 298 354
#     4   9  18  32  51  79 117 152 184 231 288 349
#     4   9  17  28  49  82 116 150 188 236 294 355
#     4   9  18  32  51  79 117 152 184 231 288 349
#     4   9  17  28  49  82 116 150 188 236 294 355
#     4  11  23  40  61  88 120 154 195 245 301 357
#     4  10  18  34  56  83 116 151 195 249 302 352
#
# _framework density 20.422768999999999
#
# number of rings (size 3 to 8) (size 9 to 14) (size 15 to 20)
#    0.000    2.000    2.500    1.875    3.500    0.000 
#    0.000    0.000    0.000    0.750    0.000    0.000 
#    0.000    0.000    0.000    0.000    0.000    0.000 
#
# Total GULP energy -396817.711952 kJ/mol
# GULP energy per Si atom -12400.553498 kJ/mol
# Density = 2.037629 g / cm^3
# Si number density = 20.422769 Si / 1000 Ang^3
#
#
#
# Elastic Constant Matrix: (Units=GPa)
#
#
# Indices 1 2 3 4 5 6 
#
# 1 29.1639 13.8877 14.2844 0.0000 0.0000 0.0000
# 2 13.8877 149.1155 54.7419 0.0000 0.0000 0.0000
# 3 14.2844 54.7419 148.5990 0.0000 0.0000 0.0000
# 4 0.0000 0.0000 0.0000 30.5882 0.0000 0.0000
# 5 0.0000 0.0000 0.0000 0.0000 13.1773 0.0000
# 6 0.0000 0.0000 0.0000 0.0000 0.0000 17.3981
#
#
#
# Elastic Compliance Matrix: (Units=1/GPa)
#
#
# Indices 1 2 3 4 5 6 
#
# 1 0.036746 -0.002458 -0.002627 0.000000 0.000000 0.000000
# 2 -0.002458 0.007919 -0.002681 0.000000 0.000000 0.000000
# 3 -0.002627 -0.002681 0.007970 0.000000 0.000000 0.000000
# 4 0.000000 0.000000 0.000000 0.032692 0.000000 0.000000
# 5 0.000000 0.000000 0.000000 0.000000 0.075888 0.000000
# 6 0.000000 0.000000 0.000000 0.000000 0.000000 0.057478
#
#
# Mechanical properties :
#
#
# Convention : Reuss Voigt Hill
#
# Bulk Modulus (GPa) = 26.95171 54.74515 40.84843
# Shear Modulus (GPa) = 20.27634 28.49700 24.38667
#
# Velocity S-wave (km/s) = 3.15434 3.73950 3.45931
# Velocity P-wave (km/s) = 5.14704 6.74605 6.00005
#
# Compressibility (1/GPa) = 0.03710340
#
# Stress axis : x y z
#
# Youngs Moduli (GPa) = 27.21378 126.27213 125.47495
#
# Poissons Ratio (x) = 0.31037 0.32960
# Poissons Ratio (y) = 0.06689 0.33641
# Poissons Ratio (z) = 0.07149 0.33855
#
# Static dielectric constant tensor:
#      x y z
#    x 3.065060 0.000000 0.000000 
#    y 0.000000 3.859190 0.000000 
#    z 0.000000 0.000000 3.848480 
# 
# 
# High freq. dielectric constant tensor:
#      x y z
#    x 1.738260 0.000000 0.000000 
#    y 0.000000 1.808830 0.000000 
#    z 0.000000 0.000000 1.810410 
# 
# From -- ./inp_files/7085.got.cif
#   From: 2010.03.12/outbox.cif.g09.slc.cpg/sg36_4_cif.got.tgz:7085.got - 2010.04.14 02:13:53.
