data_PCOD8174934
_publ_section_title
;
Structure prediction by ZEFSAII (Michael W. Deem and Ramdas Pophale) SiO2 
 PCOD8174934
Probable space group: C M C 21
;
_chemical_formula_sum "Si O2"
_cell_formula_units_Z 64
_cell_length_a 9.000835
_cell_length_b 24.003112
_cell_length_c 14.530367
_cell_angle_alpha 90.000000
_cell_angle_beta 90.000000
_cell_angle_gamma 90.000000
_cell_volume 3139.257465
_symmetry_space_group_name_H-M "C M C 21"
_symmetry_group_IT_number 36
_symmetry_cell_setting 'orthorhombic'
loop_
_space_group_symop_operation_xyz
x,y,z
-x,-y,1/2+z
x,-y,1/2+z
-x,y,z
1/2+x,1/2+y,z
1/2-x,1/2-y,1/2+z
1/2+x,1/2-y,1/2+z
1/2-x,1/2+y,z
loop_
_atom_site_type_symbol
_atom_site_label
_atom_site_fract_x
_atom_site_fract_y
_atom_site_fract_z
Si Si1 0.327758 0.457986 0.453460
Si Si2 0.663472 0.097006 0.647493
Si Si3 0.824231 0.938897 0.826475
Si Si4 0.673723 0.305562 0.229859
Si Si5 0.329673 0.029925 0.146771
Si Si6 0.176715 0.751876 0.046732
Si Si7 0.827110 0.168889 0.926334
Si Si8 0.329474 0.855060 0.954509
O O1 0.500000 0.467299 0.478025
O O2 0.274129 0.504948 0.380834
O O3 0.234251 0.461227 0.546020
O O4 0.299414 0.396784 0.411018
O O5 0.500000 0.119526 0.675906
O O6 0.788069 0.132304 0.697959
O O7 0.681715 0.101324 0.537836
O O8 0.683684 0.033926 0.676658
O O9 0.764831 0.937254 0.722387
O O10 0.755492 0.883476 0.870561
O O11 0.000000 0.933585 0.825383
O O12 0.500000 0.301629 0.234689
O O13 0.731900 0.298187 0.334511
O O14 0.732038 0.261444 0.153061
O O15 0.500000 0.050326 0.148049
O O16 0.233082 0.691500 0.013284
O O17 0.250515 0.797371 0.980354
O O18 0.000000 0.756348 0.040105
O O19 0.000000 0.180683 0.945487
O O20 0.500000 0.842529 0.927043
#
# Coordination Sequence:
#
# PCOD8174934 Si02
#       8
#     8   8   8   8   8   8   8   8
#     4  10  22  39  60  86 119 158 199 245 297 352
#     4   9  18  32  54  83 114 147 189 236 284 339
#     4  11  22  37  59  88 119 155 199 244 293 352
#     4   9  19  36  60  86 113 148 196 243 294 348
#     4  11  22  36  55  84 121 159 195 236 293 358
#     4  10  21  38  60  88 115 149 196 247 295 350
#     4  10  21  40  61  84 116 157 197 244 299 350
#     4  10  19  36  59  83 113 149 189 239 293 347
#
# _framework density 20.386984999999999
#
# number of rings (size 3 to 8) (size 9 to 14) (size 15 to 20)
#    0.000    2.000    1.250    2.250    0.000    4.500 
#    2.250    0.000    0.000    0.000    0.000    0.000 
#    0.000    0.000    0.000    0.000    0.000    0.000 
#
# Total GULP energy -396714.397063 kJ/mol
# GULP energy per Si atom -12397.324908 kJ/mol
# Density = 2.034058 g / cm^3
# Si number density = 20.386985 Si / 1000 Ang^3
#
#
#
# Elastic Constant Matrix: (Units=GPa)
#
#
# Indices 1 2 3 4 5 6 
#
# 1 57.5081 17.8621 34.8356 0.0000 0.0000 0.0000
# 2 17.8621 39.4192 8.3351 0.0000 0.0000 0.0000
# 3 34.8356 8.3351 98.3655 0.0000 0.0000 0.0000
# 4 0.0000 0.0000 0.0000 25.7076 0.0000 0.0000
# 5 0.0000 0.0000 0.0000 0.0000 29.5298 0.0000
# 6 0.0000 0.0000 0.0000 0.0000 0.0000 31.5272
#
#
#
# Elastic Compliance Matrix: (Units=1/GPa)
#
#
# Indices 1 2 3 4 5 6 
#
# 1 0.025362 -0.009768 -0.008154 0.000000 0.000000 0.000000
# 2 -0.009768 0.029593 0.000952 0.000000 0.000000 0.000000
# 3 -0.008154 0.000952 0.012973 0.000000 0.000000 0.000000
# 4 0.000000 0.000000 0.000000 0.038899 0.000000 0.000000
# 5 0.000000 0.000000 0.000000 0.000000 0.033864 0.000000
# 6 0.000000 0.000000 0.000000 0.000000 0.000000 0.031719
#
#
# Mechanical properties :
#
#
# Convention : Reuss Voigt Hill
#
# Bulk Modulus (GPa) = 29.42249 35.26202 32.34226
# Shear Modulus (GPa) = 22.96937 26.30361 24.63649
#
# Velocity S-wave (km/s) = 3.36023 3.59585 3.48004
# Velocity P-wave (km/s) = 5.43306 5.87998 5.66093
#
# Compressibility (1/GPa) = 0.03398761
#
# Stress axis : x y z
#
# Youngs Moduli (GPa) = 39.42862 33.79128 77.08153
#
# Poissons Ratio (x) = 0.33008 0.62854
# Poissons Ratio (y) = 0.38515 -0.07336
# Poissons Ratio (z) = 0.32151 -0.03216
#
# Static dielectric constant tensor:
#      x y z
#    x 3.670840 0.000000 0.000000 
#    y 0.000000 3.551650 0.000000 
#    z 0.000000 0.000000 3.871570 
# 
# 
# High freq. dielectric constant tensor:
#      x y z
#    x 1.794800 0.000000 0.000000 
#    y 0.000000 1.782430 0.000000 
#    z 0.000000 0.000000 1.800120 
# 
# From -- ./inp_files/10967.got.cif
#   From: 2010.03.12/outbox.cif.g09.slc.cpg/sg36_6_cif.got.tgz:10967.got - 2010.04.14 02:13:53.
