data_PCOD8174570
_publ_section_title
;
Structure prediction by ZEFSAII (Michael W. Deem and Ramdas Pophale) SiO2 
 PCOD8174570
Probable space group: C M C 21
;
_chemical_formula_sum "Si O2"
_cell_formula_units_Z 64
_cell_length_a 9.047056
_cell_length_b 22.833331
_cell_length_c 17.599606
_cell_angle_alpha 90.000000
_cell_angle_beta 90.000000
_cell_angle_gamma 90.000000
_cell_volume 3635.628476
_symmetry_space_group_name_H-M "C M C 21"
_symmetry_group_IT_number 36
_symmetry_cell_setting 'orthorhombic'
loop_
_space_group_symop_operation_xyz
x,y,z
-x,-y,1/2+z
x,-y,1/2+z
-x,y,z
1/2+x,1/2+y,z
1/2-x,1/2-y,1/2+z
1/2+x,1/2-y,1/2+z
1/2-x,1/2+y,z
loop_
_atom_site_type_symbol
_atom_site_label
_atom_site_fract_x
_atom_site_fract_y
_atom_site_fract_z
Si Si1 0.330312 0.923516 0.052390
Si Si2 0.173139 0.693371 0.478025
Si Si3 0.337248 0.412356 0.459998
Si Si4 0.671782 0.871499 0.682155
Si Si5 0.830398 0.144343 0.330313
Si Si6 0.332188 0.469009 0.912035
Si Si7 0.165567 0.022441 0.120046
Si Si8 0.670728 0.810437 0.522954
O O1 0.500000 0.936154 0.071477
O O2 0.233639 0.956573 0.116753
O O3 0.296947 0.854045 0.045339
O O4 0.293512 0.949331 0.970105
O O5 0.259691 0.678210 0.401140
O O6 0.229509 0.754220 0.510808
O O7 0.000000 0.696705 0.458735
O O8 0.500000 0.383929 0.449931
O O9 0.306465 0.461281 0.393696
O O10 0.331232 0.450515 0.536371
O O11 0.217385 0.360584 0.462023
O O12 0.500000 0.878318 0.698460
O O13 0.747196 0.838207 0.752893
O O14 0.739276 0.936363 0.674900
O O15 0.702981 0.833093 0.607564
O O16 0.816851 0.073475 0.339428
O O17 0.000000 0.164359 0.324037
O O18 0.500000 0.461537 0.945935
O O19 0.000000 0.018576 0.152763
O O20 0.500000 0.795345 0.509735
#
# Coordination Sequence:
#
# PCOD8174570 Si02
#       8
#     8   8   8   8   8   8   8   8
#     4   9  16  26  43  68  94 119 149 189 235 280
#     4  10  20  33  50  72  99 132 170 210 251 295
#     4   8  14  26  44  66  92 119 149 188 232 277
#     4  10  20  33  49  72 101 130 163 205 253 302
#     4  10  19  32  51  74 100 129 163 203 250 304
#     4   8  15  27  44  67  93 121 151 185 229 283
#     4   9  16  27  45  68  93 122 153 187 233 285
#     4  10  20  32  48  71  98 130 170 211 247 290
#
# _framework density 17.603559000000001
#
# number of rings (size 3 to 8) (size 9 to 14) (size 15 to 20)
#    0.000    2.750    0.000    3.000    0.000    6.500 
#    0.000    0.000    0.000    1.500    0.000    8.750 
#    0.000    0.000    0.000    0.000    0.000    0.000 
#
# Total GULP energy -396534.337949 kJ/mol
# GULP energy per Si atom -12391.698061 kJ/mol
# Density = 1.756349 g / cm^3
# Si number density = 17.603559 Si / 1000 Ang^3
#
#
#
# Elastic Constant Matrix: (Units=GPa)
#
#
# Indices 1 2 3 4 5 6 
#
# 1 114.9321 55.5264 34.2809 0.0000 0.0000 0.0000
# 2 55.5264 101.9288 23.8584 0.0000 0.0000 0.0000
# 3 34.2809 23.8584 45.2570 0.0000 0.0000 0.0000
# 4 0.0000 0.0000 0.0000 13.7334 0.0000 0.0000
# 5 0.0000 0.0000 0.0000 0.0000 23.5961 0.0000
# 6 0.0000 0.0000 0.0000 0.0000 0.0000 29.6632
#
#
#
# Elastic Compliance Matrix: (Units=1/GPa)
#
#
# Indices 1 2 3 4 5 6 
#
# 1 0.013649 -0.005721 -0.007323 0.000000 0.000000 0.000000
# 2 -0.005721 0.013590 -0.002831 0.000000 0.000000 0.000000
# 3 -0.007323 -0.002831 0.029135 0.000000 0.000000 0.000000
# 4 0.000000 0.000000 0.000000 0.072815 0.000000 0.000000
# 5 0.000000 0.000000 0.000000 0.000000 0.042380 0.000000
# 6 0.000000 0.000000 0.000000 0.000000 0.000000 0.033712
#
#
# Mechanical properties :
#
#
# Convention : Reuss Voigt Hill
#
# Bulk Modulus (GPa) = 40.60929 54.38327 47.49628
# Shear Modulus (GPa) = 20.38832 23.29536 21.84184
#
# Velocity S-wave (km/s) = 3.40692 3.64171 3.52627
# Velocity P-wave (km/s) = 6.21249 6.97446 6.60447
#
# Compressibility (1/GPa) = 0.02462491
#
# Stress axis : x y z
#
# Youngs Moduli (GPa) = 73.26517 73.58301 34.32311
#
# Poissons Ratio (x) = 0.42100 0.25133
# Poissons Ratio (y) = 0.41918 0.09715
# Poissons Ratio (z) = 0.53649 0.20828
#
# Static dielectric constant tensor:
#      x y z
#    x 3.393190 0.000000 0.000000 
#    y 0.000000 3.388910 0.000000 
#    z 0.000000 0.000000 2.937750 
# 
# 
# High freq. dielectric constant tensor:
#      x y z
#    x 1.696040 0.000000 0.000000 
#    y 0.000000 1.673410 0.000000 
#    z 0.000000 0.000000 1.632130 
# 
# From -- ./inp_files/14034.got.cif
#   From: 2010.03.12/outbox.cif.g09.slc.cpg/sg36_8_cif.got.tgz:14034.got - 2010.04.14 02:13:53.
