data_PCOD8174903
_publ_section_title
;
Structure prediction by ZEFSAII (Michael W. Deem and Ramdas Pophale) SiO2 
 PCOD8174903
Probable space group: C M C 21
;
_chemical_formula_sum "Si O2"
_cell_formula_units_Z 64
_cell_length_a 9.131832
_cell_length_b 28.682147
_cell_length_c 12.632585
_cell_angle_alpha 90.000000
_cell_angle_beta 90.000000
_cell_angle_gamma 90.000000
_cell_volume 3308.733583
_symmetry_space_group_name_H-M "C M C 21"
_symmetry_group_IT_number 36
_symmetry_cell_setting 'orthorhombic'
loop_
_space_group_symop_operation_xyz
x,y,z
-x,-y,1/2+z
x,-y,1/2+z
-x,y,z
1/2+x,1/2+y,z
1/2-x,1/2-y,1/2+z
1/2+x,1/2-y,1/2+z
1/2-x,1/2+y,z
loop_
_atom_site_type_symbol
_atom_site_label
_atom_site_fract_x
_atom_site_fract_y
_atom_site_fract_z
Si Si1 0.839084 0.934980 0.354250
Si Si2 0.825216 0.281123 0.260923
Si Si3 0.837789 0.166009 0.946090
Si Si4 0.672339 0.066442 0.641035
Si Si5 0.170070 0.309933 0.822505
Si Si6 0.667624 0.871345 0.631163
Si Si7 0.828208 0.470090 0.542267
Si Si8 0.672815 0.163474 0.553649
O O1 0.856037 0.886856 0.413839
O O2 0.747758 0.924622 0.251250
O O3 0.751862 0.970233 0.429470
O O4 0.000000 0.955558 0.328033
O O5 0.760953 0.306694 0.363093
O O6 0.765305 0.228803 0.262714
O O7 0.768537 0.305807 0.152534
O O8 0.000000 0.282052 0.267583
O O9 0.000000 0.189408 0.955093
O O10 0.760610 0.165094 0.060642
O O11 0.500000 0.066474 0.660297
O O12 0.719626 0.109309 0.565446
O O13 0.727655 0.017105 0.597463
O O14 0.188004 0.357538 0.754307
O O15 0.000000 0.294620 0.825791
O O16 0.233703 0.318009 0.941047
O O17 0.500000 0.865643 0.594819
O O18 0.714475 0.925480 0.614988
O O19 0.000000 0.472172 0.519987
O O20 0.500000 0.167208 0.550860
#
# Coordination Sequence:
#
# PCOD8174903 Si02
#       8
#     8   8   8   8   8   8   8   8
#     4  10  20  34  53  80 113 149 186 234 288 340
#     4  11  22  37  58  84 112 146 190 238 287 339
#     4  10  20  35  57  81 108 146 190 235 284 337
#     4  10  19  35  60  86 112 148 193 240 287 340
#     4  10  22  39  57  81 117 156 189 230 289 349
#     4   9  19  36  57  84 117 149 186 234 285 337
#     4   9  19  34  57  86 113 149 195 238 281 338
#     4   9  20  38  59  84 116 149 185 237 293 342
#
# _framework density 19.342746999999999
#
# number of rings (size 3 to 8) (size 9 to 14) (size 15 to 20)
#    0.000    2.250    1.250    1.125    1.750    3.000 
#    0.000    5.000    0.000    1.500    0.000    0.000 
#    0.000    0.000    0.000    0.000    0.000    0.000 
#
# Total GULP energy -396707.184260 kJ/mol
# GULP energy per Si atom -12397.099508 kJ/mol
# Density = 1.929872 g / cm^3
# Si number density = 19.342747 Si / 1000 Ang^3
#
#
#
# Elastic Constant Matrix: (Units=GPa)
#
#
# Indices 1 2 3 4 5 6 
#
# 1 56.5826 31.0303 32.3485 0.0000 0.0000 0.0000
# 2 31.0303 100.0923 50.2880 0.0000 0.0000 0.0000
# 3 32.3485 50.2880 116.3297 0.0000 0.0000 0.0000
# 4 0.0000 0.0000 0.0000 13.9138 0.0000 0.0000
# 5 0.0000 0.0000 0.0000 0.0000 16.9274 0.0000
# 6 0.0000 0.0000 0.0000 0.0000 0.0000 9.6062
#
#
#
# Elastic Compliance Matrix: (Units=1/GPa)
#
#
# Indices 1 2 3 4 5 6 
#
# 1 0.022790 -0.004958 -0.004194 0.000000 0.000000 0.000000
# 2 -0.004958 0.013841 -0.004605 0.000000 0.000000 0.000000
# 3 -0.004194 -0.004605 0.011753 0.000000 0.000000 0.000000
# 4 0.000000 0.000000 0.000000 0.071871 0.000000 0.000000
# 5 0.000000 0.000000 0.000000 0.000000 0.059076 0.000000
# 6 0.000000 0.000000 0.000000 0.000000 0.000000 0.104099
#
#
# Mechanical properties :
#
#
# Convention : Reuss Voigt Hill
#
# Bulk Modulus (GPa) = 47.91396 55.59312 51.75354
# Shear Modulus (GPa) = 15.72816 18.71202 17.22009
#
# Velocity S-wave (km/s) = 2.85464 3.11367 2.98696
# Velocity P-wave (km/s) = 5.97412 6.45988 6.22174
#
# Compressibility (1/GPa) = 0.02087074
#
# Stress axis : x y z
#
# Youngs Moduli (GPa) = 43.87873 72.24713 85.08412
#
# Poissons Ratio (x) = 0.35821 0.35684
# Poissons Ratio (y) = 0.21756 0.39179
# Poissons Ratio (z) = 0.18403 0.33268
#
# Static dielectric constant tensor:
#      x y z
#    x 3.621220 0.000000 0.000000 
#    y 0.000000 3.719490 0.000000 
#    z 0.000000 0.000000 3.636610 
# 
# 
# High freq. dielectric constant tensor:
#      x y z
#    x 1.738520 0.000000 0.000000 
#    y 0.000000 1.750070 0.000000 
#    z 0.000000 0.000000 1.754570 
# 
# From -- ./inp_files/7126.got.cif
#   From: 2010.03.12/outbox.cif.g09.slc.cpg/sg36_4_cif.got.tgz:7126.got - 2010.04.14 02:13:53.
