data_PCOD8174367
_publ_section_title
;
Structure prediction by ZEFSAII (Michael W. Deem and Ramdas Pophale) SiO2 
 PCOD8174367
Probable space group: C M C 21
;
_chemical_formula_sum "Si O2"
_cell_formula_units_Z 64
_cell_length_a 8.448022
_cell_length_b 23.073094
_cell_length_c 16.593979
_cell_angle_alpha 90.000000
_cell_angle_beta 90.000000
_cell_angle_gamma 90.000000
_cell_volume 3234.531670
_symmetry_space_group_name_H-M "C M C 21"
_symmetry_group_IT_number 36
_symmetry_cell_setting 'orthorhombic'
loop_
_space_group_symop_operation_xyz
x,y,z
-x,-y,1/2+z
x,-y,1/2+z
-x,y,z
1/2+x,1/2+y,z
1/2-x,1/2-y,1/2+z
1/2+x,1/2-y,1/2+z
1/2-x,1/2+y,z
loop_
_atom_site_type_symbol
_atom_site_label
_atom_site_fract_x
_atom_site_fract_y
_atom_site_fract_z
Si Si1 0.816609 0.438930 0.944390
Si Si2 0.684613 0.865574 0.393020
Si Si3 0.185567 0.594554 0.721645
Si Si4 0.819367 0.620453 0.134550
Si Si5 0.688479 0.033600 0.266001
Si Si6 0.679524 0.452456 0.504354
Si Si7 0.185375 0.215191 0.027863
Si Si8 0.315954 0.158447 0.564022
O O1 0.753367 0.447156 0.854134
O O2 0.000000 0.457071 0.950428
O O3 0.710214 0.479551 0.000791
O O4 0.788977 0.375024 0.979688
O O5 0.500000 0.876891 0.407970
O O6 0.718961 0.861597 0.296929
O O7 0.784653 0.922148 0.418779
O O8 0.736099 0.809541 0.445504
O O9 0.256473 0.529530 0.738266
O O10 0.260009 0.624351 0.641071
O O11 0.000000 0.586109 0.708476
O O12 0.747912 0.587060 0.211739
O O13 0.809326 0.573597 0.063917
O O14 0.717498 0.675922 0.106889
O O15 0.000000 0.640066 0.147892
O O16 0.500000 0.031614 0.261131
O O17 0.500000 0.439391 0.531899
O O18 0.258810 0.278087 0.049099
O O19 0.000000 0.218607 0.010682
O O20 0.500000 0.166349 0.583413
#
# Coordination Sequence:
#
# PCOD8174367 Si02
#       8
#     8   8   8   8   8   8   8   8
#     4  10  18  34  57  79 105 140 178 219 264 318
#     4  10  18  32  57  79 101 138 183 225 259 308
#     4   9  16  30  53  82 105 130 174 223 265 315
#     4  10  19  33  55  79 102 138 181 222 260 310
#     4   9  17  30  54  85 107 126 171 228 267 312
#     4  11  20  31  50  79 112 140 169 212 271 327
#     4  10  20  36  53  75 108 142 180 222 268 319
#     4   9  19  34  55  78 106 144 182 219 264 319
#
# _framework density 19.786481999999999
#
# number of rings (size 3 to 8) (size 9 to 14) (size 15 to 20)
#    0.000    2.250    1.250    4.500    0.000    2.000 
#    2.250    2.500    0.000    3.000    0.000    0.000 
#    0.000    0.000    0.000    0.000    0.000    0.000 
#
# Total GULP energy -396499.631765 kJ/mol
# GULP energy per Si atom -12390.613493 kJ/mol
# Density = 1.974145 g / cm^3
# Si number density = 19.786482 Si / 1000 Ang^3
#
#
#
# Elastic Constant Matrix: (Units=GPa)
#
#
# Indices 1 2 3 4 5 6 
#
# 1 36.0054 11.1362 7.1261 0.0000 0.0000 0.0000
# 2 11.1362 148.1245 76.9568 0.0000 0.0000 0.0000
# 3 7.1261 76.9568 109.5431 0.0000 0.0000 0.0000
# 4 0.0000 0.0000 0.0000 25.8517 0.0000 0.0000
# 5 0.0000 0.0000 0.0000 0.0000 12.4825 0.0000
# 6 0.0000 0.0000 0.0000 0.0000 0.0000 20.4378
#
#
#
# Elastic Compliance Matrix: (Units=1/GPa)
#
#
# Indices 1 2 3 4 5 6 
#
# 1 0.028456 -0.001854 -0.000548 0.000000 0.000000 0.000000
# 2 -0.001854 0.010752 -0.007433 0.000000 0.000000 0.000000
# 3 -0.000548 -0.007433 0.014386 0.000000 0.000000 0.000000
# 4 0.000000 0.000000 0.000000 0.038682 0.000000 0.000000
# 5 0.000000 0.000000 0.000000 0.000000 0.080112 0.000000
# 6 0.000000 0.000000 0.000000 0.000000 0.000000 0.048929
#
#
# Mechanical properties :
#
#
# Convention : Reuss Voigt Hill
#
# Bulk Modulus (GPa) = 29.47884 53.79015 41.63449
# Shear Modulus (GPa) = 19.81790 24.98466 22.40128
#
# Velocity S-wave (km/s) = 3.16822 3.55732 3.36840
# Velocity P-wave (km/s) = 5.32112 6.64207 6.01795
#
# Compressibility (1/GPa) = 0.03392264
#
# Stress axis : x y z
#
# Youngs Moduli (GPa) = 35.14233 93.00316 69.50974
#
# Poissons Ratio (x) = 0.17247 0.03812
# Poissons Ratio (y) = 0.06517 0.51668
# Poissons Ratio (z) = 0.01927 0.69131
#
# Static dielectric constant tensor:
#      x y z
#    x 3.209110 0.000000 0.000000 
#    y 0.000000 3.738790 0.000000 
#    z 0.000000 0.000000 3.821110 
# 
# 
# High freq. dielectric constant tensor:
#      x y z
#    x 1.731570 0.000000 0.000000 
#    y 0.000000 1.763300 0.000000 
#    z 0.000000 0.000000 1.772720 
# 
# From -- ./inp_files/13904.got.cif
#   From: 2010.03.12/outbox.cif.g09.slc.cpg/sg36_7_cif.got.tgz:13904.got - 2010.04.14 02:13:53.
