data_PCOD8174865
_publ_section_title
;
Structure prediction by ZEFSAII (Michael W. Deem and Ramdas Pophale) SiO2 
 PCOD8174865
Probable space group: C M C 21
;
_chemical_formula_sum "Si O2"
_cell_formula_units_Z 64
_cell_length_a 9.083121
_cell_length_b 20.458633
_cell_length_c 19.243399
_cell_angle_alpha 90.000000
_cell_angle_beta 90.000000
_cell_angle_gamma 90.000000
_cell_volume 3575.966949
_symmetry_space_group_name_H-M "C M C 21"
_symmetry_group_IT_number 36
_symmetry_cell_setting 'orthorhombic'
loop_
_space_group_symop_operation_xyz
x,y,z
-x,-y,1/2+z
x,-y,1/2+z
-x,y,z
1/2+x,1/2+y,z
1/2-x,1/2-y,1/2+z
1/2+x,1/2-y,1/2+z
1/2-x,1/2+y,z
loop_
_atom_site_type_symbol
_atom_site_label
_atom_site_fract_x
_atom_site_fract_y
_atom_site_fract_z
Si Si1 0.831496 0.501780 0.659910
Si Si2 0.830148 0.053410 0.943654
Si Si3 0.330946 0.487892 0.294756
Si Si4 0.672943 0.367002 0.655376
Si Si5 0.827876 0.136886 0.306954
Si Si6 0.175279 0.814197 0.951101
Si Si7 0.829437 0.190614 0.012469
Si Si8 0.669381 0.935493 0.016140
O O1 0.765860 0.535093 0.729384
O O2 0.748323 0.435739 0.638551
O O3 0.814071 0.553918 0.598485
O O4 0.000000 0.483456 0.673491
O O5 0.801864 0.058438 0.860809
O O6 0.000000 0.034694 0.958704
O O7 0.788870 0.122770 0.975865
O O8 0.727257 0.998462 0.975654
O O9 0.500000 0.485949 0.270993
O O10 0.285096 0.561231 0.316757
O O11 0.500000 0.382338 0.658148
O O12 0.728147 0.339154 0.730542
O O13 0.708076 0.315278 0.594656
O O14 0.761862 0.177334 0.371988
O O15 0.000000 0.146832 0.310755
O O16 0.000000 0.817860 0.953829
O O17 0.227106 0.745074 0.979628
O O18 0.237985 0.871478 0.998850
O O19 0.000000 0.208880 0.001103
O O20 0.500000 0.924536 0.995155
#
# Coordination Sequence:
#
# PCOD8174865 Si02
#       8
#     8   8   8   8   8   8   8   8
#     4  10  20  32  50  81 114 141 178 228 276 322
#     4  10  19  35  58  82 109 143 183 223 272 332
#     4   9  17  32  54  79 108 141 183 226 268 327
#     4   9  17  33  57  78 103 141 181 223 272 329
#     4   8  15  30  53  79 101 132 179 222 264 320
#     4  11  22  37  56  78 111 148 186 227 271 331
#     4  10  21  36  56  82 111 144 183 227 277 329
#     4  11  22  35  54  81 113 142 179 230 276 322
#
# _framework density 17.897257
#
# number of rings (size 3 to 8) (size 9 to 14) (size 15 to 20)
#    0.000    2.250    2.500    1.875    0.000    3.000 
#    0.000    1.875    0.000    4.500    0.000    0.000 
#    0.000    0.000    0.000    0.000    0.000    0.000 
#
# Total GULP energy -396712.889143 kJ/mol
# GULP energy per Si atom -12397.277786 kJ/mol
# Density = 1.785652 g / cm^3
# Si number density = 17.897257 Si / 1000 Ang^3
#
#
#
# Elastic Constant Matrix: (Units=GPa)
#
#
# Indices 1 2 3 4 5 6 
#
# 1 73.8615 36.5002 46.7231 0.0000 0.0000 0.0000
# 2 36.5002 68.5824 45.9300 0.0000 0.0000 0.0000
# 3 46.7231 45.9300 132.1367 0.0000 0.0000 0.0000
# 4 0.0000 0.0000 0.0000 23.6125 0.0000 0.0000
# 5 0.0000 0.0000 0.0000 0.0000 26.9427 0.0000
# 6 0.0000 0.0000 0.0000 0.0000 0.0000 29.0975
#
#
#
# Elastic Compliance Matrix: (Units=1/GPa)
#
#
# Indices 1 2 3 4 5 6 
#
# 1 0.020186 -0.007772 -0.004436 0.000000 0.000000 0.000000
# 2 -0.007772 0.021998 -0.004898 0.000000 0.000000 0.000000
# 3 -0.004436 -0.004898 0.010839 0.000000 0.000000 0.000000
# 4 0.000000 0.000000 0.000000 0.042350 0.000000 0.000000
# 5 0.000000 0.000000 0.000000 0.000000 0.037116 0.000000
# 6 0.000000 0.000000 0.000000 0.000000 0.000000 0.034367
#
#
# Mechanical properties :
#
#
# Convention : Reuss Voigt Hill
#
# Bulk Modulus (GPa) = 53.16353 59.20969 56.18661
# Shear Modulus (GPa) = 24.11514 25.62570 24.87042
#
# Velocity S-wave (km/s) = 3.67471 3.78805 3.73181
# Velocity P-wave (km/s) = 6.91187 7.23100 7.07323
#
# Compressibility (1/GPa) = 0.01880989
#
# Stress axis : x y z
#
# Youngs Moduli (GPa) = 49.53976 45.45923 92.25910
#
# Poissons Ratio (x) = 0.35332 0.40927
# Poissons Ratio (y) = 0.38503 0.45189
# Poissons Ratio (z) = 0.21976 0.22266
#
# Static dielectric constant tensor:
#      x y z
#    x 3.232780 0.000000 0.000000 
#    y 0.000000 3.109420 0.000000 
#    z 0.000000 0.000000 3.880950 
# 
# 
# High freq. dielectric constant tensor:
#      x y z
#    x 1.683610 0.000000 0.000000 
#    y 0.000000 1.657730 0.000000 
#    z 0.000000 0.000000 1.714590 
# 
# From -- ./inp_files/15782.got.cif
#   From: 2010.03.12/outbox.cif.g09.slc.cpg/sg36_8_cif.got.tgz:15782.got - 2010.04.14 02:13:53.
