data_PCOD8174550
_publ_section_title
;
Structure prediction by ZEFSAII (Michael W. Deem and Ramdas Pophale) SiO2 
 PCOD8174550
Probable space group: C M C 21
;
_chemical_formula_sum "Si O2"
_cell_formula_units_Z 64
_cell_length_a 9.055849
_cell_length_b 19.923308
_cell_length_c 19.657192
_cell_angle_alpha 90.000000
_cell_angle_beta 90.000000
_cell_angle_gamma 90.000000
_cell_volume 3546.599111
_symmetry_space_group_name_H-M "C M C 21"
_symmetry_group_IT_number 36
_symmetry_cell_setting 'orthorhombic'
loop_
_space_group_symop_operation_xyz
x,y,z
-x,-y,1/2+z
x,-y,1/2+z
-x,y,z
1/2+x,1/2+y,z
1/2-x,1/2-y,1/2+z
1/2+x,1/2-y,1/2+z
1/2-x,1/2+y,z
loop_
_atom_site_type_symbol
_atom_site_label
_atom_site_fract_x
_atom_site_fract_y
_atom_site_fract_z
Si Si1 0.171089 0.542684 0.647950
Si Si2 0.330077 0.839764 0.055506
Si Si3 0.669997 0.432153 0.815012
Si Si4 0.673851 0.103551 0.179598
Si Si5 0.827453 0.765167 0.673743
Si Si6 0.326541 0.723968 0.813109
Si Si7 0.671312 0.681273 0.417109
Si Si8 0.330700 0.577645 0.782043
O O1 0.206779 0.584100 0.579419
O O2 0.219403 0.464910 0.639906
O O3 0.245925 0.578659 0.711311
O O4 0.000000 0.546590 0.665397
O O5 0.500000 0.833139 0.032400
O O6 0.295113 0.791178 0.118278
O O7 0.224898 0.820367 0.994167
O O8 0.500000 0.422523 0.791509
O O9 0.777116 0.402034 0.758034
O O10 0.700839 0.391952 0.884321
O O11 0.706800 0.511112 0.826569
O O12 0.500000 0.117237 0.176206
O O13 0.761456 0.164851 0.144886
O O14 0.746402 0.748599 0.743718
O O15 0.000000 0.773092 0.688893
O O16 0.500000 0.738941 0.809259
O O17 0.258795 0.761341 0.877483
O O18 0.292311 0.644724 0.824212
O O19 0.500000 0.700228 0.415626
O O20 0.500000 0.577844 0.760693
#
# Coordination Sequence:
#
# PCOD8174550 Si02
#       8
#     8   8   8   8   8   8   8   8
#     4   9  18  34  54  79 109 142 179 223 274 326
#     4  10  22  39  57  77 109 150 188 229 279 335
#     4   9  18  34  53  77 109 142 177 222 274 325
#     4  10  19  31  54  84 111 139 178 227 274 324
#     4  11  21  35  56  81 111 147 185 231 281 329
#     4  11  21  34  56  84 113 145 184 232 279 329
#     4  11  23  37  56  80 111 149 188 230 278 337
#     4   9  18  32  54  82 109 138 177 226 273 321
#
# _framework density 18.045456000000001
#
# number of rings (size 3 to 8) (size 9 to 14) (size 15 to 20)
#    0.000    2.000    2.500    1.500    0.000    3.000 
#    0.000    1.250    0.000    4.500    0.000    0.000 
#    0.000    0.000    0.000    0.000    0.000    0.000 
#
# Total GULP energy -396767.966232 kJ/mol
# GULP energy per Si atom -12398.998945 kJ/mol
# Density = 1.800438 g / cm^3
# Si number density = 18.045456 Si / 1000 Ang^3
#
#
#
# Elastic Constant Matrix: (Units=GPa)
#
#
# Indices 1 2 3 4 5 6 
#
# 1 77.2099 46.3352 30.0592 0.0000 0.0000 0.0000
# 2 46.3352 116.8075 30.9354 0.0000 0.0000 0.0000
# 3 30.0592 30.9354 55.6286 0.0000 0.0000 0.0000
# 4 0.0000 0.0000 0.0000 20.5323 0.0000 0.0000
# 5 0.0000 0.0000 0.0000 0.0000 29.6364 0.0000
# 6 0.0000 0.0000 0.0000 0.0000 0.0000 27.4276
#
#
#
# Elastic Compliance Matrix: (Units=1/GPa)
#
#
# Indices 1 2 3 4 5 6 
#
# 1 0.019172 -0.005701 -0.007189 0.000000 0.000000 0.000000
# 2 -0.005701 0.011735 -0.003445 0.000000 0.000000 0.000000
# 3 -0.007189 -0.003445 0.023777 0.000000 0.000000 0.000000
# 4 0.000000 0.000000 0.000000 0.048704 0.000000 0.000000
# 5 0.000000 0.000000 0.000000 0.000000 0.033742 0.000000
# 6 0.000000 0.000000 0.000000 0.000000 0.000000 0.036460
#
#
# Mechanical properties :
#
#
# Convention : Reuss Voigt Hill
#
# Bulk Modulus (GPa) = 45.42822 51.58950 48.50886
# Shear Modulus (GPa) = 23.40840 25.00701 24.20771
#
# Velocity S-wave (km/s) = 3.60556 3.72664 3.66660
# Velocity P-wave (km/s) = 6.52399 6.86789 6.69814
#
# Compressibility (1/GPa) = 0.02201275
#
# Stress axis : x y z
#
# Youngs Moduli (GPa) = 52.15957 85.21460 42.05737
#
# Poissons Ratio (x) = 0.48582 0.30236
# Poissons Ratio (y) = 0.29737 0.14490
# Poissons Ratio (z) = 0.37499 0.29359
#
# Static dielectric constant tensor:
#      x y z
#    x 3.412650 0.000000 0.000000 
#    y 0.000000 4.011640 0.000000 
#    z 0.000000 0.000000 2.976510 
# 
# 
# High freq. dielectric constant tensor:
#      x y z
#    x 1.707440 0.000000 0.000000 
#    y 0.000000 1.720480 0.000000 
#    z 0.000000 0.000000 1.659950 
# 
# From -- ./inp_files/13818.got.cif
#   From: 2010.03.12/outbox.cif.g09.slc.cpg/sg36_7_cif.got.tgz:13818.got - 2010.04.14 02:13:53.
