data_PCOD8174985
_publ_section_title
;
Structure prediction by ZEFSAII (Michael W. Deem and Ramdas Pophale) SiO2 
 PCOD8174985
Probable space group: C M C 21
;
_chemical_formula_sum "Si O2"
_cell_formula_units_Z 64
_cell_length_a 9.074128
_cell_length_b 22.697122
_cell_length_c 16.216599
_cell_angle_alpha 90.000000
_cell_angle_beta 90.000000
_cell_angle_gamma 90.000000
_cell_volume 3339.915436
_symmetry_space_group_name_H-M "C M C 21"
_symmetry_group_IT_number 36
_symmetry_cell_setting 'orthorhombic'
loop_
_space_group_symop_operation_xyz
x,y,z
-x,-y,1/2+z
x,-y,1/2+z
-x,y,z
1/2+x,1/2+y,z
1/2-x,1/2-y,1/2+z
1/2+x,1/2-y,1/2+z
1/2-x,1/2+y,z
loop_
_atom_site_type_symbol
_atom_site_label
_atom_site_fract_x
_atom_site_fract_y
_atom_site_fract_z
Si Si1 0.824239 0.909439 0.851350
Si Si2 0.164937 0.857214 0.016598
Si Si3 0.324582 0.716405 0.668963
Si Si4 0.672429 0.339728 0.688364
Si Si5 0.835732 0.068184 0.056943
Si Si6 0.670753 0.029335 0.899523
Si Si7 0.159845 0.953402 0.144676
Si Si8 0.668110 0.119044 0.762893
O O1 0.775613 0.879594 0.765616
O O2 0.000000 0.916100 0.858418
O O3 0.758171 0.975069 0.858767
O O4 0.763201 0.866503 0.925750
O O5 0.238183 0.810329 0.081314
O O6 0.170633 0.922340 0.055633
O O7 0.000000 0.834313 0.002806
O O8 0.500000 0.716646 0.668324
O O9 0.264876 0.780492 0.686861
O O10 0.271562 0.674875 0.744305
O O11 0.500000 0.325200 0.696940
O O12 0.707506 0.370640 0.600708
O O13 0.000000 0.071761 0.017617
O O14 0.834984 0.022999 0.133344
O O15 0.718876 0.045751 0.991346
O O16 0.500000 0.011546 0.899506
O O17 0.698208 0.091035 0.852070
O O18 0.295820 0.933872 0.200148
O O19 0.000000 0.935787 0.184500
O O20 0.500000 0.139062 0.751874
#
# Coordination Sequence:
#
# PCOD8174985 Si02
#       8
#     8   8   8   8   8   8   8   8
#     4  10  19  37  63  86 113 149 190 236 286 347
#     4   8  15  31  57  84 105 139 186 229 271 327
#     4  10  21  39  60  80 111 151 194 235 279 338
#     4  10  22  38  59  86 115 153 195 238 288 339
#     4  10  20  36  56  80 116 155 188 225 277 345
#     4  11  23  36  54  87 121 148 185 234 289 340
#     4   9  16  31  56  84 110 141 185 223 271 337
#     4  10  21  36  55  81 113 146 183 232 283 333
#
# _framework density 19.162161000000001
#
# number of rings (size 3 to 8) (size 9 to 14) (size 15 to 20)
#    0.000    2.250    1.250    2.625    0.000    4.500 
#    2.250    0.625    0.000    0.000    0.000    0.000 
#    0.000    0.000    0.000    0.000    0.000    0.000 
#
# Total GULP energy -396539.173357 kJ/mol
# GULP energy per Si atom -12391.849167 kJ/mol
# Density = 1.911855 g / cm^3
# Si number density = 19.162161 Si / 1000 Ang^3
#
#
#
# Elastic Constant Matrix: (Units=GPa)
#
#
# Indices 1 2 3 4 5 6 
#
# 1 63.7436 50.3771 35.0390 0.0000 0.0000 0.0000
# 2 50.3771 118.0185 44.6544 0.0000 0.0000 0.0000
# 3 35.0390 44.6544 71.2308 0.0000 0.0000 0.0000
# 4 0.0000 0.0000 0.0000 25.7585 0.0000 0.0000
# 5 0.0000 0.0000 0.0000 0.0000 23.4035 0.0000
# 6 0.0000 0.0000 0.0000 0.0000 0.0000 31.9469
#
#
#
# Elastic Compliance Matrix: (Units=1/GPa)
#
#
# Indices 1 2 3 4 5 6 
#
# 1 0.026637 -0.008407 -0.007833 0.000000 0.000000 0.000000
# 2 -0.008407 0.013761 -0.004492 0.000000 0.000000 0.000000
# 3 -0.007833 -0.004492 0.020708 0.000000 0.000000 0.000000
# 4 0.000000 0.000000 0.000000 0.038822 0.000000 0.000000
# 5 0.000000 0.000000 0.000000 0.000000 0.042729 0.000000
# 6 0.000000 0.000000 0.000000 0.000000 0.000000 0.031302
#
#
# Mechanical properties :
#
#
# Convention : Reuss Voigt Hill
#
# Bulk Modulus (GPa) = 50.90653 57.01488 53.96070
# Shear Modulus (GPa) = 22.52563 24.41660 23.47112
#
# Velocity S-wave (km/s) = 3.43232 3.57348 3.50361
# Velocity P-wave (km/s) = 6.50627 6.84433 6.67744
#
# Compressibility (1/GPa) = 0.01964384
#
# Stress axis : x y z
#
# Youngs Moduli (GPa) = 37.54124 72.66863 48.29111
#
# Poissons Ratio (x) = 0.61089 0.37827
# Poissons Ratio (y) = 0.31559 0.21690
# Poissons Ratio (z) = 0.29406 0.32639
#
# Static dielectric constant tensor:
#      x y z
#    x 3.343160 0.000000 0.000000 
#    y 0.000000 3.418020 0.000000 
#    z 0.000000 0.000000 3.592410 
# 
# 
# High freq. dielectric constant tensor:
#      x y z
#    x 1.726590 0.000000 0.000000 
#    y 0.000000 1.739150 0.000000 
#    z 0.000000 0.000000 1.742360 
# 
# From -- ./inp_files/11071.got.cif
#   From: 2010.03.12/outbox.cif.g09.slc.cpg/sg36_6_cif.got.tgz:11071.got - 2010.04.14 02:13:53.
