data_PCOD8174926
_publ_section_title
;
Structure prediction by ZEFSAII (Michael W. Deem and Ramdas Pophale) SiO2 
 PCOD8174926
Probable space group: C M C 21
;
_chemical_formula_sum "Si O2"
_cell_formula_units_Z 40
_cell_length_a 19.119616
_cell_length_b 13.898719
_cell_length_c 8.592998
_cell_angle_alpha 90.000000
_cell_angle_beta 90.000000
_cell_angle_gamma 90.000000
_cell_volume 2283.487565
_symmetry_space_group_name_H-M "C M C 21"
_symmetry_group_IT_number 36
_symmetry_cell_setting 'orthorhombic'
loop_
_space_group_symop_operation_xyz
x,y,z
-x,-y,1/2+z
x,-y,1/2+z
-x,y,z
1/2+x,1/2+y,z
1/2-x,1/2-y,1/2+z
1/2+x,1/2-y,1/2+z
1/2-x,1/2+y,z
loop_
_atom_site_type_symbol
_atom_site_label
_atom_site_fract_x
_atom_site_fract_y
_atom_site_fract_z
Si Si1 0.269290 0.118012 0.647800
Si Si2 0.864574 0.123014 0.822018
Si Si3 0.000000 0.870175 0.784375
Si Si4 0.000000 0.073078 0.640329
Si Si5 0.636563 0.707022 0.151101
Si Si6 0.776719 0.946376 0.820318
O O1 0.199325 0.167529 0.720466
O O2 0.336350 0.184516 0.676661
O O3 0.259428 0.104953 0.464308
O O4 0.279996 0.013859 0.730376
O O5 0.932593 0.122253 0.715217
O O6 0.843148 0.013282 0.873363
O O7 0.880422 0.188787 0.970484
O O8 0.067816 0.804403 0.755815
O O9 0.000000 0.910798 0.957201
O O10 0.000000 0.958276 0.662842
O O11 0.697227 0.633580 0.200283
#
# Coordination Sequence:
#
# PCOD8174926 Si02
#       6
#     8   8   4   4   8   8
#     4  10  21  35  57  82 116 147 190 234 278 341
#     4  10  20  35  53  82 115 151 180 218 292 337
#     4  12  24  34  54  82 115 152 190 230 297 338
#     4  12  22  36  56  80 121 154 176 238 293 366
#     4  12  21  36  57  83 115 148 192 234 277 350
#     4  10  19  36  52  82 113 147 185 225 287 328
#
# _framework density 17.517064999999999
#
# number of rings (size 3 to 8) (size 9 to 14) (size 15 to 20)
#    1.200    0.000    4.000    4.200    0.000    0.000 
#    0.000    0.000    0.000    1.200    0.000    1.400 
#    0.000    0.000    0.000    0.000    0.000    0.000 
#
# Total GULP energy -247966.884653 kJ/mol
# GULP energy per Si atom -12398.344233 kJ/mol
# Density = 1.747719 g / cm^3
# Si number density = 17.517065 Si / 1000 Ang^3
#
#
#
# Elastic Constant Matrix: (Units=GPa)
#
#
# Indices 1 2 3 4 5 6 
#
# 1 92.5536 50.1055 46.8567 0.0000 0.0000 0.0000
# 2 50.1055 75.6027 39.4903 0.0000 0.0000 0.0000
# 3 46.8567 39.4903 107.2775 0.0000 0.0000 0.0000
# 4 0.0000 0.0000 0.0000 19.3446 0.0000 0.0000
# 5 0.0000 0.0000 0.0000 0.0000 25.6267 0.0000
# 6 0.0000 0.0000 0.0000 0.0000 0.0000 32.2332
#
#
#
# Elastic Compliance Matrix: (Units=1/GPa)
#
#
# Indices 1 2 3 4 5 6 
#
# 1 0.018379 -0.009889 -0.004387 0.000000 0.000000 0.000000
# 2 -0.009889 0.021697 -0.003667 0.000000 0.000000 0.000000
# 3 -0.004387 -0.003667 0.012588 0.000000 0.000000 0.000000
# 4 0.000000 0.000000 0.000000 0.051694 0.000000 0.000000
# 5 0.000000 0.000000 0.000000 0.000000 0.039022 0.000000
# 6 0.000000 0.000000 0.000000 0.000000 0.000000 0.031024
#
#
# Mechanical properties :
#
#
# Convention : Reuss Voigt Hill
#
# Bulk Modulus (GPa) = 59.60892 60.92654 60.26773
# Shear Modulus (GPa) = 23.16056 24.70632 23.93344
#
# Velocity S-wave (km/s) = 3.64011 3.75962 3.70035
# Velocity P-wave (km/s) = 7.19515 7.32824 7.26200
#
# Compressibility (1/GPa) = 0.01677601
#
# Stress axis : x y z
#
# Youngs Moduli (GPa) = 54.40856 46.08983 79.44078
#
# Poissons Ratio (x) = 0.45579 0.34854
# Poissons Ratio (y) = 0.53806 0.29134
# Poissons Ratio (z) = 0.23871 0.16903
#
# Static dielectric constant tensor:
#      x y z
#    x 3.089130 0.000000 0.000000 
#    y 0.000000 2.988170 0.000000 
#    z 0.000000 0.000000 3.222030 
# 
# 
# High freq. dielectric constant tensor:
#      x y z
#    x 1.653080 0.000000 0.000000 
#    y 0.000000 1.645560 0.000000 
#    z 0.000000 0.000000 1.692960 
# 
# From -- ./inp_files/4589.got.cif
#   From: 2010.03.12/outbox.cif.g09.slc.cpg/sg36_3_cif.got.tgz:4589.got - 2010.04.14 02:13:53.
