data_PCOD8174260
_publ_section_title
;
Structure prediction by ZEFSAII (Michael W. Deem and Ramdas Pophale) SiO2 
 PCOD8174260
Probable space group: C M C 21
;
_chemical_formula_sum "Si O2"
_cell_formula_units_Z 64
_cell_length_a 13.000094
_cell_length_b 26.914955
_cell_length_c 11.180462
_cell_angle_alpha 90.000000
_cell_angle_beta 90.000000
_cell_angle_gamma 90.000000
_cell_volume 3912.009498
_symmetry_space_group_name_H-M "C M C 21"
_symmetry_group_IT_number 36
_symmetry_cell_setting 'orthorhombic'
loop_
_space_group_symop_operation_xyz
x,y,z
-x,-y,1/2+z
x,-y,1/2+z
-x,y,z
1/2+x,1/2+y,z
1/2-x,1/2-y,1/2+z
1/2+x,1/2-y,1/2+z
1/2-x,1/2+y,z
loop_
_atom_site_type_symbol
_atom_site_label
_atom_site_fract_x
_atom_site_fract_y
_atom_site_fract_z
Si Si1 0.122007 0.569166 0.432020
Si Si2 0.117162 0.784078 0.174237
Si Si3 0.383080 0.137951 0.827613
Si Si4 0.696450 0.157171 0.577118
Si Si5 0.880690 0.751124 0.443751
Si Si6 0.883866 0.605374 0.170134
Si Si7 0.616914 0.040880 0.945811
Si Si8 0.797800 0.305777 0.541124
O O1 0.192006 0.602489 0.519729
O O2 0.145188 0.587722 0.300076
O O3 0.168524 0.513398 0.438759
O O4 0.000000 0.572873 0.465062
O O5 0.190514 0.828908 0.128508
O O6 0.146622 0.763877 0.306320
O O7 0.128632 0.738636 0.083062
O O8 0.000000 0.803752 0.171993
O O9 0.500000 0.135145 0.872260
O O10 0.378378 0.154902 0.691292
O O11 0.334939 0.082801 0.856015
O O12 0.328699 0.179373 0.907383
O O13 0.653784 0.195074 0.476753
O O14 0.820433 0.787746 0.534054
O O15 0.000000 0.758166 0.470002
O O16 0.805473 0.648728 0.132939
O O17 0.000000 0.626846 0.164671
O O18 0.872760 0.558760 0.082136
O O19 0.500000 0.031806 0.906343
#
# Coordination Sequence:
#
# PCOD8174260 Si02
#       8
#     8   8   8   8   8   8   8   8
#     4  10  19  30  47  71 101 134 160 193 239 290
#     4  10  20  35  52  68  94 130 167 203 241 291
#     4  10  18  30  46  72 103 127 155 199 244 286
#     4  11  21  31  49  75  98 128 165 204 242 289
#     4  10  20  34  49  70  98 128 163 204 244 287
#     4   9  17  30  47  68  96 131 163 192 233 289
#     4   8  17  29  45  69 100 132 159 190 237 294
#     4  10  18  31  50  69  92 128 165 195 235 292
#
# _framework density 16.359877999999998
#
# number of rings (size 3 to 8) (size 9 to 14) (size 15 to 20)
#    0.000    2.250    1.250    3.750    1.750    2.000 
#    0.000    0.000    0.000    0.000    0.000    4.375 
#    0.000    0.000    0.000    0.000    0.000    0.000 
#
# Total GULP energy -396615.555845 kJ/mol
# GULP energy per Si atom -12394.236120 kJ/mol
# Density = 1.632264 g / cm^3
# Si number density = 16.359878 Si / 1000 Ang^3
#
#
#
# Elastic Constant Matrix: (Units=GPa)
#
#
# Indices 1 2 3 4 5 6 
#
# 1 64.7333 36.7052 23.8139 0.0000 0.0000 0.0000
# 2 36.7052 96.2504 30.4890 0.0000 0.0000 0.0000
# 3 23.8139 30.4890 74.6791 0.0000 0.0000 0.0000
# 4 0.0000 0.0000 0.0000 19.7714 0.0000 0.0000
# 5 0.0000 0.0000 0.0000 0.0000 22.0341 0.0000
# 6 0.0000 0.0000 0.0000 0.0000 0.0000 20.8944
#
#
#
# Elastic Compliance Matrix: (Units=1/GPa)
#
#
# Indices 1 2 3 4 5 6 
#
# 1 0.020639 -0.006645 -0.003868 0.000000 0.000000 0.000000
# 2 -0.006645 0.014072 -0.003626 0.000000 0.000000 0.000000
# 3 -0.003868 -0.003626 0.016105 0.000000 0.000000 0.000000
# 4 0.000000 0.000000 0.000000 0.050578 0.000000 0.000000
# 5 0.000000 0.000000 0.000000 0.000000 0.045384 0.000000
# 6 0.000000 0.000000 0.000000 0.000000 0.000000 0.047860
#
#
# Mechanical properties :
#
#
# Convention : Reuss Voigt Hill
#
# Bulk Modulus (GPa) = 44.37286 46.40877 45.39081
# Shear Modulus (GPa) = 21.69851 22.18361 21.94106
#
# Velocity S-wave (km/s) = 3.64583 3.68635 3.66615
# Velocity P-wave (km/s) = 6.70109 6.82261 6.76212
#
# Compressibility (1/GPa) = 0.02253630
#
# Stress axis : x y z
#
# Youngs Moduli (GPa) = 48.45153 71.06070 62.09384
#
# Poissons Ratio (x) = 0.47223 0.24020
# Poissons Ratio (y) = 0.32198 0.22517
# Poissons Ratio (z) = 0.18743 0.25768
#
# Static dielectric constant tensor:
#      x y z
#    x 2.813220 0.000000 0.000000 
#    y 0.000000 3.214560 0.000000 
#    z 0.000000 0.000000 3.156290 
# 
# 
# High freq. dielectric constant tensor:
#      x y z
#    x 1.584480 0.000000 0.000000 
#    y 0.000000 1.631300 0.000000 
#    z 0.000000 0.000000 1.642820 
# 
# From -- ./inp_files/8064.got.cif
#   From: 2010.03.12/outbox.cif.g09.slc.cpg/sg36_5_cif.got.tgz:8064.got - 2010.04.14 02:13:53.
