data_PCOD8174304
_publ_section_title
;
Structure prediction by ZEFSAII (Michael W. Deem and Ramdas Pophale) SiO2 
 PCOD8174304
Probable space group: C M C 21
;
_chemical_formula_sum "Si O2"
_cell_formula_units_Z 64
_cell_length_a 9.001754
_cell_length_b 29.321850
_cell_length_c 14.168279
_cell_angle_alpha 90.000000
_cell_angle_beta 90.000000
_cell_angle_gamma 90.000000
_cell_volume 3739.690046
_symmetry_space_group_name_H-M "C M C 21"
_symmetry_group_IT_number 36
_symmetry_cell_setting 'orthorhombic'
loop_
_space_group_symop_operation_xyz
x,y,z
-x,-y,1/2+z
x,-y,1/2+z
-x,y,z
1/2+x,1/2+y,z
1/2-x,1/2-y,1/2+z
1/2+x,1/2-y,1/2+z
1/2-x,1/2+y,z
loop_
_atom_site_type_symbol
_atom_site_label
_atom_site_fract_x
_atom_site_fract_y
_atom_site_fract_z
Si Si1 0.675643 0.177559 0.162690
Si Si2 0.677070 0.925297 0.641080
Si Si3 0.330848 0.193740 0.372548
Si Si4 0.675239 0.659428 0.540869
Si Si5 0.830296 0.748333 0.545361
Si Si6 0.824650 0.495241 0.271440
Si Si7 0.175648 0.488353 0.478593
Si Si8 0.327012 0.071373 0.608028
O O1 0.500000 0.180176 0.148142
O O2 0.736113 0.125889 0.155372
O O3 0.724618 0.198100 0.264692
O O4 0.751151 0.205665 0.078576
O O5 0.500000 0.925896 0.642544
O O6 0.735691 0.946023 0.541502
O O7 0.737916 0.958086 0.724723
O O8 0.500000 0.175314 0.371722
O O9 0.233048 0.156885 0.431568
O O10 0.321193 0.242216 0.430010
O O11 0.500000 0.663713 0.543110
O O12 0.746896 0.704349 0.590679
O O13 0.726569 0.615801 0.599143
O O14 0.000000 0.748939 0.579951
O O15 0.752068 0.487307 0.374367
O O16 0.787099 0.451403 0.208043
O O17 0.000000 0.500804 0.280476
O O18 0.217586 0.536329 0.525807
O O19 0.000000 0.483687 0.472631
O O20 0.500000 0.084791 0.601888
#
# Coordination Sequence:
#
# PCOD8174304 Si02
#       8
#     8   8   8   8   8   8   8   8
#     4  10  18  31  53  76 102 132 165 206 254 301
#     4   8  15  25  41  71 100 128 164 199 237 287
#     4   8  18  33  50  73  98 127 160 200 249 302
#     4  10  19  32  50  71  96 125 162 205 249 296
#     4   9  19  35  51  71  99 128 163 206 253 299
#     4   8  14  24  42  68  98 130 163 199 239 289
#     4   8  14  25  43  69 101 128 160 204 243 284
#     4   9  16  27  46  71  96 126 163 203 250 294
#
# _framework density 17.113717000000001
#
# number of rings (size 3 to 8) (size 9 to 14) (size 15 to 20)
#    0.750    2.500    0.000    2.625    1.750    0.500 
#    0.000    1.250    0.000    5.250    0.000    0.000 
#    0.000    0.000    0.000    0.000    0.000    0.000 
#
# Total GULP energy -396439.303276 kJ/mol
# GULP energy per Si atom -12388.728227 kJ/mol
# Density = 1.707477 g / cm^3
# Si number density = 17.113717 Si / 1000 Ang^3
#
#
#
# Elastic Constant Matrix: (Units=GPa)
#
#
# Indices 1 2 3 4 5 6 
#
# 1 52.7290 33.9705 19.8193 0.0000 0.0000 0.0000
# 2 33.9705 109.4695 58.9706 0.0000 0.0000 0.0000
# 3 19.8193 58.9706 124.7802 0.0000 0.0000 0.0000
# 4 0.0000 0.0000 0.0000 20.1677 0.0000 0.0000
# 5 0.0000 0.0000 0.0000 0.0000 11.8662 0.0000
# 6 0.0000 0.0000 0.0000 0.0000 0.0000 22.2492
#
#
#
# Elastic Compliance Matrix: (Units=1/GPa)
#
#
# Indices 1 2 3 4 5 6 
#
# 1 0.023718 -0.007151 -0.000387 0.000000 0.000000 0.000000
# 2 -0.007151 0.014411 -0.005675 0.000000 0.000000 0.000000
# 3 -0.000387 -0.005675 0.010758 0.000000 0.000000 0.000000
# 4 0.000000 0.000000 0.000000 0.049584 0.000000 0.000000
# 5 0.000000 0.000000 0.000000 0.000000 0.084273 0.000000
# 6 0.000000 0.000000 0.000000 0.000000 0.000000 0.044945
#
#
# Mechanical properties :
#
#
# Convention : Reuss Voigt Hill
#
# Bulk Modulus (GPa) = 44.52515 56.94436 50.73475
# Shear Modulus (GPa) = 19.11294 22.47118 20.79206
#
# Velocity S-wave (km/s) = 3.34551 3.62754 3.48937
# Velocity P-wave (km/s) = 6.40289 7.13384 6.77822
#
# Compressibility (1/GPa) = 0.02245922
#
# Stress axis : x y z
#
# Youngs Moduli (GPa) = 42.16251 69.39082 92.95834
#
# Poissons Ratio (x) = 0.49624 0.03602
# Poissons Ratio (y) = 0.30152 0.52752
# Poissons Ratio (z) = 0.01634 0.39378
#
# Static dielectric constant tensor:
#      x y z
#    x 2.756490 0.000000 0.000000 
#    y 0.000000 3.131340 0.000000 
#    z 0.000000 0.000000 3.524570 
# 
# 
# High freq. dielectric constant tensor:
#      x y z
#    x 1.619680 0.000000 0.000000 
#    y 0.000000 1.649750 0.000000 
#    z 0.000000 0.000000 1.654570 
# 
# From -- ./inp_files/11220.got.cif
#   From: 2010.03.12/outbox.cif.g09.slc.cpg/sg36_6_cif.got.tgz:11220.got - 2010.04.14 02:13:53.
