data_PCOD8174797
_publ_section_title
;
Structure prediction by ZEFSAII (Michael W. Deem and Ramdas Pophale) SiO2 
 PCOD8174797
Probable space group: C M C 21
;
_chemical_formula_sum "Si O2"
_cell_formula_units_Z 64
_cell_length_a 8.951382
_cell_length_b 15.457089
_cell_length_c 23.988806
_cell_angle_alpha 90.000000
_cell_angle_beta 90.000000
_cell_angle_gamma 90.000000
_cell_volume 3319.146570
_symmetry_space_group_name_H-M "C M C 21"
_symmetry_group_IT_number 36
_symmetry_cell_setting 'orthorhombic'
loop_
_space_group_symop_operation_xyz
x,y,z
-x,-y,1/2+z
x,-y,1/2+z
-x,y,z
1/2+x,1/2+y,z
1/2-x,1/2-y,1/2+z
1/2+x,1/2-y,1/2+z
1/2-x,1/2+y,z
loop_
_atom_site_type_symbol
_atom_site_label
_atom_site_fract_x
_atom_site_fract_y
_atom_site_fract_z
Si Si1 0.322762 0.405347 0.292010
Si Si2 0.827469 0.913540 0.025466
Si Si3 0.329905 0.667325 0.408983
Si Si4 0.176278 0.153839 0.911924
Si Si5 0.673705 0.400966 0.787440
Si Si6 0.177479 0.747490 0.092459
Si Si7 0.176863 0.587064 0.020364
Si Si8 0.677646 0.248128 0.218132
O O1 0.500000 0.401673 0.293584
O O2 0.262155 0.381784 0.353188
O O3 0.270675 0.501433 0.274425
O O4 0.260282 0.334578 0.248346
O O5 0.764372 0.831721 0.059755
O O6 0.000000 0.930414 0.040114
O O7 0.732392 0.996025 0.044964
O O8 0.805409 0.898845 0.959573
O O9 0.500000 0.703147 0.410055
O O10 0.216419 0.745693 0.416656
O O11 0.294984 0.616701 0.352352
O O12 0.000000 0.141876 0.918050
O O13 0.255495 0.098655 0.959332
O O14 0.500000 0.389231 0.773238
O O15 0.767183 0.337108 0.749203
O O16 0.237279 0.662366 0.061047
O O17 0.240277 0.748267 0.155291
O O18 0.000000 0.746943 0.092402
O O19 0.000000 0.588531 0.016268
O O20 0.500000 0.246933 0.219097
#
# Coordination Sequence:
#
# PCOD8174797 Si02
#       8
#     8   8   8   8   8   8   8   8
#     4   9  19  35  56  81 111 144 182 224 272 329
#     4  10  20  38  60  84 111 148 188 228 278 338
#     4  10  19  34  57  82 116 149 178 224 287 338
#     4  11  20  34  58  86 112 146 188 229 276 338
#     4  10  20  35  56  83 113 145 177 225 284 331
#     4   9  20  38  59  78 109 151 188 228 284 332
#     4  11  22  38  57  84 115 148 184 230 286 337
#     4  10  20  38  59  80 107 147 193 234 271 323
#
# _framework density 19.282066
#
# number of rings (size 3 to 8) (size 9 to 14) (size 15 to 20)
#    0.000    2.000    2.500    1.500    0.000    3.500 
#    0.000    6.250    0.000    0.000    0.000    0.000 
#    0.000    0.000    0.000    0.000    0.000    0.000 
#
# Total GULP energy -396867.219488 kJ/mol
# GULP energy per Si atom -12402.100609 kJ/mol
# Density = 1.923818 g / cm^3
# Si number density = 19.282066 Si / 1000 Ang^3
#
#
#
# Elastic Constant Matrix: (Units=GPa)
#
#
# Indices 1 2 3 4 5 6 
#
# 1 41.1996 33.7068 28.7806 0.0000 0.0000 0.0000
# 2 33.7068 167.2249 73.4469 0.0000 0.0000 0.0000
# 3 28.7806 73.4469 151.0567 0.0000 0.0000 0.0000
# 4 0.0000 0.0000 0.0000 14.6681 0.0000 0.0000
# 5 0.0000 0.0000 0.0000 0.0000 22.0990 0.0000
# 6 0.0000 0.0000 0.0000 0.0000 0.0000 32.3473
#
#
#
# Elastic Compliance Matrix: (Units=1/GPa)
#
#
# Indices 1 2 3 4 5 6 
#
# 1 0.030524 -0.004575 -0.003591 0.000000 0.000000 0.000000
# 2 -0.004575 0.008290 -0.003159 0.000000 0.000000 0.000000
# 3 -0.003591 -0.003159 0.008840 0.000000 0.000000 0.000000
# 4 0.000000 0.000000 0.000000 0.068175 0.000000 0.000000
# 5 0.000000 0.000000 0.000000 0.000000 0.045251 0.000000
# 6 0.000000 0.000000 0.000000 0.000000 0.000000 0.030914
#
#
# Mechanical properties :
#
#
# Convention : Reuss Voigt Hill
#
# Bulk Modulus (GPa) = 39.99491 70.14997 55.07244
# Shear Modulus (GPa) = 22.42365 28.72602 25.57483
#
# Velocity S-wave (km/s) = 3.41387 3.86395 3.64586
# Velocity P-wave (km/s) = 6.02714 7.50778 6.80783
#
# Compressibility (1/GPa) = 0.02500318
#
# Stress axis : x y z
#
# Youngs Moduli (GPa) = 32.76115 120.63304 113.12066
#
# Poissons Ratio (x) = 0.55194 0.40622
# Poissons Ratio (y) = 0.14989 0.35733
# Poissons Ratio (z) = 0.11765 0.38106
#
# Static dielectric constant tensor:
#      x y z
#    x 3.219800 0.000000 0.000000 
#    y 0.000000 3.702820 0.000000 
#    z 0.000000 0.000000 3.703260 
# 
# 
# High freq. dielectric constant tensor:
#      x y z
#    x 1.718080 0.000000 0.000000 
#    y 0.000000 1.763890 0.000000 
#    z 0.000000 0.000000 1.752140 
# 
# From -- ./inp_files/15742.got.cif
#   From: 2010.03.12/outbox.cif.g09.slc.cpg/sg36_8_cif.got.tgz:15742.got - 2010.04.14 02:13:53.
