data_PCOD8174361
_publ_section_title
;
Structure prediction by ZEFSAII (Michael W. Deem and Ramdas Pophale) SiO2 
 PCOD8174361
Probable space group: C M C 21
;
_chemical_formula_sum "Si O2"
_cell_formula_units_Z 64
_cell_length_a 9.328385
_cell_length_b 15.400646
_cell_length_c 23.837195
_cell_angle_alpha 90.000000
_cell_angle_beta 90.000000
_cell_angle_gamma 90.000000
_cell_volume 3424.526643
_symmetry_space_group_name_H-M "C M C 21"
_symmetry_group_IT_number 36
_symmetry_cell_setting 'orthorhombic'
loop_
_space_group_symop_operation_xyz
x,y,z
-x,-y,1/2+z
x,-y,1/2+z
-x,y,z
1/2+x,1/2+y,z
1/2-x,1/2-y,1/2+z
1/2+x,1/2-y,1/2+z
1/2-x,1/2+y,z
loop_
_atom_site_type_symbol
_atom_site_label
_atom_site_fract_x
_atom_site_fract_y
_atom_site_fract_z
Si Si1 0.834622 0.405866 0.643490
Si Si2 0.829425 0.583382 0.382080
Si Si3 0.832412 0.912536 0.385623
Si Si4 0.168871 0.653841 0.264825
Si Si5 0.669947 0.259055 0.580354
Si Si6 0.334245 0.900583 0.156754
Si Si7 0.830156 0.253367 0.953459
Si Si8 0.332645 0.348654 0.262204
O O1 0.785361 0.394869 0.708119
O O2 0.739190 0.346716 0.603604
O O3 0.811529 0.506383 0.626462
O O4 0.000000 0.377631 0.636783
O O5 0.755122 0.496697 0.404873
O O6 0.772602 0.602340 0.318938
O O7 0.774552 0.661228 0.421691
O O8 0.000000 0.571785 0.384728
O O9 0.772788 0.832432 0.422271
O O10 0.800531 0.894430 0.320751
O O11 0.000000 0.928072 0.396562
O O12 0.231258 0.751276 0.263702
O O13 0.000000 0.660676 0.272064
O O14 0.500000 0.270088 0.582571
O O15 0.721100 0.175586 0.615911
O O16 0.725385 0.245227 0.517198
O O17 0.500000 0.887165 0.172002
O O18 0.247120 0.901980 0.214228
O O19 0.000000 0.252806 0.950678
O O20 0.500000 0.347691 0.247844
#
# Coordination Sequence:
#
# PCOD8174361 Si02
#       8
#     8   8   8   8   8   8   8   8
#     4  10  20  35  55  78 108 141 172 213 266 318
#     4  10  19  35  59  82 105 139 177 212 262 322
#     4  10  20  35  55  80 107 136 174 218 261 309
#     4   9  16  30  54  79 103 137 173 204 253 322
#     4  10  21  37  55  77 105 139 181 223 260 303
#     4  10  21  35  53  80 110 137 172 222 268 306
#     4   9  19  37  57  74 103 146 180 210 260 322
#     4  10  18  32  56  80 105 141 177 208 256 324
#
# _framework density 18.688714999999998
#
# number of rings (size 3 to 8) (size 9 to 14) (size 15 to 20)
#    0.000    2.250    2.500    0.750    0.000    3.000 
#    0.000    4.375    0.000    0.000    0.000    0.000 
#    0.000    0.000    0.000    0.000    0.000    0.000 
#
# Total GULP energy -396836.195017 kJ/mol
# GULP energy per Si atom -12401.131094 kJ/mol
# Density = 1.864618 g / cm^3
# Si number density = 18.688715 Si / 1000 Ang^3
#
#
#
# Elastic Constant Matrix: (Units=GPa)
#
#
# Indices 1 2 3 4 5 6 
#
# 1 31.7749 36.5904 35.2979 0.0000 0.0000 0.0000
# 2 36.5904 145.6754 55.9495 0.0000 0.0000 0.0000
# 3 35.2979 55.9495 123.3705 0.0000 0.0000 0.0000
# 4 0.0000 0.0000 0.0000 15.7790 0.0000 0.0000
# 5 0.0000 0.0000 0.0000 0.0000 22.5709 0.0000
# 6 0.0000 0.0000 0.0000 0.0000 0.0000 28.9920
#
#
#
# Elastic Compliance Matrix: (Units=1/GPa)
#
#
# Indices 1 2 3 4 5 6 
#
# 1 0.055083 -0.009424 -0.011486 0.000000 0.000000 0.000000
# 2 -0.009424 0.009925 -0.001805 0.000000 0.000000 0.000000
# 3 -0.011486 -0.001805 0.012210 0.000000 0.000000 0.000000
# 4 0.000000 0.000000 0.000000 0.063375 0.000000 0.000000
# 5 0.000000 0.000000 0.000000 0.000000 0.044305 0.000000
# 6 0.000000 0.000000 0.000000 0.000000 0.000000 0.034492
#
#
# Mechanical properties :
#
#
# Convention : Reuss Voigt Hill
#
# Bulk Modulus (GPa) = 31.45768 61.83293 46.64531
# Shear Modulus (GPa) = 18.15427 25.00058 21.57743
#
# Velocity S-wave (km/s) = 3.12012 3.66148 3.40158
# Velocity P-wave (km/s) = 5.46344 7.14372 6.35932
#
# Compressibility (1/GPa) = 0.03178874
#
# Stress axis : x y z
#
# Youngs Moduli (GPa) = 18.15428 100.75732 81.89760
#
# Poissons Ratio (x) = 0.94957 0.94068
# Poissons Ratio (y) = 0.17109 0.14779
# Poissons Ratio (z) = 0.20852 0.18183
#
# Static dielectric constant tensor:
#      x y z
#    x 3.040240 0.000000 0.000000 
#    y 0.000000 3.541950 0.000000 
#    z 0.000000 0.000000 3.515610 
# 
# 
# High freq. dielectric constant tensor:
#      x y z
#    x 1.688430 0.000000 0.000000 
#    y 0.000000 1.740510 0.000000 
#    z 0.000000 0.000000 1.724320 
# 
# From -- ./inp_files/15689.got.cif
#   From: 2010.03.12/outbox.cif.g09.slc.cpg/sg36_8_cif.got.tgz:15689.got - 2010.04.14 02:13:53.
