data_PCOD8174102
_publ_section_title
;
Structure prediction by ZEFSAII (Michael W. Deem and Ramdas Pophale) SiO2 
 PCOD8174102
Probable space group: C M M 2
;
_chemical_formula_sum "Si O2"
_cell_formula_units_Z 48
_cell_length_a 37.941470
_cell_length_b 9.168195
_cell_length_c 7.556304
_cell_angle_alpha 90.000000
_cell_angle_beta 90.000000
_cell_angle_gamma 90.000000
_cell_volume 2628.496583
_symmetry_space_group_name_H-M "C M M 2"
_symmetry_group_IT_number 35
_symmetry_cell_setting 'orthorhombic'
loop_
_space_group_symop_operation_xyz
x,y,z
-x,-y,z
-x,y,z
x,-y,z
1/2+x,1/2+y,z
1/2-x,1/2-y,z
1/2-x,1/2+y,z
1/2+x,1/2-y,z
loop_
_atom_site_type_symbol
_atom_site_label
_atom_site_fract_x
_atom_site_fract_y
_atom_site_fract_z
Si Si1 0.285650 0.828951 0.870950
Si Si2 0.540735 0.332192 0.466521
Si Si3 0.082952 0.326698 0.169898
Si Si4 0.662203 0.172698 0.169905
Si Si5 0.285650 0.828951 0.468861
Si Si6 0.459265 0.667810 0.873275
O O1 0.250000 0.750000 0.930283
O O2 0.295841 0.788771 0.669905
O O3 0.279185 0.000000 0.895034
O O4 0.317329 0.772629 0.994885
O O5 0.500000 0.295697 0.431008
O O6 0.548296 0.500000 0.418150
O O7 0.564173 0.228668 0.346307
O O8 0.550473 0.300957 0.669898
O O9 0.081914 0.500000 0.169895
O O10 0.122752 0.264046 0.169904
O O11 0.064175 0.271327 0.993489
O O12 0.682671 0.227370 0.344926
O O13 0.660172 0.000000 0.169905
O O14 0.250000 0.750000 0.409527
O O15 0.279185 0.000000 0.444777
O O16 0.500000 0.704317 0.908787
O O17 0.451707 0.500000 0.921646
#
# Coordination Sequence:
#
# PCOD8174102 Si02
#       6
#     8   8   8   8   8   8
#     4   9  17  31  51  71  92 122 161 202 241 284
#     4   9  19  37  58  76  98 134 176 213 253 304
#     4  11  22  33  50  79 110 137 168 209 255 303
#     4   9  19  33  47  68 100 135 162 187 237 305
#     4   9  17  31  51  71  92 122 161 202 241 284
#     4   9  19  37  58  76  98 134 176 213 253 304
#
# _framework density 18.261391
#
# number of rings (size 3 to 8) (size 9 to 14) (size 15 to 20)
#    0.000    2.667    0.000    2.500    0.000    4.667 
#    0.000    8.333    0.000    4.000    0.000    0.000 
#    0.000    0.000    0.000    0.000    0.000    0.000 
#
# Total GULP energy -297611.234238 kJ/mol
# GULP energy per Si atom -12400.468093 kJ/mol
# Density = 1.821983 g / cm^3
# Si number density = 18.261391 Si / 1000 Ang^3
#
#
#
# Elastic Constant Matrix: (Units=GPa)
#
#
# Indices 1 2 3 4 5 6 
#
# 1 149.3092 52.5404 91.6067 0.0000 0.0000 0.0000
# 2 52.5404 53.6025 44.2194 0.0000 0.0000 0.0000
# 3 91.6067 44.2194 129.6291 0.0000 0.0000 0.0000
# 4 0.0000 0.0000 0.0000 25.4436 0.0000 0.0000
# 5 0.0000 0.0000 0.0000 0.0000 2.6928 0.0000
# 6 0.0000 0.0000 0.0000 0.0000 0.0000 26.6335
#
#
#
# Elastic Compliance Matrix: (Units=1/GPa)
#
#
# Indices 1 2 3 4 5 6 
#
# 1 0.013736 -0.007592 -0.007117 0.000000 0.000000 0.000000
# 2 -0.007592 0.030159 -0.004922 0.000000 0.000000 0.000000
# 3 -0.007117 -0.004922 0.014423 0.000000 0.000000 0.000000
# 4 0.000000 0.000000 0.000000 0.039303 0.000000 0.000000
# 5 0.000000 0.000000 0.000000 0.000000 0.371355 0.000000
# 6 0.000000 0.000000 0.000000 0.000000 0.000000 0.037547
#
#
# Mechanical properties :
#
#
# Convention : Reuss Voigt Hill
#
# Bulk Modulus (GPa) = 52.48292 78.80820 65.64556
# Shear Modulus (GPa) = 9.05575 20.56560 14.81068
#
# Velocity S-wave (km/s) = 2.22929 3.35950 2.85096
# Velocity P-wave (km/s) = 5.95219 7.63529 6.84566
#
# Compressibility (1/GPa) = 0.01905382
#
# Stress axis : x y z
#
# Youngs Moduli (GPa) = 72.80333 33.15811 69.33510
#
# Poissons Ratio (x) = 0.25175 0.49344
# Poissons Ratio (y) = 0.55276 0.34129
# Poissons Ratio (z) = 0.51812 0.16321
#
# Static dielectric constant tensor:
#      x y z
#    x 3.516680 0.000000 0.000000 
#    y 0.000000 3.127820 0.000000 
#    z 0.000000 0.000000 3.513610 
# 
# 
# High freq. dielectric constant tensor:
#      x y z
#    x 1.704620 0.000000 0.000000 
#    y 0.000000 1.686950 0.000000 
#    z 0.000000 0.000000 1.723970 
# 
# From -- ./inp_files/10483.got.cif
#   From: 2010.03.12/outbox.cif.g09.slc.cpg/sg35_6_cif.got.tgz:10483.got - 2010.04.14 02:02:04.
