data_PCOD8174524
_publ_section_title
;
Structure prediction by ZEFSAII (Michael W. Deem and Ramdas Pophale) SiO2 
 PCOD8174524
Probable space group: C M C 21
;
_chemical_formula_sum "Si O2"
_cell_formula_units_Z 64
_cell_length_a 9.064586
_cell_length_b 20.697078
_cell_length_c 18.547338
_cell_angle_alpha 90.000000
_cell_angle_beta 90.000000
_cell_angle_gamma 90.000000
_cell_volume 3479.674308
_symmetry_space_group_name_H-M "C M C 21"
_symmetry_group_IT_number 36
_symmetry_cell_setting 'orthorhombic'
loop_
_space_group_symop_operation_xyz
x,y,z
-x,-y,1/2+z
x,-y,1/2+z
-x,y,z
1/2+x,1/2+y,z
1/2-x,1/2-y,1/2+z
1/2+x,1/2-y,1/2+z
1/2-x,1/2+y,z
loop_
_atom_site_type_symbol
_atom_site_label
_atom_site_fract_x
_atom_site_fract_y
_atom_site_fract_z
Si Si1 0.828706 0.753535 0.393590
Si Si2 0.337223 0.494657 0.642066
Si Si3 0.674480 0.867462 0.476785
Si Si4 0.324857 0.249635 0.230254
Si Si5 0.666383 0.504192 0.970598
Si Si6 0.328479 0.124142 0.479586
Si Si7 0.172952 0.629067 0.142775
Si Si8 0.325226 0.635349 0.629783
O O1 0.731572 0.804223 0.437038
O O2 0.768831 0.753805 0.311885
O O3 0.804595 0.681860 0.423556
O O4 0.000000 0.773995 0.398434
O O5 0.500000 0.479656 0.671773
O O6 0.336116 0.495318 0.556199
O O7 0.230996 0.439461 0.672755
O O8 0.285318 0.566134 0.666059
O O9 0.500000 0.873732 0.467575
O O10 0.720580 0.859572 0.560276
O O11 0.749294 0.931659 0.442932
O O12 0.500000 0.246431 0.228512
O O13 0.258932 0.186034 0.191508
O O14 0.268784 0.311630 0.186149
O O15 0.500000 0.503843 0.939155
O O16 0.751335 0.439431 0.945672
O O17 0.500000 0.108464 0.491976
O O18 0.258096 0.146160 0.554903
O O19 0.000000 0.627192 0.150580
O O20 0.500000 0.639798 0.613914
#
# Coordination Sequence:
#
# PCOD8174524 Si02
#       8
#     8   8   8   8   8   8   8   8
#     4  10  21  35  50  70 101 139 171 203 247 299
#     4   8  15  27  46  73  98 118 148 197 247 289
#     4  10  19  32  53  79 103 127 163 211 257 300
#     4   9  18  34  52  69  94 131 172 205 239 291
#     4   9  17  31  52  76 101 130 166 206 251 302
#     4  10  19  31  50  77 105 131 165 209 254 299
#     4   9  17  30  51  74  94 123 160 199 242 289
#     4   9  17  32  54  74  94 127 169 208 247 295
#
# _framework density 18.392524999999999
#
# number of rings (size 3 to 8) (size 9 to 14) (size 15 to 20)
#    0.000    2.750    0.000    2.625    0.000    5.500 
#    0.000    3.125    0.000    3.000    0.000    0.000 
#    0.000    0.000    0.000    0.000    0.000    0.000 
#
# Total GULP energy -396735.827506 kJ/mol
# GULP energy per Si atom -12397.994610 kJ/mol
# Density = 1.835066 g / cm^3
# Si number density = 18.392525 Si / 1000 Ang^3
#
#
#
# Elastic Constant Matrix: (Units=GPa)
#
#
# Indices 1 2 3 4 5 6 
#
# 1 67.9661 47.3373 31.4602 0.0000 0.0000 0.0000
# 2 47.3373 137.6262 40.2414 0.0000 0.0000 0.0000
# 3 31.4602 40.2414 61.2195 0.0000 0.0000 0.0000
# 4 0.0000 0.0000 0.0000 4.4539 0.0000 0.0000
# 5 0.0000 0.0000 0.0000 0.0000 15.1022 0.0000
# 6 0.0000 0.0000 0.0000 0.0000 0.0000 32.6701
#
#
#
# Elastic Compliance Matrix: (Units=1/GPa)
#
#
# Indices 1 2 3 4 5 6 
#
# 1 0.022023 -0.005281 -0.007846 0.000000 0.000000 0.000000
# 2 -0.005281 0.010261 -0.004031 0.000000 0.000000 0.000000
# 3 -0.007846 -0.004031 0.023017 0.000000 0.000000 0.000000
# 4 0.000000 0.000000 0.000000 0.224524 0.000000 0.000000
# 5 0.000000 0.000000 0.000000 0.000000 0.066215 0.000000
# 6 0.000000 0.000000 0.000000 0.000000 0.000000 0.030609
#
#
# Mechanical properties :
#
#
# Convention : Reuss Voigt Hill
#
# Bulk Modulus (GPa) = 47.65457 56.09885 51.87671
# Shear Modulus (GPa) = 11.96286 20.29676 16.12981
#
# Velocity S-wave (km/s) = 2.55310 3.32555 2.96459
# Velocity P-wave (km/s) = 5.88703 6.73148 6.32337
#
# Compressibility (1/GPa) = 0.02098435
#
# Stress axis : x y z
#
# Youngs Moduli (GPa) = 45.40694 97.45546 43.44678
#
# Poissons Ratio (x) = 0.51464 0.34090
# Poissons Ratio (y) = 0.23978 0.17514
# Poissons Ratio (z) = 0.35628 0.39286
#
# Static dielectric constant tensor:
#      x y z
#    x 3.335190 0.000000 0.000000 
#    y 0.000000 3.778380 0.000000 
#    z 0.000000 0.000000 3.146910 
# 
# 
# High freq. dielectric constant tensor:
#      x y z
#    x 1.701660 0.000000 0.000000 
#    y 0.000000 1.733990 0.000000 
#    z 0.000000 0.000000 1.675380 
# 
# From -- ./inp_files/13959.got.cif
#   From: 2010.03.12/outbox.cif.g09.slc.cpg/sg36_7_cif.got.tgz:13959.got - 2010.04.14 02:13:53.
