data_PCOD8174605
_publ_section_title
;
Structure prediction by ZEFSAII (Michael W. Deem and Ramdas Pophale) SiO2 
 PCOD8174605
Probable space group: C M C 21
;
_chemical_formula_sum "Si O2"
_cell_formula_units_Z 64
_cell_length_a 9.072660
_cell_length_b 20.713985
_cell_length_c 18.994642
_cell_angle_alpha 90.000000
_cell_angle_beta 90.000000
_cell_angle_gamma 90.000000
_cell_volume 3569.680986
_symmetry_space_group_name_H-M "C M C 21"
_symmetry_group_IT_number 36
_symmetry_cell_setting 'orthorhombic'
loop_
_space_group_symop_operation_xyz
x,y,z
-x,-y,1/2+z
x,-y,1/2+z
-x,y,z
1/2+x,1/2+y,z
1/2-x,1/2-y,1/2+z
1/2+x,1/2-y,1/2+z
1/2-x,1/2+y,z
loop_
_atom_site_type_symbol
_atom_site_label
_atom_site_fract_x
_atom_site_fract_y
_atom_site_fract_z
Si Si1 0.668572 0.247088 0.690030
Si Si2 0.673309 0.185910 0.907207
Si Si3 0.325350 0.060855 0.827134
Si Si4 0.169285 0.260786 0.552426
Si Si5 0.326358 0.929620 0.902882
Si Si6 0.330700 0.312382 0.831956
Si Si7 0.325660 0.386035 0.197500
Si Si8 0.168863 0.887940 0.037809
O O1 0.500000 0.224746 0.680886
O O2 0.727532 0.277986 0.617905
O O3 0.682087 0.303018 0.748158
O O4 0.761782 0.184859 0.713137
O O5 0.500000 0.186675 0.894527
O O6 0.736856 0.120326 0.874017
O O7 0.738216 0.248746 0.868457
O O8 0.710858 0.189677 0.990140
O O9 0.500000 0.064455 0.815744
O O10 0.247059 0.062805 0.750874
O O11 0.277684 0.996559 0.867535
O O12 0.196488 0.188067 0.525296
O O13 0.000000 0.268249 0.576382
O O14 0.500000 0.922574 0.906298
O O15 0.262935 0.873639 0.854088
O O16 0.266496 0.927636 0.982627
O O17 0.500000 0.323403 0.855635
O O18 0.500000 0.383425 0.208393
O O19 0.286131 0.406915 0.117554
O O20 0.000000 0.905719 0.023465
#
# Coordination Sequence:
#
# PCOD8174605 Si02
#       8
#     8   8   8   8   8   8   8   8
#     4  10  19  32  53  80 109 142 177 223 276 321
#     4   9  16  33  57  76 100 140 180 214 264 325
#     4  10  21  38  56  79 111 145 181 221 273 325
#     4   9  17  31  53  79 105 136 178 227 270 318
#     4  11  23  35  53  83 114 143 180 228 269 313
#     4  10  19  35  57  76 103 146 182 214 267 326
#     4  10  20  34  55  82 107 139 181 223 267 320
#     4   9  18  34  54  77 107 141 179 216 264 328
#
# _framework density 17.928771999999999
#
# number of rings (size 3 to 8) (size 9 to 14) (size 15 to 20)
#    0.000    2.250    2.500    1.875    0.000    4.500 
#    0.000    1.875    0.000    4.500    0.000    0.000 
#    0.000    0.000    0.000    0.000    0.000    0.000 
#
# Total GULP energy -396803.100319 kJ/mol
# GULP energy per Si atom -12400.096885 kJ/mol
# Density = 1.788797 g / cm^3
# Si number density = 17.928772 Si / 1000 Ang^3
#
#
#
# Elastic Constant Matrix: (Units=GPa)
#
#
# Indices 1 2 3 4 5 6 
#
# 1 67.9231 44.8188 56.3636 0.0000 0.0000 0.0000
# 2 44.8188 111.1002 69.8334 0.0000 0.0000 0.0000
# 3 56.3636 69.8334 134.6333 0.0000 0.0000 0.0000
# 4 0.0000 0.0000 0.0000 25.2880 0.0000 0.0000
# 5 0.0000 0.0000 0.0000 0.0000 34.9294 0.0000
# 6 0.0000 0.0000 0.0000 0.0000 0.0000 22.5951
#
#
#
# Elastic Compliance Matrix: (Units=1/GPa)
#
#
# Indices 1 2 3 4 5 6 
#
# 1 0.024341 -0.005066 -0.007563 0.000000 0.000000 0.000000
# 2 -0.005066 0.014409 -0.005353 0.000000 0.000000 0.000000
# 3 -0.007563 -0.005353 0.013370 0.000000 0.000000 0.000000
# 4 0.000000 0.000000 0.000000 0.039545 0.000000 0.000000
# 5 0.000000 0.000000 0.000000 0.000000 0.028629 0.000000
# 6 0.000000 0.000000 0.000000 0.000000 0.000000 0.044257
#
#
# Mechanical properties :
#
#
# Convention : Reuss Voigt Hill
#
# Bulk Modulus (GPa) = 61.89189 72.85424 67.37307
# Shear Modulus (GPa) = 24.28362 26.07188 25.17775
#
# Velocity S-wave (km/s) = 3.68428 3.81752 3.75149
# Velocity P-wave (km/s) = 7.25910 7.75596 7.51164
#
# Compressibility (1/GPa) = 0.01615720
#
# Stress axis : x y z
#
# Youngs Moduli (GPa) = 41.08359 69.39963 74.79255
#
# Poissons Ratio (x) = 0.35156 0.56562
# Poissons Ratio (y) = 0.20812 0.40039
# Poissons Ratio (z) = 0.31070 0.37152
#
# Static dielectric constant tensor:
#      x y z
#    x 3.194290 0.000000 0.000000 
#    y 0.000000 3.130640 0.000000 
#    z 0.000000 0.000000 3.490480 
# 
# 
# High freq. dielectric constant tensor:
#      x y z
#    x 1.683100 0.000000 0.000000 
#    y 0.000000 1.663760 0.000000 
#    z 0.000000 0.000000 1.710060 
# 
# From -- ./inp_files/14091.got.cif
#   From: 2010.03.12/outbox.cif.g09.slc.cpg/sg36_8_cif.got.tgz:14091.got - 2010.04.14 02:13:53.
