data_PCOD8174718
_publ_section_title
;
Structure prediction by ZEFSAII (Michael W. Deem and Ramdas Pophale) SiO2 
 PCOD8174718
Probable space group: C M C 21
;
_chemical_formula_sum "Si O2"
_cell_formula_units_Z 64
_cell_length_a 8.841987
_cell_length_b 20.028347
_cell_length_c 19.550145
_cell_angle_alpha 90.000000
_cell_angle_beta 90.000000
_cell_angle_gamma 90.000000
_cell_volume 3462.142682
_symmetry_space_group_name_H-M "C M C 21"
_symmetry_group_IT_number 36
_symmetry_cell_setting 'orthorhombic'
loop_
_space_group_symop_operation_xyz
x,y,z
-x,-y,1/2+z
x,-y,1/2+z
-x,y,z
1/2+x,1/2+y,z
1/2-x,1/2-y,1/2+z
1/2+x,1/2-y,1/2+z
1/2-x,1/2+y,z
loop_
_atom_site_type_symbol
_atom_site_label
_atom_site_fract_x
_atom_site_fract_y
_atom_site_fract_z
Si Si1 0.178155 0.658662 0.442280
Si Si2 0.176268 0.222983 0.696660
Si Si3 0.175168 0.262575 0.542154
Si Si4 0.820531 0.077315 0.664927
Si Si5 0.820558 0.936544 0.701436
Si Si6 0.176599 0.897109 0.551883
Si Si7 0.678817 0.677565 0.298911
Si Si8 0.176651 0.956722 0.014429
O O1 0.233361 0.706037 0.502915
O O2 0.243282 0.685839 0.371480
O O3 0.234306 0.582925 0.455490
O O4 0.000000 0.659955 0.438238
O O5 0.205901 0.254254 0.622512
O O6 0.235309 0.146325 0.697762
O O7 0.277157 0.259935 0.752258
O O8 0.000000 0.227991 0.716491
O O9 0.231869 0.335736 0.518928
O O10 0.000000 0.254200 0.523789
O O11 0.761034 0.069135 0.587490
O O12 0.000000 0.077575 0.660026
O O13 0.765229 0.013590 0.710168
O O14 0.762393 0.908565 0.628863
O O15 0.759768 0.890511 0.762921
O O16 0.000000 0.934449 0.699814
O O17 0.000000 0.879016 0.551934
O O18 0.206606 0.963890 0.507323
O O19 0.500000 0.675963 0.308597
O O20 0.000000 0.940832 0.006139
#
# Coordination Sequence:
#
# PCOD8174718 Si02
#       8
#     8   8   8   8   8   8   8   8
#     4  12  25  39  56  79 113 153 198 241 288 344
#     4  10  19  33  56  84 114 146 183 232 284 337
#     4  11  21  35  57  85 117 151 190 237 288 337
#     4   8  14  29  54  82 110 138 177 225 272 326
#     4   8  15  29  53  82 107 138 179 225 269 326
#     4   9  17  32  57  87 115 143 184 231 277 335
#     4  11  22  37  57  80 112 149 190 233 287 348
#     4   9  17  34  58  83 112 146 185 228 281 339
#
# _framework density 18.485662000000001
#
# number of rings (size 3 to 8) (size 9 to 14) (size 15 to 20)
#    0.000    2.250    2.500    3.375    0.000    1.000 
#    0.000    1.250    0.000    7.500    0.000    0.000 
#    0.000    0.000    0.000    0.000    0.000    0.000 
#
# Total GULP energy -396728.049156 kJ/mol
# GULP energy per Si atom -12397.751536 kJ/mol
# Density = 1.844359 g / cm^3
# Si number density = 18.485662 Si / 1000 Ang^3
#
#
#
# Elastic Constant Matrix: (Units=GPa)
#
#
# Indices 1 2 3 4 5 6 
#
# 1 67.7736 29.8949 21.5824 0.0000 0.0000 0.0000
# 2 29.8949 121.0518 16.0369 0.0000 0.0000 0.0000
# 3 21.5824 16.0369 44.1457 0.0000 0.0000 0.0000
# 4 0.0000 0.0000 0.0000 20.7925 0.0000 0.0000
# 5 0.0000 0.0000 0.0000 0.0000 24.0043 0.0000
# 6 0.0000 0.0000 0.0000 0.0000 0.0000 29.1761
#
#
#
# Elastic Compliance Matrix: (Units=1/GPa)
#
#
# Indices 1 2 3 4 5 6 
#
# 1 0.018868 -0.003611 -0.007912 0.000000 0.000000 0.000000
# 2 -0.003611 0.009370 -0.001638 0.000000 0.000000 0.000000
# 3 -0.007912 -0.001638 0.027116 0.000000 0.000000 0.000000
# 4 0.000000 0.000000 0.000000 0.048094 0.000000 0.000000
# 5 0.000000 0.000000 0.000000 0.000000 0.041659 0.000000
# 6 0.000000 0.000000 0.000000 0.000000 0.000000 0.034275
#
#
# Mechanical properties :
#
#
# Convention : Reuss Voigt Hill
#
# Bulk Modulus (GPa) = 34.44790 40.88880 37.66835
# Shear Modulus (GPa) = 23.21464 25.82504 24.51984
#
# Velocity S-wave (km/s) = 3.54760 3.74174 3.64596
# Velocity P-wave (km/s) = 5.95449 6.39021 6.17619
#
# Compressibility (1/GPa) = 0.02902935
#
# Stress axis : x y z
#
# Youngs Moduli (GPa) = 53.00092 106.72576 36.87910
#
# Poissons Ratio (x) = 0.38542 0.29180
# Poissons Ratio (y) = 0.19140 0.06042
# Poissons Ratio (z) = 0.41936 0.17484
#
# Static dielectric constant tensor:
#      x y z
#    x 3.113530 0.000000 0.000000 
#    y 0.000000 3.849470 0.000000 
#    z 0.000000 0.000000 3.213810 
# 
# 
# High freq. dielectric constant tensor:
#      x y z
#    x 1.691970 0.000000 0.000000 
#    y 0.000000 1.735450 0.000000 
#    z 0.000000 0.000000 1.687900 
# 
# From -- ./inp_files/13900.got.cif
#   From: 2010.03.12/outbox.cif.g09.slc.cpg/sg36_7_cif.got.tgz:13900.got - 2010.04.14 02:13:53.
