data_PCOD8174284
_publ_section_title
;
Structure prediction by ZEFSAII (Michael W. Deem and Ramdas Pophale) SiO2 
 PCOD8174284
Probable space group: C M C 21
;
_chemical_formula_sum "Si O2"
_cell_formula_units_Z 56
_cell_length_a 13.533401
_cell_length_b 22.653484
_cell_length_c 8.451785
_cell_angle_alpha 90.000000
_cell_angle_beta 90.000000
_cell_angle_gamma 90.000000
_cell_volume 2591.137114
_symmetry_space_group_name_H-M "C M C 21"
_symmetry_group_IT_number 36
_symmetry_cell_setting 'orthorhombic'
loop_
_space_group_symop_operation_xyz
x,y,z
-x,-y,1/2+z
x,-y,1/2+z
-x,y,z
1/2+x,1/2+y,z
1/2-x,1/2-y,1/2+z
1/2+x,1/2-y,1/2+z
1/2-x,1/2+y,z
loop_
_atom_site_type_symbol
_atom_site_label
_atom_site_fract_x
_atom_site_fract_y
_atom_site_fract_z
Si Si1 0.753215 0.580603 0.535510
Si Si2 0.386596 0.830844 0.868929
Si Si3 0.610650 0.675181 0.628952
Si Si4 0.110720 0.363115 0.504382
Si Si5 0.246278 0.768071 0.499938
Si Si6 0.890937 0.136425 0.989932
Si Si7 0.755224 0.542890 0.894036
O O1 0.849866 0.618647 0.489930
O O2 0.654978 0.621333 0.524979
O O3 0.761777 0.554567 0.709081
O O4 0.744766 0.526924 0.413265
O O5 0.500000 0.814284 0.911300
O O6 0.378659 0.853492 0.691196
O O7 0.316320 0.773680 0.884570
O O8 0.500000 0.690013 0.565978
O O9 0.682697 0.731627 0.616265
O O10 0.605386 0.659771 0.811429
O O11 0.180665 0.315565 0.410029
O O12 0.144652 0.429970 0.468339
O O13 0.000000 0.354311 0.443788
O O14 0.168735 0.812983 0.589874
O O15 0.836806 0.073377 0.985704
O O16 0.000000 0.128098 0.062374
#
# Coordination Sequence:
#
# PCOD8174284 Si02
#       7
#     8   8   8   8   8   8   8
#     4  10  21  37  58  82 110 144 184 231 280 330
#     4  10  21  37  58  83 112 148 187 227 274 327
#     4   9  18  33  53  77 106 141 179 220 269 323
#     4  10  21  37  58  83 112 148 187 227 274 327
#     4  10  18  30  54  82 110 140 178 220 266 318
#     4   9  18  33  53  77 106 141 179 220 269 323
#     4  10  21  37  58  82 110 144 184 231 280 330
#
# _framework density 21.612131999999999
#
# number of rings (size 3 to 8) (size 9 to 14) (size 15 to 20)
#    0.000    2.286    0.000    2.571    0.000    5.143 
#    0.000    0.000    0.000   48.857    0.000    0.000 
#    0.000    0.000    0.000    0.000    0.000    0.000 
#
# Total GULP energy -346938.696180 kJ/mol
# GULP energy per Si atom -12390.667721 kJ/mol
# Density = 2.156294 g / cm^3
# Si number density = 21.612132 Si / 1000 Ang^3
#
#
#
# Elastic Constant Matrix: (Units=GPa)
#
#
# Indices 1 2 3 4 5 6 
#
# 1 181.8974 54.3736 27.3120 0.0000 0.0000 0.0000
# 2 54.3736 125.9505 18.6712 0.0000 0.0000 0.0000
# 3 27.3120 18.6712 36.5323 0.0000 0.0000 0.0000
# 4 0.0000 0.0000 0.0000 31.7553 0.0000 0.0000
# 5 0.0000 0.0000 0.0000 0.0000 22.8172 0.0000
# 6 0.0000 0.0000 0.0000 0.0000 0.0000 19.0403
#
#
#
# Elastic Compliance Matrix: (Units=1/GPa)
#
#
# Indices 1 2 3 4 5 6 
#
# 1 0.006782 -0.002355 -0.003867 0.000000 0.000000 0.000000
# 2 -0.002355 0.009408 -0.003048 0.000000 0.000000 0.000000
# 3 -0.003867 -0.003048 0.031822 0.000000 0.000000 0.000000
# 4 0.000000 0.000000 0.000000 0.031491 0.000000 0.000000
# 5 0.000000 0.000000 0.000000 0.000000 0.043827 0.000000
# 6 0.000000 0.000000 0.000000 0.000000 0.000000 0.052520
#
#
# Mechanical properties :
#
#
# Convention : Reuss Voigt Hill
#
# Bulk Modulus (GPa) = 33.92962 60.56597 47.24780
# Shear Modulus (GPa) = 24.48430 30.99081 27.73756
#
# Velocity S-wave (km/s) = 3.36950 3.79087 3.58638
# Velocity P-wave (km/s) = 5.55621 6.87356 6.24969
#
# Compressibility (1/GPa) = 0.02947277
#
# Stress axis : x y z
#
# Youngs Moduli (GPa) = 147.44734 106.29289 31.42505
#
# Poissons Ratio (x) = 0.25028 0.12152
# Poissons Ratio (y) = 0.34718 0.09578
# Poissons Ratio (z) = 0.57017 0.32398
#
# Static dielectric constant tensor:
#      x y z
#    x 4.403860 0.000000 0.000000 
#    y 0.000000 4.149900 0.000000 
#    z 0.000000 0.000000 3.467950 
# 
# 
# High freq. dielectric constant tensor:
#      x y z
#    x 1.857090 0.000000 0.000000 
#    y 0.000000 1.858110 0.000000 
#    z 0.000000 0.000000 1.814730 
# 
# From -- ./inp_files/4215.got.cif
#   From: 2010.03.12/outbox.cif.g09.slc.cpg/sg36_3_cif.got.tgz:4215.got - 2010.04.14 02:13:53.
