data_PCOD8174236
_publ_section_title
;
Structure prediction by ZEFSAII (Michael W. Deem and Ramdas Pophale) SiO2 
 PCOD8174236
Probable space group: C M C 21
;
_chemical_formula_sum "Si O2"
_cell_formula_units_Z 64
_cell_length_a 22.094477
_cell_length_b 18.293984
_cell_length_c 8.762820
_cell_angle_alpha 90.000000
_cell_angle_beta 90.000000
_cell_angle_gamma 90.000000
_cell_volume 3541.896869
_symmetry_space_group_name_H-M "C M C 21"
_symmetry_group_IT_number 36
_symmetry_cell_setting 'orthorhombic'
loop_
_space_group_symop_operation_xyz
x,y,z
-x,-y,1/2+z
x,-y,1/2+z
-x,y,z
1/2+x,1/2+y,z
1/2-x,1/2-y,1/2+z
1/2+x,1/2-y,1/2+z
1/2-x,1/2+y,z
loop_
_atom_site_type_symbol
_atom_site_label
_atom_site_fract_x
_atom_site_fract_y
_atom_site_fract_z
Si Si1 0.870378 0.572596 0.054350
Si Si2 0.778524 0.811445 0.392940
Si Si3 0.067268 0.539111 0.754350
Si Si4 0.179205 0.761846 0.715632
Si Si5 0.737790 0.462248 0.507685
Si Si6 0.271933 0.599739 0.331818
Si Si7 0.431024 0.185167 0.570930
Si Si8 0.349222 0.815112 0.790027
O O1 0.887174 0.524124 0.202332
O O2 0.864216 0.655649 0.119770
O O3 0.920828 0.568583 0.924597
O O4 0.809321 0.543868 0.976795
O O5 0.780324 0.776965 0.564023
O O6 0.712075 0.800747 0.316648
O O7 0.793459 0.897739 0.406474
O O8 0.828021 0.769924 0.286961
O O9 0.072657 0.604425 0.635682
O O10 0.000000 0.506179 0.754498
O O11 0.177479 0.836735 0.815805
O O12 0.111268 0.738705 0.671943
O O13 0.725995 0.451877 0.684864
O O14 0.713549 0.543321 0.468082
O O15 0.206698 0.637500 0.357823
O O16 0.500000 0.215170 0.573417
O O17 0.407742 0.179156 0.397750
#
# Coordination Sequence:
#
# PCOD8174236 Si02
#       8
#     8   8   8   8   8   8   8   8
#     4  11  20  32  48  67  95 130 164 200 240 283
#     4   9  18  31  48  70  97 121 152 197 244 291
#     4  11  22  32  44  65  94 129 168 204 232 270
#     4   9  18  32  48  70  96 124 157 196 242 289
#     4  10  18  29  46  69  93 119 150 189 241 292
#     4   9  18  30  46  70  96 119 150 195 242 288
#     4  10  20  33  49  69  95 130 169 203 239 289
#     4   9  19  33  48  68  95 126 162 200 242 288
#
# _framework density 18.069413999999998
#
# number of rings (size 3 to 8) (size 9 to 14) (size 15 to 20)
#    0.000    2.250    0.000    4.875    0.000    5.000 
#    0.000    0.000    0.000    0.000    0.000    7.875 
#    0.000    0.000    0.000    0.000    0.000    0.000 
#
# Total GULP energy -396633.752289 kJ/mol
# GULP energy per Si atom -12394.804759 kJ/mol
# Density = 1.802829 g / cm^3
# Si number density = 18.069414 Si / 1000 Ang^3
#
#
#
# Elastic Constant Matrix: (Units=GPa)
#
#
# Indices 1 2 3 4 5 6 
#
# 1 72.6141 24.5008 23.2231 0.0000 0.0000 0.0000
# 2 24.5008 53.1104 6.4426 0.0000 0.0000 0.0000
# 3 23.2231 6.4426 41.8354 0.0000 0.0000 0.0000
# 4 0.0000 0.0000 0.0000 33.6868 0.0000 0.0000
# 5 0.0000 0.0000 0.0000 0.0000 25.6722 0.0000
# 6 0.0000 0.0000 0.0000 0.0000 0.0000 20.6329
#
#
#
# Elastic Compliance Matrix: (Units=1/GPa)
#
#
# Indices 1 2 3 4 5 6 
#
# 1 0.019485 -0.007823 -0.009611 0.000000 0.000000 0.000000
# 2 -0.007823 0.022328 0.000904 0.000000 0.000000 0.000000
# 3 -0.009611 0.000904 0.029099 0.000000 0.000000 0.000000
# 4 0.000000 0.000000 0.000000 0.029685 0.000000 0.000000
# 5 0.000000 0.000000 0.000000 0.000000 0.038953 0.000000
# 6 0.000000 0.000000 0.000000 0.000000 0.000000 0.048466
#
#
# Mechanical properties :
#
#
# Convention : Reuss Voigt Hill
#
# Bulk Modulus (GPa) = 26.41897 30.65477 28.53687
# Shear Modulus (GPa) = 21.39550 23.55792 22.47671
#
# Velocity S-wave (km/s) = 3.44477 3.61466 3.53074
# Velocity P-wave (km/s) = 5.52037 5.86710 5.69637
#
# Compressibility (1/GPa) = 0.03785159
#
# Stress axis : x y z
#
# Youngs Moduli (GPa) = 51.32196 44.78709 34.36504
#
# Poissons Ratio (x) = 0.35036 0.33030
# Poissons Ratio (y) = 0.40148 -0.03107
# Poissons Ratio (z) = 0.49328 -0.04049
#
# Static dielectric constant tensor:
#      x y z
#    x 3.170740 0.000000 0.000000 
#    y 0.000000 3.446630 0.000000 
#    z 0.000000 0.000000 3.360660 
# 
# 
# High freq. dielectric constant tensor:
#      x y z
#    x 1.656280 0.000000 0.000000 
#    y 0.000000 1.693900 0.000000 
#    z 0.000000 0.000000 1.706520 
# 
# From -- ./inp_files/5397.got.cif
#   From: 2010.03.12/outbox.cif.g09.slc.cpg/sg36_3_cif.got.tgz:5397.got - 2010.04.14 02:13:53.
