data_PCOD8174256
_publ_section_title
;
Structure prediction by ZEFSAII (Michael W. Deem and Ramdas Pophale) SiO2 
 PCOD8174256
Probable space group: C M C 21
;
_chemical_formula_sum "Si O2"
_cell_formula_units_Z 48
_cell_length_a 13.188310
_cell_length_b 17.556022
_cell_length_c 9.596833
_cell_angle_alpha 90.000000
_cell_angle_beta 90.000000
_cell_angle_gamma 90.000000
_cell_volume 2221.995632
_symmetry_space_group_name_H-M "C M C 21"
_symmetry_group_IT_number 36
_symmetry_cell_setting 'orthorhombic'
loop_
_space_group_symop_operation_xyz
x,y,z
-x,-y,1/2+z
x,-y,1/2+z
-x,y,z
1/2+x,1/2+y,z
1/2-x,1/2-y,1/2+z
1/2+x,1/2-y,1/2+z
1/2-x,1/2+y,z
loop_
_atom_site_type_symbol
_atom_site_label
_atom_site_fract_x
_atom_site_fract_y
_atom_site_fract_z
Si Si1 0.209947 0.473615 0.809500
Si Si2 0.114830 0.912238 0.384386
Si Si3 0.263987 0.852465 0.576198
Si Si4 0.614942 0.742641 0.754779
Si Si5 0.383489 0.853241 0.997833
Si Si6 0.612772 0.874307 0.304135
O O1 0.317273 0.515642 0.838298
O O2 0.202976 0.423683 0.669851
O O3 0.188196 0.420740 0.942421
O O4 0.120970 0.534604 0.788777
O O5 0.147886 0.871592 0.531904
O O6 0.122716 0.848610 0.262084
O O7 0.000000 0.941105 0.402613
O O8 0.296569 0.774628 0.653105
O O9 0.314995 0.846059 0.425063
O O10 0.500000 0.766031 0.705328
O O11 0.634527 0.776616 0.909346
O O12 0.500000 0.880714 0.988698
O O13 0.354954 0.835171 0.158028
O O14 0.500000 0.850830 0.345627
#
# Coordination Sequence:
#
# PCOD8174256 Si02
#       6
#     8   8   8   8   8   8
#     4  10  20  34  52  78 111 150 191 227 270 329
#     4  10  22  38  57  82 113 151 190 230 277 330
#     4  10  21  36  57  83 110 145 190 236 277 328
#     4   9  19  38  61  84 113 146 181 228 290 347
#     4   9  18  33  56  86 118 148 178 224 288 347
#     4  10  18  29  51  85 117 142 178 231 286 335
#
# _framework density 21.602202999999999
#
# number of rings (size 3 to 8) (size 9 to 14) (size 15 to 20)
#    0.000    2.333    0.000    3.000    0.000    6.667 
#    0.000    0.000    0.000    4.000    0.000    2.333 
#    0.000    0.000    0.000    0.000    0.000    0.000 
#
# Total GULP energy -297360.696575 kJ/mol
# GULP energy per Si atom -12390.029024 kJ/mol
# Density = 2.155304 g / cm^3
# Si number density = 21.602203 Si / 1000 Ang^3
#
#
#
# Elastic Constant Matrix: (Units=GPa)
#
#
# Indices 1 2 3 4 5 6 
#
# 1 100.1215 27.4375 44.0285 0.0000 0.0000 0.0000
# 2 27.4375 70.4671 20.2279 0.0000 0.0000 0.0000
# 3 44.0285 20.2279 119.3931 0.0000 0.0000 0.0000
# 4 0.0000 0.0000 0.0000 11.5521 0.0000 0.0000
# 5 0.0000 0.0000 0.0000 0.0000 30.1411 0.0000
# 6 0.0000 0.0000 0.0000 0.0000 0.0000 27.9213
#
#
#
# Elastic Compliance Matrix: (Units=1/GPa)
#
#
# Indices 1 2 3 4 5 6 
#
# 1 0.012832 -0.003824 -0.004084 0.000000 0.000000 0.000000
# 2 -0.003824 0.016056 -0.001310 0.000000 0.000000 0.000000
# 3 -0.004084 -0.001310 0.010104 0.000000 0.000000 0.000000
# 4 0.000000 0.000000 0.000000 0.086564 0.000000 0.000000
# 5 0.000000 0.000000 0.000000 0.000000 0.033177 0.000000
# 6 0.000000 0.000000 0.000000 0.000000 0.000000 0.035815
#
#
# Mechanical properties :
#
#
# Convention : Reuss Voigt Hill
#
# Bulk Modulus (GPa) = 48.64931 52.59661 50.62296
# Shear Modulus (GPa) = 22.74421 27.14209 24.94315
#
# Velocity S-wave (km/s) = 3.24831 3.54849 3.40171
# Velocity P-wave (km/s) = 6.05294 6.41792 6.23810
#
# Compressibility (1/GPa) = 0.02055527
#
# Stress axis : x y z
#
# Youngs Moduli (GPa) = 77.93163 62.28207 98.97320
#
# Poissons Ratio (x) = 0.23816 0.40422
# Poissons Ratio (y) = 0.29800 0.12967
# Poissons Ratio (z) = 0.31828 0.08160
#
# Static dielectric constant tensor:
#      x y z
#    x 4.027880 0.000000 0.000000 
#    y 0.000000 3.675790 0.000000 
#    z 0.000000 0.000000 3.959700 
# 
# 
# High freq. dielectric constant tensor:
#      x y z
#    x 1.845370 0.000000 0.000000 
#    y 0.000000 1.838740 0.000000 
#    z 0.000000 0.000000 1.844250 
# 
# From -- ./inp_files/3977.got.cif
#   From: 2010.03.12/outbox.cif.g09.slc.cpg/sg36_2_cif.got.tgz:3977.got - 2010.04.14 02:13:53.
