data_PCOD8174727
_publ_section_title
;
Structure prediction by ZEFSAII (Michael W. Deem and Ramdas Pophale) SiO2 
 PCOD8174727
Probable space group: C M C 21
;
_chemical_formula_sum "Si O2"
_cell_formula_units_Z 64
_cell_length_a 8.897501
_cell_length_b 29.153733
_cell_length_c 12.354575
_cell_angle_alpha 90.000000
_cell_angle_beta 90.000000
_cell_angle_gamma 90.000000
_cell_volume 3204.719535
_symmetry_space_group_name_H-M "C M C 21"
_symmetry_group_IT_number 36
_symmetry_cell_setting 'orthorhombic'
loop_
_space_group_symop_operation_xyz
x,y,z
-x,-y,1/2+z
x,-y,1/2+z
-x,y,z
1/2+x,1/2+y,z
1/2-x,1/2-y,1/2+z
1/2+x,1/2-y,1/2+z
1/2-x,1/2+y,z
loop_
_atom_site_type_symbol
_atom_site_label
_atom_site_fract_x
_atom_site_fract_y
_atom_site_fract_z
Si Si1 0.168210 0.075305 0.520300
Si Si2 0.177645 0.388020 0.331981
Si Si3 0.324075 0.939651 0.812713
Si Si4 0.322277 0.179759 0.014179
Si Si5 0.830872 0.024964 0.742598
Si Si6 0.325226 0.841201 0.111073
Si Si7 0.822378 0.663666 0.255243
Si Si8 0.822941 0.779248 0.949114
O O1 0.231061 0.046846 0.419771
O O2 0.167688 0.042493 0.621462
O O3 0.285443 0.116724 0.532627
O O4 0.000000 0.094503 0.498658
O O5 0.232649 0.363559 0.442389
O O6 0.260200 0.436692 0.322073
O O7 0.222143 0.353854 0.233269
O O8 0.000000 0.397163 0.329660
O O9 0.500000 0.943336 0.833115
O O10 0.277355 0.889383 0.771440
O O11 0.270226 0.979360 0.731708
O O12 0.500000 0.177522 0.022525
O O13 0.258083 0.177462 0.136592
O O14 0.273638 0.226016 0.951832
O O15 0.000000 0.014354 0.782753
O O16 0.500000 0.829672 0.101225
O O17 0.231434 0.798434 0.065550
O O18 0.750346 0.695903 0.346327
O O19 0.000000 0.670447 0.262950
O O20 0.000000 0.785103 0.939348
#
# Coordination Sequence:
#
# PCOD8174727 Si02
#       8
#     8   8   8   8   8   8   8   8
#     4  10  20  36  57  82 115 153 193 246 301 349
#     4   9  19  38  61  84 116 157 201 246 294 355
#     4  11  22  36  59  87 117 157 201 246 299 358
#     4   9  21  40  60  86 121 160 197 244 303 358
#     4  10  22  38  58  87 121 156 198 247 304 360
#     4  10  19  33  57  84 112 148 195 247 293 348
#     4  10  22  41  61  85 119 155 199 249 296 353
#     4  11  22  36  59  87 117 154 196 243 300 357
#
# _framework density 19.970547
#
# number of rings (size 3 to 8) (size 9 to 14) (size 15 to 20)
#    0.000    2.000    1.250    1.875    1.750    3.500 
#    0.000    3.750    0.000    0.000    0.000    0.000 
#    0.000    0.000    0.000    0.000    0.000    0.000 
#
# Total GULP energy -396742.849675 kJ/mol
# GULP energy per Si atom -12398.214052 kJ/mol
# Density = 1.992509 g / cm^3
# Si number density = 19.970547 Si / 1000 Ang^3
#
#
#
# Elastic Constant Matrix: (Units=GPa)
#
#
# Indices 1 2 3 4 5 6 
#
# 1 66.4353 48.6049 43.7902 0.0000 0.0000 0.0000
# 2 48.6049 124.8360 51.6417 0.0000 0.0000 0.0000
# 3 43.7902 51.6417 95.2789 0.0000 0.0000 0.0000
# 4 0.0000 0.0000 0.0000 20.7423 0.0000 0.0000
# 5 0.0000 0.0000 0.0000 0.0000 25.5844 0.0000
# 6 0.0000 0.0000 0.0000 0.0000 0.0000 28.5815
#
#
#
# Elastic Compliance Matrix: (Units=1/GPa)
#
#
# Indices 1 2 3 4 5 6 
#
# 1 0.025049 -0.006433 -0.008026 0.000000 0.000000 0.000000
# 2 -0.006433 0.011978 -0.003536 0.000000 0.000000 0.000000
# 3 -0.008026 -0.003536 0.016100 0.000000 0.000000 0.000000
# 4 0.000000 0.000000 0.000000 0.048211 0.000000 0.000000
# 5 0.000000 0.000000 0.000000 0.000000 0.039086 0.000000
# 6 0.000000 0.000000 0.000000 0.000000 0.000000 0.034988
#
#
# Mechanical properties :
#
#
# Convention : Reuss Voigt Hill
#
# Bulk Modulus (GPa) = 58.34727 63.84710 61.09719
# Shear Modulus (GPa) = 23.02961 24.48254 23.75607
#
# Velocity S-wave (km/s) = 3.39953 3.50513 3.45273
# Velocity P-wave (km/s) = 6.68500 6.95854 6.82314
#
# Compressibility (1/GPa) = 0.01713876
#
# Stress axis : x y z
#
# Youngs Moduli (GPa) = 39.92251 83.48921 62.11012
#
# Poissons Ratio (x) = 0.53705 0.49848
# Poissons Ratio (y) = 0.25680 0.21959
# Poissons Ratio (z) = 0.32041 0.29518
#
# Static dielectric constant tensor:
#      x y z
#    x 3.591180 0.000000 0.000000 
#    y 0.000000 3.705790 0.000000 
#    z 0.000000 0.000000 3.760000 
# 
# 
# High freq. dielectric constant tensor:
#      x y z
#    x 1.770820 0.000000 0.000000 
#    y 0.000000 1.779300 0.000000 
#    z 0.000000 0.000000 1.781400 
# 
# From -- ./inp_files/7129.got.cif
#   From: 2010.03.12/outbox.cif.g09.slc.cpg/sg36_4_cif.got.tgz:7129.got - 2010.04.14 02:13:53.
