data_PCOD8174035
_publ_section_title
;
Structure prediction by ZEFSAII (Michael W. Deem and Ramdas Pophale) SiO2 
 PCOD8174035
Probable space group: C M M 2
;
_chemical_formula_sum "Si O2"
_cell_formula_units_Z 40
_cell_length_a 15.378971
_cell_length_b 26.199629
_cell_length_c 5.125597
_cell_angle_alpha 90.000000
_cell_angle_beta 90.000000
_cell_angle_gamma 90.000000
_cell_volume 2065.222635
_symmetry_space_group_name_H-M "C M M 2"
_symmetry_group_IT_number 35
_symmetry_cell_setting 'orthorhombic'
loop_
_space_group_symop_operation_xyz
x,y,z
-x,-y,z
-x,y,z
x,-y,z
1/2+x,1/2+y,z
1/2-x,1/2-y,z
1/2-x,1/2+y,z
1/2+x,1/2-y,z
loop_
_atom_site_type_symbol
_atom_site_label
_atom_site_fract_x
_atom_site_fract_y
_atom_site_fract_z
Si Si1 0.743936 0.392030 0.422590
Si Si2 0.598128 0.690002 0.418128
Si Si3 0.647163 0.249483 0.921125
Si Si4 0.199916 0.558620 0.910558
Si Si5 0.402306 0.144068 0.693409
O O1 0.661103 0.357343 0.366373
O O2 0.730990 0.426273 0.682823
O O3 0.830820 0.356385 0.458635
O O4 0.754904 0.430684 0.184795
O O5 0.500000 0.670106 0.387123
O O6 0.610027 0.711651 0.707657
O O7 0.616878 0.734220 0.208441
O O8 0.750000 0.250000 0.902021
O O9 0.610212 0.193366 0.873413
O O10 0.171805 0.500000 0.891738
O O11 0.113842 0.593681 0.872611
O O12 0.500000 0.142689 0.579171
#
# Coordination Sequence:
#
# PCOD8174035 Si02
#       5
#     8   8   8   8   8
#     4  10  22  41  61  90 117 165 202 253 310 366
#     4  12  24  40  63  94 128 168 206 251 306 372
#     4  12  23  40  61  92 131 167 207 248 307 371
#     4  10  22  41  63  86 118 159 205 257 318 367
#     4  10  23  39  60  91 124 160 206 252 302 368
#
# _framework density 19.368372000000001
#
# number of rings (size 3 to 8) (size 9 to 14) (size 15 to 20)
#    1.200    0.000    2.000    5.400    2.800    1.200 
#    0.000    0.000    0.000    3.600    0.000    0.000 
#    0.000    0.000    0.000    0.000    0.000    0.000 
#
# Total GULP energy -247940.327360 kJ/mol
# GULP energy per Si atom -12397.016368 kJ/mol
# Density = 1.932429 g / cm^3
# Si number density = 19.368372 Si / 1000 Ang^3
#
#
#
# Elastic Constant Matrix: (Units=GPa)
#
#
# Indices 1 2 3 4 5 6 
#
# 1 147.3308 53.9578 22.2569 0.0000 0.0000 0.0000
# 2 53.9578 74.3069 1.2461 0.0000 0.0000 0.0000
# 3 22.2569 1.2461 90.1601 0.0000 0.0000 0.0000
# 4 0.0000 0.0000 0.0000 22.7331 0.0000 0.0000
# 5 0.0000 0.0000 0.0000 0.0000 18.1425 0.0000
# 6 0.0000 0.0000 0.0000 0.0000 0.0000 10.2488
#
#
#
# Elastic Compliance Matrix: (Units=1/GPa)
#
#
# Indices 1 2 3 4 5 6 
#
# 1 0.009700 -0.007005 -0.002298 0.000000 0.000000 0.000000
# 2 -0.007005 0.018520 0.001473 0.000000 0.000000 0.000000
# 3 -0.002298 0.001473 0.011638 0.000000 0.000000 0.000000
# 4 0.000000 0.000000 0.000000 0.043989 0.000000 0.000000
# 5 0.000000 0.000000 0.000000 0.000000 0.055119 0.000000
# 6 0.000000 0.000000 0.000000 0.000000 0.000000 0.097573
#
#
# Mechanical properties :
#
#
# Convention : Reuss Voigt Hill
#
# Bulk Modulus (GPa) = 41.32409 51.85772 46.59090
# Shear Modulus (GPa) = 19.21124 25.84732 22.52928
#
# Velocity S-wave (km/s) = 3.15284 3.65706 3.41427
# Velocity P-wave (km/s) = 5.88524 6.68316 6.29685
#
# Compressibility (1/GPa) = 0.02419896
#
# Stress axis : x y z
#
# Youngs Moduli (GPa) = 103.09158 53.99623 85.92360
#
# Poissons Ratio (x) = 0.37825 0.19743
# Poissons Ratio (y) = 0.72218 -0.12659
# Poissons Ratio (z) = 0.23688 -0.07955
#
# Static dielectric constant tensor:
#      x y z
#    x 3.484150 0.000000 0.000000 
#    y 0.000000 3.355680 0.000000 
#    z 0.000000 0.000000 3.620940 
# 
# 
# High freq. dielectric constant tensor:
#      x y z
#    x 1.738660 0.000000 0.000000 
#    y 0.000000 1.742950 0.000000 
#    z 0.000000 0.000000 1.764260 
# 
# From -- ./inp_files/1985.got.cif
#   From: 2010.03.12/outbox.cif.g09.slc.cpg/sg35_1_cif.got.tgz:1985.got - 2010.04.14 02:02:04.
