data_PCOD8174614
_publ_section_title
;
Structure prediction by ZEFSAII (Michael W. Deem and Ramdas Pophale) SiO2 
 PCOD8174614
Probable space group: C M C 21
;
_chemical_formula_sum "Si O2"
_cell_formula_units_Z 64
_cell_length_a 8.967447
_cell_length_b 29.028581
_cell_length_c 12.269502
_cell_angle_alpha 90.000000
_cell_angle_beta 90.000000
_cell_angle_gamma 90.000000
_cell_volume 3193.901814
_symmetry_space_group_name_H-M "C M C 21"
_symmetry_group_IT_number 36
_symmetry_cell_setting 'orthorhombic'
loop_
_space_group_symop_operation_xyz
x,y,z
-x,-y,1/2+z
x,-y,1/2+z
-x,y,z
1/2+x,1/2+y,z
1/2-x,1/2-y,1/2+z
1/2+x,1/2-y,1/2+z
1/2-x,1/2+y,z
loop_
_atom_site_type_symbol
_atom_site_label
_atom_site_fract_x
_atom_site_fract_y
_atom_site_fract_z
Si Si1 0.323820 0.568100 0.929740
Si Si2 0.329795 0.717094 0.197990
Si Si3 0.325452 0.184333 0.636163
Si Si4 0.330381 0.020146 0.500718
Si Si5 0.171758 0.630374 0.096287
Si Si6 0.176706 0.584908 0.703709
Si Si7 0.666716 0.092523 0.324625
Si Si8 0.665967 0.327168 0.922606
O O1 0.500000 0.571110 0.921727
O O2 0.276788 0.523808 0.001036
O O3 0.255816 0.563759 0.809095
O O4 0.262579 0.613333 0.991198
O O5 0.500000 0.713852 0.154272
O O6 0.261921 0.768554 0.187618
O O7 0.231062 0.680349 0.132410
O O8 0.323856 0.709279 0.326213
O O9 0.500000 0.182334 0.651320
O O10 0.260620 0.137145 0.687979
O O11 0.286479 0.187686 0.509912
O O12 0.500000 0.003693 0.521624
O O13 0.280949 0.055536 0.595892
O O14 0.318165 0.042602 0.379779
O O15 0.190467 0.592730 0.193953
O O16 0.000000 0.635893 0.062389
O O17 0.000000 0.584190 0.722150
O O18 0.500000 0.112304 0.350151
O O19 0.795308 0.122722 0.377652
O O20 0.500000 0.328789 0.972963
#
# Coordination Sequence:
#
# PCOD8174614 Si02
#       8
#     8   8   8   8   8   8   8   8
#     4  12  27  42  59  89 130 166 202 251 313 367
#     4   9  20  37  58  87 123 161 201 252 311 361
#     4  10  20  38  62  87 119 160 204 251 303 361
#     4  10  21  40  65  90 116 154 207 253 300 366
#     4  10  21  39  63  89 120 160 208 251 297 362
#     4  10  22  42  66  90 120 161 208 252 299 366
#     4   9  18  36  62  87 110 147 199 250 298 356
#     4  10  19  32  53  85 120 153 195 248 305 359
#
# _framework density 20.038187000000001
#
# number of rings (size 3 to 8) (size 9 to 14) (size 15 to 20)
#    0.000    2.000    1.250    1.875    1.750    4.000 
#    0.000    1.250    0.000    0.000    0.000    0.000 
#    0.000    0.000    0.000    0.000    0.000    0.000 
#
# Total GULP energy -396728.804764 kJ/mol
# GULP energy per Si atom -12397.775149 kJ/mol
# Density = 1.999258 g / cm^3
# Si number density = 20.038187 Si / 1000 Ang^3
#
#
#
# Elastic Constant Matrix: (Units=GPa)
#
#
# Indices 1 2 3 4 5 6 
#
# 1 53.3949 41.4666 36.8267 0.0000 0.0000 0.0000
# 2 41.4666 111.4955 40.0571 0.0000 0.0000 0.0000
# 3 36.8267 40.0571 84.0023 0.0000 0.0000 0.0000
# 4 0.0000 0.0000 0.0000 19.3225 0.0000 0.0000
# 5 0.0000 0.0000 0.0000 0.0000 29.8665 0.0000
# 6 0.0000 0.0000 0.0000 0.0000 0.0000 26.3229
#
#
#
# Elastic Compliance Matrix: (Units=1/GPa)
#
#
# Indices 1 2 3 4 5 6 
#
# 1 0.032191 -0.008329 -0.010141 0.000000 0.000000 0.000000
# 2 -0.008329 0.012978 -0.002537 0.000000 0.000000 0.000000
# 3 -0.010141 -0.002537 0.017560 0.000000 0.000000 0.000000
# 4 0.000000 0.000000 0.000000 0.051753 0.000000 0.000000
# 5 0.000000 0.000000 0.000000 0.000000 0.033482 0.000000
# 6 0.000000 0.000000 0.000000 0.000000 0.000000 0.037990
#
#
# Mechanical properties :
#
#
# Convention : Reuss Voigt Hill
#
# Bulk Modulus (GPa) = 48.27409 53.95481 51.11445
# Shear Modulus (GPa) = 21.28810 23.80522 22.54666
#
# Velocity S-wave (km/s) = 3.26295 3.45047 3.35802
# Velocity P-wave (km/s) = 6.19186 6.54666 6.37173
#
# Compressibility (1/GPa) = 0.02071505
#
# Stress axis : x y z
#
# Youngs Moduli (GPa) = 31.06491 77.05248 56.94720
#
# Poissons Ratio (x) = 0.64176 0.57749
# Poissons Ratio (y) = 0.25873 0.14450
# Poissons Ratio (z) = 0.31502 0.19551
#
# Static dielectric constant tensor:
#      x y z
#    x 3.569310 0.000000 0.000000 
#    y 0.000000 3.711240 0.000000 
#    z 0.000000 0.000000 3.693290 
# 
# 
# High freq. dielectric constant tensor:
#      x y z
#    x 1.771210 0.000000 0.000000 
#    y 0.000000 1.779580 0.000000 
#    z 0.000000 0.000000 1.780700 
# 
# From -- ./inp_files/7134.got.cif
#   From: 2010.03.12/outbox.cif.g09.slc.cpg/sg36_4_cif.got.tgz:7134.got - 2010.04.14 02:13:53.
