data_PCOD8174769
_publ_section_title
;
Structure prediction by ZEFSAII (Michael W. Deem and Ramdas Pophale) SiO2 
 PCOD8174769
Probable space group: C M C 21
;
_chemical_formula_sum "Si O2"
_cell_formula_units_Z 48
_cell_length_a 8.890301
_cell_length_b 30.302079
_cell_length_c 9.346344
_cell_angle_alpha 90.000000
_cell_angle_beta 90.000000
_cell_angle_gamma 90.000000
_cell_volume 2517.854634
_symmetry_space_group_name_H-M "C M C 21"
_symmetry_group_IT_number 36
_symmetry_cell_setting 'orthorhombic'
loop_
_space_group_symop_operation_xyz
x,y,z
-x,-y,1/2+z
x,-y,1/2+z
-x,y,z
1/2+x,1/2+y,z
1/2-x,1/2-y,1/2+z
1/2+x,1/2-y,1/2+z
1/2-x,1/2+y,z
loop_
_atom_site_type_symbol
_atom_site_label
_atom_site_fract_x
_atom_site_fract_y
_atom_site_fract_z
Si Si1 0.321766 0.464738 0.416330
Si Si2 0.679065 0.548600 0.593845
Si Si3 0.671067 0.285718 0.904704
Si Si4 0.823183 0.886834 0.617663
Si Si5 0.677648 0.876494 0.919098
Si Si6 0.169752 0.212107 0.073646
O O1 0.500000 0.463807 0.418533
O O2 0.263243 0.462215 0.253963
O O3 0.264016 0.509602 0.489688
O O4 0.261523 0.423051 0.506889
O O5 0.500000 0.553862 0.589450
O O6 0.755040 0.593849 0.545358
O O7 0.500000 0.298429 0.941891
O O8 0.775472 0.326256 0.952125
O O9 0.689189 0.275516 0.738400
O O10 0.715167 0.241240 0.984973
O O11 0.740058 0.893350 0.767711
O O12 0.788541 0.839122 0.549689
O O13 0.000000 0.892043 0.650148
O O14 0.500000 0.880118 0.918982
O O15 0.000000 0.221407 0.021273
#
# Coordination Sequence:
#
# PCOD8174769 Si02
#       6
#     8   8   8   8   8   8
#     4   9  18  33  58  85 108 139 180 222 263 318
#     4  10  19  34  56  82 109 141 181 222 267 318
#     4  10  21  37  57  80 108 144 182 220 266 321
#     4   9  18  36  58  81 109 141 178 219 265 320
#     4  11  22  36  54  78 108 143 182 225 271 316
#     4   9  19  34  53  80 112 142 177 222 266 313
#
# _framework density 19.063849000000001
#
# number of rings (size 3 to 8) (size 9 to 14) (size 15 to 20)
#    0.000    2.333    0.000    4.000    0.000    7.333 
#    0.000    5.833    0.000    0.000    0.000    0.000 
#    0.000    0.000    0.000    0.000    0.000    0.000 
#
# Total GULP energy -297658.036233 kJ/mol
# GULP energy per Si atom -12402.418176 kJ/mol
# Density = 1.902046 g / cm^3
# Si number density = 19.063849 Si / 1000 Ang^3
#
#
#
# Elastic Constant Matrix: (Units=GPa)
#
#
# Indices 1 2 3 4 5 6 
#
# 1 65.5603 26.2271 28.5488 0.0000 0.0000 0.0000
# 2 26.2271 81.1610 31.0442 0.0000 0.0000 0.0000
# 3 28.5488 31.0442 64.0681 0.0000 0.0000 0.0000
# 4 0.0000 0.0000 0.0000 40.5687 0.0000 0.0000
# 5 0.0000 0.0000 0.0000 0.0000 21.5813 0.0000
# 6 0.0000 0.0000 0.0000 0.0000 0.0000 26.9008
#
#
#
# Elastic Compliance Matrix: (Units=1/GPa)
#
#
# Indices 1 2 3 4 5 6 
#
# 1 0.019796 -0.003711 -0.007023 0.000000 0.000000 0.000000
# 2 -0.003711 0.015820 -0.006012 0.000000 0.000000 0.000000
# 3 -0.007023 -0.006012 0.021651 0.000000 0.000000 0.000000
# 4 0.000000 0.000000 0.000000 0.024650 0.000000 0.000000
# 5 0.000000 0.000000 0.000000 0.000000 0.046337 0.000000
# 6 0.000000 0.000000 0.000000 0.000000 0.000000 0.037174
#
#
# Mechanical properties :
#
#
# Convention : Reuss Voigt Hill
#
# Bulk Modulus (GPa) = 42.06063 42.49218 42.27641
# Shear Modulus (GPa) = 24.17293 26.14144 25.15718
#
# Velocity S-wave (km/s) = 3.56476 3.70707 3.63661
# Velocity P-wave (km/s) = 6.24934 6.37659 6.31329
#
# Compressibility (1/GPa) = 0.02377520
#
# Stress axis : x y z
#
# Youngs Moduli (GPa) = 50.51573 63.21150 46.18728
#
# Poissons Ratio (x) = 0.23456 0.32437
# Poissons Ratio (y) = 0.18745 0.27768
# Poissons Ratio (z) = 0.35477 0.38003
#
# Static dielectric constant tensor:
#      x y z
#    x 3.218430 0.000000 0.000000 
#    y 0.000000 3.584370 0.000000 
#    z 0.000000 0.000000 3.540770 
# 
# 
# High freq. dielectric constant tensor:
#      x y z
#    x 1.716230 0.000000 0.000000 
#    y 0.000000 1.753070 0.000000 
#    z 0.000000 0.000000 1.740400 
# 
# From -- ./inp_files/2652.got.cif
#   From: 2010.03.12/outbox.cif.g09.slc.cpg/sg36_2_cif.got.tgz:2652.got - 2010.04.14 02:13:53.
