data_PCOD8174226
_publ_section_title
;
Structure prediction by ZEFSAII (Michael W. Deem and Ramdas Pophale) SiO2 
 PCOD8174226
Probable space group: C M C 21
;
_chemical_formula_sum "Si O2"
_cell_formula_units_Z 64
_cell_length_a 9.318308
_cell_length_b 23.192872
_cell_length_c 17.889855
_cell_angle_alpha 90.000000
_cell_angle_beta 90.000000
_cell_angle_gamma 90.000000
_cell_volume 3866.325492
_symmetry_space_group_name_H-M "C M C 21"
_symmetry_group_IT_number 36
_symmetry_cell_setting 'orthorhombic'
loop_
_space_group_symop_operation_xyz
x,y,z
-x,-y,1/2+z
x,-y,1/2+z
-x,y,z
1/2+x,1/2+y,z
1/2-x,1/2-y,1/2+z
1/2+x,1/2-y,1/2+z
1/2-x,1/2+y,z
loop_
_atom_site_type_symbol
_atom_site_label
_atom_site_fract_x
_atom_site_fract_y
_atom_site_fract_z
Si Si1 0.659411 0.570890 0.659180
Si Si2 0.156730 0.418082 0.555500
Si Si3 0.829631 0.185373 0.583702
Si Si4 0.169726 0.868923 0.769356
Si Si5 0.668629 0.372399 0.936991
Si Si6 0.339831 0.024709 0.215617
Si Si7 0.842003 0.012025 0.499357
Si Si8 0.328415 0.808161 0.639600
O O1 0.500000 0.574254 0.695081
O O2 0.718486 0.635165 0.641289
O O3 0.767047 0.538796 0.716408
O O4 0.649293 0.534819 0.583434
O O5 0.146628 0.453748 0.631483
O O6 0.253713 0.452212 0.495850
O O7 0.216542 0.354414 0.575784
O O8 0.000000 0.412247 0.518777
O O9 0.769337 0.171361 0.500071
O O10 0.770109 0.246478 0.612126
O O11 0.000000 0.188655 0.580996
O O12 0.200127 0.848489 0.854444
O O13 0.237998 0.932180 0.761380
O O14 0.247371 0.822652 0.716614
O O15 0.000000 0.872009 0.751727
O O16 0.500000 0.379120 0.952159
O O17 0.731030 0.437513 0.948793
O O18 0.500000 0.021323 0.251121
O O19 0.000000 0.996389 0.469409
O O20 0.500000 0.810590 0.653876
#
# Coordination Sequence:
#
# PCOD8174226 Si02
#       8
#     8   8   8   8   8   8   8   8
#     4   8  13  23  42  65  83 103 136 175 212 251
#     4   8  14  23  36  58  84 107 133 166 206 250
#     4   8  14  27  47  67  87 116 154 188 218 260
#     4  10  18  28  44  65  89 115 147 187 226 267
#     4   8  15  27  44  66  86 109 145 186 226 267
#     4   9  16  26  40  60  87 113 136 167 213 264
#     4   8  13  23  40  60  80 101 130 169 211 254
#     4   9  17  29  45  65  90 120 153 186 220 263
#
# _framework density 16.553184999999999
#
# number of rings (size 3 to 8) (size 9 to 14) (size 15 to 20)
#    0.000    3.500    0.000    3.000    0.000    3.000 
#    0.000    1.875    0.000    5.250    0.000    3.500 
#    0.000    0.000    0.000    0.000    0.000    0.000 
#
# Total GULP energy -396455.018677 kJ/mol
# GULP energy per Si atom -12389.219334 kJ/mol
# Density = 1.651551 g / cm^3
# Si number density = 16.553185 Si / 1000 Ang^3
#
#
#
# Elastic Constant Matrix: (Units=GPa)
#
#
# Indices 1 2 3 4 5 6 
#
# 1 62.6170 42.2018 29.6970 0.0000 0.0000 0.0000
# 2 42.2018 142.6090 48.7489 0.0000 0.0000 0.0000
# 3 29.6970 48.7489 61.7665 0.0000 0.0000 0.0000
# 4 0.0000 0.0000 0.0000 14.6390 0.0000 0.0000
# 5 0.0000 0.0000 0.0000 0.0000 13.1494 0.0000
# 6 0.0000 0.0000 0.0000 0.0000 0.0000 20.1188
#
#
#
# Elastic Compliance Matrix: (Units=1/GPa)
#
#
# Indices 1 2 3 4 5 6 
#
# 1 0.022243 -0.004008 -0.007531 0.000000 0.000000 0.000000
# 2 -0.004008 0.010325 -0.006222 0.000000 0.000000 0.000000
# 3 -0.007531 -0.006222 0.024722 0.000000 0.000000 0.000000
# 4 0.000000 0.000000 0.000000 0.068311 0.000000 0.000000
# 5 0.000000 0.000000 0.000000 0.000000 0.076049 0.000000
# 6 0.000000 0.000000 0.000000 0.000000 0.000000 0.049705
#
#
# Mechanical properties :
#
#
# Convention : Reuss Voigt Hill
#
# Bulk Modulus (GPa) = 45.93976 56.47644 51.20810
# Shear Modulus (GPa) = 16.99913 19.33775 18.16844
#
# Velocity S-wave (km/s) = 3.20807 3.42163 3.31657
# Velocity P-wave (km/s) = 6.44479 7.05708 6.75787
#
# Compressibility (1/GPa) = 0.02176764
#
# Stress axis : x y z
#
# Youngs Moduli (GPa) = 44.95784 96.85082 40.45027
#
# Poissons Ratio (x) = 0.38817 0.30464
# Poissons Ratio (y) = 0.18019 0.25169
# Poissons Ratio (z) = 0.33858 0.60262
#
# Static dielectric constant tensor:
#      x y z
#    x 3.164760 0.000000 0.000000 
#    y 0.000000 3.316170 0.000000 
#    z 0.000000 0.000000 2.822940 
# 
# 
# High freq. dielectric constant tensor:
#      x y z
#    x 1.618150 0.000000 0.000000 
#    y 0.000000 1.629910 0.000000 
#    z 0.000000 0.000000 1.595380 
# 
# From -- ./inp_files/14001.got.cif
#   From: 2010.03.12/outbox.cif.g09.slc.cpg/sg36_8_cif.got.tgz:14001.got - 2010.04.14 02:13:53.
