data_PCOD8174504
_publ_section_title
;
Structure prediction by ZEFSAII (Michael W. Deem and Ramdas Pophale) SiO2 
 PCOD8174504
Probable space group: C M C 21
;
_chemical_formula_sum "Si O2"
_cell_formula_units_Z 64
_cell_length_a 8.747521
_cell_length_b 20.199687
_cell_length_c 20.211843
_cell_angle_alpha 90.000000
_cell_angle_beta 90.000000
_cell_angle_gamma 90.000000
_cell_volume 3571.375787
_symmetry_space_group_name_H-M "C M C 21"
_symmetry_group_IT_number 36
_symmetry_cell_setting 'orthorhombic'
loop_
_space_group_symop_operation_xyz
x,y,z
-x,-y,1/2+z
x,-y,1/2+z
-x,y,z
1/2+x,1/2+y,z
1/2-x,1/2-y,1/2+z
1/2+x,1/2-y,1/2+z
1/2-x,1/2+y,z
loop_
_atom_site_type_symbol
_atom_site_label
_atom_site_fract_x
_atom_site_fract_y
_atom_site_fract_z
Si Si1 0.681293 0.176137 0.109160
Si Si2 0.180231 0.677640 0.752413
Si Si3 0.178933 0.423533 0.851726
Si Si4 0.181628 0.682855 0.604045
Si Si5 0.182256 0.428723 0.502966
Si Si6 0.319787 0.075426 0.502399
Si Si7 0.181385 0.426274 0.355969
Si Si8 0.179612 0.826048 0.748638
O O1 0.500000 0.178818 0.108658
O O2 0.746219 0.246624 0.086970
O O3 0.745252 0.122801 0.056571
O O4 0.737178 0.153236 0.181117
O O5 0.231220 0.660121 0.677673
O O6 0.255542 0.625373 0.803633
O O7 0.233166 0.752247 0.769929
O O8 0.000000 0.671911 0.758636
O O9 0.221264 0.405506 0.927196
O O10 0.227673 0.499021 0.836301
O O11 0.278216 0.376391 0.805969
O O12 0.000000 0.412350 0.837804
O O13 0.250067 0.629527 0.552512
O O14 0.000000 0.690141 0.598926
O O15 0.244398 0.502429 0.520052
O O16 0.241410 0.408673 0.429612
O O17 0.000000 0.430057 0.502774
O O18 0.500000 0.074426 0.511662
O O19 0.000000 0.421150 0.355517
O O20 0.000000 0.826939 0.734877
#
# Coordination Sequence:
#
# PCOD8174504 Si02
#       8
#     8   8   8   8   8   8   8   8
#     4  10  19  31  49  71  94 121 158 202 238 271
#     4   8  15  27  44  65  88 121 160 191 222 267
#     4   9  17  30  50  73  94 119 154 197 237 273
#     4   9  17  30  47  67  95 128 157 186 228 284
#     4   8  15  27  45  70  95 119 152 195 234 268
#     4   8  15  29  48  70  96 124 155 191 231 277
#     4   8  14  27  47  71  95 117 152 199 234 263
#     4  10  20  33  48  67  95 127 156 191 238 291
#
# _framework density 17.920262999999998
#
# number of rings (size 3 to 8) (size 9 to 14) (size 15 to 20)
#    0.000    3.250    0.000    3.000    0.000    2.000 
#    0.000    5.625    0.000   14.250    0.000    0.000 
#    0.000    0.000    0.000    0.000    0.000    0.000 
#
# Total GULP energy -396633.819103 kJ/mol
# GULP energy per Si atom -12394.806847 kJ/mol
# Density = 1.787948 g / cm^3
# Si number density = 17.920263 Si / 1000 Ang^3
#
#
#
# Elastic Constant Matrix: (Units=GPa)
#
#
# Indices 1 2 3 4 5 6 
#
# 1 23.4809 22.5169 19.3730 0.0000 0.0000 0.0000
# 2 22.5169 139.8663 112.3931 0.0000 0.0000 0.0000
# 3 19.3730 112.3931 139.7057 0.0000 0.0000 0.0000
# 4 0.0000 0.0000 0.0000 44.3034 0.0000 0.0000
# 5 0.0000 0.0000 0.0000 0.0000 18.0685 0.0000
# 6 0.0000 0.0000 0.0000 0.0000 0.0000 21.8926
#
#
#
# Elastic Compliance Matrix: (Units=1/GPa)
#
#
# Indices 1 2 3 4 5 6 
#
# 1 0.050447 -0.007072 -0.001306 0.000000 0.000000 0.000000
# 2 -0.007072 0.021215 -0.016087 0.000000 0.000000 0.000000
# 3 -0.001306 -0.016087 0.020281 0.000000 0.000000 0.000000
# 4 0.000000 0.000000 0.000000 0.022572 0.000000 0.000000
# 5 0.000000 0.000000 0.000000 0.000000 0.055345 0.000000
# 6 0.000000 0.000000 0.000000 0.000000 0.000000 0.045678
#
#
# Mechanical properties :
#
#
# Convention : Reuss Voigt Hill
#
# Bulk Modulus (GPa) = 23.24870 67.95768 45.60319
# Shear Modulus (GPa) = 17.93366 26.77088 22.35227
#
# Velocity S-wave (km/s) = 3.16689 3.86928 3.53557
# Velocity P-wave (km/s) = 5.13555 7.61356 6.49385
#
# Compressibility (1/GPa) = 0.04301316
#
# Stress axis : x y z
#
# Youngs Moduli (GPa) = 19.82283 47.13579 49.30702
#
# Poissons Ratio (x) = 0.33333 0.06441
# Poissons Ratio (y) = 0.14018 0.79321
# Poissons Ratio (z) = 0.02590 0.75828
#
# Static dielectric constant tensor:
#      x y z
#    x 2.819680 0.000000 0.000000 
#    y 0.000000 3.643080 0.000000 
#    z 0.000000 0.000000 3.616940 
# 
# 
# High freq. dielectric constant tensor:
#      x y z
#    x 1.645370 0.000000 0.000000 
#    y 0.000000 1.699710 0.000000 
#    z 0.000000 0.000000 1.700140 
# 
# From -- ./inp_files/14085.got.cif
#   From: 2010.03.12/outbox.cif.g09.slc.cpg/sg36_8_cif.got.tgz:14085.got - 2010.04.14 02:13:53.
