data_PCOD8174621
_publ_section_title
;
Structure prediction by ZEFSAII (Michael W. Deem and Ramdas Pophale) SiO2 
 PCOD8174621
Probable space group: C M C 21
;
_chemical_formula_sum "Si O2"
_cell_formula_units_Z 64
_cell_length_a 9.056008
_cell_length_b 18.543538
_cell_length_c 20.437645
_cell_angle_alpha 90.000000
_cell_angle_beta 90.000000
_cell_angle_gamma 90.000000
_cell_volume 3432.102482
_symmetry_space_group_name_H-M "C M C 21"
_symmetry_group_IT_number 36
_symmetry_cell_setting 'orthorhombic'
loop_
_space_group_symop_operation_xyz
x,y,z
-x,-y,1/2+z
x,-y,1/2+z
-x,y,z
1/2+x,1/2+y,z
1/2-x,1/2-y,1/2+z
1/2+x,1/2-y,1/2+z
1/2-x,1/2+y,z
loop_
_atom_site_type_symbol
_atom_site_label
_atom_site_fract_x
_atom_site_fract_y
_atom_site_fract_z
Si Si1 0.831191 0.539402 0.488760
Si Si2 0.671809 0.794253 0.982571
Si Si3 0.825317 0.200736 0.348713
Si Si4 0.175349 0.293277 0.227368
Si Si5 0.326759 0.956000 0.218865
Si Si6 0.329454 0.053093 0.341034
Si Si7 0.825148 0.040107 0.102112
Si Si8 0.824428 0.203927 0.105142
O O1 0.800349 0.623300 0.503404
O O2 0.795044 0.521651 0.413065
O O3 0.723643 0.491863 0.532696
O O4 0.000000 0.519973 0.505956
O O5 0.500000 0.781209 0.968212
O O6 0.760182 0.773985 0.917581
O O7 0.733296 0.743138 0.039762
O O8 0.771534 0.258670 0.295329
O O9 0.768634 0.122698 0.326215
O O10 0.000000 0.197046 0.354047
O O11 0.234627 0.374721 0.222379
O O12 0.240735 0.246180 0.167679
O O13 0.000000 0.293366 0.223969
O O14 0.500000 0.957999 0.203193
O O15 0.243740 0.996156 0.161253
O O16 0.290605 0.992398 0.288311
O O17 0.500000 0.077305 0.337802
O O18 0.000000 0.036152 0.107411
O O19 0.767272 0.122091 0.106576
O O20 0.000000 0.206765 0.106423
#
# Coordination Sequence:
#
# PCOD8174621 Si02
#       8
#     8   8   8   8   8   8   8   8
#     4   9  18  34  55  76 101 137 175 210 251 304
#     4   9  18  35  57  76  99 136 176 210 249 303
#     4  10  19  32  54  81 107 134 165 209 260 305
#     4   9  18  33  53  75  99 132 173 210 248 299
#     4  10  20  36  57  77 100 136 179 217 254 303
#     4   9  19  35  55  78 104 136 173 210 252 307
#     4  11  22  34  51  78 108 136 170 215 266 314
#     4   9  18  33  52  73 100 135 171 207 252 305
#
# _framework density 18.647462000000001
#
# number of rings (size 3 to 8) (size 9 to 14) (size 15 to 20)
#    0.000    2.500    0.000    3.000    0.000    6.500 
#    0.000    3.750    0.000    4.500    0.000    0.000 
#    0.000    0.000    0.000    0.000    0.000    0.000 
#
# Total GULP energy -396853.266187 kJ/mol
# GULP energy per Si atom -12401.664568 kJ/mol
# Density = 1.860502 g / cm^3
# Si number density = 18.647462 Si / 1000 Ang^3
#
#
#
# Elastic Constant Matrix: (Units=GPa)
#
#
# Indices 1 2 3 4 5 6 
#
# 1 45.1677 37.9788 43.3041 0.0000 0.0000 0.0000
# 2 37.9788 146.6800 97.9605 0.0000 0.0000 0.0000
# 3 43.3041 97.9605 150.7201 0.0000 0.0000 0.0000
# 4 0.0000 0.0000 0.0000 41.1280 0.0000 0.0000
# 5 0.0000 0.0000 0.0000 0.0000 30.7077 0.0000
# 6 0.0000 0.0000 0.0000 0.0000 0.0000 20.0606
#
#
#
# Elastic Compliance Matrix: (Units=1/GPa)
#
#
# Indices 1 2 3 4 5 6 
#
# 1 0.031685 -0.003753 -0.006664 0.000000 0.000000 0.000000
# 2 -0.003753 0.012491 -0.007040 0.000000 0.000000 0.000000
# 3 -0.006664 -0.007040 0.013125 0.000000 0.000000 0.000000
# 4 0.000000 0.000000 0.000000 0.024314 0.000000 0.000000
# 5 0.000000 0.000000 0.000000 0.000000 0.032565 0.000000
# 6 0.000000 0.000000 0.000000 0.000000 0.000000 0.049849
#
#
# Mechanical properties :
#
#
# Convention : Reuss Voigt Hill
#
# Bulk Modulus (GPa) = 44.67073 77.89495 61.28284
# Shear Modulus (GPa) = 24.22399 29.26757 26.74578
#
# Velocity S-wave (km/s) = 3.60814 3.96602 3.79130
# Velocity P-wave (km/s) = 6.43162 7.92688 7.21807
#
# Compressibility (1/GPa) = 0.02238602
#
# Stress axis : x y z
#
# Youngs Moduli (GPa) = 31.56098 80.05594 76.18855
#
# Poissons Ratio (x) = 0.30047 0.50772
# Poissons Ratio (y) = 0.11846 0.53639
# Poissons Ratio (z) = 0.21032 0.56362
#
# Static dielectric constant tensor:
#      x y z
#    x 3.144690 0.000000 0.000000 
#    y 0.000000 3.545880 0.000000 
#    z 0.000000 0.000000 3.705690 
# 
# 
# High freq. dielectric constant tensor:
#      x y z
#    x 1.695590 0.000000 0.000000 
#    y 0.000000 1.726290 0.000000 
#    z 0.000000 0.000000 1.740420 
# 
# From -- ./inp_files/15664.got.cif
#   From: 2010.03.12/outbox.cif.g09.slc.cpg/sg36_8_cif.got.tgz:15664.got - 2010.04.14 02:13:53.
