data_PCOD8174736
_publ_section_title
;
Structure prediction by ZEFSAII (Michael W. Deem and Ramdas Pophale) SiO2 
 PCOD8174736
Probable space group: C M C 21
;
_chemical_formula_sum "Si O2"
_cell_formula_units_Z 56
_cell_length_a 21.930733
_cell_length_b 7.916937
_cell_length_c 16.563120
_cell_angle_alpha 90.000000
_cell_angle_beta 90.000000
_cell_angle_gamma 90.000000
_cell_volume 2875.758982
_symmetry_space_group_name_H-M "C M C 21"
_symmetry_group_IT_number 36
_symmetry_cell_setting 'orthorhombic'
loop_
_space_group_symop_operation_xyz
x,y,z
-x,-y,1/2+z
x,-y,1/2+z
-x,y,z
1/2+x,1/2+y,z
1/2-x,1/2-y,1/2+z
1/2+x,1/2-y,1/2+z
1/2-x,1/2+y,z
loop_
_atom_site_type_symbol
_atom_site_label
_atom_site_fract_x
_atom_site_fract_y
_atom_site_fract_z
Si Si1 0.245096 0.346618 0.538880
Si Si2 0.192396 0.559397 0.264231
Si Si3 0.931899 0.938109 0.660208
Si Si4 0.627210 0.221889 0.123626
Si Si5 0.178952 0.375119 0.946162
Si Si6 0.068321 0.608601 0.550134
Si Si7 0.812212 0.186741 0.205018
O O1 0.185274 0.237638 0.565573
O O2 0.216141 0.525189 0.515926
O O3 0.281841 0.296317 0.456396
O O4 0.292551 0.356486 0.613077
O O5 0.153085 0.698331 0.215303
O O6 0.174724 0.547993 0.357504
O O7 0.181677 0.385358 0.217965
O O8 0.263586 0.607454 0.265809
O O9 0.928253 0.781660 0.599466
O O10 0.877707 0.901032 0.724420
O O11 0.000000 0.945248 0.699188
O O12 0.918285 0.118679 0.618340
O O13 0.590536 0.053309 0.100560
O O14 0.108663 0.362203 0.970780
O O15 0.000000 0.573437 0.520547
#
# Coordination Sequence:
#
# PCOD8174736 Si02
#       7
#     8   8   8   8   8   8   8
#     4  10  19  33  58  82 114 153 199 250 292 360
#     4  11  22  35  60  87 125 156 190 261 318 355
#     4  11  21  35  62  87 112 153 203 249 288 348
#     4  10  20  38  60  89 113 154 205 253 298 346
#     4  11  21  36  56  90 117 157 195 245 321 354
#     4  10  21  39  60  84 118 156 206 250 286 360
#     4  11  19  38  56  89 118 155 202 246 301 359
#
# _framework density 19.473117999999999
#
# number of rings (size 3 to 8) (size 9 to 14) (size 15 to 20)
#    0.000    1.429    2.857    5.571    0.000    0.000 
#    0.000    2.143    0.000    0.000    0.000    0.000 
#    0.000    0.000    0.000    0.000    0.000    0.000 
#
# Total GULP energy -346923.599575 kJ/mol
# GULP energy per Si atom -12390.128556 kJ/mol
# Density = 1.942880 g / cm^3
# Si number density = 19.473118 Si / 1000 Ang^3
#
#
#
# Elastic Constant Matrix: (Units=GPa)
#
#
# Indices 1 2 3 4 5 6 
#
# 1 168.5672 46.4720 33.4751 0.0000 0.0000 0.0000
# 2 46.4720 91.2504 15.5291 0.0000 0.0000 0.0000
# 3 33.4751 15.5291 73.8561 0.0000 0.0000 0.0000
# 4 0.0000 0.0000 0.0000 16.4629 0.0000 0.0000
# 5 0.0000 0.0000 0.0000 0.0000 21.8622 0.0000
# 6 0.0000 0.0000 0.0000 0.0000 0.0000 23.8312
#
#
#
# Elastic Compliance Matrix: (Units=1/GPa)
#
#
# Indices 1 2 3 4 5 6 
#
# 1 0.007368 -0.003302 -0.002645 0.000000 0.000000 0.000000
# 2 -0.003302 0.012846 -0.001204 0.000000 0.000000 0.000000
# 3 -0.002645 -0.001204 0.014992 0.000000 0.000000 0.000000
# 4 0.000000 0.000000 0.000000 0.060743 0.000000 0.000000
# 5 0.000000 0.000000 0.000000 0.000000 0.045741 0.000000
# 6 0.000000 0.000000 0.000000 0.000000 0.000000 0.041962
#
#
# Mechanical properties :
#
#
# Convention : Reuss Voigt Hill
#
# Bulk Modulus (GPa) = 47.84168 58.29180 53.06674
# Shear Modulus (GPa) = 24.39956 28.31110 26.35533
#
# Velocity S-wave (km/s) = 3.54360 3.81708 3.68288
# Velocity P-wave (km/s) = 6.43150 7.03038 6.73760
#
# Compressibility (1/GPa) = 0.02090228
#
# Stress axis : x y z
#
# Youngs Moduli (GPa) = 135.72130 77.84801 66.70230
#
# Poissons Ratio (x) = 0.25707 0.17644
# Poissons Ratio (y) = 0.44818 0.08032
# Poissons Ratio (z) = 0.35901 0.09374
#
# Static dielectric constant tensor:
#      x y z
#    x 4.060920 0.000000 0.000000 
#    y 0.000000 3.651740 0.000000 
#    z 0.000000 0.000000 3.096730 
# 
# 
# High freq. dielectric constant tensor:
#      x y z
#    x 1.769530 0.000000 0.000000 
#    y 0.000000 1.772380 0.000000 
#    z 0.000000 0.000000 1.713720 
# 
# From -- ./inp_files/14987.got.cif
#   From: 2010.03.12/outbox.cif.g09.slc.cpg/sg36_8_cif.got.tgz:14987.got - 2010.04.14 02:13:53.
