data_PCOD8174180
_publ_section_title
;
Structure prediction by ZEFSAII (Michael W. Deem and Ramdas Pophale) SiO2 
 PCOD8174180
Probable space group: C M C 21
;
_chemical_formula_sum "Si O2"
_cell_formula_units_Z 40
_cell_length_a 9.645444
_cell_length_b 27.052383
_cell_length_c 8.886559
_cell_angle_alpha 90.000000
_cell_angle_beta 90.000000
_cell_angle_gamma 90.000000
_cell_volume 2318.789793
_symmetry_space_group_name_H-M "C M C 21"
_symmetry_group_IT_number 36
_symmetry_cell_setting 'orthorhombic'
loop_
_space_group_symop_operation_xyz
x,y,z
-x,-y,1/2+z
x,-y,1/2+z
-x,y,z
1/2+x,1/2+y,z
1/2-x,1/2-y,1/2+z
1/2+x,1/2-y,1/2+z
1/2-x,1/2+y,z
loop_
_atom_site_type_symbol
_atom_site_label
_atom_site_fract_x
_atom_site_fract_y
_atom_site_fract_z
Si Si1 0.346521 0.470387 0.604960
Si Si2 0.500000 0.311298 0.992344
Si Si3 0.500000 0.390339 0.745801
Si Si4 0.000000 0.728889 0.737899
Si Si5 0.832988 0.938393 0.288455
Si Si6 0.283388 0.671866 0.740798
Si Si7 0.000000 0.191724 0.991589
O O1 0.500000 0.487911 0.552889
O O2 0.363178 0.425434 0.727023
O O3 0.271274 0.451071 0.454329
O O4 0.275115 0.518125 0.679987
O O5 0.500000 0.363923 0.906062
O O6 0.500000 0.266627 0.876246
O O7 0.636991 0.308028 0.093937
O O8 0.500000 0.352803 0.607819
O O9 0.132298 0.694320 0.747080
O O10 0.000000 0.756559 0.578495
O O11 0.769139 0.887228 0.231756
O O12 0.000000 0.933186 0.290484
O O13 0.363075 0.688316 0.890828
#
# Coordination Sequence:
#
# PCOD8174180 Si02
#       7
#     8   4   4   4   8   8   4
#     4   8  16  24  44  79 106 129 160 215 260 292
#     4  10  22  33  56  81  95 140 175 220 259 314
#     4   9  16  28  50  83 106 123 172 221 264 294
#     4  11  24  36  52  78 103 142 175 219 260 308
#     4  10  16  28  49  76 106 138 162 214 259 299
#     4  11  20  36  55  75 108 135 177 214 263 307
#     4  10  18  37  56  72 106 133 172 218 263 302
#
# _framework density 17.250377
#
# number of rings (size 3 to 8) (size 9 to 14) (size 15 to 20)
#    0.600    1.600    4.000    1.200    2.800    0.000 
#    0.000    0.000    0.000    1.200    0.000    0.000 
#    0.000    0.000    0.000    0.000    0.000    0.000 
#
# Total GULP energy -247850.588970 kJ/mol
# GULP energy per Si atom -12392.529449 kJ/mol
# Density = 1.721111 g / cm^3
# Si number density = 17.250377 Si / 1000 Ang^3
#
#
#
# Elastic Constant Matrix: (Units=GPa)
#
#
# Indices 1 2 3 4 5 6 
#
# 1 77.7386 48.3545 32.6679 0.0000 0.0000 0.0000
# 2 48.3545 126.5265 44.2397 0.0000 0.0000 0.0000
# 3 32.6679 44.2397 84.3451 0.0000 0.0000 0.0000
# 4 0.0000 0.0000 0.0000 31.4961 0.0000 0.0000
# 5 0.0000 0.0000 0.0000 0.0000 7.5155 0.0000
# 6 0.0000 0.0000 0.0000 0.0000 0.0000 -13.6862
#
#
#
# Elastic Compliance Matrix: (Units=1/GPa)
#
#
# Indices 1 2 3 4 5 6 
#
# 1 0.017969 -0.005429 -0.004112 0.000000 0.000000 0.000000
# 2 -0.005429 0.011319 -0.003834 0.000000 0.000000 0.000000
# 3 -0.004112 -0.003834 0.015460 0.000000 0.000000 0.000000
# 4 0.000000 0.000000 0.000000 0.031750 0.000000 0.000000
# 5 0.000000 0.000000 0.000000 0.000000 0.133059 0.000000
# 6 0.000000 0.000000 0.000000 0.000000 0.000000 -0.073066
#
#
# Mechanical properties :
#
#
# Convention : Reuss Voigt Hill
#
# Bulk Modulus (GPa) = 55.56511 59.90380 57.73446
# Shear Modulus (GPa) = 29.54408 15.95496 22.74952
#
# Velocity S-wave (km/s) = 4.14292 3.04452 3.63545
# Velocity P-wave (km/s) = 7.42738 6.86734 7.15284
#
# Compressibility (1/GPa) = 0.01799690
#
# Stress axis : x y z
#
# Youngs Moduli (GPa) = 55.65248 88.34704 64.68492
#
# Poissons Ratio (x) = 0.47967 0.26597
# Poissons Ratio (y) = 0.30216 0.24800
# Poissons Ratio (z) = 0.22883 0.33873
#
# Static dielectric constant tensor:
#      x y z
#    x 2.629410 0.000000 0.000000 
#    y 0.000000 3.365420 0.000000 
#    z 0.000000 0.000000 3.417760 
# 
# 
# High freq. dielectric constant tensor:
#      x y z
#    x 1.594340 0.000000 0.000000 
#    y 0.000000 1.681870 0.000000 
#    z 0.000000 0.000000 1.679880 
# 
# From -- ./inp_files/2575.got.cif
#   From: 2010.03.12/outbox.cif.g09.slc.cpg/sg36_2_cif.got.tgz:2575.got - 2010.04.14 02:13:53.
