data_PCOD8174939
_publ_section_title
;
Structure prediction by ZEFSAII (Michael W. Deem and Ramdas Pophale) SiO2 
 PCOD8174939
Probable space group: C M C 21
;
_chemical_formula_sum "Si O2"
_cell_formula_units_Z 64
_cell_length_a 9.313257
_cell_length_b 19.541089
_cell_length_c 18.451972
_cell_angle_alpha 90.000000
_cell_angle_beta 90.000000
_cell_angle_gamma 90.000000
_cell_volume 3358.096230
_symmetry_space_group_name_H-M "C M C 21"
_symmetry_group_IT_number 36
_symmetry_cell_setting 'orthorhombic'
loop_
_space_group_symop_operation_xyz
x,y,z
-x,-y,1/2+z
x,-y,1/2+z
-x,y,z
1/2+x,1/2+y,z
1/2-x,1/2-y,1/2+z
1/2+x,1/2-y,1/2+z
1/2-x,1/2+y,z
loop_
_atom_site_type_symbol
_atom_site_label
_atom_site_fract_x
_atom_site_fract_y
_atom_site_fract_z
Si Si1 0.334929 0.668088 0.756920
Si Si2 0.831473 0.877753 0.103148
Si Si3 0.830797 0.969702 0.632884
Si Si4 0.336501 0.922405 0.367543
Si Si5 0.832210 0.775867 0.982661
Si Si6 0.664763 0.197116 0.337589
Si Si7 0.833775 0.622338 0.024388
Si Si8 0.165224 0.446797 0.777551
O O1 0.500000 0.644803 0.758420
O O2 0.265883 0.650955 0.678627
O O3 0.257832 0.626508 0.819123
O O4 0.317713 0.748484 0.772723
O O5 0.000000 0.863927 0.105287
O O6 0.795443 0.957943 0.093945
O O7 0.768454 0.834847 0.035557
O O8 0.762163 0.907811 0.588487
O O9 0.764382 0.972506 0.712672
O O10 0.000000 0.957923 0.639566
O O11 0.500000 0.896854 0.360110
O O12 0.286997 0.915512 0.450542
O O13 0.318724 0.000819 0.344061
O O14 0.754738 0.779299 0.906207
O O15 0.801959 0.702884 0.019572
O O16 0.000000 0.786100 0.967704
O O17 0.500000 0.190341 0.362326
O O18 0.722450 0.125654 0.306381
O O19 0.000000 0.608452 0.042664
O O20 0.000000 0.441942 0.750978
#
# Coordination Sequence:
#
# PCOD8174939 Si02
#       8
#     8   8   8   8   8   8   8   8
#     4  10  19  36  60  81 109 146 188 235 281 332
#     4   9  20  37  57  82 110 147 190 231 283 338
#     4  11  23  39  58  84 115 147 191 238 281 337
#     4  10  20  37  59  84 112 147 190 232 279 340
#     4  10  21  39  61  82 112 152 192 233 278 339
#     4  10  22  37  59  87 115 149 189 236 284 335
#     4  10  22  38  59  84 115 153 189 229 285 344
#     4  10  22  39  59  84 116 151 189 234 287 341
#
# _framework density 19.058419000000001
#
# number of rings (size 3 to 8) (size 9 to 14) (size 15 to 20)
#    0.000    2.000    2.500    0.375    3.500    1.500 
#    0.000    1.250    0.000    0.000    0.000    0.000 
#    0.000    0.000    0.000    0.000    0.000    0.000 
#
# Total GULP energy -396883.955624 kJ/mol
# GULP energy per Si atom -12402.623613 kJ/mol
# Density = 1.901504 g / cm^3
# Si number density = 19.058419 Si / 1000 Ang^3
#
#
#
# Elastic Constant Matrix: (Units=GPa)
#
#
# Indices 1 2 3 4 5 6 
#
# 1 48.9896 24.6770 23.3366 0.0000 0.0000 0.0000
# 2 24.6770 90.6521 13.2000 0.0000 0.0000 0.0000
# 3 23.3366 13.2000 61.6696 0.0000 0.0000 0.0000
# 4 0.0000 0.0000 0.0000 39.4319 0.0000 0.0000
# 5 0.0000 0.0000 0.0000 0.0000 30.3680 0.0000
# 6 0.0000 0.0000 0.0000 0.0000 0.0000 24.9842
#
#
#
# Elastic Compliance Matrix: (Units=1/GPa)
#
#
# Indices 1 2 3 4 5 6 
#
# 1 0.027974 -0.006269 -0.009244 0.000000 0.000000 0.000000
# 2 -0.006269 0.012791 -0.000366 0.000000 0.000000 0.000000
# 3 -0.009244 -0.000366 0.019792 0.000000 0.000000 0.000000
# 4 0.000000 0.000000 0.000000 0.025360 0.000000 0.000000
# 5 0.000000 0.000000 0.000000 0.000000 0.032929 0.000000
# 6 0.000000 0.000000 0.000000 0.000000 0.000000 0.040025
#
#
# Mechanical properties :
#
#
# Convention : Reuss Voigt Hill
#
# Bulk Modulus (GPa) = 34.72257 35.97093 35.34675
# Shear Modulus (GPa) = 24.97161 28.29666 26.63413
#
# Velocity S-wave (km/s) = 3.62369 3.85740 3.74237
# Velocity P-wave (km/s) = 5.98053 6.22531 6.10414
#
# Compressibility (1/GPa) = 0.02879971
#
# Stress axis : x y z
#
# Youngs Moduli (GPa) = 35.74804 78.18053 50.52631
#
# Poissons Ratio (x) = 0.49010 0.46705
# Poissons Ratio (y) = 0.22410 0.01847
# Poissons Ratio (z) = 0.33045 0.02858
#
# Static dielectric constant tensor:
#      x y z
#    x 3.325010 0.000000 0.000000 
#    y 0.000000 3.690260 0.000000 
#    z 0.000000 0.000000 3.555720 
# 
# 
# High freq. dielectric constant tensor:
#      x y z
#    x 1.721180 0.000000 0.000000 
#    y 0.000000 1.754940 0.000000 
#    z 0.000000 0.000000 1.743610 
# 
# From -- ./inp_files/15658.got.cif
#   From: 2010.03.12/outbox.cif.g09.slc.cpg/sg36_8_cif.got.tgz:15658.got - 2010.04.14 02:13:53.
