data_PCOD8174716
_publ_section_title
;
Structure prediction by ZEFSAII (Michael W. Deem and Ramdas Pophale) SiO2 
 PCOD8174716
Probable space group: C M C 21
;
_chemical_formula_sum "Si O2"
_cell_formula_units_Z 64
_cell_length_a 8.664609
_cell_length_b 24.752584
_cell_length_c 14.556137
_cell_angle_alpha 90.000000
_cell_angle_beta 90.000000
_cell_angle_gamma 90.000000
_cell_volume 3121.875985
_symmetry_space_group_name_H-M "C M C 21"
_symmetry_group_IT_number 36
_symmetry_cell_setting 'orthorhombic'
loop_
_space_group_symop_operation_xyz
x,y,z
-x,-y,1/2+z
x,-y,1/2+z
-x,y,z
1/2+x,1/2+y,z
1/2-x,1/2-y,1/2+z
1/2+x,1/2-y,1/2+z
1/2-x,1/2+y,z
loop_
_atom_site_type_symbol
_atom_site_label
_atom_site_fract_x
_atom_site_fract_y
_atom_site_fract_z
Si Si1 0.825876 0.885130 0.974050
Si Si2 0.319234 0.989721 0.886654
Si Si3 0.328759 0.332274 0.782881
Si Si4 0.178267 0.224924 0.786008
Si Si5 0.823442 0.565677 0.206478
Si Si6 0.819105 0.302336 0.101390
Si Si7 0.317688 0.794722 0.481934
Si Si8 0.821428 0.585037 0.005206
O O1 0.761861 0.942712 0.943722
O O2 0.823294 0.842986 0.890873
O O3 0.000000 0.892449 0.010845
O O4 0.718600 0.858505 0.050983
O O5 0.500000 0.985649 0.908198
O O6 0.285919 0.983701 0.776882
O O7 0.253484 0.047429 0.922983
O O8 0.500000 0.312879 0.753842
O O9 0.203399 0.287281 0.757443
O O10 0.290180 0.385705 0.727383
O O11 0.235800 0.190513 0.699486
O O12 0.280578 0.212919 0.874985
O O13 0.000000 0.213273 0.806989
O O14 0.794698 0.551260 0.099942
O O15 0.000000 0.584419 0.222331
O O16 0.000000 0.297119 0.116250
O O17 0.763174 0.249803 0.045317
O O18 0.500000 0.789105 0.497838
O O19 0.251052 0.854483 0.508844
O O20 0.000000 0.594185 0.985248
#
# Coordination Sequence:
#
# PCOD8174716 Si02
#       8
#     8   8   8   8   8   8   8   8
#     4  10  20  36  58  83 115 149 188 242 298 347
#     4   9  18  35  58  84 113 149 200 249 291 349
#     4  10  19  33  56  83 114 148 192 243 293 348
#     4  12  24  38  57  84 121 160 199 242 300 363
#     4   9  17  32  57  84 112 151 200 246 298 349
#     4  12  24  39  61  89 119 157 202 245 301 364
#     4  11  22  39  60  87 125 162 202 250 302 361
#     4   9  19  36  57  84 117 156 199 247 297 351
#
# _framework density 20.500495999999998
#
# number of rings (size 3 to 8) (size 9 to 14) (size 15 to 20)
#    0.000    1.750    1.250    4.125    0.000    2.000 
#    2.250    2.500    0.000    0.000    0.000    0.000 
#    0.000    0.000    0.000    0.000    0.000    0.000 
#
# Total GULP energy -396688.241181 kJ/mol
# GULP energy per Si atom -12396.507537 kJ/mol
# Density = 2.045384 g / cm^3
# Si number density = 20.500496 Si / 1000 Ang^3
#
#
#
# Elastic Constant Matrix: (Units=GPa)
#
#
# Indices 1 2 3 4 5 6 
#
# 1 70.7003 8.9985 4.8140 0.0000 0.0000 0.0000
# 2 8.9985 56.3286 11.5340 0.0000 0.0000 0.0000
# 3 4.8140 11.5340 81.3344 0.0000 0.0000 0.0000
# 4 0.0000 0.0000 0.0000 25.5682 0.0000 0.0000
# 5 0.0000 0.0000 0.0000 0.0000 22.9996 0.0000
# 6 0.0000 0.0000 0.0000 0.0000 0.0000 20.5439
#
#
#
# Elastic Compliance Matrix: (Units=1/GPa)
#
#
# Indices 1 2 3 4 5 6 
#
# 1 0.014461 -0.002199 -0.000544 0.000000 0.000000 0.000000
# 2 -0.002199 0.018618 -0.002510 0.000000 0.000000 0.000000
# 3 -0.000544 -0.002510 0.012683 0.000000 0.000000 0.000000
# 4 0.000000 0.000000 0.000000 0.039111 0.000000 0.000000
# 5 0.000000 0.000000 0.000000 0.000000 0.043479 0.000000
# 6 0.000000 0.000000 0.000000 0.000000 0.000000 0.048676
#
#
# Mechanical properties :
#
#
# Convention : Reuss Voigt Hill
#
# Bulk Modulus (GPa) = 28.36362 28.78405 28.57384
# Shear Modulus (GPa) = 25.08946 26.02345 25.55646
#
# Velocity S-wave (km/s) = 3.50215 3.56674 3.53459
# Velocity P-wave (km/s) = 5.49718 5.57075 5.53409
#
# Compressibility (1/GPa) = 0.03525643
#
# Stress axis : x y z
#
# Youngs Moduli (GPa) = 69.15102 53.71087 78.84513
#
# Poissons Ratio (x) = 0.11810 0.04290
# Poissons Ratio (y) = 0.15205 0.19791
# Poissons Ratio (z) = 0.03763 0.13482
#
# Static dielectric constant tensor:
#      x y z
#    x 3.599460 0.000000 0.000000 
#    y 0.000000 3.718870 0.000000 
#    z 0.000000 0.000000 3.900130 
# 
# 
# High freq. dielectric constant tensor:
#      x y z
#    x 1.790670 0.000000 0.000000 
#    y 0.000000 1.786300 0.000000 
#    z 0.000000 0.000000 1.806690 
# 
# From -- ./inp_files/11008.got.cif
#   From: 2010.03.12/outbox.cif.g09.slc.cpg/sg36_6_cif.got.tgz:11008.got - 2010.04.14 02:13:53.
