data_PCOD8174158
_publ_section_title
;
Structure prediction by ZEFSAII (Michael W. Deem and Ramdas Pophale) SiO2 
 PCOD8174158
Probable space group: C M M 2
;
_chemical_formula_sum "Si O2"
_cell_formula_units_Z 48
_cell_length_a 9.427214
_cell_length_b 20.000036
_cell_length_c 15.205787
_cell_angle_alpha 90.000000
_cell_angle_beta 90.000000
_cell_angle_gamma 90.000000
_cell_volume 2866.969322
_symmetry_space_group_name_H-M "C M M 2"
_symmetry_group_IT_number 35
_symmetry_cell_setting 'orthorhombic'
loop_
_space_group_symop_operation_xyz
x,y,z
-x,-y,z
-x,y,z
x,-y,z
1/2+x,1/2+y,z
1/2-x,1/2-y,z
1/2-x,1/2+y,z
1/2+x,1/2-y,z
loop_
_atom_site_type_symbol
_atom_site_label
_atom_site_fract_x
_atom_site_fract_y
_atom_site_fract_z
Si Si1 0.340469 0.420453 0.831270
Si Si2 0.835872 0.685219 0.521320
Si Si3 0.168642 0.574010 0.185832
Si Si4 0.158123 0.420448 0.991925
Si Si5 0.666354 0.815505 0.320162
Si Si6 0.164769 0.576719 0.663125
O O1 0.500000 0.391786 0.827332
O O2 0.341758 0.500000 0.835553
O O3 0.263522 0.391071 0.918022
O O4 0.255378 0.396787 0.745361
O O5 0.750000 0.750000 0.553227
O O6 0.798859 0.666416 0.420998
O O7 0.793490 0.621259 0.579312
O O8 0.000000 0.703294 0.532047
O O9 0.231612 0.500000 0.204788
O O10 0.224795 0.624025 0.260473
O O11 0.000000 0.569859 0.187676
O O12 0.215543 0.599805 0.088871
O O13 0.151297 0.500000 0.986019
O O14 0.000000 0.391394 0.975563
O O15 0.500000 0.803011 0.305506
O O16 0.750000 0.750000 0.290164
O O17 0.201634 0.500000 0.639637
O O18 0.000000 0.584071 0.688152
#
# Coordination Sequence:
#
# PCOD8174158 Si02
#       6
#     8   8   8   8   8   8
#     4   9  16  25  39  62  90 117 144 176 217 262
#     4   9  18  31  47  66  88 117 149 180 217 261
#     4   8  14  25  44  69  91 113 146 185 219 251
#     4   8  13  23  40  61  85 113 144 178 216 257
#     4   9  17  30  47  66  89 117 148 180 216 261
#     4   9  17  29  45  66  90 115 146 183 220 257
#
# _framework density 16.742419000000002
#
# number of rings (size 3 to 8) (size 9 to 14) (size 15 to 20)
#    0.000    3.333    0.000    1.500    0.000    3.333 
#    0.000    4.167    0.000    2.500    0.000    7.000 
#    0.000    0.000    0.000    0.000    0.000    0.000 
#
# Total GULP energy -297509.059427 kJ/mol
# GULP energy per Si atom -12396.210809 kJ/mol
# Density = 1.670431 g / cm^3
# Si number density = 16.742419 Si / 1000 Ang^3
#
#
#
# Elastic Constant Matrix: (Units=GPa)
#
#
# Indices 1 2 3 4 5 6 
#
# 1 64.0256 36.8689 55.0730 0.0000 0.0000 0.0000
# 2 36.8689 77.5375 71.4947 0.0000 0.0000 0.0000
# 3 55.0730 71.4947 134.1836 0.0000 0.0000 0.0000
# 4 0.0000 0.0000 0.0000 7.2534 0.0000 0.0000
# 5 0.0000 0.0000 0.0000 0.0000 18.0305 0.0000
# 6 0.0000 0.0000 0.0000 0.0000 0.0000 19.1819
#
#
#
# Elastic Compliance Matrix: (Units=1/GPa)
#
#
# Indices 1 2 3 4 5 6 
#
# 1 0.025009 -0.004771 -0.007722 0.000000 0.000000 0.000000
# 2 -0.004771 0.026263 -0.012035 0.000000 0.000000 0.000000
# 3 -0.007722 -0.012035 0.017034 0.000000 0.000000 0.000000
# 4 0.000000 0.000000 0.000000 0.137867 0.000000 0.000000
# 5 0.000000 0.000000 0.000000 0.000000 0.055462 0.000000
# 6 0.000000 0.000000 0.000000 0.000000 0.000000 0.052133
#
#
# Mechanical properties :
#
#
# Convention : Reuss Voigt Hill
#
# Bulk Modulus (GPa) = 51.95058 66.95776 59.45417
# Shear Modulus (GPa) = 13.54138 16.38049 14.96094
#
# Velocity S-wave (km/s) = 2.84704 3.13130 2.99255
# Velocity P-wave (km/s) = 6.47334 7.29062 6.89410
#
# Compressibility (1/GPa) = 0.01924906
#
# Stress axis : x y z
#
# Youngs Moduli (GPa) = 39.98629 38.07701 58.70570
#
# Poissons Ratio (x) = 0.18168 0.45333
# Poissons Ratio (y) = 0.19078 0.70651
# Poissons Ratio (z) = 0.30878 0.45825
#
# Static dielectric constant tensor:
#      x y z
#    x 3.099110 0.000000 0.000000 
#    y 0.000000 2.934970 0.000000 
#    z 0.000000 0.000000 3.376900 
# 
# 
# High freq. dielectric constant tensor:
#      x y z
#    x 1.628190 0.000000 0.000000 
#    y 0.000000 1.604740 0.000000 
#    z 0.000000 0.000000 1.655180 
# 
# From -- ./inp_files/11359.got.cif
#   From: 2010.03.12/outbox.cif.g09.slc.cpg/sg35_6_cif.got.tgz:11359.got - 2010.04.14 02:02:04.
