data_PCOD8174877
_publ_section_title
;
Structure prediction by ZEFSAII (Michael W. Deem and Ramdas Pophale) SiO2 
 PCOD8174877
Probable space group: C M C 21
;
_chemical_formula_sum "Si O2"
_cell_formula_units_Z 48
_cell_length_a 12.144810
_cell_length_b 25.653967
_cell_length_c 7.764530
_cell_angle_alpha 90.000000
_cell_angle_beta 90.000000
_cell_angle_gamma 90.000000
_cell_volume 2419.136805
_symmetry_space_group_name_H-M "C M C 21"
_symmetry_group_IT_number 36
_symmetry_cell_setting 'orthorhombic'
loop_
_space_group_symop_operation_xyz
x,y,z
-x,-y,1/2+z
x,-y,1/2+z
-x,y,z
1/2+x,1/2+y,z
1/2-x,1/2-y,1/2+z
1/2+x,1/2-y,1/2+z
1/2-x,1/2+y,z
loop_
_atom_site_type_symbol
_atom_site_label
_atom_site_fract_x
_atom_site_fract_y
_atom_site_fract_z
Si Si1 0.732125 0.983988 0.047020
Si Si2 0.622828 0.336237 0.681786
Si Si3 0.623369 0.549711 0.261240
Si Si4 0.627847 0.923785 0.340923
Si Si5 0.127904 0.216231 0.521445
Si Si6 0.736633 0.188822 0.865225
O O1 0.645752 0.950724 0.156330
O O2 0.843706 0.000126 0.146615
O O3 0.779476 0.946029 0.901649
O O4 0.671761 0.036650 0.985621
O O5 0.500000 0.314050 0.678448
O O6 0.627520 0.398027 0.648665
O O7 0.668531 0.324833 0.874998
O O8 0.681356 0.307566 0.525994
O O9 0.500000 0.540974 0.335995
O O10 0.500000 0.913190 0.372047
O O11 0.690841 0.869155 0.343836
O O12 0.202887 0.208030 0.691014
O O13 0.140386 0.272164 0.426050
O O14 0.000000 0.208430 0.574530
#
# Coordination Sequence:
#
# PCOD8174877 Si02
#       6
#     8   8   8   8   8   8
#     4  10  21  37  59  86 125 157 200 251 306 360
#     4  10  21  39  61  89 125 163 202 250 309 367
#     4  10  19  35  58  88 119 155 198 244 301 365
#     4  11  23  40  62  87 119 163 208 255 306 363
#     4  11  24  41  65  93 126 164 204 256 312 369
#     4  12  22  42  65  91 126 162 212 254 310 370
#
# _framework density 19.841787
#
# number of rings (size 3 to 8) (size 9 to 14) (size 15 to 20)
#    0.000    1.333    3.333    3.000    0.000    0.000 
#    0.000    1.667    0.000    0.000    0.000    0.000 
#    0.000    0.000    0.000    0.000    0.000    0.000 
#
# Total GULP energy -297432.180811 kJ/mol
# GULP energy per Si atom -12393.007534 kJ/mol
# Density = 1.979663 g / cm^3
# Si number density = 19.841787 Si / 1000 Ang^3
#
#
#
# Elastic Constant Matrix: (Units=GPa)
#
#
# Indices 1 2 3 4 5 6 
#
# 1 85.9133 34.5587 49.0789 0.0000 0.0000 0.0000
# 2 34.5587 93.9014 27.1849 0.0000 0.0000 0.0000
# 3 49.0789 27.1849 108.0486 0.0000 0.0000 0.0000
# 4 0.0000 0.0000 0.0000 31.1526 0.0000 0.0000
# 5 0.0000 0.0000 0.0000 0.0000 27.5367 0.0000
# 6 0.0000 0.0000 0.0000 0.0000 0.0000 28.8545
#
#
#
# Elastic Compliance Matrix: (Units=1/GPa)
#
#
# Indices 1 2 3 4 5 6 
#
# 1 0.017255 -0.004402 -0.006730 0.000000 0.000000 0.000000
# 2 -0.004402 0.012609 -0.001173 0.000000 0.000000 0.000000
# 3 -0.006730 -0.001173 0.012607 0.000000 0.000000 0.000000
# 4 0.000000 0.000000 0.000000 0.032100 0.000000 0.000000
# 5 0.000000 0.000000 0.000000 0.000000 0.036315 0.000000
# 6 0.000000 0.000000 0.000000 0.000000 0.000000 0.034657
#
#
# Mechanical properties :
#
#
# Convention : Reuss Voigt Hill
#
# Bulk Modulus (GPa) = 55.98737 56.61202 56.29970
# Shear Modulus (GPa) = 28.39178 29.31148 28.85163
#
# Velocity S-wave (km/s) = 3.78684 3.84768 3.81738
# Velocity P-wave (km/s) = 6.88465 6.95221 6.91851
#
# Compressibility (1/GPa) = 0.01786117
#
# Stress axis : x y z
#
# Youngs Moduli (GPa) = 57.95400 79.30773 79.31934
#
# Poissons Ratio (x) = 0.34911 0.53384
# Poissons Ratio (y) = 0.25511 0.09303
# Poissons Ratio (z) = 0.39004 0.09302
#
# Static dielectric constant tensor:
#      x y z
#    x 3.500520 0.000000 0.000000 
#    y 0.000000 3.518980 0.000000 
#    z 0.000000 0.000000 3.764160 
# 
# 
# High freq. dielectric constant tensor:
#      x y z
#    x 1.769010 0.000000 0.000000 
#    y 0.000000 1.777870 0.000000 
#    z 0.000000 0.000000 1.778990 
# 
# From -- ./inp_files/3319.got.cif
#   From: 2010.03.12/outbox.cif.g09.slc.cpg/sg36_2_cif.got.tgz:3319.got - 2010.04.14 02:13:53.
