data_PCOD8174514
_publ_section_title
;
Structure prediction by ZEFSAII (Michael W. Deem and Ramdas Pophale) SiO2 
 PCOD8174514
Probable space group: C M C 21
;
_chemical_formula_sum "Si O2"
_cell_formula_units_Z 64
_cell_length_a 9.064211
_cell_length_b 18.632970
_cell_length_c 20.594440
_cell_angle_alpha 90.000000
_cell_angle_beta 90.000000
_cell_angle_gamma 90.000000
_cell_volume 3478.260290
_symmetry_space_group_name_H-M "C M C 21"
_symmetry_group_IT_number 36
_symmetry_cell_setting 'orthorhombic'
loop_
_space_group_symop_operation_xyz
x,y,z
-x,-y,1/2+z
x,-y,1/2+z
-x,y,z
1/2+x,1/2+y,z
1/2-x,1/2-y,1/2+z
1/2+x,1/2-y,1/2+z
1/2-x,1/2+y,z
loop_
_atom_site_type_symbol
_atom_site_label
_atom_site_fract_x
_atom_site_fract_y
_atom_site_fract_z
Si Si1 0.824401 0.457217 0.554390
Si Si2 0.824948 0.550927 0.672403
Si Si3 0.174573 0.704709 0.303636
Si Si4 0.824803 0.543228 0.293295
Si Si5 0.825771 0.702236 0.062088
Si Si6 0.326540 0.787913 0.415641
Si Si7 0.675183 0.296892 0.180064
Si Si8 0.175252 0.450356 0.411080
O O1 0.767671 0.516921 0.604735
O O2 0.762833 0.378225 0.573295
O O3 0.769303 0.477333 0.481835
O O4 0.000000 0.453851 0.556370
O O5 0.772386 0.497174 0.728745
O O6 0.748207 0.626085 0.683649
O O7 0.000000 0.561990 0.673157
O O8 0.234882 0.624330 0.291820
O O9 0.241548 0.732652 0.370517
O O10 0.226043 0.753222 0.243464
O O11 0.000000 0.704941 0.310539
O O12 0.757589 0.501873 0.355866
O O13 0.000000 0.543181 0.297208
O O14 0.783993 0.730160 0.990217
O O15 0.000000 0.698602 0.069845
O O16 0.761902 0.755683 0.116590
O O17 0.500000 0.779443 0.404023
O O18 0.273709 0.868605 0.398627
O O19 0.500000 0.305372 0.177203
O O20 0.000000 0.452307 0.409603
#
# Coordination Sequence:
#
# PCOD8174514 Si02
#       8
#     8   8   8   8   8   8   8   8
#     4   8  14  26  46  70  91 115 152 192 227 267
#     4  10  19  31  50  73  93 117 156 203 239 270
#     4  10  20  32  48  70  97 129 160 194 238 286
#     4   9  17  29  45  66  92 121 153 189 230 274
#     4   8  15  30  51  71  94 128 163 190 226 286
#     4   9  17  31  52  74  95 123 159 197 236 279
#     4  10  20  33  48  68  97 130 159 188 232 291
#     4   8  14  26  46  70  93 117 148 189 232 271
#
# _framework density 18.400003999999999
#
# number of rings (size 3 to 8) (size 9 to 14) (size 15 to 20)
#    0.000    3.000    0.000    3.000    0.000    5.500 
#    0.000    2.500    0.000    6.000    0.000    0.000 
#    0.000    0.000    0.000    0.000    0.000    0.000 
#
# Total GULP energy -396677.913924 kJ/mol
# GULP energy per Si atom -12396.184810 kJ/mol
# Density = 1.835812 g / cm^3
# Si number density = 18.400004 Si / 1000 Ang^3
#
#
#
# Elastic Constant Matrix: (Units=GPa)
#
#
# Indices 1 2 3 4 5 6 
#
# 1 11.6701 18.8227 18.0641 0.0000 0.0000 0.0000
# 2 18.8227 127.8343 68.0016 0.0000 0.0000 0.0000
# 3 18.0641 68.0016 127.9878 0.0000 0.0000 0.0000
# 4 0.0000 0.0000 0.0000 41.6118 0.0000 0.0000
# 5 0.0000 0.0000 0.0000 0.0000 16.3698 0.0000
# 6 0.0000 0.0000 0.0000 0.0000 0.0000 22.5700
#
#
#
# Elastic Compliance Matrix: (Units=1/GPa)
#
#
# Indices 1 2 3 4 5 6 
#
# 1 0.122062 -0.012279 -0.010704 0.000000 0.000000 0.000000
# 2 -0.012279 0.012140 -0.004717 0.000000 0.000000 0.000000
# 3 -0.010704 -0.004717 0.011830 0.000000 0.000000 0.000000
# 4 0.000000 0.000000 0.000000 0.024032 0.000000 0.000000
# 5 0.000000 0.000000 0.000000 0.000000 0.061088 0.000000
# 6 0.000000 0.000000 0.000000 0.000000 0.000000 0.044307
#
#
# Mechanical properties :
#
#
# Convention : Reuss Voigt Hill
#
# Bulk Modulus (GPa) = 11.03360 53.02992 32.03176
# Shear Modulus (GPa) = 13.84782 26.95059 20.39920
#
# Velocity S-wave (km/s) = 2.74633 3.83130 3.33325
# Velocity P-wave (km/s) = 4.00824 6.96096 5.67983
#
# Compressibility (1/GPa) = 0.09063224
#
# Stress axis : x y z
#
# Youngs Moduli (GPa) = 8.19259 82.37350 84.52953
#
# Poissons Ratio (x) = 1.01145 0.90479
# Poissons Ratio (y) = 0.10060 0.39873
# Poissons Ratio (z) = 0.08769 0.38856
#
# Static dielectric constant tensor:
#      x y z
#    x 2.773970 0.000000 0.000000 
#    y 0.000000 3.532930 0.000000 
#    z 0.000000 0.000000 3.790570 
# 
# 
# High freq. dielectric constant tensor:
#      x y z
#    x 1.649420 0.000000 0.000000 
#    y 0.000000 1.718780 0.000000 
#    z 0.000000 0.000000 1.732940 
# 
# From -- ./inp_files/14395.got.cif
#   From: 2010.03.12/outbox.cif.g09.slc.cpg/sg36_8_cif.got.tgz:14395.got - 2010.04.14 02:13:53.
