data_PCOD8174571
_publ_section_title
;
Structure prediction by ZEFSAII (Michael W. Deem and Ramdas Pophale) SiO2 
 PCOD8174571
Probable space group: C M C 21
;
_chemical_formula_sum "Si O2"
_cell_formula_units_Z 64
_cell_length_a 8.962602
_cell_length_b 22.895920
_cell_length_c 17.781188
_cell_angle_alpha 90.000000
_cell_angle_beta 90.000000
_cell_angle_gamma 90.000000
_cell_volume 3648.824573
_symmetry_space_group_name_H-M "C M C 21"
_symmetry_group_IT_number 36
_symmetry_cell_setting 'orthorhombic'
loop_
_space_group_symop_operation_xyz
x,y,z
-x,-y,1/2+z
x,-y,1/2+z
-x,y,z
1/2+x,1/2+y,z
1/2-x,1/2-y,1/2+z
1/2+x,1/2-y,1/2+z
1/2-x,1/2+y,z
loop_
_atom_site_type_symbol
_atom_site_label
_atom_site_fract_x
_atom_site_fract_y
_atom_site_fract_z
Si Si1 0.673385 0.135590 0.683870
Si Si2 0.837595 0.514382 0.457960
Si Si3 0.322301 0.316414 0.872160
Si Si4 0.333488 0.923978 0.799760
Si Si5 0.662715 0.583961 0.897718
Si Si6 0.826013 0.365960 0.013747
Si Si7 0.166645 0.975130 0.237110
Si Si8 0.321068 0.697483 0.818547
O O1 0.500000 0.135464 0.707732
O O2 0.693453 0.157367 0.598123
O O3 0.736072 0.069948 0.688636
O O4 0.766105 0.180084 0.735306
O O5 0.847425 0.536281 0.372910
O O6 0.750453 0.452880 0.460910
O O7 0.765650 0.566883 0.507278
O O8 0.000000 0.499813 0.490558
O O9 0.500000 0.316178 0.869952
O O10 0.261507 0.366256 0.816802
O O11 0.258387 0.256022 0.842634
O O12 0.267143 0.325051 0.957755
O O13 0.500000 0.906893 0.771576
O O14 0.248331 0.961803 0.735991
O O15 0.500000 0.593724 0.932421
O O16 0.652878 0.547238 0.821746
O O17 0.732061 0.647320 0.877670
O O18 0.000000 0.365179 0.988239
O O19 0.000000 0.981127 0.202665
O O20 0.500000 0.703459 0.817258
#
# Coordination Sequence:
#
# PCOD8174571 Si02
#       8
#     8   8   8   8   8   8   8   8
#     4  10  19  32  51  74 100 131 168 209 257 309
#     4   8  14  25  43  66  91 119 149 184 231 284
#     4  11  21  32  50  75 100 130 173 217 256 303
#     4   9  16  28  46  68  95 125 156 194 242 289
#     4   8  15  26  42  65  91 119 149 187 234 280
#     4   9  19  34  50  71 101 134 165 204 256 309
#     4   9  16  27  44  69  98 124 154 194 241 290
#     4  10  20  34  50  70 100 134 170 213 259 304
#
# _framework density 17.539894
#
# number of rings (size 3 to 8) (size 9 to 14) (size 15 to 20)
#    0.000    2.750    0.000    4.125    0.000    7.500 
#    0.000    0.000    0.000    1.500    0.000    3.500 
#    0.000    0.000    0.000    0.000    0.000    0.000 
#
# Total GULP energy -396582.330412 kJ/mol
# GULP energy per Si atom -12393.197825 kJ/mol
# Density = 1.749997 g / cm^3
# Si number density = 17.539894 Si / 1000 Ang^3
#
#
#
# Elastic Constant Matrix: (Units=GPa)
#
#
# Indices 1 2 3 4 5 6 
#
# 1 122.2282 62.3645 34.2097 0.0000 0.0000 0.0000
# 2 62.3645 126.8461 41.8565 0.0000 0.0000 0.0000
# 3 34.2097 41.8565 49.8823 0.0000 0.0000 0.0000
# 4 0.0000 0.0000 0.0000 15.3359 0.0000 0.0000
# 5 0.0000 0.0000 0.0000 0.0000 19.7440 0.0000
# 6 0.0000 0.0000 0.0000 0.0000 0.0000 31.4967
#
#
#
# Elastic Compliance Matrix: (Units=1/GPa)
#
#
# Indices 1 2 3 4 5 6 
#
# 1 0.011572 -0.004246 -0.004373 0.000000 0.000000 0.000000
# 2 -0.004246 0.012461 -0.007543 0.000000 0.000000 0.000000
# 3 -0.004373 -0.007543 0.029376 0.000000 0.000000 0.000000
# 4 0.000000 0.000000 0.000000 0.065207 0.000000 0.000000
# 5 0.000000 0.000000 0.000000 0.000000 0.050648 0.000000
# 6 0.000000 0.000000 0.000000 0.000000 0.000000 0.031749
#
#
# Mechanical properties :
#
#
# Convention : Reuss Voigt Hill
#
# Bulk Modulus (GPa) = 47.43208 63.97980 55.70594
# Shear Modulus (GPa) = 20.80160 24.01704 22.40932
#
# Velocity S-wave (km/s) = 3.44751 3.70439 3.57826
# Velocity P-wave (km/s) = 6.55349 7.40626 6.99288
#
# Compressibility (1/GPa) = 0.02108278
#
# Stress axis : x y z
#
# Youngs Moduli (GPa) = 86.41545 80.25334 34.04140
#
# Poissons Ratio (x) = 0.34079 0.14886
# Poissons Ratio (y) = 0.36696 0.25679
# Poissons Ratio (z) = 0.37789 0.60539
#
# Static dielectric constant tensor:
#      x y z
#    x 3.529950 0.000000 0.000000 
#    y 0.000000 3.270950 0.000000 
#    z 0.000000 0.000000 2.905330 
# 
# 
# High freq. dielectric constant tensor:
#      x y z
#    x 1.689490 0.000000 0.000000 
#    y 0.000000 1.668480 0.000000 
#    z 0.000000 0.000000 1.632030 
# 
# From -- ./inp_files/13783.got.cif
#   From: 2010.03.12/outbox.cif.g09.slc.cpg/sg36_7_cif.got.tgz:13783.got - 2010.04.14 02:13:53.
