data_PCOD8174658
_publ_section_title
;
Structure prediction by ZEFSAII (Michael W. Deem and Ramdas Pophale) SiO2 
 PCOD8174658
Probable space group: C M C 21
;
_chemical_formula_sum "Si O2"
_cell_formula_units_Z 56
_cell_length_a 15.207104
_cell_length_b 20.871684
_cell_length_c 9.230883
_cell_angle_alpha 90.000000
_cell_angle_beta 90.000000
_cell_angle_gamma 90.000000
_cell_volume 2929.862595
_symmetry_space_group_name_H-M "C M C 21"
_symmetry_group_IT_number 36
_symmetry_cell_setting 'orthorhombic'
loop_
_space_group_symop_operation_xyz
x,y,z
-x,-y,1/2+z
x,-y,1/2+z
-x,y,z
1/2+x,1/2+y,z
1/2-x,1/2-y,1/2+z
1/2+x,1/2-y,1/2+z
1/2-x,1/2+y,z
loop_
_atom_site_type_symbol
_atom_site_label
_atom_site_fract_x
_atom_site_fract_y
_atom_site_fract_z
Si Si1 0.599116 0.324121 0.242640
Si Si2 0.223698 0.133445 0.989126
Si Si3 0.803756 0.495857 0.473813
Si Si4 0.900774 0.311421 0.600148
Si Si5 0.860761 0.055429 0.549254
Si Si6 0.402462 0.571760 0.210732
Si Si7 0.904904 0.557375 0.226445
O O1 0.500000 0.327442 0.301744
O O2 0.662409 0.328441 0.379817
O O3 0.618669 0.256829 0.168161
O O4 0.612862 0.378682 0.123831
O O5 0.316051 0.172400 0.000474
O O6 0.171221 0.119924 0.141026
O O7 0.244619 0.064002 0.921190
O O8 0.744146 0.544784 0.566335
O O9 0.831559 0.533233 0.332691
O O10 0.885627 0.470515 0.566844
O O11 0.902490 0.365648 0.724664
O O12 0.000000 0.311867 0.525080
O O13 0.883140 0.058854 0.379004
O O14 0.908296 0.995718 0.625636
O O15 0.500000 0.603008 0.197042
O O16 0.000000 0.532107 0.275205
#
# Coordination Sequence:
#
# PCOD8174658 Si02
#       7
#     8   8   8   8   8   8   8
#     4  11  22  38  58  81 110 149 188 224 272 334
#     4  10  21  37  57  83 111 143 183 232 277 327
#     4  10  19  33  52  79 106 135 175 222 275 328
#     4   9  21  38  56  78 109 146 184 223 271 327
#     4  11  21  34  54  80 114 148 181 224 278 337
#     4  11  21  34  54  84 116 146 181 229 282 333
#     4  10  19  34  54  77 104 137 178 228 276 322
#
# _framework density 19.113524999999999
#
# number of rings (size 3 to 8) (size 9 to 14) (size 15 to 20)
#    0.000    1.714    0.000    7.286    0.000    2.857 
#    0.000    0.000    0.000    0.857    0.000    8.000 
#    0.000    0.000    0.000    0.000    0.000    0.000 
#
# Total GULP energy -346952.188284 kJ/mol
# GULP energy per Si atom -12391.149582 kJ/mol
# Density = 1.907002 g / cm^3
# Si number density = 19.113525 Si / 1000 Ang^3
#
#
#
# Elastic Constant Matrix: (Units=GPa)
#
#
# Indices 1 2 3 4 5 6 
#
# 1 141.8625 54.9092 45.9268 0.0000 0.0000 0.0000
# 2 54.9092 86.5949 30.6716 0.0000 0.0000 0.0000
# 3 45.9268 30.6716 79.1770 0.0000 0.0000 0.0000
# 4 0.0000 0.0000 0.0000 16.9634 0.0000 0.0000
# 5 0.0000 0.0000 0.0000 0.0000 21.9484 0.0000
# 6 0.0000 0.0000 0.0000 0.0000 0.0000 22.6751
#
#
#
# Elastic Compliance Matrix: (Units=1/GPa)
#
#
# Indices 1 2 3 4 5 6 
#
# 1 0.010332 -0.005133 -0.004005 0.000000 0.000000 0.000000
# 2 -0.005133 0.015935 -0.003195 0.000000 0.000000 0.000000
# 3 -0.004005 -0.003195 0.016191 0.000000 0.000000 0.000000
# 4 0.000000 0.000000 0.000000 0.058950 0.000000 0.000000
# 5 0.000000 0.000000 0.000000 0.000000 0.045561 0.000000
# 6 0.000000 0.000000 0.000000 0.000000 0.000000 0.044101
#
#
# Mechanical properties :
#
#
# Convention : Reuss Voigt Hill
#
# Bulk Modulus (GPa) = 56.20746 63.40552 59.80649
# Shear Modulus (GPa) = 22.55622 24.05915 23.30769
#
# Velocity S-wave (km/s) = 3.43901 3.55174 3.49583
# Velocity P-wave (km/s) = 6.72607 7.07566 6.90308
#
# Compressibility (1/GPa) = 0.01779123
#
# Stress axis : x y z
#
# Youngs Moduli (GPa) = 96.78202 62.75595 61.76369
#
# Poissons Ratio (x) = 0.32214 0.24736
# Poissons Ratio (y) = 0.49681 0.19735
# Poissons Ratio (z) = 0.38760 0.20052
#
# Static dielectric constant tensor:
#      x y z
#    x 3.998490 0.000000 0.000000 
#    y 0.000000 3.435600 0.000000 
#    z 0.000000 0.000000 3.268750 
# 
# 
# High freq. dielectric constant tensor:
#      x y z
#    x 1.771210 0.000000 0.000000 
#    y 0.000000 1.730530 0.000000 
#    z 0.000000 0.000000 1.723490 
# 
# From -- ./inp_files/4194.got.cif
#   From: 2010.03.12/outbox.cif.g09.slc.cpg/sg36_3_cif.got.tgz:4194.got - 2010.04.14 02:13:53.
