data_PCOD8174324
_publ_section_title
;
Structure prediction by ZEFSAII (Michael W. Deem and Ramdas Pophale) SiO2 
 PCOD8174324
Probable space group: C M C 21
;
_chemical_formula_sum "Si O2"
_cell_formula_units_Z 64
_cell_length_a 9.189365
_cell_length_b 21.888442
_cell_length_c 16.637197
_cell_angle_alpha 90.000000
_cell_angle_beta 90.000000
_cell_angle_gamma 90.000000
_cell_volume 3346.420492
_symmetry_space_group_name_H-M "C M C 21"
_symmetry_group_IT_number 36
_symmetry_cell_setting 'orthorhombic'
loop_
_space_group_symop_operation_xyz
x,y,z
-x,-y,1/2+z
x,-y,1/2+z
-x,y,z
1/2+x,1/2+y,z
1/2-x,1/2-y,1/2+z
1/2+x,1/2-y,1/2+z
1/2-x,1/2+y,z
loop_
_atom_site_type_symbol
_atom_site_label
_atom_site_fract_x
_atom_site_fract_y
_atom_site_fract_z
Si Si1 0.665453 0.710178 0.311780
Si Si2 0.829173 0.471542 0.046367
Si Si3 0.835294 0.909752 0.499286
Si Si4 0.337434 0.707701 0.565946
Si Si5 0.828096 0.838689 0.338632
Si Si6 0.835684 0.094578 0.680635
Si Si7 0.830917 0.356783 0.938974
Si Si8 0.340205 0.688648 0.128636
O O1 0.500000 0.719918 0.340791
O O2 0.746405 0.774915 0.323197
O O3 0.741170 0.654068 0.358252
O O4 0.670836 0.682408 0.223400
O O5 0.769662 0.532750 0.006688
O O6 0.761355 0.455737 0.134075
O O7 0.000000 0.476818 0.059799
O O8 0.788180 0.420220 0.980951
O O9 0.784873 0.865922 0.425773
O O10 0.825024 0.876004 0.584669
O O11 0.000000 0.932233 0.482729
O O12 0.500000 0.709206 0.529647
O O13 0.324482 0.658541 0.635618
O O14 0.218318 0.697675 0.497345
O O15 0.297790 0.772273 0.602698
O O16 0.782781 0.889773 0.271441
O O17 0.000000 0.825164 0.332536
O O18 0.000000 0.069028 0.681006
O O19 0.000000 0.351685 0.920100
O O20 0.500000 0.717186 0.106632
#
# Coordination Sequence:
#
# PCOD8174324 Si02
#       8
#     8   8   8   8   8   8   8   8
#     4  11  22  35  56  88 121 151 191 237 284 343
#     4  10  22  40  60  82 110 148 196 242 290 341
#     4  10  22  40  60  81 113 156 196 236 286 345
#     4  10  18  31  56  86 114 145 184 229 281 341
#     4  10  20  37  61  89 118 154 193 235 293 351
#     4   9  18  34  58  86 115 148 190 233 280 345
#     4  10  21  37  57  80 111 148 187 235 290 343
#     4  10  21  36  54  82 120 156 187 229 286 345
#
# _framework density 19.124911999999998
#
# number of rings (size 3 to 8) (size 9 to 14) (size 15 to 20)
#    0.000    2.000    1.250    2.250    0.000    5.000 
#    2.250    0.000    0.000    0.000    0.000    0.000 
#    0.000    0.000    0.000    0.000    0.000    0.000 
#
# Total GULP energy -396675.450747 kJ/mol
# GULP energy per Si atom -12396.107836 kJ/mol
# Density = 1.908138 g / cm^3
# Si number density = 19.124912 Si / 1000 Ang^3
#
#
#
# Elastic Constant Matrix: (Units=GPa)
#
#
# Indices 1 2 3 4 5 6 
#
# 1 88.0638 55.4963 52.5450 0.0000 0.0000 0.0000
# 2 55.4963 64.7615 51.6101 0.0000 0.0000 0.0000
# 3 52.5450 51.6101 122.1175 0.0000 0.0000 0.0000
# 4 0.0000 0.0000 0.0000 25.1040 0.0000 0.0000
# 5 0.0000 0.0000 0.0000 0.0000 27.9507 0.0000
# 6 0.0000 0.0000 0.0000 0.0000 0.0000 30.7107
#
#
#
# Elastic Compliance Matrix: (Units=1/GPa)
#
#
# Indices 1 2 3 4 5 6 
#
# 1 0.025219 -0.019547 -0.002590 0.000000 0.000000 0.000000
# 2 -0.019547 0.038433 -0.007832 0.000000 0.000000 0.000000
# 3 -0.002590 -0.007832 0.012614 0.000000 0.000000 0.000000
# 4 0.000000 0.000000 0.000000 0.039834 0.000000 0.000000
# 5 0.000000 0.000000 0.000000 0.000000 0.035777 0.000000
# 6 0.000000 0.000000 0.000000 0.000000 0.000000 0.032562
#
#
# Mechanical properties :
#
#
# Convention : Reuss Voigt Hill
#
# Bulk Modulus (GPa) = 61.24783 66.02730 63.63756
# Shear Modulus (GPa) = 20.01442 24.43918 22.22680
#
# Velocity S-wave (km/s) = 3.23849 3.57861 3.41279
# Velocity P-wave (km/s) = 6.78811 7.18849 6.99117
#
# Compressibility (1/GPa) = 0.01632711
#
# Stress axis : x y z
#
# Youngs Moduli (GPa) = 39.65288 26.01922 79.27979
#
# Poissons Ratio (x) = 0.50859 0.20536
# Poissons Ratio (y) = 0.77508 0.62095
# Poissons Ratio (z) = 0.10271 0.20379
#
# Static dielectric constant tensor:
#      x y z
#    x 3.583650 0.000000 0.000000 
#    y 0.000000 3.213660 0.000000 
#    z 0.000000 0.000000 3.758530 
# 
# 
# High freq. dielectric constant tensor:
#      x y z
#    x 1.748470 0.000000 0.000000 
#    y 0.000000 1.721450 0.000000 
#    z 0.000000 0.000000 1.752660 
# 
# From -- ./inp_files/13867.got.cif
#   From: 2010.03.12/outbox.cif.g09.slc.cpg/sg36_7_cif.got.tgz:13867.got - 2010.04.14 02:13:53.
