data_PCOD8174383
_publ_section_title
;
Structure prediction by ZEFSAII (Michael W. Deem and Ramdas Pophale) SiO2 
 PCOD8174383
Probable space group: C M C 21
;
_chemical_formula_sum "Si O2"
_cell_formula_units_Z 64
_cell_length_a 9.002973
_cell_length_b 20.001992
_cell_length_c 19.612084
_cell_angle_alpha 90.000000
_cell_angle_beta 90.000000
_cell_angle_gamma 90.000000
_cell_volume 3531.692976
_symmetry_space_group_name_H-M "C M C 21"
_symmetry_group_IT_number 36
_symmetry_cell_setting 'orthorhombic'
loop_
_space_group_symop_operation_xyz
x,y,z
-x,-y,1/2+z
x,-y,1/2+z
-x,y,z
1/2+x,1/2+y,z
1/2-x,1/2-y,1/2+z
1/2+x,1/2-y,1/2+z
1/2-x,1/2+y,z
loop_
_atom_site_type_symbol
_atom_site_label
_atom_site_fract_x
_atom_site_fract_y
_atom_site_fract_z
Si Si1 0.826840 0.822590 0.970560
Si Si2 0.826991 0.321240 0.499590
Si Si3 0.829640 0.994322 0.352546
Si Si4 0.175447 0.595862 0.253589
Si Si5 0.328228 0.656189 0.859525
Si Si6 0.325908 0.534399 0.503836
Si Si7 0.176362 0.215825 0.320666
Si Si8 0.826684 0.565662 0.101827
O O1 0.767151 0.811007 0.894006
O O2 0.000000 0.835813 0.963482
O O3 0.759151 0.889781 0.003476
O O4 0.791210 0.756919 0.015926
O O5 0.730950 0.346019 0.436423
O O6 0.784022 0.364501 0.565305
O O7 0.000000 0.328569 0.479302
O O8 0.807363 0.917941 0.328339
O O9 0.785731 0.000005 0.431975
O O10 0.000000 0.017875 0.342360
O O11 0.724276 0.041619 0.308917
O O12 0.254330 0.667232 0.264274
O O13 0.226307 0.569802 0.179639
O O14 0.000000 0.606535 0.257591
O O15 0.500000 0.676854 0.860902
O O16 0.238844 0.708723 0.812388
O O17 0.500000 0.532962 0.517708
O O18 0.251476 0.496409 0.566172
O O19 0.000000 0.217741 0.313302
O O20 0.000000 0.552456 0.096594
#
# Coordination Sequence:
#
# PCOD8174383 Si02
#       8
#     8   8   8   8   8   8   8   8
#     4   8  15  29  52  78 101 128 171 222 264 314
#     4   9  17  32  53  76 104 142 180 219 273 329
#     4  10  20  35  55  81 113 145 183 234 279 329
#     4  11  23  37  54  78 112 152 191 232 278 332
#     4  10  19  32  53  83 112 136 176 230 279 323
#     4  10  18  33  55  80 108 139 181 229 275 329
#     4  10  19  35  56  79 109 143 181 225 276 332
#     4  10  22  37  52  77 113 147 183 227 278 334
#
# _framework density 18.121621000000001
#
# number of rings (size 3 to 8) (size 9 to 14) (size 15 to 20)
#    0.000    2.250    2.500    1.875    0.000    2.500 
#    0.000    1.875    0.000    3.000    0.000    0.000 
#    0.000    0.000    0.000    0.000    0.000    0.000 
#
# Total GULP energy -396745.592831 kJ/mol
# GULP energy per Si atom -12398.299776 kJ/mol
# Density = 1.808038 g / cm^3
# Si number density = 18.121621 Si / 1000 Ang^3
#
#
#
# Elastic Constant Matrix: (Units=GPa)
#
#
# Indices 1 2 3 4 5 6 
#
# 1 60.4886 29.1273 22.0166 0.0000 0.0000 0.0000
# 2 29.1273 103.9201 12.7011 0.0000 0.0000 0.0000
# 3 22.0166 12.7011 47.5402 0.0000 0.0000 0.0000
# 4 0.0000 0.0000 0.0000 24.3156 0.0000 0.0000
# 5 0.0000 0.0000 0.0000 0.0000 23.8409 0.0000
# 6 0.0000 0.0000 0.0000 0.0000 0.0000 30.7988
#
#
#
# Elastic Compliance Matrix: (Units=1/GPa)
#
#
# Indices 1 2 3 4 5 6 
#
# 1 0.022263 -0.005148 -0.008935 0.000000 0.000000 0.000000
# 2 -0.005148 0.011138 -0.000592 0.000000 0.000000 0.000000
# 3 -0.008935 -0.000592 0.025331 0.000000 0.000000 0.000000
# 4 0.000000 0.000000 0.000000 0.041126 0.000000 0.000000
# 5 0.000000 0.000000 0.000000 0.000000 0.041945 0.000000
# 6 0.000000 0.000000 0.000000 0.000000 0.000000 0.032469
#
#
# Mechanical properties :
#
#
# Convention : Reuss Voigt Hill
#
# Bulk Modulus (GPa) = 34.03357 37.73765 35.88561
# Shear Modulus (GPa) = 23.42857 25.66466 24.54661
#
# Velocity S-wave (km/s) = 3.59953 3.76739 3.68441
# Velocity P-wave (km/s) = 6.00807 6.30826 6.15999
#
# Compressibility (1/GPa) = 0.02938275
#
# Stress axis : x y z
#
# Youngs Moduli (GPa) = 44.91734 89.78285 39.47764
#
# Poissons Ratio (x) = 0.46220 0.35273
# Poissons Ratio (y) = 0.23123 0.02335
# Poissons Ratio (z) = 0.40134 0.05311
#
# Static dielectric constant tensor:
#      x y z
#    x 3.215100 0.000000 0.000000 
#    y 0.000000 3.673470 0.000000 
#    z 0.000000 0.000000 3.135730 
# 
# 
# High freq. dielectric constant tensor:
#      x y z
#    x 1.692430 0.000000 0.000000 
#    y 0.000000 1.721430 0.000000 
#    z 0.000000 0.000000 1.668320 
# 
# From -- ./inp_files/13951.got.cif
#   From: 2010.03.12/outbox.cif.g09.slc.cpg/sg36_7_cif.got.tgz:13951.got - 2010.04.14 02:13:53.
