data_PCOD8174997
_publ_section_title
;
Structure prediction by ZEFSAII (Michael W. Deem and Ramdas Pophale) SiO2 
 PCOD8174997
Probable space group: C M C 21
;
_chemical_formula_sum "Si O2"
_cell_formula_units_Z 40
_cell_length_a 18.236668
_cell_length_b 9.335615
_cell_length_c 9.305658
_cell_angle_alpha 90.000000
_cell_angle_beta 90.000000
_cell_angle_gamma 90.000000
_cell_volume 1584.293033
_symmetry_space_group_name_H-M "C M C 21"
_symmetry_group_IT_number 36
_symmetry_cell_setting 'orthorhombic'
loop_
_space_group_symop_operation_xyz
x,y,z
-x,-y,1/2+z
x,-y,1/2+z
-x,y,z
1/2+x,1/2+y,z
1/2-x,1/2-y,1/2+z
1/2+x,1/2-y,1/2+z
1/2-x,1/2+y,z
loop_
_atom_site_type_symbol
_atom_site_label
_atom_site_fract_x
_atom_site_fract_y
_atom_site_fract_z
Si Si1 0.297798 0.197390 0.268240
Si Si2 0.327477 0.884404 0.187294
Si Si3 0.419411 0.738814 0.967028
Si Si4 0.655240 0.659211 0.406776
Si Si5 0.083210 0.967829 0.168934
O O1 0.251318 0.304288 0.165946
O O2 0.372195 0.281929 0.319141
O O3 0.319209 0.053745 0.187369
O O4 0.244753 0.149061 0.402171
O O5 0.365970 0.811941 0.329561
O O6 0.378800 0.864963 0.049906
O O7 0.500000 0.791622 0.925273
O O8 0.420896 0.596872 0.058007
O O9 0.625911 0.654447 0.572195
O O10 0.623218 0.526599 0.312045
O O11 0.000000 0.918438 0.211185
#
# Coordination Sequence:
#
# PCOD8174997 Si02
#       5
#     8   8   8   8   8
#     4  10  21  38  63  89 117 167 213 261 302 388
#     4   9  22  38  63  90 126 162 211 262 320 373
#     4  10  22  39  61  89 130 169 203 261 329 373
#     4   9  21  35  61  93 123 164 213 255 316 373
#     4  10  19  38  61  91 128 166 208 263 322 377
#
# _framework density 25.247855000000001
#
# number of rings (size 3 to 8) (size 9 to 14) (size 15 to 20)
#    1.200    1.200    0.000    1.800    2.800    3.200 
#    0.000    0.000    0.000    0.000    0.000    0.000 
#    0.000    0.000    0.000    0.000    0.000    0.000 
#
# Total GULP energy -247804.289047 kJ/mol
# GULP energy per Si atom -12390.214452 kJ/mol
# Density = 2.519039 g / cm^3
# Si number density = 25.247855 Si / 1000 Ang^3
#
#
#
# Elastic Constant Matrix: (Units=GPa)
#
#
# Indices 1 2 3 4 5 6 
#
# 1 185.5583 19.7810 40.8772 0.0000 0.0000 0.0000
# 2 19.7810 104.2488 -3.8128 0.0000 0.0000 0.0000
# 3 40.8772 -3.8128 107.9965 0.0000 0.0000 0.0000
# 4 0.0000 0.0000 0.0000 33.1498 0.0000 0.0000
# 5 0.0000 0.0000 0.0000 0.0000 30.9882 0.0000
# 6 0.0000 0.0000 0.0000 0.0000 0.0000 24.4337
#
#
#
# Elastic Compliance Matrix: (Units=1/GPa)
#
#
# Indices 1 2 3 4 5 6 
#
# 1 0.006033 -0.001230 -0.002327 0.000000 0.000000 0.000000
# 2 -0.001230 0.009856 0.000813 0.000000 0.000000 0.000000
# 3 -0.002327 0.000813 0.010169 0.000000 0.000000 0.000000
# 4 0.000000 0.000000 0.000000 0.030166 0.000000 0.000000
# 5 0.000000 0.000000 0.000000 0.000000 0.032270 0.000000
# 6 0.000000 0.000000 0.000000 0.000000 0.000000 0.040927
#
#
# Mechanical properties :
#
#
# Convention : Reuss Voigt Hill
#
# Bulk Modulus (GPa) = 48.61240 56.83270 52.72255
# Shear Modulus (GPa) = 35.26979 40.44488 37.85733
#
# Velocity S-wave (km/s) = 3.74162 4.00673 3.87645
# Velocity P-wave (km/s) = 6.16135 6.63053 6.40024
#
# Compressibility (1/GPa) = 0.02057088
#
# Stress axis : x y z
#
# Youngs Moduli (GPa) = 165.75940 101.46575 98.33793
#
# Poissons Ratio (x) = 0.12478 0.22882
# Poissons Ratio (y) = 0.20385 -0.07999
# Poissons Ratio (z) = 0.38570 -0.08254
#
# Static dielectric constant tensor:
#      x y z
#    x 5.016470 0.000000 0.000000 
#    y 0.000000 4.276790 0.000000 
#    z 0.000000 0.000000 4.808080 
# 
# 
# High freq. dielectric constant tensor:
#      x y z
#    x 2.002920 0.000000 0.000000 
#    y 0.000000 1.999430 0.000000 
#    z 0.000000 0.000000 2.026330 
# 
# From -- ./inp_files/8782.got.cif
#   From: 2010.03.12/outbox.cif.g09.slc.cpg/sg36_5_cif.got.tgz:8782.got - 2010.04.14 02:13:53.
