data_PCOD8174093
_publ_section_title
;
Structure prediction by ZEFSAII (Michael W. Deem and Ramdas Pophale) SiO2 
 PCOD8174093
Probable space group: C M M 2
;
_chemical_formula_sum "Si O2"
_cell_formula_units_Z 48
_cell_length_a 14.972646
_cell_length_b 13.453357
_cell_length_c 12.682770
_cell_angle_alpha 90.000000
_cell_angle_beta 90.000000
_cell_angle_gamma 90.000000
_cell_volume 2554.720189
_symmetry_space_group_name_H-M "C M M 2"
_symmetry_group_IT_number 35
_symmetry_cell_setting 'orthorhombic'
loop_
_space_group_symop_operation_xyz
x,y,z
-x,-y,z
-x,y,z
x,-y,z
1/2+x,1/2+y,z
1/2-x,1/2-y,z
1/2-x,1/2+y,z
1/2+x,1/2-y,z
loop_
_atom_site_type_symbol
_atom_site_label
_atom_site_fract_x
_atom_site_fract_y
_atom_site_fract_z
Si Si1 0.648920 0.237862 0.500000
Si Si2 0.101276 0.610301 0.688477
Si Si3 0.351018 0.765363 0.881181
Si Si4 0.601751 0.892932 0.307658
Si Si5 0.104150 0.384628 0.077768
Si Si6 0.000000 0.882581 0.823815
Si Si7 0.500000 0.616827 0.574174
O O1 0.750000 0.250000 0.462830
O O2 0.657439 0.171919 0.604526
O O3 0.604443 0.185085 0.400965
O O4 0.590267 0.336222 0.524075
O O5 0.141656 0.500000 0.693206
O O6 0.103271 0.655147 0.804578
O O7 0.000000 0.609299 0.646697
O O8 0.250000 0.750000 0.841516
O O9 0.410356 0.664576 0.875378
O O10 0.345530 0.811503 0.997564
O O11 0.500000 0.912801 0.278314
O O12 0.642272 0.857331 0.195017
O O13 0.644372 0.000000 0.342053
O O14 0.125252 0.500000 0.052565
O O15 0.000000 0.361846 0.063987
O O16 0.000000 0.860608 0.698663
O O17 0.000000 0.000000 0.847429
O O18 0.500000 0.500000 0.549195
#
# Coordination Sequence:
#
# PCOD8174093 Si02
#       7
#     8   8   8   8   8   4   4
#     4  12  22  37  59  85 117 153 196 235 285 348
#     4  11  21  36  60  87 114 142 180 246 304 338
#     4  12  22  37  59  85 117 153 196 235 285 348
#     4   9  18  35  61  87 111 142 183 239 298 343
#     4   9  18  35  61  87 111 142 183 239 298 343
#     4  11  24  42  57  78 121 165 198 232 282 348
#     4  11  24  42  57  78 121 165 198 232 282 348
#
# _framework density 18.788748999999999
#
# number of rings (size 3 to 8) (size 9 to 14) (size 15 to 20)
#    0.000    1.333    5.000    2.500    0.000    6.000 
#    0.000    0.000    0.000    2.000    0.000    0.000 
#    0.000    0.000    0.000    0.000    0.000    0.000 
#
# Total GULP energy -297491.189118 kJ/mol
# GULP energy per Si atom -12395.466213 kJ/mol
# Density = 1.874599 g / cm^3
# Si number density = 18.788749 Si / 1000 Ang^3
#
#
#
# Elastic Constant Matrix: (Units=GPa)
#
#
# Indices 1 2 3 4 5 6 
#
# 1 82.3307 30.0245 6.7360 0.0000 0.0000 0.0000
# 2 30.0245 120.3684 53.5896 0.0000 0.0000 0.0000
# 3 6.7360 53.5896 113.9797 0.0000 0.0000 0.0000
# 4 0.0000 0.0000 0.0000 26.3563 0.0000 0.0000
# 5 0.0000 0.0000 0.0000 0.0000 12.2912 0.0000
# 6 0.0000 0.0000 0.0000 0.0000 0.0000 9.6193
#
#
#
# Elastic Compliance Matrix: (Units=1/GPa)
#
#
# Indices 1 2 3 4 5 6 
#
# 1 0.013449 -0.003795 0.000990 0.000000 0.000000 0.000000
# 2 -0.003795 0.011578 -0.005219 0.000000 0.000000 0.000000
# 3 0.000990 -0.005219 0.011169 0.000000 0.000000 0.000000
# 4 0.000000 0.000000 0.000000 0.037942 0.000000 0.000000
# 5 0.000000 0.000000 0.000000 0.000000 0.081359 0.000000
# 6 0.000000 0.000000 0.000000 0.000000 0.000000 0.103958
#
#
# Mechanical properties :
#
#
# Convention : Reuss Voigt Hill
#
# Bulk Modulus (GPa) = 49.63706 55.26434 52.45070
# Shear Modulus (GPa) = 17.71662 24.74193 21.22928
#
# Velocity S-wave (km/s) = 3.07406 3.63278 3.36503
# Velocity P-wave (km/s) = 6.25105 6.86101 6.56312
#
# Compressibility (1/GPa) = 0.02014624
#
# Stress axis : x y z
#
# Youngs Moduli (GPa) = 74.35349 86.36846 89.53336
#
# Poissons Ratio (x) = 0.32780 -0.08861
# Poissons Ratio (y) = 0.28220 0.46731
# Poissons Ratio (z) = -0.07358 0.45080
#
# Static dielectric constant tensor:
#      x y z
#    x 3.271620 0.000000 0.000000 
#    y 0.000000 3.472090 0.000000 
#    z 0.000000 0.000000 3.419110 
# 
# 
# High freq. dielectric constant tensor:
#      x y z
#    x 1.708330 0.000000 0.000000 
#    y 0.000000 1.725770 0.000000 
#    z 0.000000 0.000000 1.736930 
# 
# From -- ./inp_files/12919.got.cif
#   From: 2010.03.12/outbox.cif.g09.slc.cpg/sg35_7_cif.got.tgz:12919.got - 2010.04.14 02:02:04.
