data_PCOD8174233
_publ_section_title
;
Structure prediction by ZEFSAII (Michael W. Deem and Ramdas Pophale) SiO2 
 PCOD8174233
Probable space group: C M C 21
;
_chemical_formula_sum "Si O2"
_cell_formula_units_Z 56
_cell_length_a 17.377964
_cell_length_b 35.048443
_cell_length_c 5.078567
_cell_angle_alpha 90.000000
_cell_angle_beta 90.000000
_cell_angle_gamma 90.000000
_cell_volume 3093.205752
_symmetry_space_group_name_H-M "C M C 21"
_symmetry_group_IT_number 36
_symmetry_cell_setting 'orthorhombic'
loop_
_space_group_symop_operation_xyz
x,y,z
-x,-y,1/2+z
x,-y,1/2+z
-x,y,z
1/2+x,1/2+y,z
1/2-x,1/2-y,1/2+z
1/2+x,1/2-y,1/2+z
1/2-x,1/2+y,z
loop_
_atom_site_type_symbol
_atom_site_label
_atom_site_fract_x
_atom_site_fract_y
_atom_site_fract_z
Si Si1 0.586863 0.474944 0.704650
Si Si2 0.735184 0.868624 0.152060
Si Si3 0.152602 0.801899 0.205942
Si Si4 0.413026 0.173098 0.627226
Si Si5 0.911928 0.276838 0.629026
Si Si6 0.085381 0.833700 0.710398
Si Si7 0.688159 0.402415 0.661088
O O1 0.597775 0.508986 0.497386
O O2 0.500000 0.457642 0.674550
O O3 0.655358 0.444993 0.656168
O O4 0.769693 0.825239 0.133759
O O5 0.643532 0.862696 0.177100
O O6 0.768344 0.892803 0.392343
O O7 0.752381 0.893934 0.895740
O O8 0.152356 0.756351 0.161522
O O9 0.135689 0.808054 0.513383
O O10 0.088079 0.818451 0.008435
O O11 0.500000 0.157188 0.643981
O O12 0.395155 0.190386 0.341012
O O13 0.400188 0.206183 0.840488
O O14 0.000000 0.261480 0.665427
O O15 0.112720 0.877008 0.700968
O O16 0.000000 0.832017 0.602258
#
# Coordination Sequence:
#
# PCOD8174233 Si02
#       7
#     8   8   8   8   8   8   8
#     4  10  20  34  54  81 113 145 172 193 219 269
#     4  10  21  35  50  71  98 128 165 210 253 295
#     4  10  20  30  45  68  93 125 164 208 252 297
#     4  10  21  35  51  69  92 124 163 212 263 310
#     4  10  19  31  47  67  92 124 164 209 257 304
#     4  10  18  29  45  65  94 130 166 201 237 281
#     4  10  20  34  51  73 102 132 164 201 238 276
#
# _framework density 18.104194
#
# number of rings (size 3 to 8) (size 9 to 14) (size 15 to 20)
#    0.000    2.000    0.000    4.286    0.000    2.286 
#    0.000    4.286    0.000    0.000    0.000    0.000 
#    0.000   11.429    0.000    0.000    0.000    0.000 
#
# Total GULP energy -347116.987298 kJ/mol
# GULP energy per Si atom -12397.035261 kJ/mol
# Density = 1.806299 g / cm^3
# Si number density = 18.104194 Si / 1000 Ang^3
#
#
#
# Elastic Constant Matrix: (Units=GPa)
#
#
# Indices 1 2 3 4 5 6 
#
# 1 81.3874 41.5812 13.8584 0.0000 0.0000 0.0000
# 2 41.5812 64.2032 9.7204 0.0000 0.0000 0.0000
# 3 13.8584 9.7204 78.7406 0.0000 0.0000 0.0000
# 4 0.0000 0.0000 0.0000 16.3332 0.0000 0.0000
# 5 0.0000 0.0000 0.0000 0.0000 14.0539 0.0000
# 6 0.0000 0.0000 0.0000 0.0000 0.0000 16.9276
#
#
#
# Elastic Compliance Matrix: (Units=1/GPa)
#
#
# Indices 1 2 3 4 5 6 
#
# 1 0.018616 -0.011781 -0.001822 0.000000 0.000000 0.000000
# 2 -0.011781 0.023328 -0.000806 0.000000 0.000000 0.000000
# 3 -0.001822 -0.000806 0.013120 0.000000 0.000000 0.000000
# 4 0.000000 0.000000 0.000000 0.061225 0.000000 0.000000
# 5 0.000000 0.000000 0.000000 0.000000 0.071155 0.000000
# 6 0.000000 0.000000 0.000000 0.000000 0.000000 0.059075
#
#
# Mechanical properties :
#
#
# Convention : Reuss Voigt Hill
#
# Bulk Modulus (GPa) = 38.10221 39.40571 38.75396
# Shear Modulus (GPa) = 17.60033 20.07434 18.83733
#
# Velocity S-wave (km/s) = 3.12134 3.33351 3.22917
# Velocity P-wave (km/s) = 5.83799 6.05225 5.94609
#
# Compressibility (1/GPa) = 0.02624520
#
# Stress axis : x y z
#
# Youngs Moduli (GPa) = 53.71706 42.86785 76.21857
#
# Poissons Ratio (x) = 0.50502 0.13888
# Poissons Ratio (y) = 0.63283 0.06146
# Poissons Ratio (z) = 0.09788 0.03456
#
# Static dielectric constant tensor:
#      x y z
#    x 3.262080 0.000000 0.000000 
#    y 0.000000 2.937260 0.000000 
#    z 0.000000 0.000000 3.552700 
# 
# 
# High freq. dielectric constant tensor:
#      x y z
#    x 1.683040 0.000000 0.000000 
#    y 0.000000 1.659130 0.000000 
#    z 0.000000 0.000000 1.726780 
# 
# From -- ./inp_files/942.got.cif
#   From: 2010.03.12/outbox.cif.g09.slc.cpg/sg36_1_cif.got.tgz:942.got - 2010.04.14 02:13:53.
