data_PCOD8174539
_publ_section_title
;
Structure prediction by ZEFSAII (Michael W. Deem and Ramdas Pophale) SiO2 
 PCOD8174539
Probable space group: C M C 21
;
_chemical_formula_sum "Si O2"
_cell_formula_units_Z 64
_cell_length_a 14.419408
_cell_length_b 16.753420
_cell_length_c 14.409503
_cell_angle_alpha 90.000000
_cell_angle_beta 90.000000
_cell_angle_gamma 90.000000
_cell_volume 3480.967018
_symmetry_space_group_name_H-M "C M C 21"
_symmetry_group_IT_number 36
_symmetry_cell_setting 'orthorhombic'
loop_
_space_group_symop_operation_xyz
x,y,z
-x,-y,1/2+z
x,-y,1/2+z
-x,y,z
1/2+x,1/2+y,z
1/2-x,1/2-y,1/2+z
1/2+x,1/2-y,1/2+z
1/2-x,1/2+y,z
loop_
_atom_site_type_symbol
_atom_site_label
_atom_site_fract_x
_atom_site_fract_y
_atom_site_fract_z
Si Si1 0.770100 0.322137 0.125000
Si Si2 0.728890 0.475645 0.478267
Si Si3 0.771809 0.648635 0.113843
Si Si4 0.607028 0.624198 0.506268
Si Si5 0.107839 0.408554 0.983140
Si Si6 0.181042 0.592126 0.809057
Si Si7 0.602810 0.791630 0.447663
Si Si8 0.396057 0.077855 0.274719
O O1 0.781674 0.228066 0.147376
O O2 0.778489 0.376507 0.214187
O O3 0.666103 0.345179 0.093824
O O4 0.849043 0.340074 0.048182
O O5 0.704494 0.418178 0.566344
O O6 0.650420 0.542907 0.466035
O O7 0.831569 0.511599 0.500061
O O8 0.734838 0.429973 0.379672
O O9 0.823373 0.613492 0.202862
O O10 0.837323 0.672758 0.029836
O O11 0.500000 0.609372 0.534619
O O12 0.616995 0.696157 0.431234
O O13 0.117853 0.380970 0.875763
O O14 0.000000 0.425025 0.008722
O O15 0.120476 0.663578 0.851490
O O16 0.116610 0.516659 0.787334
O O17 0.500000 0.808125 0.481882
O O18 0.500000 0.093847 0.238331
#
# Coordination Sequence:
#
# PCOD8174539 Si02
#       8
#     8   8   8   8   8   8   8   8
#     4  10  21  35  52  75 106 142 175 211 256 310
#     4   9  19  34  53  79 104 132 173 217 261 309
#     4  10  20  32  51  75 104 138 172 213 258 305
#     4   9  18  36  58  74  98 139 181 220 257 297
#     4   9  19  35  54  77 105 135 168 211 266 319
#     4  10  20  32  51  77 107 135 165 212 266 317
#     4   9  18  33  53  77 101 130 172 216 259 310
#     4  10  19  31  52  80 105 133 170 214 265 317
#
# _framework density 18.385695999999999
#
# number of rings (size 3 to 8) (size 9 to 14) (size 15 to 20)
#    0.000    2.500    0.000    2.250    0.000   11.000 
#    0.000    1.250    0.000    1.500    0.000    0.000 
#    0.000    0.000    0.000    0.000    0.000    0.000 
#
# Total GULP energy -396561.328877 kJ/mol
# GULP energy per Si atom -12392.541527 kJ/mol
# Density = 1.834385 g / cm^3
# Si number density = 18.385696 Si / 1000 Ang^3
#
#
#
# Elastic Constant Matrix: (Units=GPa)
#
#
# Indices 1 2 3 4 5 6 
#
# 1 84.0072 40.0966 30.0375 0.0000 0.0000 0.0000
# 2 40.0966 112.7936 53.6393 0.0000 0.0000 0.0000
# 3 30.0375 53.6393 95.9124 0.0000 0.0000 0.0000
# 4 0.0000 0.0000 0.0000 26.9400 0.0000 0.0000
# 5 0.0000 0.0000 0.0000 0.0000 8.7102 0.0000
# 6 0.0000 0.0000 0.0000 0.0000 0.0000 19.3231
#
#
#
# Elastic Compliance Matrix: (Units=1/GPa)
#
#
# Indices 1 2 3 4 5 6 
#
# 1 0.014696 -0.004135 -0.002290 0.000000 0.000000 0.000000
# 2 -0.004135 0.013242 -0.006110 0.000000 0.000000 0.000000
# 3 -0.002290 -0.006110 0.014560 0.000000 0.000000 0.000000
# 4 0.000000 0.000000 0.000000 0.037120 0.000000 0.000000
# 5 0.000000 0.000000 0.000000 0.000000 0.114807 0.000000
# 6 0.000000 0.000000 0.000000 0.000000 0.000000 0.051751
#
#
# Mechanical properties :
#
#
# Convention : Reuss Voigt Hill
#
# Bulk Modulus (GPa) = 57.38090 60.02887 58.70488
# Shear Modulus (GPa) = 18.04685 22.25734 20.15209
#
# Velocity S-wave (km/s) = 3.13640 3.48311 3.31429
# Velocity P-wave (km/s) = 6.66283 6.99262 6.82972
#
# Compressibility (1/GPa) = 0.01742740
#
# Stress axis : x y z
#
# Youngs Moduli (GPa) = 68.04433 75.51963 68.67904
#
# Poissons Ratio (x) = 0.31231 0.15726
# Poissons Ratio (y) = 0.28139 0.41965
# Poissons Ratio (z) = 0.15581 0.46145
#
# Static dielectric constant tensor:
#      x y z
#    x 3.208760 0.000000 0.000000 
#    y 0.000000 3.733650 0.000000 
#    z 0.000000 0.000000 3.391810 
# 
# 
# High freq. dielectric constant tensor:
#      x y z
#    x 1.686690 0.000000 0.000000 
#    y 0.000000 1.720920 0.000000 
#    z 0.000000 0.000000 1.708750 
# 
# From -- ./inp_files/12336.got.cif
#   From: 2010.03.12/outbox.cif.g09.slc.cpg/sg36_7_cif.got.tgz:12336.got - 2010.04.14 02:13:53.
