data_PCOD8174911
_publ_section_title
;
Structure prediction by ZEFSAII (Michael W. Deem and Ramdas Pophale) SiO2 
 PCOD8174911
Probable space group: C M C 21
;
_chemical_formula_sum "Si O2"
_cell_formula_units_Z 48
_cell_length_a 13.783150
_cell_length_b 34.669702
_cell_length_c 4.972110
_cell_angle_alpha 90.000000
_cell_angle_beta 90.000000
_cell_angle_gamma 90.000000
_cell_volume 2375.961064
_symmetry_space_group_name_H-M "C M C 21"
_symmetry_group_IT_number 36
_symmetry_cell_setting 'orthorhombic'
loop_
_space_group_symop_operation_xyz
x,y,z
-x,-y,1/2+z
x,-y,1/2+z
-x,y,z
1/2+x,1/2+y,z
1/2-x,1/2-y,1/2+z
1/2+x,1/2-y,1/2+z
1/2-x,1/2+y,z
loop_
_atom_site_type_symbol
_atom_site_label
_atom_site_fract_x
_atom_site_fract_y
_atom_site_fract_z
Si Si1 0.385521 0.347182 0.133520
Si Si2 0.114591 0.977390 0.683112
Si Si3 0.260151 0.726292 0.677485
Si Si4 0.106309 0.671159 0.471910
Si Si5 0.688024 0.606665 0.136978
Si Si6 0.891799 0.378168 0.469538
O O1 0.500000 0.346158 0.067870
O O2 0.349551 0.303823 0.204131
O O3 0.366724 0.375971 0.379852
O O4 0.324404 0.362410 0.877086
O O5 0.140519 0.933064 0.727175
O O6 0.000000 0.980753 0.685282
O O7 0.159224 0.004543 0.914031
O O8 0.280230 0.761797 0.472116
O O9 0.173216 0.707257 0.514198
O O10 0.133553 0.635148 0.667240
O O11 0.000000 0.685185 0.554595
O O12 0.109450 0.659127 0.161211
O O13 0.801066 0.596238 0.071234
O O14 0.000000 0.398213 0.485593
#
# Coordination Sequence:
#
# PCOD8174911 Si02
#       6
#     8   8   8   8   8   8
#     4  12  25  40  60  89 118 155 202 244 295 355
#     4  10  21  36  56  87 122 156 194 231 280 347
#     4  12  24  38  57  79 116 151 190 245 299 350
#     4  10  20  37  57  79 105 141 191 240 288 338
#     4  12  21  40  65  87 121 158 195 243 294 343
#     4  10  19  35  61  87 108 139 190 245 282 327
#
# _framework density 20.202352000000001
#
# number of rings (size 3 to 8) (size 9 to 14) (size 15 to 20)
#    0.000    1.000    3.333    4.500    0.000    2.667 
#    0.000    0.000    0.000    1.000    0.000    0.000 
#    0.000    0.000    0.000    0.000    0.000    0.000 
#
# Total GULP energy -297469.060967 kJ/mol
# GULP energy per Si atom -12394.544207 kJ/mol
# Density = 2.015637 g / cm^3
# Si number density = 20.202352 Si / 1000 Ang^3
#
#
#
# Elastic Constant Matrix: (Units=GPa)
#
#
# Indices 1 2 3 4 5 6 
#
# 1 63.4434 14.2590 22.9092 0.0000 0.0000 0.0000
# 2 14.2590 74.4800 16.5760 0.0000 0.0000 0.0000
# 3 22.9092 16.5760 60.8064 0.0000 0.0000 0.0000
# 4 0.0000 0.0000 0.0000 30.3419 0.0000 0.0000
# 5 0.0000 0.0000 0.0000 0.0000 26.1468 0.0000
# 6 0.0000 0.0000 0.0000 0.0000 0.0000 30.3257
#
#
#
# Elastic Compliance Matrix: (Units=1/GPa)
#
#
# Indices 1 2 3 4 5 6 
#
# 1 0.018555 -0.002125 -0.006411 0.000000 0.000000 0.000000
# 2 -0.002125 0.014537 -0.003162 0.000000 0.000000 0.000000
# 3 -0.006411 -0.003162 0.019723 0.000000 0.000000 0.000000
# 4 0.000000 0.000000 0.000000 0.032958 0.000000 0.000000
# 5 0.000000 0.000000 0.000000 0.000000 0.038246 0.000000
# 6 0.000000 0.000000 0.000000 0.000000 0.000000 0.032975
#
#
# Mechanical properties :
#
#
# Convention : Reuss Voigt Hill
#
# Bulk Modulus (GPa) = 33.99334 34.02423 34.00878
# Shear Modulus (GPa) = 26.28853 27.02860 26.65856
#
# Velocity S-wave (km/s) = 3.61121 3.66169 3.63654
# Velocity P-wave (km/s) = 5.85242 5.89539 5.87394
#
# Compressibility (1/GPa) = 0.02941753
#
# Stress axis : x y z
#
# Youngs Moduli (GPa) = 53.89425 68.78966 50.70192
#
# Poissons Ratio (x) = 0.14621 0.32506
# Poissons Ratio (y) = 0.11455 0.16032
# Poissons Ratio (z) = 0.34553 0.21752
#
# Static dielectric constant tensor:
#      x y z
#    x 3.864450 0.000000 0.000000 
#    y 0.000000 3.323320 0.000000 
#    z 0.000000 0.000000 4.065040 
# 
# 
# High freq. dielectric constant tensor:
#      x y z
#    x 1.792150 0.000000 0.000000 
#    y 0.000000 1.749430 0.000000 
#    z 0.000000 0.000000 1.813920 
# 
# From -- ./inp_files/829.got.cif
#   From: 2010.03.12/outbox.cif.g09.slc.cpg/sg36_1_cif.got.tgz:829.got - 2010.04.14 02:13:53.
