data_PCOD8174863
_publ_section_title
;
Structure prediction by ZEFSAII (Michael W. Deem and Ramdas Pophale) SiO2 
 PCOD8174863
Probable space group: C M C 21
;
_chemical_formula_sum "Si O2"
_cell_formula_units_Z 48
_cell_length_a 9.066784
_cell_length_b 14.899640
_cell_length_c 18.904082
_cell_angle_alpha 90.000000
_cell_angle_beta 90.000000
_cell_angle_gamma 90.000000
_cell_volume 2553.786797
_symmetry_space_group_name_H-M "C M C 21"
_symmetry_group_IT_number 36
_symmetry_cell_setting 'orthorhombic'
loop_
_space_group_symop_operation_xyz
x,y,z
-x,-y,1/2+z
x,-y,1/2+z
-x,y,z
1/2+x,1/2+y,z
1/2-x,1/2-y,1/2+z
1/2+x,1/2-y,1/2+z
1/2-x,1/2+y,z
loop_
_atom_site_type_symbol
_atom_site_label
_atom_site_fract_x
_atom_site_fract_y
_atom_site_fract_z
Si Si1 0.673658 0.852326 0.712300
Si Si2 0.825177 0.038151 0.464033
Si Si3 0.675228 0.894515 0.554415
Si Si4 0.170515 0.495079 0.320690
Si Si5 0.674451 0.259166 0.949829
Si Si6 0.829734 0.706725 0.796174
O O1 0.500000 0.840249 0.713515
O O2 0.727924 0.877450 0.634168
O O3 0.744495 0.758055 0.734291
O O4 0.725536 0.930111 0.765782
O O5 0.751671 0.985738 0.528828
O O6 0.768927 0.998180 0.390343
O O7 0.000000 0.027894 0.467169
O O8 0.774668 0.141456 0.471622
O O9 0.500000 0.905978 0.548619
O O10 0.734451 0.811743 0.507041
O O11 0.192326 0.398972 0.283602
O O12 0.000000 0.508877 0.342494
O O13 0.500000 0.251562 0.947023
O O14 0.737607 0.235129 0.872346
O O15 0.000000 0.734561 0.791916
#
# Coordination Sequence:
#
# PCOD8174863 Si02
#       6
#     8   8   8   8   8   8
#     4  10  22  37  57  85 114 144 184 232 277 327
#     4  11  21  34  56  85 108 140 191 234 268 323
#     4  10  21  40  58  78 115 153 180 222 286 338
#     4  10  20  36  57  82 111 147 184 224 279 335
#     4   9  18  34  56  79 106 147 184 218 277 336
#     4  10  19  35  58  79 108 149 183 220 277 335
#
# _framework density 18.795617
#
# number of rings (size 3 to 8) (size 9 to 14) (size 15 to 20)
#    0.000    2.000    3.333    0.500    0.000    2.667 
#    0.000    1.667    0.000    0.000    0.000    0.000 
#    0.000    0.000    0.000    0.000    0.000    0.000 
#
# Total GULP energy -297675.585088 kJ/mol
# GULP energy per Si atom -12403.149379 kJ/mol
# Density = 1.875284 g / cm^3
# Si number density = 18.795617 Si / 1000 Ang^3
#
#
#
# Elastic Constant Matrix: (Units=GPa)
#
#
# Indices 1 2 3 4 5 6 
#
# 1 29.2002 16.6703 17.2708 0.0000 0.0000 0.0000
# 2 16.6703 88.2122 12.8539 0.0000 0.0000 0.0000
# 3 17.2708 12.8539 83.0531 0.0000 0.0000 0.0000
# 4 0.0000 0.0000 0.0000 34.7996 0.0000 0.0000
# 5 0.0000 0.0000 0.0000 0.0000 24.4597 0.0000
# 6 0.0000 0.0000 0.0000 0.0000 0.0000 26.8694
#
#
#
# Elastic Compliance Matrix: (Units=1/GPa)
#
#
# Indices 1 2 3 4 5 6 
#
# 1 0.042851 -0.006956 -0.007834 0.000000 0.000000 0.000000
# 2 -0.006956 0.012727 -0.000523 0.000000 0.000000 0.000000
# 3 -0.007834 -0.000523 0.013751 0.000000 0.000000 0.000000
# 4 0.000000 0.000000 0.000000 0.028736 0.000000 0.000000
# 5 0.000000 0.000000 0.000000 0.000000 0.040884 0.000000
# 6 0.000000 0.000000 0.000000 0.000000 0.000000 0.037217
#
#
# Mechanical properties :
#
#
# Convention : Reuss Voigt Hill
#
# Bulk Modulus (GPa) = 25.83886 32.67281 29.25584
# Shear Modulus (GPa) = 22.75892 27.47044 25.11468
#
# Velocity S-wave (km/s) = 3.48352 3.82715 3.65937
# Velocity P-wave (km/s) = 5.47330 6.07868 5.78392
#
# Compressibility (1/GPa) = 0.03870140
#
# Stress axis : x y z
#
# Youngs Moduli (GPa) = 23.33643 78.57204 72.72417
#
# Poissons Ratio (x) = 0.54659 0.56974
# Poissons Ratio (y) = 0.16234 0.03805
# Poissons Ratio (z) = 0.18282 0.04110
#
# Static dielectric constant tensor:
#      x y z
#    x 3.198680 0.000000 0.000000 
#    y 0.000000 3.628870 0.000000 
#    z 0.000000 0.000000 3.489320 
# 
# 
# High freq. dielectric constant tensor:
#      x y z
#    x 1.705860 0.000000 0.000000 
#    y 0.000000 1.744550 0.000000 
#    z 0.000000 0.000000 1.726790 
# 
# From -- ./inp_files/13469.got.cif
#   From: 2010.03.12/outbox.cif.g09.slc.cpg/sg36_7_cif.got.tgz:13469.got - 2010.04.14 02:13:53.
