data_PCOD8174978
_publ_section_title
;
Structure prediction by ZEFSAII (Michael W. Deem and Ramdas Pophale) SiO2 
 PCOD8174978
Probable space group: C M C 21
;
_chemical_formula_sum "Si O2"
_cell_formula_units_Z 64
_cell_length_a 24.394337
_cell_length_b 9.832086
_cell_length_c 13.357583
_cell_angle_alpha 90.000000
_cell_angle_beta 90.000000
_cell_angle_gamma 90.000000
_cell_volume 3203.779139
_symmetry_space_group_name_H-M "C M C 21"
_symmetry_group_IT_number 36
_symmetry_cell_setting 'orthorhombic'
loop_
_space_group_symop_operation_xyz
x,y,z
-x,-y,1/2+z
x,-y,1/2+z
-x,y,z
1/2+x,1/2+y,z
1/2-x,1/2-y,1/2+z
1/2+x,1/2-y,1/2+z
1/2-x,1/2+y,z
loop_
_atom_site_type_symbol
_atom_site_label
_atom_site_fract_x
_atom_site_fract_y
_atom_site_fract_z
Si Si1 0.749692 0.913468 0.284250
Si Si2 0.862558 0.397352 0.925764
Si Si3 0.753681 0.163575 0.413098
Si Si4 0.367898 0.351401 0.281419
Si Si5 0.628120 0.611802 0.410875
Si Si6 0.366759 0.136151 0.778117
Si Si7 0.064381 0.783940 0.095088
Si Si8 0.564605 0.969344 0.101164
O O1 0.746673 0.823074 0.386459
O O2 0.807085 0.872361 0.231955
O O3 0.693379 0.879844 0.223516
O O4 0.750530 0.073142 0.310789
O O5 0.801743 0.372383 0.974774
O O6 0.873704 0.292742 0.835993
O O7 0.866923 0.546457 0.878655
O O8 0.907504 0.383535 0.012348
O O9 0.811693 0.125378 0.464824
O O10 0.381077 0.462271 0.366584
O O11 0.410152 0.359910 0.190516
O O12 0.623484 0.710712 0.314845
O O13 0.582531 0.642264 0.493402
O O14 0.415616 0.093171 0.705609
O O15 0.082391 0.626457 0.093857
O O16 0.000000 0.798713 0.104458
O O17 0.500000 0.950085 0.092765
#
# Coordination Sequence:
#
# PCOD8174978 Si02
#       8
#     8   8   8   8   8   8   8   8
#     4   8  16  31  56  85 113 145 186 230 287 352
#     4  10  19  37  61  86 115 153 192 239 291 339
#     4   8  16  31  56  85 113 145 186 230 287 352
#     4  10  21  39  61  87 120 152 187 243 298 348
#     4  10  21  39  61  87 120 152 187 243 298 348
#     4  10  19  37  61  86 115 153 192 239 291 339
#     4  11  24  40  59  85 115 157 206 239 286 352
#     4  11  24  38  59  89 115 153 210 247 276 340
#
# _framework density 19.976409
#
# number of rings (size 3 to 8) (size 9 to 14) (size 15 to 20)
#    0.000    2.250    2.500    0.000    0.000    4.000 
#    0.000    1.250    0.000    0.000    0.000    0.000 
#    0.000    0.000    0.000    0.000    0.000    0.000 
#
# Total GULP energy -396586.048728 kJ/mol
# GULP energy per Si atom -12393.314023 kJ/mol
# Density = 1.993094 g / cm^3
# Si number density = 19.976409 Si / 1000 Ang^3
#
#
#
# Elastic Constant Matrix: (Units=GPa)
#
#
# Indices 1 2 3 4 5 6 
#
# 1 123.1132 25.3928 51.7181 0.0000 0.0000 0.0000
# 2 25.3928 69.0774 14.3379 0.0000 0.0000 0.0000
# 3 51.7181 14.3379 65.4731 0.0000 0.0000 0.0000
# 4 0.0000 0.0000 0.0000 22.8741 0.0000 0.0000
# 5 0.0000 0.0000 0.0000 0.0000 30.4652 0.0000
# 6 0.0000 0.0000 0.0000 0.0000 0.0000 27.5901
#
#
#
# Elastic Compliance Matrix: (Units=1/GPa)
#
#
# Indices 1 2 3 4 5 6 
#
# 1 0.012617 -0.002692 -0.009377 0.000000 0.000000 0.000000
# 2 -0.002692 0.015740 -0.001321 0.000000 0.000000 0.000000
# 3 -0.009377 -0.001321 0.022970 0.000000 0.000000 0.000000
# 4 0.000000 0.000000 0.000000 0.043717 0.000000 0.000000
# 5 0.000000 0.000000 0.000000 0.000000 0.032824 0.000000
# 6 0.000000 0.000000 0.000000 0.000000 0.000000 0.036245
#
#
# Mechanical properties :
#
#
# Convention : Reuss Voigt Hill
#
# Bulk Modulus (GPa) = 40.73629 48.95125 44.84377
# Shear Modulus (GPa) = 25.11627 27.26688 26.19157
#
# Velocity S-wave (km/s) = 3.54968 3.69854 3.62487
# Velocity P-wave (km/s) = 6.10220 6.54191 6.32588
#
# Compressibility (1/GPa) = 0.02454813
#
# Stress axis : x y z
#
# Youngs Moduli (GPa) = 79.25929 63.53194 43.53596
#
# Poissons Ratio (x) = 0.17101 0.40823
# Poissons Ratio (y) = 0.21334 0.05750
# Poissons Ratio (z) = 0.74320 0.08391
#
# Static dielectric constant tensor:
#      x y z
#    x 3.822140 0.000000 0.000000 
#    y 0.000000 3.659190 0.000000 
#    z 0.000000 0.000000 3.054660 
# 
# 
# High freq. dielectric constant tensor:
#      x y z
#    x 1.790870 0.000000 0.000000 
#    y 0.000000 1.787890 0.000000 
#    z 0.000000 0.000000 1.729780 
# 
# From -- ./inp_files/12985.got.cif
#   From: 2010.03.12/outbox.cif.g09.slc.cpg/sg36_7_cif.got.tgz:12985.got - 2010.04.14 02:13:53.
