data_PCOD8174083
_publ_section_title
;
Structure prediction by ZEFSAII (Michael W. Deem and Ramdas Pophale) SiO2 
 PCOD8174083
Probable space group: C M M 2
;
_chemical_formula_sum "Si O2"
_cell_formula_units_Z 56
_cell_length_a 9.007656
_cell_length_b 19.213115
_cell_length_c 18.217960
_cell_angle_alpha 90.000000
_cell_angle_beta 90.000000
_cell_angle_gamma 90.000000
_cell_volume 3152.893627
_symmetry_space_group_name_H-M "C M M 2"
_symmetry_group_IT_number 35
_symmetry_cell_setting 'orthorhombic'
loop_
_space_group_symop_operation_xyz
x,y,z
-x,-y,z
-x,y,z
x,-y,z
1/2+x,1/2+y,z
1/2-x,1/2-y,z
1/2-x,1/2+y,z
1/2+x,1/2-y,z
loop_
_atom_site_type_symbol
_atom_site_label
_atom_site_fract_x
_atom_site_fract_y
_atom_site_fract_z
Si Si1 0.173908 0.675821 0.837440
Si Si2 0.324453 0.078880 0.546947
Si Si3 0.665729 0.582953 0.401980
Si Si4 0.663974 0.917435 0.262455
Si Si5 0.827292 0.676340 0.676162
Si Si6 0.323263 0.325822 0.979263
Si Si7 0.673365 0.081131 0.098224
O O1 0.250000 0.750000 0.831931
O O2 0.198546 0.641468 0.757039
O O3 0.000000 0.682240 0.856385
O O4 0.258062 0.637356 0.904750
O O5 0.500000 0.082311 0.540455
O O6 0.258223 0.110125 0.471789
O O7 0.264272 0.123232 0.615663
O O8 0.269650 0.000000 0.559326
O O9 0.500000 0.611562 0.409946
O O10 0.670694 0.500000 0.399247
O O11 0.731064 0.613730 0.325961
O O12 0.500000 0.886555 0.275292
O O13 0.720026 0.897466 0.181098
O O14 0.656874 0.000000 0.268378
O O15 0.750000 0.750000 0.666769
O O16 0.000000 0.690066 0.663816
O O17 0.500000 0.318945 0.974660
O O18 0.250000 0.250000 0.989349
O O19 0.278938 0.374293 0.046540
O O20 0.500000 0.097915 0.084420
O O21 0.704421 0.000000 0.083911
#
# Coordination Sequence:
#
# PCOD8174083 Si02
#       7
#     8   8   8   8   8   8   8
#     4   9  16  29  48  69  92 119 157 198 235 278
#     4   9  17  30  47  67  93 123 155 190 229 276
#     4   9  16  25  40  65  94 122 154 191 229 269
#     4   8  14  26  45  67  91 122 157 190 227 274
#     4   9  18  31  49  71  92 119 155 194 235 278
#     4  11  21  33  51  73  98 128 163 200 239 285
#     4   9  18  33  52  74 100 128 159 197 242 289
#
# _framework density 17.761462999999999
#
# number of rings (size 3 to 8) (size 9 to 14) (size 15 to 20)
#    0.000    2.857    0.000    3.857    0.000    3.714 
#    0.000    2.143    0.000    3.429    0.000    4.000 
#    0.000    0.000    0.000    0.000    0.000    0.000 
#
# Total GULP energy -346980.416411 kJ/mol
# GULP energy per Si atom -12392.157729 kJ/mol
# Density = 1.772104 g / cm^3
# Si number density = 17.761463 Si / 1000 Ang^3
#
#
#
# Elastic Constant Matrix: (Units=GPa)
#
#
# Indices 1 2 3 4 5 6 
#
# 1 92.8160 29.4725 68.4121 0.0000 0.0000 0.0000
# 2 29.4725 40.0556 48.4210 0.0000 0.0000 0.0000
# 3 68.4121 48.4210 177.2929 0.0000 0.0000 0.0000
# 4 0.0000 0.0000 0.0000 8.0117 0.0000 0.0000
# 5 0.0000 0.0000 0.0000 0.0000 28.8452 0.0000
# 6 0.0000 0.0000 0.0000 0.0000 0.0000 18.4991
#
#
#
# Elastic Compliance Matrix: (Units=1/GPa)
#
#
# Indices 1 2 3 4 5 6 
#
# 1 0.016108 -0.006477 -0.004447 0.000000 0.000000 0.000000
# 2 -0.006477 0.039874 -0.008391 0.000000 0.000000 0.000000
# 3 -0.004447 -0.008391 0.009648 0.000000 0.000000 0.000000
# 4 0.000000 0.000000 0.000000 0.124817 0.000000 0.000000
# 5 0.000000 0.000000 0.000000 0.000000 0.034668 0.000000
# 6 0.000000 0.000000 0.000000 0.000000 0.000000 0.054057
#
#
# Mechanical properties :
#
#
# Convention : Reuss Voigt Hill
#
# Bulk Modulus (GPa) = 37.03526 66.97508 52.00517
# Shear Modulus (GPa) = 15.29980 21.99513 18.64747
#
# Velocity S-wave (km/s) = 2.93815 3.52286 3.24371
# Velocity P-wave (km/s) = 5.69272 7.37138 6.58576
#
# Compressibility (1/GPa) = 0.02700129
#
# Stress axis : x y z
#
# Youngs Moduli (GPa) = 62.08003 25.07888 103.64897
#
# Poissons Ratio (x) = 0.16243 0.46091
# Poissons Ratio (y) = 0.40208 0.86971
# Poissons Ratio (z) = 0.27606 0.21044
#
# Static dielectric constant tensor:
#      x y z
#    x 3.356430 0.000000 0.000000 
#    y 0.000000 2.823220 0.000000 
#    z 0.000000 0.000000 3.949020 
# 
# 
# High freq. dielectric constant tensor:
#      x y z
#    x 1.688820 0.000000 0.000000 
#    y 0.000000 1.625640 0.000000 
#    z 0.000000 0.000000 1.711360 
# 
# From -- ./inp_files/18281.got.cif
#   From: 2010.03.12/outbox.cif.g09.slc.cpg/sg35_10_cif.got.tgz:18281.got - 2010.04.14 02:02:04.
