data_PCOD8174375
_publ_section_title
;
Structure prediction by ZEFSAII (Michael W. Deem and Ramdas Pophale) SiO2 
 PCOD8174375
Probable space group: C M C 21
;
_chemical_formula_sum "Si O2"
_cell_formula_units_Z 64
_cell_length_a 8.985531
_cell_length_b 15.351428
_cell_length_c 23.970984
_cell_angle_alpha 90.000000
_cell_angle_beta 90.000000
_cell_angle_gamma 90.000000
_cell_volume 3306.575084
_symmetry_space_group_name_H-M "C M C 21"
_symmetry_group_IT_number 36
_symmetry_cell_setting 'orthorhombic'
loop_
_space_group_symop_operation_xyz
x,y,z
-x,-y,1/2+z
x,-y,1/2+z
-x,y,z
1/2+x,1/2+y,z
1/2-x,1/2-y,1/2+z
1/2+x,1/2-y,1/2+z
1/2-x,1/2+y,z
loop_
_atom_site_type_symbol
_atom_site_label
_atom_site_fract_x
_atom_site_fract_y
_atom_site_fract_z
Si Si1 0.332579 0.795088 0.592820
Si Si2 0.175447 0.630434 0.397467
Si Si3 0.676100 0.373260 0.778207
Si Si4 0.325639 0.974815 0.475716
Si Si5 0.670236 0.274869 0.211087
Si Si6 0.670426 0.225285 0.968884
Si Si7 0.175453 0.032295 0.705731
Si Si8 0.825562 0.029197 0.088722
O O1 0.500000 0.835791 0.593123
O O2 0.312519 0.728809 0.643949
O O3 0.309663 0.746430 0.533669
O O4 0.210813 0.869832 0.598850
O O5 0.251816 0.633551 0.338118
O O6 0.226240 0.540903 0.427410
O O7 0.223583 0.714826 0.432237
O O8 0.000000 0.633988 0.389438
O O9 0.500000 0.376097 0.784916
O O10 0.719093 0.289899 0.741640
O O11 0.740427 0.459435 0.747561
O O12 0.500000 0.980300 0.485437
O O13 0.279503 0.875706 0.460600
O O14 0.251088 0.006772 0.533035
O O15 0.500000 0.254226 0.228522
O O16 0.716589 0.372452 0.229099
O O17 0.500000 0.237852 0.949386
O O18 0.237917 0.021261 0.642936
O O19 0.000000 0.018979 0.702225
O O20 0.000000 0.016655 0.081221
#
# Coordination Sequence:
#
# PCOD8174375 Si02
#       8
#     8   8   8   8   8   8   8   8
#     4   9  18  33  57  85 121 156 187 229 288 348
#     4  11  24  41  61  85 114 153 199 243 287 343
#     4  11  23  42  60  82 118 154 195 244 289 340
#     4   9  21  40  58  83 120 155 190 234 288 347
#     4  10  20  37  60  86 116 154 193 235 287 344
#     4   9  19  37  59  86 118 154 191 233 287 343
#     4   9  20  36  57  86 117 150 189 237 287 340
#     4  10  18  32  58  87 120 152 190 237 285 339
#
# _framework density 19.355374999999999
#
# number of rings (size 3 to 8) (size 9 to 14) (size 15 to 20)
#    0.000    2.250    1.250    1.875    1.750    4.000 
#    0.000    5.000    0.000    0.000    0.000    0.000 
#    0.000    0.000    0.000    0.000    0.000    0.000 
#
# Total GULP energy -396763.405834 kJ/mol
# GULP energy per Si atom -12398.856432 kJ/mol
# Density = 1.931132 g / cm^3
# Si number density = 19.355375 Si / 1000 Ang^3
#
#
#
# Elastic Constant Matrix: (Units=GPa)
#
#
# Indices 1 2 3 4 5 6 
#
# 1 48.1006 31.5164 40.9840 0.0000 0.0000 0.0000
# 2 31.5164 113.2816 67.3568 0.0000 0.0000 0.0000
# 3 40.9840 67.3568 139.7176 0.0000 0.0000 0.0000
# 4 0.0000 0.0000 0.0000 17.5279 0.0000 0.0000
# 5 0.0000 0.0000 0.0000 0.0000 29.5162 0.0000
# 6 0.0000 0.0000 0.0000 0.0000 0.0000 27.6937
#
#
#
# Elastic Compliance Matrix: (Units=1/GPa)
#
#
# Indices 1 2 3 4 5 6 
#
# 1 0.029097 -0.004234 -0.006494 0.000000 0.000000 0.000000
# 2 -0.004234 0.012991 -0.005021 0.000000 0.000000 0.000000
# 3 -0.006494 -0.005021 0.011483 0.000000 0.000000 0.000000
# 4 0.000000 0.000000 0.000000 0.057052 0.000000 0.000000
# 5 0.000000 0.000000 0.000000 0.000000 0.033880 0.000000
# 6 0.000000 0.000000 0.000000 0.000000 0.000000 0.036109
#
#
# Mechanical properties :
#
#
# Convention : Reuss Voigt Hill
#
# Bulk Modulus (GPa) = 45.30391 64.53492 54.91942
# Shear Modulus (GPa) = 22.78247 25.69706 24.23976
#
# Velocity S-wave (km/s) = 3.43456 3.64764 3.54270
# Velocity P-wave (km/s) = 6.25982 7.15226 6.72087
#
# Compressibility (1/GPa) = 0.02207315
#
# Stress axis : x y z
#
# Youngs Moduli (GPa) = 34.36767 76.97722 87.08711
#
# Poissons Ratio (x) = 0.32591 0.56555
# Poissons Ratio (y) = 0.14551 0.43725
# Poissons Ratio (z) = 0.22319 0.38649
#
# Static dielectric constant tensor:
#      x y z
#    x 3.377740 0.000000 0.000000 
#    y 0.000000 3.577170 0.000000 
#    z 0.000000 0.000000 3.715450 
# 
# 
# High freq. dielectric constant tensor:
#      x y z
#    x 1.738820 0.000000 0.000000 
#    y 0.000000 1.751960 0.000000 
#    z 0.000000 0.000000 1.757380 
# 
# From -- ./inp_files/16566.got.cif
#   From: 2010.03.12/outbox.cif.g09.slc.cpg/sg36_9_cif.got.tgz:16566.got - 2010.04.14 02:13:53.
