data_PCOD8174798
_publ_section_title
;
Structure prediction by ZEFSAII (Michael W. Deem and Ramdas Pophale) SiO2 
 PCOD8174798
Probable space group: C M C 21
;
_chemical_formula_sum "Si O2"
_cell_formula_units_Z 64
_cell_length_a 15.866737
_cell_length_b 18.492825
_cell_length_c 10.118411
_cell_angle_alpha 90.000000
_cell_angle_beta 90.000000
_cell_angle_gamma 90.000000
_cell_volume 2968.952156
_symmetry_space_group_name_H-M "C M C 21"
_symmetry_group_IT_number 36
_symmetry_cell_setting 'orthorhombic'
loop_
_space_group_symop_operation_xyz
x,y,z
-x,-y,1/2+z
x,-y,1/2+z
-x,y,z
1/2+x,1/2+y,z
1/2-x,1/2-y,1/2+z
1/2+x,1/2-y,1/2+z
1/2-x,1/2+y,z
loop_
_atom_site_type_symbol
_atom_site_label
_atom_site_fract_x
_atom_site_fract_y
_atom_site_fract_z
Si Si1 0.314235 0.712917 0.816650
Si Si2 0.903292 0.345445 0.743671
Si Si3 0.314234 0.712917 0.114587
Si Si4 0.399262 0.948450 0.965618
Si Si5 0.402087 0.435230 0.618913
Si Si6 0.399130 0.887818 0.465618
Si Si7 0.902087 0.935230 0.312325
Si Si8 0.403292 0.845445 0.187566
O O1 0.394101 0.767128 0.810363
O O2 0.250000 0.750000 0.715618
O O3 0.345605 0.633959 0.772211
O O4 0.278242 0.710386 0.965618
O O5 0.863046 0.407581 0.836347
O O6 0.860445 0.349821 0.597071
O O7 0.000000 0.364209 0.723886
O O8 0.345605 0.633959 0.159026
O O9 0.394100 0.767129 0.120873
O O10 0.500000 0.944114 0.965616
O O11 0.366693 0.029912 0.965618
O O12 0.363047 0.907582 0.094892
O O13 0.500000 0.415800 0.641878
O O14 0.386839 0.456970 0.465619
O O15 0.374225 0.500000 0.715619
O O16 0.500000 0.883088 0.465618
O O17 0.360444 0.849821 0.334166
O O18 0.000000 0.915801 0.289359
O O19 0.500000 0.864209 0.207351
#
# Coordination Sequence:
#
# PCOD8174798 Si02
#       8
#     8   8   8   8   8   8   8   8
#     4  11  24  40  60  84 120 158 194 242 302 366
#     4  10  19  34  57  83 111 148 196 242 289 344
#     4  11  24  40  60  84 120 158 194 242 302 366
#     4   9  16  30  53  78 109 147 187 230 272 324
#     4   9  19  39  67  95 120 152 201 258 310 360
#     4   9  18  30  49  82 117 145 181 232 278 322
#     4   9  19  39  67  95 120 152 201 258 310 360
#     4  10  19  34  57  83 111 148 196 242 289 344
#
# _framework density 21.556428
#
# number of rings (size 3 to 8) (size 9 to 14) (size 15 to 20)
#    0.000    2.250    1.250    1.500    1.750    5.000 
#    0.000    2.500    0.000    0.000    0.000    0.000 
#    0.000    0.000    0.000    0.000    0.000    0.000 
#
# Total GULP energy -396618.262587 kJ/mol
# GULP energy per Si atom -12394.320706 kJ/mol
# Density = 2.150736 g / cm^3
# Si number density = 21.556428 Si / 1000 Ang^3
#
#
#
# Elastic Constant Matrix: (Units=GPa)
#
#
# Indices 1 2 3 4 5 6 
#
# 1 34.3665 33.0999 40.2999 0.0000 0.0000 0.0000
# 2 33.0999 158.7983 76.3835 0.0000 0.0000 0.0000
# 3 40.2999 76.3835 157.5805 0.0000 0.0000 0.0000
# 4 0.0000 0.0000 0.0000 45.3298 0.0000 0.0000
# 5 0.0000 0.0000 0.0000 0.0000 28.2639 0.0000
# 6 0.0000 0.0000 0.0000 0.0000 0.0000 23.5435
#
#
#
# Elastic Compliance Matrix: (Units=1/GPa)
#
#
# Indices 1 2 3 4 5 6 
#
# 1 0.044348 -0.004940 -0.008947 0.000000 0.000000 0.000000
# 2 -0.004940 0.008762 -0.002984 0.000000 0.000000 0.000000
# 3 -0.008947 -0.002984 0.010080 0.000000 0.000000 0.000000
# 4 0.000000 0.000000 0.000000 0.022061 0.000000 0.000000
# 5 0.000000 0.000000 0.000000 0.000000 0.035381 0.000000
# 6 0.000000 0.000000 0.000000 0.000000 0.000000 0.042475
#
#
# Mechanical properties :
#
#
# Convention : Reuss Voigt Hill
#
# Bulk Modulus (GPa) = 33.95762 72.25689 53.10725
# Shear Modulus (GPa) = 24.19372 32.82491 28.50932
#
# Velocity S-wave (km/s) = 3.35377 3.90647 3.64062
# Velocity P-wave (km/s) = 5.54835 7.34438 6.50862
#
# Compressibility (1/GPa) = 0.02944847
#
# Stress axis : x y z
#
# Youngs Moduli (GPa) = 22.54893 114.12482 99.20198
#
# Poissons Ratio (x) = 0.56381 0.88755
# Poissons Ratio (y) = 0.11140 0.29601
# Poissons Ratio (z) = 0.20174 0.34054
#
# Static dielectric constant tensor:
#      x y z
#    x 3.636030 0.000000 0.000000 
#    y 0.000000 4.026680 0.000000 
#    z 0.000000 0.000000 4.326420 
# 
# 
# High freq. dielectric constant tensor:
#      x y z
#    x 1.817600 0.000000 0.000000 
#    y 0.000000 1.847810 0.000000 
#    z 0.000000 0.000000 1.864000 
# 
# From -- ./inp_files/5339.got.cif
#   From: 2010.03.12/outbox.cif.g09.slc.cpg/sg36_3_cif.got.tgz:5339.got - 2010.04.14 02:13:53.
