data_PCOD8174187
_publ_section_title
;
Structure prediction by ZEFSAII (Michael W. Deem and Ramdas Pophale) SiO2 
 PCOD8174187
Probable space group: C M C 21
;
_chemical_formula_sum "Si O2"
_cell_formula_units_Z 64
_cell_length_a 9.073047
_cell_length_b 23.171467
_cell_length_c 17.655624
_cell_angle_alpha 90.000000
_cell_angle_beta 90.000000
_cell_angle_gamma 90.000000
_cell_volume 3711.844398
_symmetry_space_group_name_H-M "C M C 21"
_symmetry_group_IT_number 36
_symmetry_cell_setting 'orthorhombic'
loop_
_space_group_symop_operation_xyz
x,y,z
-x,-y,1/2+z
x,-y,1/2+z
-x,y,z
1/2+x,1/2+y,z
1/2-x,1/2-y,1/2+z
1/2+x,1/2-y,1/2+z
1/2-x,1/2+y,z
loop_
_atom_site_type_symbol
_atom_site_label
_atom_site_fract_x
_atom_site_fract_y
_atom_site_fract_z
Si Si1 0.827143 0.311491 0.973840
Si Si2 0.173927 0.371593 0.127294
Si Si3 0.331090 0.473004 0.357678
Si Si4 0.832924 0.136889 0.773979
Si Si5 0.662141 0.410520 0.907032
Si Si6 0.332934 0.476802 0.065117
Si Si7 0.325853 0.684039 0.938111
Si Si8 0.825911 0.577517 0.997179
O O1 0.771849 0.356564 0.909901
O O2 0.766014 0.248051 0.955950
O O3 0.000000 0.311571 0.967249
O O4 0.774883 0.331033 0.057443
O O5 0.228200 0.342373 0.205519
O O6 0.248644 0.434320 0.122242
O O7 0.000000 0.379254 0.127687
O O8 0.500000 0.465743 0.390191
O O9 0.316269 0.432825 0.283711
O O10 0.301551 0.541617 0.341216
O O11 0.210203 0.450728 0.416583
O O12 0.785777 0.169050 0.851225
O O13 0.000000 0.153260 0.752617
O O14 0.500000 0.384096 0.895461
O O15 0.671115 0.448377 0.982717
O O16 0.500000 0.485777 0.093760
O O17 0.249227 0.538498 0.062840
O O18 0.500000 0.677837 0.951886
O O19 0.242594 0.641880 0.996837
O O20 0.000000 0.580201 0.010742
#
# Coordination Sequence:
#
# PCOD8174187 Si02
#       8
#     8   8   8   8   8   8   8   8
#     4   9  18  31  47  67  92 124 161 199 236 278
#     4  10  19  30  46  71  98 119 149 198 248 288
#     4   8  15  28  44  63  89 121 152 179 218 278
#     4   9  17  30  48  67  89 121 159 195 236 291
#     4   8  14  25  43  66  89 112 143 185 224 261
#     4   9  16  28  45  64  89 121 150 176 220 281
#     4   9  18  33  49  65  90 127 168 199 228 279
#     4  10  17  25  42  69  94 113 142 189 236 268
#
# _framework density 17.242101000000002
#
# number of rings (size 3 to 8) (size 9 to 14) (size 15 to 20)
#    0.000    3.000    0.000    3.375    0.000    6.000 
#    0.000    0.000    0.000    1.500    0.000    8.750 
#    0.000    0.000    0.000    0.000    0.000    0.000 
#
# Total GULP energy -396515.429594 kJ/mol
# GULP energy per Si atom -12391.107175 kJ/mol
# Density = 1.720286 g / cm^3
# Si number density = 17.242101 Si / 1000 Ang^3
#
#
#
# Elastic Constant Matrix: (Units=GPa)
#
#
# Indices 1 2 3 4 5 6 
#
# 1 69.5414 44.7187 25.8748 0.0000 0.0000 0.0000
# 2 44.7187 140.2340 36.5045 0.0000 0.0000 0.0000
# 3 25.8748 36.5045 52.2522 0.0000 0.0000 0.0000
# 4 0.0000 0.0000 0.0000 14.9935 0.0000 0.0000
# 5 0.0000 0.0000 0.0000 0.0000 20.9770 0.0000
# 6 0.0000 0.0000 0.0000 0.0000 0.0000 25.7965
#
#
#
# Elastic Compliance Matrix: (Units=1/GPa)
#
#
# Indices 1 2 3 4 5 6 
#
# 1 0.019786 -0.004594 -0.006588 0.000000 0.000000 0.000000
# 2 -0.004594 0.009783 -0.004559 0.000000 0.000000 0.000000
# 3 -0.006588 -0.004559 0.025585 0.000000 0.000000 0.000000
# 4 0.000000 0.000000 0.000000 0.066695 0.000000 0.000000
# 5 0.000000 0.000000 0.000000 0.000000 0.047671 0.000000
# 6 0.000000 0.000000 0.000000 0.000000 0.000000 0.038765
#
#
# Mechanical properties :
#
#
# Convention : Reuss Voigt Hill
#
# Bulk Modulus (GPa) = 42.24659 52.91372 47.58016
# Shear Modulus (GPa) = 20.18902 22.68203 21.43553
#
# Velocity S-wave (km/s) = 3.42557 3.63092 3.52974
# Velocity P-wave (km/s) = 6.34045 6.95222 6.65337
#
# Compressibility (1/GPa) = 0.02367055
#
# Stress axis : x y z
#
# Youngs Moduli (GPa) = 50.54184 102.21898 39.08465
#
# Poissons Ratio (x) = 0.46964 0.25748
# Poissons Ratio (y) = 0.23221 0.17820
# Poissons Ratio (z) = 0.33296 0.46606
#
# Static dielectric constant tensor:
#      x y z
#    x 3.139020 0.000000 0.000000 
#    y 0.000000 3.486790 0.000000 
#    z 0.000000 0.000000 2.933290 
# 
# 
# High freq. dielectric constant tensor:
#      x y z
#    x 1.664000 0.000000 0.000000 
#    y 0.000000 1.660310 0.000000 
#    z 0.000000 0.000000 1.619790 
# 
# From -- ./inp_files/14005.got.cif
#   From: 2010.03.12/outbox.cif.g09.slc.cpg/sg36_8_cif.got.tgz:14005.got - 2010.04.14 02:13:53.
