data_PCOD8174307
_publ_section_title
;
Structure prediction by ZEFSAII (Michael W. Deem and Ramdas Pophale) SiO2 
 PCOD8174307
Probable space group: C M C 21
;
_chemical_formula_sum "Si O2"
_cell_formula_units_Z 64
_cell_length_a 8.896857
_cell_length_b 19.995688
_cell_length_c 20.019630
_cell_angle_alpha 90.000000
_cell_angle_beta 90.000000
_cell_angle_gamma 90.000000
_cell_volume 3561.467688
_symmetry_space_group_name_H-M "C M C 21"
_symmetry_group_IT_number 36
_symmetry_cell_setting 'orthorhombic'
loop_
_space_group_symop_operation_xyz
x,y,z
-x,-y,1/2+z
x,-y,1/2+z
-x,y,z
1/2+x,1/2+y,z
1/2-x,1/2-y,1/2+z
1/2+x,1/2-y,1/2+z
1/2-x,1/2+y,z
loop_
_atom_site_type_symbol
_atom_site_label
_atom_site_fract_x
_atom_site_fract_y
_atom_site_fract_z
Si Si1 0.176732 0.076931 0.049160
Si Si2 0.822574 0.977246 0.301435
Si Si3 0.174170 0.189982 0.950742
Si Si4 0.177724 0.970554 0.944882
Si Si5 0.822283 0.340181 0.313137
Si Si6 0.322604 0.206748 0.276746
Si Si7 0.327549 0.836686 0.924171
Si Si8 0.822156 0.908268 0.697952
O O1 0.240081 0.073729 0.124197
O O2 0.000000 0.066930 0.051874
O O3 0.217229 0.148765 0.016815
O O4 0.245223 0.017602 0.003392
O O5 0.737805 0.909266 0.282028
O O6 0.000000 0.964139 0.301689
O O7 0.764589 0.002953 0.373372
O O8 0.775587 0.031825 0.246675
O O9 0.274167 0.163401 0.890267
O O10 0.203067 0.268311 0.965130
O O11 0.000000 0.178457 0.929948
O O12 0.230775 0.895006 0.957534
O O13 0.000000 0.971782 0.945909
O O14 0.751590 0.279689 0.270550
O O15 0.000000 0.336805 0.307175
O O16 0.500000 0.214832 0.269612
O O17 0.277609 0.174567 0.347769
O O18 0.258182 0.160096 0.218908
O O19 0.500000 0.858315 0.927975
O O20 0.000000 0.895853 0.698734
#
# Coordination Sequence:
#
# PCOD8174307 Si02
#       8
#     8   8   8   8   8   8   8   8
#     4   9  18  34  55  76 104 143 181 214 264 326
#     4  10  19  33  53  78 108 141 178 219 269 319
#     4   9  17  34  54  75 106 143 175 213 271 324
#     4  10  18  31  53  77 104 139 174 214 263 317
#     4  11  21  32  53  82 107 134 179 228 267 312
#     4  10  20  35  54  77 108 141 173 219 276 325
#     4   9  18  30  50  77 103 131 168 215 262 307
#     4  10  20  35  56  80 106 142 184 222 262 322
#
# _framework density 17.970120000000001
#
# number of rings (size 3 to 8) (size 9 to 14) (size 15 to 20)
#    0.000    2.250    2.500    2.250    0.000    3.000 
#    0.000    2.500    0.000    3.000    0.000    0.000 
#    0.000    0.000    0.000    0.000    0.000    0.000 
#
# Total GULP energy -396818.083285 kJ/mol
# GULP energy per Si atom -12400.565103 kJ/mol
# Density = 1.792922 g / cm^3
# Si number density = 17.970120 Si / 1000 Ang^3
#
#
#
# Elastic Constant Matrix: (Units=GPa)
#
#
# Indices 1 2 3 4 5 6 
#
# 1 51.5996 41.3180 26.4347 0.0000 0.0000 0.0000
# 2 41.3180 148.3959 64.6873 0.0000 0.0000 0.0000
# 3 26.4347 64.6873 113.9455 0.0000 0.0000 0.0000
# 4 0.0000 0.0000 0.0000 27.6328 0.0000 0.0000
# 5 0.0000 0.0000 0.0000 0.0000 14.7096 0.0000
# 6 0.0000 0.0000 0.0000 0.0000 0.0000 33.5962
#
#
#
# Elastic Compliance Matrix: (Units=1/GPa)
#
#
# Indices 1 2 3 4 5 6 
#
# 1 0.025466 -0.006000 -0.002502 0.000000 0.000000 0.000000
# 2 -0.006000 0.010368 -0.004494 0.000000 0.000000 0.000000
# 3 -0.002502 -0.004494 0.011908 0.000000 0.000000 0.000000
# 4 0.000000 0.000000 0.000000 0.036189 0.000000 0.000000
# 5 0.000000 0.000000 0.000000 0.000000 0.067983 0.000000
# 6 0.000000 0.000000 0.000000 0.000000 0.000000 0.029765
#
#
# Mechanical properties :
#
#
# Convention : Reuss Voigt Hill
#
# Bulk Modulus (GPa) = 45.97608 64.31345 55.14477
# Shear Modulus (GPa) = 23.26431 27.28778 25.27604
#
# Velocity S-wave (km/s) = 3.60197 3.90103 3.75448
# Velocity P-wave (km/s) = 6.55280 7.49383 7.03906
#
# Compressibility (1/GPa) = 0.02175044
#
# Stress axis : x y z
#
# Youngs Moduli (GPa) = 39.26789 96.44701 83.97786
#
# Poissons Ratio (x) = 0.57868 0.21009
# Poissons Ratio (y) = 0.23561 0.37741
# Poissons Ratio (z) = 0.09824 0.43345
#
# Static dielectric constant tensor:
#      x y z
#    x 3.084920 0.000000 0.000000 
#    y 0.000000 3.500260 0.000000 
#    z 0.000000 0.000000 3.294590 
# 
# 
# High freq. dielectric constant tensor:
#      x y z
#    x 1.676850 0.000000 0.000000 
#    y 0.000000 1.711120 0.000000 
#    z 0.000000 0.000000 1.668310 
# 
# From -- ./inp_files/13928.got.cif
#   From: 2010.03.12/outbox.cif.g09.slc.cpg/sg36_7_cif.got.tgz:13928.got - 2010.04.14 02:13:53.
