data_PCOD8174462
_publ_section_title
;
Structure prediction by ZEFSAII (Michael W. Deem and Ramdas Pophale) SiO2 
 PCOD8174462
Probable space group: C M C 21
;
_chemical_formula_sum "Si O2"
_cell_formula_units_Z 64
_cell_length_a 13.564227
_cell_length_b 33.895590
_cell_length_c 9.420608
_cell_angle_alpha 90.000000
_cell_angle_beta 90.000000
_cell_angle_gamma 90.000000
_cell_volume 4331.289173
_symmetry_space_group_name_H-M "C M C 21"
_symmetry_group_IT_number 36
_symmetry_cell_setting 'orthorhombic'
loop_
_space_group_symop_operation_xyz
x,y,z
-x,-y,1/2+z
x,-y,1/2+z
-x,y,z
1/2+x,1/2+y,z
1/2-x,1/2-y,1/2+z
1/2+x,1/2-y,1/2+z
1/2-x,1/2+y,z
loop_
_atom_site_type_symbol
_atom_site_label
_atom_site_fract_x
_atom_site_fract_y
_atom_site_fract_z
Si Si1 0.616849 0.965052 0.077720
Si Si2 0.777491 0.689870 0.087263
Si Si3 0.885965 0.770017 0.084870
Si Si4 0.383149 0.965056 0.765568
Si Si5 0.722511 0.189873 0.755980
Si Si6 0.114051 0.376897 0.754886
Si Si7 0.114036 0.229980 0.258378
Si Si8 0.885951 0.376892 0.088352
O O1 0.500000 0.969572 0.070294
O O2 0.642367 0.921442 0.135530
O O3 0.663881 0.999996 0.171655
O O4 0.662377 0.970132 0.921645
O O5 0.854283 0.725109 0.114528
O O6 0.818551 0.651086 0.161308
O O7 0.672640 0.700325 0.156862
O O8 0.761535 0.681519 0.921621
O O9 0.827363 0.799671 0.186392
O O10 0.000000 0.774201 0.123299
O O11 0.864322 0.781214 0.921625
O O12 0.500000 0.969567 0.773001
O O13 0.357620 0.921449 0.707733
O O14 0.645718 0.225113 0.728715
O O15 0.681454 0.151091 0.681920
O O16 0.000000 0.368214 0.721051
O O17 0.134736 0.370515 0.921618
O O18 0.000000 0.225795 0.219949
O O19 0.000000 0.368204 0.122180
#
# Coordination Sequence:
#
# PCOD8174462 Si02
#       8
#     8   8   8   8   8   8   8   8
#     4   8  14  24  37  54  77 106 138 168 199 237
#     4  10  19  29  43  64  85 105 136 175 209 243
#     4   9  18  32  46  59  80 110 140 170 206 247
#     4   8  14  24  37  54  77 106 138 168 199 237
#     4  10  19  29  43  64  85 105 136 175 209 243
#     4   9  17  28  41  58  83 114 143 170 203 244
#     4   9  18  32  46  59  80 110 140 170 206 247
#     4   9  17  28  41  58  83 114 143 170 203 244
#
# _framework density 14.776202
#
# number of rings (size 3 to 8) (size 9 to 14) (size 15 to 20)
#    0.000    3.000    0.000    3.000    0.000    4.000 
#    0.000    2.500    0.000    0.000    0.000    0.000 
#    0.000    1.000    0.000    3.250    0.000    4.000 
#
# Total GULP energy -396702.070723 kJ/mol
# GULP energy per Si atom -12396.939710 kJ/mol
# Density = 1.474257 g / cm^3
# Si number density = 14.776202 Si / 1000 Ang^3
#
#
#
# Elastic Constant Matrix: (Units=GPa)
#
#
# Indices 1 2 3 4 5 6 
#
# 1 74.0095 50.0331 49.3500 0.0000 0.0000 0.0000
# 2 50.0331 117.7134 69.6584 0.0000 0.0000 0.0000
# 3 49.3500 69.6584 86.1505 0.0000 0.0000 0.0000
# 4 0.0000 0.0000 0.0000 29.5610 0.0000 0.0000
# 5 0.0000 0.0000 0.0000 0.0000 20.6079 0.0000
# 6 0.0000 0.0000 0.0000 0.0000 0.0000 18.6929
#
#
#
# Elastic Compliance Matrix: (Units=1/GPa)
#
#
# Indices 1 2 3 4 5 6 
#
# 1 0.022692 -0.003745 -0.009971 0.000000 0.000000 0.000000
# 2 -0.003745 0.016907 -0.011526 0.000000 0.000000 0.000000
# 3 -0.009971 -0.011526 0.026639 0.000000 0.000000 0.000000
# 4 0.000000 0.000000 0.000000 0.033828 0.000000 0.000000
# 5 0.000000 0.000000 0.000000 0.000000 0.048525 0.000000
# 6 0.000000 0.000000 0.000000 0.000000 0.000000 0.053496
#
#
# Mechanical properties :
#
#
# Convention : Reuss Voigt Hill
#
# Bulk Modulus (GPa) = 63.47036 68.43962 65.95499
# Shear Modulus (GPa) = 19.39324 21.02781 20.21052
#
# Velocity S-wave (km/s) = 3.62673 3.77647 3.70236
# Velocity P-wave (km/s) = 7.78365 8.08911 7.93785
#
# Compressibility (1/GPa) = 0.01575539
#
# Stress axis : x y z
#
# Youngs Moduli (GPa) = 44.06844 59.14626 37.53954
#
# Poissons Ratio (x) = 0.22148 0.37431
# Poissons Ratio (y) = 0.16502 0.43267
# Poissons Ratio (z) = 0.43941 0.68170
#
# Static dielectric constant tensor:
#      x y z
#    x 2.550890 0.000000 0.000000 
#    y 0.000000 2.893060 0.000000 
#    z 0.000000 0.000000 3.030150 
# 
# 
# High freq. dielectric constant tensor:
#      x y z
#    x 1.522340 0.000000 0.000000 
#    y 0.000000 1.563500 0.000000 
#    z 0.000000 0.000000 1.572770 
# 
# From -- ./inp_files/4437.got.cif
#   From: 2010.03.12/outbox.cif.g09.slc.cpg/sg36_3_cif.got.tgz:4437.got - 2010.04.14 02:13:53.
