data_PCOD8174469
_publ_section_title
;
Structure prediction by ZEFSAII (Michael W. Deem and Ramdas Pophale) SiO2 
 PCOD8174469
Probable space group: C M C 21
;
_chemical_formula_sum "Si O2"
_cell_formula_units_Z 64
_cell_length_a 14.538451
_cell_length_b 16.538257
_cell_length_c 15.336133
_cell_angle_alpha 90.000000
_cell_angle_beta 90.000000
_cell_angle_gamma 90.000000
_cell_volume 3687.429619
_symmetry_space_group_name_H-M "C M C 21"
_symmetry_group_IT_number 36
_symmetry_cell_setting 'orthorhombic'
loop_
_space_group_symop_operation_xyz
x,y,z
-x,-y,1/2+z
x,-y,1/2+z
-x,y,z
1/2+x,1/2+y,z
1/2-x,1/2-y,1/2+z
1/2+x,1/2-y,1/2+z
1/2-x,1/2+y,z
loop_
_atom_site_type_symbol
_atom_site_label
_atom_site_fract_x
_atom_site_fract_y
_atom_site_fract_z
Si Si1 0.603426 0.794748 0.771330
Si Si2 0.761600 0.321187 0.082107
Si Si3 0.228485 0.020968 0.242655
Si Si4 0.602753 0.067573 0.672752
Si Si5 0.398964 0.961692 0.502661
Si Si6 0.893729 0.125350 0.706165
Si Si7 0.301786 0.098115 0.403307
Si Si8 0.778509 0.355099 0.611325
O O1 0.500000 0.819317 0.753715
O O2 0.616351 0.697669 0.776802
O O3 0.633190 0.833231 0.862602
O O4 0.653857 0.833111 0.689454
O O5 0.847194 0.350308 0.141337
O O6 0.663966 0.348646 0.121435
O O7 0.774881 0.224403 0.078541
O O8 0.756780 0.361359 0.987364
O O9 0.224675 0.073668 0.331394
O O10 0.213039 0.075786 0.154887
O O11 0.329574 0.977859 0.240367
O O12 0.146362 0.956506 0.247487
O O13 0.500000 0.085366 0.712411
O O14 0.589962 0.012673 0.589429
O O15 0.500000 0.930100 0.473186
O O16 0.331601 0.887127 0.525312
O O17 0.357704 0.017169 0.426594
O O18 0.000000 0.112209 0.679462
#
# Coordination Sequence:
#
# PCOD8174469 Si02
#       8
#     8   8   8   8   8   8   8   8
#     4   9  17  30  50  73  93 122 164 201 237 284
#     4   9  18  32  49  71  98 128 162 199 241 287
#     4   9  18  31  49  72  94 122 161 202 246 289
#     4   8  15  29  48  69  94 124 156 191 236 290
#     4   9  16  26  43  68  95 123 155 194 240 285
#     4   9  18  35  55  69  89 128 173 205 228 274
#     4  10  19  29  46  71 102 125 147 200 258 294
#     4   9  17  30  48  67  95 132 166 198 232 283
#
# _framework density 17.356263999999999
#
# number of rings (size 3 to 8) (size 9 to 14) (size 15 to 20)
#    0.000    3.000    0.000    1.500    0.000    5.500 
#    0.000    1.250    0.000    1.500    0.000    0.875 
#    0.000    0.000    0.000    0.000    0.000    0.000 
#
# Total GULP energy -396543.613731 kJ/mol
# GULP energy per Si atom -12391.987929 kJ/mol
# Density = 1.731676 g / cm^3
# Si number density = 17.356264 Si / 1000 Ang^3
#
#
#
# Elastic Constant Matrix: (Units=GPa)
#
#
# Indices 1 2 3 4 5 6 
#
# 1 73.0435 33.9143 12.0179 0.0000 0.0000 0.0000
# 2 33.9143 110.4911 26.9980 0.0000 0.0000 0.0000
# 3 12.0179 26.9980 64.1411 0.0000 0.0000 0.0000
# 4 0.0000 0.0000 0.0000 26.7942 0.0000 0.0000
# 5 0.0000 0.0000 0.0000 0.0000 10.2611 0.0000
# 6 0.0000 0.0000 0.0000 0.0000 0.0000 21.9794
#
#
#
# Elastic Compliance Matrix: (Units=1/GPa)
#
#
# Indices 1 2 3 4 5 6 
#
# 1 0.016028 -0.004666 -0.001039 0.000000 0.000000 0.000000
# 2 -0.004666 0.011446 -0.003944 0.000000 0.000000 0.000000
# 3 -0.001039 -0.003944 0.017445 0.000000 0.000000 0.000000
# 4 0.000000 0.000000 0.000000 0.037321 0.000000 0.000000
# 5 0.000000 0.000000 0.000000 0.000000 0.097455 0.000000
# 6 0.000000 0.000000 0.000000 0.000000 0.000000 0.045497
#
#
# Mechanical properties :
#
#
# Convention : Reuss Voigt Hill
#
# Bulk Modulus (GPa) = 39.02877 43.72622 41.37750
# Shear Modulus (GPa) = 19.76043 23.45665 21.60854
#
# Velocity S-wave (km/s) = 3.37785 3.68024 3.53228
# Velocity P-wave (km/s) = 6.14401 6.58080 6.36615
#
# Compressibility (1/GPa) = 0.02562212
#
# Stress axis : x y z
#
# Youngs Moduli (GPa) = 62.39189 87.36517 57.32204
#
# Poissons Ratio (x) = 0.40762 0.05957
# Poissons Ratio (y) = 0.29110 0.22606
# Poissons Ratio (z) = 0.06484 0.34454
#
# Static dielectric constant tensor:
#      x y z
#    x 3.221390 0.000000 0.000000 
#    y 0.000000 3.524200 0.000000 
#    z 0.000000 0.000000 3.051890 
# 
# 
# High freq. dielectric constant tensor:
#      x y z
#    x 1.647270 0.000000 0.000000 
#    y 0.000000 1.676080 0.000000 
#    z 0.000000 0.000000 1.652390 
# 
# From -- ./inp_files/12331.got.cif
#   From: 2010.03.12/outbox.cif.g09.slc.cpg/sg36_7_cif.got.tgz:12331.got - 2010.04.14 02:13:53.
