data_PCOD8174760
_publ_section_title
;
Structure prediction by ZEFSAII (Michael W. Deem and Ramdas Pophale) SiO2 
 PCOD8174760
Probable space group: C M C 21
;
_chemical_formula_sum "Si O2"
_cell_formula_units_Z 64
_cell_length_a 9.116095
_cell_length_b 24.502326
_cell_length_c 14.557963
_cell_angle_alpha 90.000000
_cell_angle_beta 90.000000
_cell_angle_gamma 90.000000
_cell_volume 3251.747144
_symmetry_space_group_name_H-M "C M C 21"
_symmetry_group_IT_number 36
_symmetry_cell_setting 'orthorhombic'
loop_
_space_group_symop_operation_xyz
x,y,z
-x,-y,1/2+z
x,-y,1/2+z
-x,y,z
1/2+x,1/2+y,z
1/2-x,1/2-y,1/2+z
1/2+x,1/2-y,1/2+z
1/2-x,1/2+y,z
loop_
_atom_site_type_symbol
_atom_site_label
_atom_site_fract_x
_atom_site_fract_y
_atom_site_fract_z
Si Si1 0.673502 0.751229 0.970200
Si Si2 0.826327 0.024427 0.068681
Si Si3 0.825141 0.056571 0.869719
Si Si4 0.829229 0.667781 0.850107
Si Si5 0.663719 0.349964 0.887228
Si Si6 0.667620 0.807643 0.151786
Si Si7 0.338361 0.405286 0.079986
Si Si8 0.826578 0.946813 0.766696
O O1 0.500000 0.743706 0.960693
O O2 0.751394 0.695897 0.937317
O O3 0.726392 0.799960 0.903754
O O4 0.723258 0.762780 0.076794
O O5 0.779854 0.057482 0.159795
O O6 0.000000 0.018022 0.060826
O O7 0.759447 0.963922 0.079602
O O8 0.770327 0.052631 0.975689
O O9 0.745370 0.109613 0.828955
O O10 0.000000 0.063785 0.861906
O O11 0.769911 0.002813 0.814329
O O12 0.810259 0.707228 0.759406
O O13 0.000000 0.659286 0.872390
O O14 0.500000 0.328174 0.859306
O O15 0.734246 0.390943 0.811817
O O16 0.647454 0.386048 0.976728
O O17 0.500000 0.818015 0.127208
O O18 0.745557 0.865061 0.141250
O O19 0.500000 0.408976 0.125600
O O20 0.000000 0.946274 0.779782
#
# Coordination Sequence:
#
# PCOD8174760 Si02
#       8
#     8   8   8   8   8   8   8   8
#     4  10  21  39  60  81 104 137 182 230 274 323
#     4   9  16  27  47  78 111 143 178 215 260 316
#     4  10  19  34  55  81 113 147 184 224 265 320
#     4  11  23  40  58  80 111 145 181 225 279 332
#     4   9  16  30  52  77 106 138 175 221 268 314
#     4   9  20  37  57  81 107 139 181 225 275 329
#     4   9  15  27  51  80 107 137 179 225 261 304
#     4   9  16  28  50  80 111 144 180 217 262 318
#
# _framework density 19.681726999999999
#
# number of rings (size 3 to 8) (size 9 to 14) (size 15 to 20)
#    0.000    2.500    1.250    1.500    0.000    2.500 
#    2.250    1.250    0.000    1.500    0.000    0.000 
#    0.000    0.000    0.000    0.000    0.000    0.000 
#
# Total GULP energy -396550.769830 kJ/mol
# GULP energy per Si atom -12392.211557 kJ/mol
# Density = 1.963693 g / cm^3
# Si number density = 19.681727 Si / 1000 Ang^3
#
#
#
# Elastic Constant Matrix: (Units=GPa)
#
#
# Indices 1 2 3 4 5 6 
#
# 1 45.3797 10.5061 19.6855 0.0000 0.0000 0.0000
# 2 10.5061 32.4276 12.0506 0.0000 0.0000 0.0000
# 3 19.6855 12.0506 103.5550 0.0000 0.0000 0.0000
# 4 0.0000 0.0000 0.0000 24.7690 0.0000 0.0000
# 5 0.0000 0.0000 0.0000 0.0000 17.1921 0.0000
# 6 0.0000 0.0000 0.0000 0.0000 0.0000 15.2728
#
#
#
# Elastic Compliance Matrix: (Units=1/GPa)
#
#
# Indices 1 2 3 4 5 6 
#
# 1 0.025341 -0.006710 -0.004036 0.000000 0.000000 0.000000
# 2 -0.006710 0.034009 -0.002682 0.000000 0.000000 0.000000
# 3 -0.004036 -0.002682 0.010736 0.000000 0.000000 0.000000
# 4 0.000000 0.000000 0.000000 0.040373 0.000000 0.000000
# 5 0.000000 0.000000 0.000000 0.000000 0.058166 0.000000
# 6 0.000000 0.000000 0.000000 0.000000 0.000000 0.065476
#
#
# Mechanical properties :
#
#
# Convention : Reuss Voigt Hill
#
# Bulk Modulus (GPa) = 23.13281 29.53849 26.33565
# Shear Modulus (GPa) = 18.15758 20.72144 19.43951
#
# Velocity S-wave (km/s) = 3.04066 3.24825 3.14617
# Velocity P-wave (km/s) = 4.90983 5.39526 5.15826
#
# Compressibility (1/GPa) = 0.04322864
#
# Stress axis : x y z
#
# Youngs Moduli (GPa) = 39.46217 29.40436 93.14372
#
# Poissons Ratio (x) = 0.19730 0.37596
# Poissons Ratio (y) = 0.26479 0.24981
# Poissons Ratio (z) = 0.15928 0.07886
#
# Static dielectric constant tensor:
#      x y z
#    x 3.249090 0.000000 0.000000 
#    y 0.000000 3.494680 0.000000 
#    z 0.000000 0.000000 3.823070 
# 
# 
# High freq. dielectric constant tensor:
#      x y z
#    x 1.726530 0.000000 0.000000 
#    y 0.000000 1.756440 0.000000 
#    z 0.000000 0.000000 1.777180 
# 
# From -- ./inp_files/10906.got.cif
#   From: 2010.03.12/outbox.cif.g09.slc.cpg/sg36_6_cif.got.tgz:10906.got - 2010.04.14 02:13:53.
