data_PCOD8174196
_publ_section_title
;
Structure prediction by ZEFSAII (Michael W. Deem and Ramdas Pophale) SiO2 
 PCOD8174196
Probable space group: C M C 21
;
_chemical_formula_sum "Si O2"
_cell_formula_units_Z 64
_cell_length_a 8.803421
_cell_length_b 19.070172
_cell_length_c 22.004283
_cell_angle_alpha 90.000000
_cell_angle_beta 90.000000
_cell_angle_gamma 90.000000
_cell_volume 3694.139600
_symmetry_space_group_name_H-M "C M C 21"
_symmetry_group_IT_number 36
_symmetry_cell_setting 'orthorhombic'
loop_
_space_group_symop_operation_xyz
x,y,z
-x,-y,1/2+z
x,-y,1/2+z
-x,y,z
1/2+x,1/2+y,z
1/2-x,1/2-y,1/2+z
1/2+x,1/2-y,1/2+z
1/2-x,1/2+y,z
loop_
_atom_site_type_symbol
_atom_site_label
_atom_site_fract_x
_atom_site_fract_y
_atom_site_fract_z
Si Si1 0.175102 0.383797 0.031420
Si Si2 0.179630 0.018964 0.065449
Si Si3 0.322126 0.656661 0.415990
Si Si4 0.677225 0.101176 0.790407
Si Si5 0.324775 0.929711 0.157014
Si Si6 0.323907 0.889466 0.476516
Si Si7 0.179269 0.793755 0.382535
Si Si8 0.172838 0.486470 0.882860
O O1 0.243947 0.461639 0.019981
O O2 0.193695 0.368886 0.104303
O O3 0.000000 0.383325 0.011420
O O4 0.266638 0.332840 0.986335
O O5 0.233077 0.999463 0.134412
O O6 0.000000 0.016866 0.060838
O O7 0.243268 0.093699 0.041517
O O8 0.500000 0.668632 0.412624
O O9 0.239909 0.714638 0.374299
O O10 0.281703 0.579999 0.390350
O O11 0.500000 0.121458 0.795248
O O12 0.736587 0.099273 0.720752
O O13 0.770658 0.161082 0.824478
O O14 0.704629 0.023635 0.817908
O O15 0.500000 0.952061 0.163555
O O16 0.500000 0.874021 0.487613
O O17 0.248335 0.821780 0.445955
O O18 0.293369 0.953724 0.431670
O O19 0.000000 0.794634 0.387050
O O20 0.000000 0.459706 0.887672
#
# Coordination Sequence:
#
# PCOD8174196 Si02
#       8
#     8   8   8   8   8   8   8   8
#     4   9  17  30  49  74 100 129 163 205 251 295
#     4  10  17  26  46  76 102 127 161 205 248 293
#     4  12  22  33  50  74 104 136 173 211 255 309
#     4   9  18  35  54  75 102 135 172 207 253 307
#     4   8  16  30  50  74 101 133 167 208 253 301
#     4  10  18  32  51  73 102 132 163 202 252 303
#     4  11  23  35  50  73 105 138 171 212 260 309
#     4   9  17  29  50  73  98 128 162 204 246 293
#
# _framework density 17.324736999999999
#
# number of rings (size 3 to 8) (size 9 to 14) (size 15 to 20)
#    0.750    1.500    1.250    4.500    0.000    2.500 
#    0.000    0.000    0.000    1.500    0.000    7.000 
#    0.000    0.000    0.000    0.000    0.000    0.000 
#
# Total GULP energy -396472.516957 kJ/mol
# GULP energy per Si atom -12389.766155 kJ/mol
# Density = 1.728531 g / cm^3
# Si number density = 17.324737 Si / 1000 Ang^3
#
#
#
# Elastic Constant Matrix: (Units=GPa)
#
#
# Indices 1 2 3 4 5 6 
#
# 1 93.9318 26.6070 13.2076 0.0000 0.0000 0.0000
# 2 26.6070 59.9364 21.7936 0.0000 0.0000 0.0000
# 3 13.2076 21.7936 74.6266 0.0000 0.0000 0.0000
# 4 0.0000 0.0000 0.0000 17.0025 0.0000 0.0000
# 5 0.0000 0.0000 0.0000 0.0000 22.9759 0.0000
# 6 0.0000 0.0000 0.0000 0.0000 0.0000 26.5377
#
#
#
# Elastic Compliance Matrix: (Units=1/GPa)
#
#
# Indices 1 2 3 4 5 6 
#
# 1 0.012205 -0.005183 -0.000646 0.000000 0.000000 0.000000
# 2 -0.005183 0.020868 -0.005177 0.000000 0.000000 0.000000
# 3 -0.000646 -0.005177 0.015026 0.000000 0.000000 0.000000
# 4 0.000000 0.000000 0.000000 0.058815 0.000000 0.000000
# 5 0.000000 0.000000 0.000000 0.000000 0.043524 0.000000
# 6 0.000000 0.000000 0.000000 0.000000 0.000000 0.037682
#
#
# Mechanical properties :
#
#
# Convention : Reuss Voigt Hill
#
# Bulk Modulus (GPa) = 38.33417 39.07902 38.70660
# Shear Modulus (GPa) = 22.84904 24.42901 23.63902
#
# Velocity S-wave (km/s) = 3.63556 3.75916 3.69788
# Velocity P-wave (km/s) = 6.30856 6.43797 6.37359
#
# Compressibility (1/GPa) = 0.02608639
#
# Stress axis : x y z
#
# Youngs Moduli (GPa) = 81.93325 47.92133 66.55018
#
# Poissons Ratio (x) = 0.24838 0.04302
# Poissons Ratio (y) = 0.42466 0.34451
# Poissons Ratio (z) = 0.05297 0.24808
#
# Static dielectric constant tensor:
#      x y z
#    x 3.149020 0.000000 0.000000 
#    y 0.000000 3.005050 0.000000 
#    z 0.000000 0.000000 3.309240 
# 
# 
# High freq. dielectric constant tensor:
#      x y z
#    x 1.675610 0.000000 0.000000 
#    y 0.000000 1.635470 0.000000 
#    z 0.000000 0.000000 1.655150 
# 
# From -- ./inp_files/16720.got.cif
#   From: 2010.03.12/outbox.cif.g09.slc.cpg/sg36_9_cif.got.tgz:16720.got - 2010.04.14 02:13:53.
