data_PCOD8174757
_publ_section_title
;
Structure prediction by ZEFSAII (Michael W. Deem and Ramdas Pophale) SiO2 
 PCOD8174757
Probable space group: C M C 21
;
_chemical_formula_sum "Si O2"
_cell_formula_units_Z 64
_cell_length_a 27.359676
_cell_length_b 25.045976
_cell_length_c 5.077382
_cell_angle_alpha 90.000000
_cell_angle_beta 90.000000
_cell_angle_gamma 90.000000
_cell_volume 3479.274941
_symmetry_space_group_name_H-M "C M C 21"
_symmetry_group_IT_number 36
_symmetry_cell_setting 'orthorhombic'
loop_
_space_group_symop_operation_xyz
x,y,z
-x,-y,1/2+z
x,-y,1/2+z
-x,y,z
1/2+x,1/2+y,z
1/2-x,1/2-y,1/2+z
1/2+x,1/2-y,1/2+z
1/2-x,1/2+y,z
loop_
_atom_site_type_symbol
_atom_site_label
_atom_site_fract_x
_atom_site_fract_y
_atom_site_fract_z
Si Si1 0.670441 0.024559 0.405900
Si Si2 0.847356 0.639961 0.631232
Si Si3 0.945546 0.760096 0.105376
Si Si4 0.298788 0.353510 0.615900
Si Si5 0.805085 0.307201 0.637687
Si Si6 0.780636 0.974337 0.759254
Si Si7 0.945853 0.689296 0.606793
Si Si8 0.654173 0.309453 0.103716
O O1 0.669432 0.083531 0.520708
O O2 0.725407 0.007005 0.327932
O O3 0.644591 0.984758 0.621312
O O4 0.827714 0.683581 0.425956
O O5 0.906255 0.642648 0.645786
O O6 0.825403 0.651257 0.919522
O O7 0.940595 0.712573 0.314607
O O8 0.903810 0.803897 0.160347
O O9 0.000000 0.785967 0.123566
O O10 0.936082 0.736290 0.815981
O O11 0.253071 0.313768 0.652008
O O12 0.281787 0.413879 0.660382
O O13 0.321276 0.345472 0.328042
O O14 0.339975 0.340126 0.829456
O O15 0.819208 0.247197 0.566342
O O16 0.806471 0.012705 0.539503
O O17 0.000000 0.664805 0.649312
#
# Coordination Sequence:
#
# PCOD8174757 Si02
#       8
#     8   8   8   8   8   8   8   8
#     4  10  21  34  53  75  99 135 184 239 279 308
#     4  12  20  35  56  75 107 137 190 226 268 327
#     4  10  20  36  56  78 105 140 181 224 260 307
#     4  12  24  36  53  80 113 154 179 213 267 322
#     4  12  23  35  52  79 114 153 179 210 256 326
#     4  10  21  37  55  75 103 140 188 231 262 302
#     4  10  19  34  55  77 100 136 183 230 273 313
#     4  12  22  37  53  79 119 147 179 211 263 327
#
# _framework density 18.394638
#
# number of rings (size 3 to 8) (size 9 to 14) (size 15 to 20)
#    0.000    1.000    3.750    4.500    3.500    0.000 
#    0.000    0.000    0.000    0.750    0.000    0.000 
#    0.000   10.000    0.000    0.000    0.000    0.000 
#
# Total GULP energy -396665.649647 kJ/mol
# GULP energy per Si atom -12395.801551 kJ/mol
# Density = 1.835277 g / cm^3
# Si number density = 18.394638 Si / 1000 Ang^3
#
#
#
# Elastic Constant Matrix: (Units=GPa)
#
#
# Indices 1 2 3 4 5 6 
#
# 1 86.0700 17.0920 23.6287 0.0000 0.0000 0.0000
# 2 17.0920 50.8126 27.5250 0.0000 0.0000 0.0000
# 3 23.6287 27.5250 109.6357 0.0000 0.0000 0.0000
# 4 0.0000 0.0000 0.0000 31.8657 0.0000 0.0000
# 5 0.0000 0.0000 0.0000 0.0000 22.1409 0.0000
# 6 0.0000 0.0000 0.0000 0.0000 0.0000 13.6204
#
#
#
# Elastic Compliance Matrix: (Units=1/GPa)
#
#
# Indices 1 2 3 4 5 6 
#
# 1 0.012797 -0.003253 -0.001941 0.000000 0.000000 0.000000
# 2 -0.003253 0.023605 -0.005225 0.000000 0.000000 0.000000
# 3 -0.001941 -0.005225 0.010851 0.000000 0.000000 0.000000
# 4 0.000000 0.000000 0.000000 0.031382 0.000000 0.000000
# 5 0.000000 0.000000 0.000000 0.000000 0.045165 0.000000
# 6 0.000000 0.000000 0.000000 0.000000 0.000000 0.073419
#
#
# Mechanical properties :
#
#
# Convention : Reuss Voigt Hill
#
# Bulk Modulus (GPa) = 37.85804 42.55663 40.20733
# Shear Modulus (GPa) = 22.03964 25.41023 23.72494
#
# Velocity S-wave (km/s) = 3.46519 3.72074 3.59524
# Velocity P-wave (km/s) = 6.05275 6.45323 6.25619
#
# Compressibility (1/GPa) = 0.02641447
#
# Stress axis : x y z
#
# Youngs Moduli (GPa) = 78.14073 42.36419 92.15457
#
# Poissons Ratio (x) = 0.13781 0.17891
# Poissons Ratio (y) = 0.25420 0.48152
# Poissons Ratio (z) = 0.15170 0.22136
#
# Static dielectric constant tensor:
#      x y z
#    x 3.375270 0.000000 0.000000 
#    y 0.000000 3.048150 0.000000 
#    z 0.000000 0.000000 4.026030 
# 
# 
# High freq. dielectric constant tensor:
#      x y z
#    x 1.682260 0.000000 0.000000 
#    y 0.000000 1.679630 0.000000 
#    z 0.000000 0.000000 1.751740 
# 
# From -- ./inp_files/1810.got.cif
#   From: 2010.03.12/outbox.cif.g09.slc.cpg/sg36_1_cif.got.tgz:1810.got - 2010.04.14 02:13:53.
