data_PCOD8174502
_publ_section_title
;
Structure prediction by ZEFSAII (Michael W. Deem and Ramdas Pophale) SiO2 
 PCOD8174502
Probable space group: C M C 21
;
_chemical_formula_sum "Si O2"
_cell_formula_units_Z 64
_cell_length_a 9.775678
_cell_length_b 24.772433
_cell_length_c 14.593857
_cell_angle_alpha 90.000000
_cell_angle_beta 90.000000
_cell_angle_gamma 90.000000
_cell_volume 3534.155359
_symmetry_space_group_name_H-M "C M C 21"
_symmetry_group_IT_number 36
_symmetry_cell_setting 'orthorhombic'
loop_
_space_group_symop_operation_xyz
x,y,z
-x,-y,1/2+z
x,-y,1/2+z
-x,y,z
1/2+x,1/2+y,z
1/2-x,1/2-y,1/2+z
1/2+x,1/2-y,1/2+z
1/2-x,1/2+y,z
loop_
_atom_site_type_symbol
_atom_site_label
_atom_site_fract_x
_atom_site_fract_y
_atom_site_fract_z
Si Si1 0.344516 0.720445 0.032230
Si Si2 0.657704 0.568220 0.469257
Si Si3 0.340341 0.581026 0.269038
Si Si4 0.648933 0.155742 0.533880
Si Si5 0.346293 0.890273 0.227069
Si Si6 0.160178 0.701804 0.866682
Si Si7 0.838239 0.017458 0.655189
Si Si8 0.837306 0.799496 0.738304
O O1 0.500000 0.697922 0.022705
O O2 0.339873 0.782791 0.006344
O O3 0.287629 0.711338 0.134625
O O4 0.243781 0.692498 0.960091
O O5 0.500000 0.582430 0.481455
O O6 0.690340 0.549755 0.365370
O O7 0.734293 0.624379 0.480953
O O8 0.701356 0.524682 0.547209
O O9 0.500000 0.589637 0.255811
O O10 0.287750 0.541899 0.187384
O O11 0.276216 0.641296 0.265806
O O12 0.500000 0.132478 0.505122
O O13 0.667161 0.150723 0.642590
O O14 0.500000 0.914585 0.232530
O O15 0.313042 0.854379 0.314974
O O16 0.238446 0.938644 0.217440
O O17 0.216943 0.753033 0.807515
O O18 0.000000 0.709902 0.888620
O O19 0.000000 0.024752 0.671608
O O20 0.000000 0.797498 0.741483
#
# Coordination Sequence:
#
# PCOD8174502 Si02
#       8
#     8   8   8   8   8   8   8   8
#     4  10  19  31  48  75 104 131 166 206 248 300
#     4   9  17  30  50  75  97 124 169 211 244 287
#     4   9  17  31  50  73 101 132 166 203 247 300
#     4   9  16  29  49  71  98 128 162 203 243 288
#     4   9  17  32  52  70  94 130 166 199 241 298
#     4  10  19  33  53  75 101 135 169 201 247 307
#     4   9  18  32  50  74 100 124 160 214 254 280
#     4   9  17  32  52  73 101 138 170 199 248 312
#
# _framework density 18.108995
#
# number of rings (size 3 to 8) (size 9 to 14) (size 15 to 20)
#    0.000    2.750    1.250    0.750    0.000    2.000 
#    2.250    1.250    0.000    2.250    0.000    0.000 
#    0.000    0.000    0.000    0.000    0.000    0.000 
#
# Total GULP energy -396555.044478 kJ/mol
# GULP energy per Si atom -12392.345140 kJ/mol
# Density = 1.806778 g / cm^3
# Si number density = 18.108995 Si / 1000 Ang^3
#
#
#
# Elastic Constant Matrix: (Units=GPa)
#
#
# Indices 1 2 3 4 5 6 
#
# 1 33.1774 10.9478 27.5988 0.0000 0.0000 0.0000
# 2 10.9478 64.3241 27.6929 0.0000 0.0000 0.0000
# 3 27.5988 27.6929 98.4096 0.0000 0.0000 0.0000
# 4 0.0000 0.0000 0.0000 23.6966 0.0000 0.0000
# 5 0.0000 0.0000 0.0000 0.0000 23.7863 0.0000
# 6 0.0000 0.0000 0.0000 0.0000 0.0000 18.9487
#
#
#
# Elastic Compliance Matrix: (Units=1/GPa)
#
#
# Indices 1 2 3 4 5 6 
#
# 1 0.039591 -0.002228 -0.010476 0.000000 0.000000 0.000000
# 2 -0.002228 0.017815 -0.004388 0.000000 0.000000 0.000000
# 3 -0.010476 -0.004388 0.014335 0.000000 0.000000 0.000000
# 4 0.000000 0.000000 0.000000 0.042200 0.000000 0.000000
# 5 0.000000 0.000000 0.000000 0.000000 0.042041 0.000000
# 6 0.000000 0.000000 0.000000 0.000000 0.000000 0.052774
#
#
# Mechanical properties :
#
#
# Convention : Reuss Voigt Hill
#
# Bulk Modulus (GPa) = 26.62755 36.48777 31.55766
# Shear Modulus (GPa) = 19.57263 21.93110 20.75186
#
# Velocity S-wave (km/s) = 3.29115 3.48381 3.38885
# Velocity P-wave (km/s) = 5.40169 6.03119 5.72510
#
# Compressibility (1/GPa) = 0.03755509
#
# Stress axis : x y z
#
# Youngs Moduli (GPa) = 25.25833 56.13337 69.76159
#
# Poissons Ratio (x) = 0.12507 0.73084
# Poissons Ratio (y) = 0.05628 0.30613
# Poissons Ratio (z) = 0.26461 0.24633
#
# Static dielectric constant tensor:
#      x y z
#    x 3.143640 0.000000 0.000000 
#    y 0.000000 3.305840 0.000000 
#    z 0.000000 0.000000 3.473700 
# 
# 
# High freq. dielectric constant tensor:
#      x y z
#    x 1.671220 0.000000 0.000000 
#    y 0.000000 1.686070 0.000000 
#    z 0.000000 0.000000 1.705940 
# 
# From -- ./inp_files/8093.got.cif
#   From: 2010.03.12/outbox.cif.g09.slc.cpg/sg36_5_cif.got.tgz:8093.got - 2010.04.14 02:13:53.
