data_PCOD8174045
_publ_section_title
;
Structure prediction by ZEFSAII (Michael W. Deem and Ramdas Pophale) SiO2 
 PCOD8174045
Probable space group: C M M 2
;
_chemical_formula_sum "Si O2"
_cell_formula_units_Z 34
_cell_length_a 14.943164
_cell_length_b 10.849868
_cell_length_c 10.869829
_cell_angle_alpha 90.000000
_cell_angle_beta 90.000000
_cell_angle_gamma 90.000000
_cell_volume 1762.340125
_symmetry_space_group_name_H-M "C M M 2"
_symmetry_group_IT_number 35
_symmetry_cell_setting 'orthorhombic'
loop_
_space_group_symop_operation_xyz
x,y,z
-x,-y,z
-x,y,z
x,-y,z
1/2+x,1/2+y,z
1/2-x,1/2-y,z
1/2-x,1/2+y,z
1/2+x,1/2-y,z
loop_
_atom_site_type_symbol
_atom_site_label
_atom_site_fract_x
_atom_site_fract_y
_atom_site_fract_z
Si Si1 0.000000 0.500000 0.113030
Si Si2 0.606610 0.000000 0.550617
Si Si3 0.750000 0.750000 0.324911
Si Si4 0.824591 0.500000 0.275666
Si Si5 0.850167 0.730646 0.715453
Si Si6 0.898184 0.139549 0.487561
Si Si7 0.500000 0.862312 0.877292
O O1 0.087000 0.500000 0.195097
O O2 0.000000 0.377881 0.025190
O O3 0.654202 0.000000 0.419480
O O4 0.642130 0.117343 0.622806
O O5 0.500000 0.000000 0.535924
O O6 0.768654 0.625819 0.244453
O O7 0.837014 0.769168 0.409336
O O8 0.750000 0.750000 0.765050
O O9 0.880969 0.847640 0.634240
O O10 0.912302 0.712045 0.834696
O O11 0.000000 0.175848 0.456880
O O12 0.877029 0.000000 0.449256
O O13 0.500000 0.000000 0.814644
#
# Coordination Sequence:
#
# PCOD8174045 Si02
#       7
#     2   4   4   4   8   8   4
#     4  10  26  48  70  84 114 164 254 280 302 358
#     4  12  19  34  58  92 125 161 204 248 318 383
#     4  12  24  38  62 100 138 168 212 254 330 402
#     4  12  24  41  65  95 127 174 213 279 316 379
#     4  12  21  33  63  91 128 159 204 261 323 390
#     4  11  22  34  52  92 147 170 193 243 323 413
#     4  10  22  45  61  85 115 164 221 280 306 365
#
# _framework density 19.292529999999999
#
# number of rings (size 3 to 8) (size 9 to 14) (size 15 to 20)
#    0.353    0.235    8.824    0.000    3.294    0.000 
#    2.118    0.000    0.000    0.000    3.059    0.000 
#    0.000    0.000    0.000    0.000    0.000    0.000 
#
# Total GULP energy -210759.246424 kJ/mol
# GULP energy per Si atom -12397.602731 kJ/mol
# Density = 1.924862 g / cm^3
# Si number density = 19.292530 Si / 1000 Ang^3
#
#
#
# Elastic Constant Matrix: (Units=GPa)
#
#
# Indices 1 2 3 4 5 6 
#
# 1 138.9226 52.4219 25.3758 0.0000 0.0000 0.0000
# 2 52.4219 92.4470 16.4212 0.0000 0.0000 0.0000
# 3 25.3758 16.4212 61.5115 0.0000 0.0000 0.0000
# 4 0.0000 0.0000 0.0000 19.7550 0.0000 0.0000
# 5 0.0000 0.0000 0.0000 0.0000 -8.4268 0.0000
# 6 0.0000 0.0000 0.0000 0.0000 0.0000 33.1540
#
#
#
# Elastic Compliance Matrix: (Units=1/GPa)
#
#
# Indices 1 2 3 4 5 6 
#
# 1 0.009543 -0.004946 -0.002616 0.000000 0.000000 0.000000
# 2 -0.004946 0.013919 -0.001675 0.000000 0.000000 0.000000
# 3 -0.002616 -0.001675 0.017784 0.000000 0.000000 0.000000
# 4 0.000000 0.000000 0.000000 0.050620 0.000000 0.000000
# 5 0.000000 0.000000 0.000000 0.000000 -0.118669 0.000000
# 6 0.000000 0.000000 0.000000 0.000000 0.000000 0.030162
#
#
# Mechanical properties :
#
#
# Convention : Reuss Voigt Hill
#
# Bulk Modulus (GPa) = 43.91784 53.47986 48.69885
# Shear Modulus (GPa) = 169.92099 22.14059 96.03079
#
# Velocity S-wave (km/s) = 9.39507 3.39134 7.06288
# Velocity P-wave (km/s) = 11.85341 6.56624 9.58172
#
# Compressibility (1/GPa) = 0.02276979
#
# Stress axis : x y z
#
# Youngs Moduli (GPa) = 104.79283 71.84191 56.23142
#
# Poissons Ratio (x) = 0.35536 0.14711
# Poissons Ratio (y) = 0.51835 0.09421
# Poissons Ratio (z) = 0.27416 0.12036
#
# Static dielectric constant tensor:
#      x y z
#    x 3.687390 0.000000 0.000000 
#    y 0.000000 3.782540 0.000000 
#    z 0.000000 0.000000 3.078900 
# 
# 
# High freq. dielectric constant tensor:
#      x y z
#    x 1.767780 0.000000 0.000000 
#    y 0.000000 1.759420 0.000000 
#    z 0.000000 0.000000 1.696820 
# 
# From -- ./inp_files/12140.got.cif
#   From: 2010.03.12/outbox.cif.g09.slc.cpg/sg35_7_cif.got.tgz:12140.got - 2010.04.14 02:02:04.
