data_PCOD8174545
_publ_section_title
;
Structure prediction by ZEFSAII (Michael W. Deem and Ramdas Pophale) SiO2 
 PCOD8174545
Probable space group: C M C 21
;
_chemical_formula_sum "Si O2"
_cell_formula_units_Z 64
_cell_length_a 8.777454
_cell_length_b 23.032222
_cell_length_c 16.238041
_cell_angle_alpha 90.000000
_cell_angle_beta 90.000000
_cell_angle_gamma 90.000000
_cell_volume 3282.751691
_symmetry_space_group_name_H-M "C M C 21"
_symmetry_group_IT_number 36
_symmetry_cell_setting 'orthorhombic'
loop_
_space_group_symop_operation_xyz
x,y,z
-x,-y,1/2+z
x,-y,1/2+z
-x,y,z
1/2+x,1/2+y,z
1/2-x,1/2-y,1/2+z
1/2+x,1/2-y,1/2+z
1/2-x,1/2+y,z
loop_
_atom_site_type_symbol
_atom_site_label
_atom_site_fract_x
_atom_site_fract_y
_atom_site_fract_z
Si Si1 0.319967 0.840855 0.598440
Si Si2 0.682123 0.030219 0.131620
Si Si3 0.174116 0.224166 0.660858
Si Si4 0.818445 0.013909 0.802593
Si Si5 0.668082 0.717197 0.950558
Si Si6 0.330773 0.358228 0.290778
Si Si7 0.672601 0.327855 0.980978
Si Si8 0.681148 0.540281 0.477396
O O1 0.500000 0.842374 0.603560
O O2 0.254747 0.904192 0.618832
O O3 0.256510 0.789795 0.659621
O O4 0.276893 0.821005 0.507390
O O5 0.500000 0.026742 0.130984
O O6 0.743145 0.013522 0.221621
O O7 0.744104 0.991350 0.056226
O O8 0.260674 0.180546 0.723324
O O9 0.186257 0.195166 0.572777
O O10 0.000000 0.229541 0.690509
O O11 0.753622 0.079693 0.806789
O O12 0.000000 0.008559 0.795311
O O13 0.765335 0.985520 0.889268
O O14 0.500000 0.723979 0.990333
O O15 0.657731 0.680191 0.869948
O O16 0.731397 0.781506 0.927558
O O17 0.500000 0.373018 0.256944
O O18 0.500000 0.327681 0.948432
O O19 0.737970 0.392990 0.976385
O O20 0.500000 0.535559 0.488956
#
# Coordination Sequence:
#
# PCOD8174545 Si02
#       8
#     8   8   8   8   8   8   8   8
#     4   9  19  35  52  72 103 143 181 216 267 333
#     4  11  23  37  56  83 115 150 188 237 292 336
#     4   8  14  28  50  70  92 129 172 209 253 320
#     4  10  21  37  57  82 111 146 193 239 279 336
#     4  10  19  31  53  82 106 132 173 226 274 322
#     4   9  17  30  50  76 102 131 172 221 270 318
#     4   9  18  34  54  75 103 140 178 217 273 336
#     4  10  21  38  60  82 110 153 195 231 276 337
#
# _framework density 19.495839
#
# number of rings (size 3 to 8) (size 9 to 14) (size 15 to 20)
#    0.000    2.500    0.000    3.000    0.000    6.000 
#    0.000    2.500    0.000    6.000    0.000    0.000 
#    0.000    0.000    0.000    0.000    0.000    0.000 
#
# Total GULP energy -396425.675608 kJ/mol
# GULP energy per Si atom -12388.302363 kJ/mol
# Density = 1.945147 g / cm^3
# Si number density = 19.495839 Si / 1000 Ang^3
#
#
#
# Elastic Constant Matrix: (Units=GPa)
#
#
# Indices 1 2 3 4 5 6 
#
# 1 22.5440 37.6371 22.3433 0.0000 0.0000 0.0000
# 2 37.6371 190.3560 54.2026 0.0000 0.0000 0.0000
# 3 22.3433 54.2026 87.4153 0.0000 0.0000 0.0000
# 4 0.0000 0.0000 0.0000 30.5832 0.0000 0.0000
# 5 0.0000 0.0000 0.0000 0.0000 22.3645 0.0000
# 6 0.0000 0.0000 0.0000 0.0000 0.0000 15.6410
#
#
#
# Elastic Compliance Matrix: (Units=1/GPa)
#
#
# Indices 1 2 3 4 5 6 
#
# 1 0.075617 -0.011473 -0.012214 0.000000 0.000000 0.000000
# 2 -0.011473 0.008120 -0.002103 0.000000 0.000000 0.000000
# 3 -0.012214 -0.002103 0.015865 0.000000 0.000000 0.000000
# 4 0.000000 0.000000 0.000000 0.032698 0.000000 0.000000
# 5 0.000000 0.000000 0.000000 0.000000 0.044714 0.000000
# 6 0.000000 0.000000 0.000000 0.000000 0.000000 0.063934
#
#
# Mechanical properties :
#
#
# Convention : Reuss Voigt Hill
#
# Bulk Modulus (GPa) = 20.82305 58.74239 39.78272
# Shear Modulus (GPa) = 16.20561 26.12657 21.16609
#
# Velocity S-wave (km/s) = 2.88624 3.66472 3.29853
# Velocity P-wave (km/s) = 4.67024 6.93564 5.91245
#
# Compressibility (1/GPa) = 0.04802371
#
# Stress axis : x y z
#
# Youngs Moduli (GPa) = 13.22457 123.14513 63.03106
#
# Poissons Ratio (x) = 1.41287 0.76983
# Poissons Ratio (y) = 0.15173 0.13253
# Poissons Ratio (z) = 0.16152 0.25893
#
# Static dielectric constant tensor:
#      x y z
#    x 3.483850 0.000000 0.000000 
#    y 0.000000 4.429780 0.000000 
#    z 0.000000 0.000000 3.501120 
# 
# 
# High freq. dielectric constant tensor:
#      x y z
#    x 1.723400 0.000000 0.000000 
#    y 0.000000 1.785990 0.000000 
#    z 0.000000 0.000000 1.754260 
# 
# From -- ./inp_files/13879.got.cif
#   From: 2010.03.12/outbox.cif.g09.slc.cpg/sg36_7_cif.got.tgz:13879.got - 2010.04.14 02:13:53.
