data_PCOD8174659
_publ_section_title
;
Structure prediction by ZEFSAII (Michael W. Deem and Ramdas Pophale) SiO2 
 PCOD8174659
Probable space group: C M C 21
;
_chemical_formula_sum "Si O2"
_cell_formula_units_Z 56
_cell_length_a 18.957888
_cell_length_b 9.474619
_cell_length_c 17.042099
_cell_angle_alpha 90.000000
_cell_angle_beta 90.000000
_cell_angle_gamma 90.000000
_cell_volume 3061.080790
_symmetry_space_group_name_H-M "C M C 21"
_symmetry_group_IT_number 36
_symmetry_cell_setting 'orthorhombic'
loop_
_space_group_symop_operation_xyz
x,y,z
-x,-y,1/2+z
x,-y,1/2+z
-x,y,z
1/2+x,1/2+y,z
1/2-x,1/2-y,1/2+z
1/2+x,1/2-y,1/2+z
1/2-x,1/2+y,z
loop_
_atom_site_type_symbol
_atom_site_label
_atom_site_fract_x
_atom_site_fract_y
_atom_site_fract_z
Si Si1 0.196409 0.578298 0.565470
Si Si2 0.416428 0.809574 0.326132
Si Si3 0.642463 0.770151 0.759104
Si Si4 0.843394 0.965106 0.797986
Si Si5 0.422756 0.014731 0.675650
Si Si6 0.695418 0.025597 0.383816
Si Si7 0.728423 0.654180 0.154025
O O1 0.122613 0.517541 0.596744
O O2 0.206763 0.561429 0.473829
O O3 0.255820 0.492691 0.611559
O O4 0.200367 0.742492 0.586822
O O5 0.500000 0.833175 0.347424
O O6 0.396184 0.644564 0.341601
O O7 0.401304 0.861887 0.237016
O O8 0.361051 0.897583 0.379343
O O9 0.616669 0.611285 0.777502
O O10 0.580931 0.863964 0.720339
O O11 0.664360 0.837130 0.842058
O O12 0.706678 0.771277 0.697972
O O13 0.771624 0.007835 0.844478
O O14 0.829722 0.881490 0.718011
O O15 0.500000 0.039184 0.643624
#
# Coordination Sequence:
#
# PCOD8174659 Si02
#       7
#     8   8   8   8   8   8   8
#     4  11  21  33  55  84 113 142 181 241 286 330
#     4  10  21  38  57  81 113 151 187 230 285 346
#     4   9  19  34  53  79 108 146 182 236 274 328
#     4  11  19  35  57  83 114 147 190 241 279 337
#     4   9  19  37  57  77 105 145 191 224 278 349
#     4  10  22  34  55  83 116 151 193 228 284 347
#     4  10  19  33  52  81 110 140 184 234 283 323
#
# _framework density 18.294191999999999
#
# number of rings (size 3 to 8) (size 9 to 14) (size 15 to 20)
#    0.000    2.000    2.857    2.571    4.000    1.143 
#    0.000    0.000    0.000    0.000    0.000    1.000 
#    0.000    0.000    0.000    0.000    0.000    0.000 
#
# Total GULP energy -346978.903137 kJ/mol
# GULP energy per Si atom -12392.103683 kJ/mol
# Density = 1.825255 g / cm^3
# Si number density = 18.294192 Si / 1000 Ang^3
#
#
#
# Elastic Constant Matrix: (Units=GPa)
#
#
# Indices 1 2 3 4 5 6 
#
# 1 59.4222 24.0632 11.5347 0.0000 0.0000 0.0000
# 2 24.0632 111.3538 7.8086 0.0000 0.0000 0.0000
# 3 11.5347 7.8086 73.8181 0.0000 0.0000 0.0000
# 4 0.0000 0.0000 0.0000 19.9996 0.0000 0.0000
# 5 0.0000 0.0000 0.0000 0.0000 12.5756 0.0000
# 6 0.0000 0.0000 0.0000 0.0000 0.0000 18.7269
#
#
#
# Elastic Compliance Matrix: (Units=1/GPa)
#
#
# Indices 1 2 3 4 5 6 
#
# 1 0.018904 -0.003907 -0.002541 0.000000 0.000000 0.000000
# 2 -0.003907 0.009855 -0.000432 0.000000 0.000000 0.000000
# 3 -0.002541 -0.000432 0.013990 0.000000 0.000000 0.000000
# 4 0.000000 0.000000 0.000000 0.050001 0.000000 0.000000
# 5 0.000000 0.000000 0.000000 0.000000 0.079519 0.000000
# 6 0.000000 0.000000 0.000000 0.000000 0.000000 0.053399
#
#
# Mechanical properties :
#
#
# Convention : Reuss Voigt Hill
#
# Bulk Modulus (GPa) = 34.49537 36.82300 35.65919
# Shear Modulus (GPa) = 20.07305 23.67291 21.87298
#
# Velocity S-wave (km/s) = 3.31605 3.60114 3.46153
# Velocity P-wave (km/s) = 5.79296 6.12069 5.95908
#
# Compressibility (1/GPa) = 0.02898940
#
# Stress axis : x y z
#
# Youngs Moduli (GPa) = 52.89878 101.47186 71.48216
#
# Poissons Ratio (x) = 0.39644 0.18161
# Poissons Ratio (y) = 0.20667 0.03088
# Poissons Ratio (z) = 0.13440 0.04383
#
# Static dielectric constant tensor:
#      x y z
#    x 3.186390 0.000000 0.000000 
#    y 0.000000 3.471620 0.000000 
#    z 0.000000 0.000000 3.113890 
# 
# 
# High freq. dielectric constant tensor:
#      x y z
#    x 1.686950 0.000000 0.000000 
#    y 0.000000 1.719780 0.000000 
#    z 0.000000 0.000000 1.688250 
# 
# From -- ./inp_files/12818.got.cif
#   From: 2010.03.12/outbox.cif.g09.slc.cpg/sg36_7_cif.got.tgz:12818.got - 2010.04.14 02:13:53.
