data_PCOD8174726
_publ_section_title
;
Structure prediction by ZEFSAII (Michael W. Deem and Ramdas Pophale) SiO2 
 PCOD8174726
Probable space group: C M C 21
;
_chemical_formula_sum "Si O2"
_cell_formula_units_Z 64
_cell_length_a 9.083717
_cell_length_b 18.431257
_cell_length_c 20.662632
_cell_angle_alpha 90.000000
_cell_angle_beta 90.000000
_cell_angle_gamma 90.000000
_cell_volume 3459.427165
_symmetry_space_group_name_H-M "C M C 21"
_symmetry_group_IT_number 36
_symmetry_cell_setting 'orthorhombic'
loop_
_space_group_symop_operation_xyz
x,y,z
-x,-y,1/2+z
x,-y,1/2+z
-x,y,z
1/2+x,1/2+y,z
1/2-x,1/2-y,1/2+z
1/2+x,1/2-y,1/2+z
1/2-x,1/2+y,z
loop_
_atom_site_type_symbol
_atom_site_label
_atom_site_fract_x
_atom_site_fract_y
_atom_site_fract_z
Si Si1 0.665208 0.683395 0.143230
Si Si2 0.328430 0.920929 0.890752
Si Si3 0.665799 0.666194 0.004069
Si Si4 0.830377 0.663001 0.515154
Si Si5 0.669105 0.668250 0.285134
Si Si6 0.670812 0.089893 0.892233
Si Si7 0.326858 0.677910 0.783194
Si Si8 0.831034 0.172527 0.639676
O O1 0.500000 0.719380 0.140717
O O2 0.681716 0.639710 0.210506
O O3 0.791466 0.743042 0.141746
O O4 0.683080 0.635247 0.077909
O O5 0.500000 0.903768 0.881481
O O6 0.264433 0.880076 0.953929
O O7 0.244616 0.892921 0.827800
O O8 0.296552 0.005329 0.898844
O O9 0.500000 0.652171 0.978160
O O10 0.699483 0.751975 0.004746
O O11 0.783411 0.627017 0.959348
O O12 0.757749 0.633596 0.581837
O O13 0.000000 0.644111 0.521628
O O14 0.500000 0.677217 0.306054
O O15 0.746136 0.745813 0.294327
O O16 0.500000 0.106039 0.879029
O O17 0.767568 0.120090 0.833912
O O18 0.500000 0.691172 0.793645
O O19 0.295294 0.643346 0.712024
O O20 0.000000 0.162980 0.622206
#
# Coordination Sequence:
#
# PCOD8174726 Si02
#       8
#     8   8   8   8   8   8   8   8
#     4   8  16  31  51  77 105 131 162 204 257 310
#     4  10  22  38  52  72 106 143 176 213 260 307
#     4   9  17  32  55  78 101 133 168 206 260 316
#     4   9  18  34  55  75 100 135 169 206 258 313
#     4  10  19  33  57  84 105 131 172 215 254 306
#     4  11  23  36  51  74 104 139 181 221 252 297
#     4  10  20  35  55  78 106 138 170 210 262 310
#     4   9  17  29  50  80 105 126 162 211 255 301
#
# _framework density 18.500171999999999
#
# number of rings (size 3 to 8) (size 9 to 14) (size 15 to 20)
#    0.000    2.500    0.000    3.000    0.000    6.500 
#    0.000    1.250    0.000    6.000    0.000    0.000 
#    0.000    0.000    0.000    0.000    0.000    0.000 
#
# Total GULP energy -396634.199059 kJ/mol
# GULP energy per Si atom -12394.818721 kJ/mol
# Density = 1.845806 g / cm^3
# Si number density = 18.500172 Si / 1000 Ang^3
#
#
#
# Elastic Constant Matrix: (Units=GPa)
#
#
# Indices 1 2 3 4 5 6 
#
# 1 74.8301 36.9826 59.4021 0.0000 0.0000 0.0000
# 2 36.9826 57.8152 49.4167 0.0000 0.0000 0.0000
# 3 59.4021 49.4167 159.7279 0.0000 0.0000 0.0000
# 4 0.0000 0.0000 0.0000 2.7435 0.0000 0.0000
# 5 0.0000 0.0000 0.0000 0.0000 35.3111 0.0000
# 6 0.0000 0.0000 0.0000 0.0000 0.0000 22.5033
#
#
#
# Elastic Compliance Matrix: (Units=1/GPa)
#
#
# Indices 1 2 3 4 5 6 
#
# 1 0.022422 -0.009809 -0.005304 0.000000 0.000000 0.000000
# 2 -0.009809 0.027806 -0.004955 0.000000 0.000000 0.000000
# 3 -0.005304 -0.004955 0.009766 0.000000 0.000000 0.000000
# 4 0.000000 0.000000 0.000000 0.364492 0.000000 0.000000
# 5 0.000000 0.000000 0.000000 0.000000 0.028320 0.000000
# 6 0.000000 0.000000 0.000000 0.000000 0.000000 0.044438
#
#
# Mechanical properties :
#
#
# Convention : Reuss Voigt Hill
#
# Bulk Modulus (GPa) = 50.35617 64.88621 57.62119
# Shear Modulus (GPa) = 9.19122 21.88304 15.53713
#
# Velocity S-wave (km/s) = 2.23136 3.44300 2.90114
# Velocity P-wave (km/s) = 5.82383 7.13828 6.51430
#
# Compressibility (1/GPa) = 0.01985854
#
# Stress axis : x y z
#
# Youngs Moduli (GPa) = 44.59949 35.96349 102.39628
#
# Poissons Ratio (x) = 0.35277 0.54309
# Poissons Ratio (y) = 0.43748 0.50734
# Poissons Ratio (z) = 0.23655 0.17819
#
# Static dielectric constant tensor:
#      x y z
#    x 3.469540 0.000000 0.000000 
#    y 0.000000 2.968670 0.000000 
#    z 0.000000 0.000000 3.865170 
# 
# 
# High freq. dielectric constant tensor:
#      x y z
#    x 1.722960 0.000000 0.000000 
#    y 0.000000 1.667920 0.000000 
#    z 0.000000 0.000000 1.743310 
# 
# From -- ./inp_files/15703.got.cif
#   From: 2010.03.12/outbox.cif.g09.slc.cpg/sg36_8_cif.got.tgz:15703.got - 2010.04.14 02:13:53.
