data_PCOD8174278
_publ_section_title
;
Structure prediction by ZEFSAII (Michael W. Deem and Ramdas Pophale) SiO2 
 PCOD8174278
Probable space group: C M C 21
;
_chemical_formula_sum "Si O2"
_cell_formula_units_Z 64
_cell_length_a 9.078531
_cell_length_b 24.318093
_cell_length_c 14.699091
_cell_angle_alpha 90.000000
_cell_angle_beta 90.000000
_cell_angle_gamma 90.000000
_cell_volume 3245.155967
_symmetry_space_group_name_H-M "C M C 21"
_symmetry_group_IT_number 36
_symmetry_cell_setting 'orthorhombic'
loop_
_space_group_symop_operation_xyz
x,y,z
-x,-y,1/2+z
x,-y,1/2+z
-x,y,z
1/2+x,1/2+y,z
1/2-x,1/2-y,1/2+z
1/2+x,1/2-y,1/2+z
1/2-x,1/2+y,z
loop_
_atom_site_type_symbol
_atom_site_label
_atom_site_fract_x
_atom_site_fract_y
_atom_site_fract_z
Si Si1 0.329286 0.480624 0.644890
Si Si2 0.332495 0.450312 0.450566
Si Si3 0.332283 0.633575 0.805906
Si Si4 0.675527 0.834230 0.867893
Si Si5 0.328533 0.748277 0.725329
Si Si6 0.167319 0.702049 0.558315
Si Si7 0.666591 0.085267 0.647675
Si Si8 0.824630 0.542766 0.333652
O O1 0.500000 0.481927 0.673274
O O2 0.298471 0.441674 0.557705
O O3 0.275644 0.539725 0.607060
O O4 0.233393 0.463649 0.731163
O O5 0.500000 0.470953 0.437617
O O6 0.312209 0.388960 0.408434
O O7 0.232250 0.495886 0.401468
O O8 0.500000 0.623673 0.771681
O O9 0.292076 0.697562 0.793594
O O10 0.219101 0.596566 0.749843
O O11 0.500000 0.833115 0.872812
O O12 0.730634 0.802772 0.776702
O O13 0.730632 0.897188 0.867730
O O14 0.733528 0.799744 0.955987
O O15 0.500000 0.752845 0.705770
O O16 0.254457 0.741924 0.626564
O O17 0.179697 0.639251 0.588359
O O18 0.000000 0.723140 0.559684
O O19 0.500000 0.062841 0.650067
O O20 0.000000 0.539779 0.331790
#
# Coordination Sequence:
#
# PCOD8174278 Si02
#       8
#     8   8   8   8   8   8   8   8
#     4  11  22  35  51  78 116 149 180 220 272 334
#     4  10  21  36  54  79 112 145 180 224 273 330
#     4   9  17  32  54  76 101 135 177 224 270 317
#     4   9  19  37  57  79 111 148 183 222 272 329
#     4   9  18  35  58  80 105 141 183 224 271 323
#     4   9  18  34  56  83 110 139 182 230 272 318
#     4  10  18  30  52  79 106 139 181 226 268 315
#     4  11  22  37  58  82 111 148 186 228 276 328
#
# _framework density 19.721702000000001
#
# number of rings (size 3 to 8) (size 9 to 14) (size 15 to 20)
#    0.000    2.250    1.250    1.875    0.000    2.500 
#    2.250    3.125    0.000    0.000    0.000    0.000 
#    0.000    0.000    0.000    0.000    0.000    0.000 
#
# Total GULP energy -396579.512509 kJ/mol
# GULP energy per Si atom -12393.109766 kJ/mol
# Density = 1.967681 g / cm^3
# Si number density = 19.721702 Si / 1000 Ang^3
#
#
#
# Elastic Constant Matrix: (Units=GPa)
#
#
# Indices 1 2 3 4 5 6 
#
# 1 58.7804 14.3755 28.2888 0.0000 0.0000 0.0000
# 2 14.3755 46.9896 13.9491 0.0000 0.0000 0.0000
# 3 28.2888 13.9491 100.4872 0.0000 0.0000 0.0000
# 4 0.0000 0.0000 0.0000 24.6449 0.0000 0.0000
# 5 0.0000 0.0000 0.0000 0.0000 25.2498 0.0000
# 6 0.0000 0.0000 0.0000 0.0000 0.0000 19.9811
#
#
#
# Elastic Compliance Matrix: (Units=1/GPa)
#
#
# Indices 1 2 3 4 5 6 
#
# 1 0.020664 -0.004792 -0.005152 0.000000 0.000000 0.000000
# 2 -0.004792 0.023307 -0.001886 0.000000 0.000000 0.000000
# 3 -0.005152 -0.001886 0.011664 0.000000 0.000000 0.000000
# 4 0.000000 0.000000 0.000000 0.040576 0.000000 0.000000
# 5 0.000000 0.000000 0.000000 0.000000 0.039604 0.000000
# 6 0.000000 0.000000 0.000000 0.000000 0.000000 0.050047
#
#
# Mechanical properties :
#
#
# Convention : Reuss Voigt Hill
#
# Bulk Modulus (GPa) = 31.27555 35.49821 33.38688
# Shear Modulus (GPa) = 22.70847 23.95141 23.32994
#
# Velocity S-wave (km/s) = 3.39698 3.48871 3.44315
# Velocity P-wave (km/s) = 5.59275 5.85378 5.72475
#
# Compressibility (1/GPa) = 0.03197386
#
# Stress axis : x y z
#
# Youngs Moduli (GPa) = 48.39338 42.90482 85.73587
#
# Poissons Ratio (x) = 0.20561 0.44171
# Poissons Ratio (y) = 0.23192 0.16172
# Poissons Ratio (z) = 0.24932 0.08093
#
# Static dielectric constant tensor:
#      x y z
#    x 3.533460 0.000000 0.000000 
#    y 0.000000 3.656600 0.000000 
#    z 0.000000 0.000000 3.721430 
# 
# 
# High freq. dielectric constant tensor:
#      x y z
#    x 1.752800 0.000000 0.000000 
#    y 0.000000 1.755090 0.000000 
#    z 0.000000 0.000000 1.773180 
# 
# From -- ./inp_files/10988.got.cif
#   From: 2010.03.12/outbox.cif.g09.slc.cpg/sg36_6_cif.got.tgz:10988.got - 2010.04.14 02:13:53.
