data_PCOD8174441
_publ_section_title
;
Structure prediction by ZEFSAII (Michael W. Deem and Ramdas Pophale) SiO2 
 PCOD8174441
Probable space group: C M C 21
;
_chemical_formula_sum "Si O2"
_cell_formula_units_Z 64
_cell_length_a 8.898050
_cell_length_b 23.850178
_cell_length_c 15.420913
_cell_angle_alpha 90.000000
_cell_angle_beta 90.000000
_cell_angle_gamma 90.000000
_cell_volume 3272.627334
_symmetry_space_group_name_H-M "C M C 21"
_symmetry_group_IT_number 36
_symmetry_cell_setting 'orthorhombic'
loop_
_space_group_symop_operation_xyz
x,y,z
-x,-y,1/2+z
x,-y,1/2+z
-x,y,z
1/2+x,1/2+y,z
1/2-x,1/2-y,1/2+z
1/2+x,1/2-y,1/2+z
1/2-x,1/2+y,z
loop_
_atom_site_type_symbol
_atom_site_label
_atom_site_fract_x
_atom_site_fract_y
_atom_site_fract_z
Si Si1 0.176353 0.247339 0.480910
Si Si2 0.177590 0.358986 0.052002
Si Si3 0.824774 0.247901 0.799788
Si Si4 0.175580 0.636496 0.223145
Si Si5 0.177702 0.372650 0.531310
Si Si6 0.178791 0.569459 0.386769
Si Si7 0.323523 0.371705 0.227947
Si Si8 0.823031 0.948611 0.388249
O O1 0.254637 0.203223 0.544908
O O2 0.229934 0.236556 0.383820
O O3 0.223571 0.309465 0.508568
O O4 0.000000 0.238039 0.488707
O O5 0.236730 0.387615 0.140187
O O6 0.000000 0.354552 0.054885
O O7 0.232479 0.396925 0.971713
O O8 0.791320 0.297134 0.731184
O O9 0.770260 0.189495 0.759693
O O10 0.000000 0.245381 0.826065
O O11 0.232941 0.615334 0.129713
O O12 0.246905 0.600937 0.302076
O O13 0.000000 0.626438 0.227995
O O14 0.268400 0.414331 0.471018
O O15 0.000000 0.382255 0.519508
O O16 0.244206 0.507911 0.388892
O O17 0.000000 0.566063 0.384332
O O18 0.500000 0.372313 0.209378
O O19 0.276679 0.416482 0.300593
O O20 0.000000 0.956335 0.394620
#
# Coordination Sequence:
#
# PCOD8174441 Si02
#       8
#     8   8   8   8   8   8   8   8
#     4  11  21  34  58  92 126 156 192 241 296 350
#     4  11  23  39  62  89 119 159 204 244 291 355
#     4  10  18  36  62  86 120 158 192 234 295 361
#     4   9  18  36  62  86 112 152 195 236 285 344
#     4  10  21  38  62  89 119 156 197 237 288 355
#     4  10  22  41  62  83 112 155 204 247 291 349
#     4  10  22  39  61  88 121 157 193 243 307 356
#     4  11  24  41  61  85 117 155 195 248 305 350
#
# _framework density 19.556152999999998
#
# number of rings (size 3 to 8) (size 9 to 14) (size 15 to 20)
#    0.000    1.750    2.500    1.875    0.000    6.000 
#    0.000    5.000    0.000    0.000    0.000    0.000 
#    0.000    0.000    0.000    0.000    0.000    0.000 
#
# Total GULP energy -396881.411463 kJ/mol
# GULP energy per Si atom -12402.544108 kJ/mol
# Density = 1.951164 g / cm^3
# Si number density = 19.556153 Si / 1000 Ang^3
#
#
#
# Elastic Constant Matrix: (Units=GPa)
#
#
# Indices 1 2 3 4 5 6 
#
# 1 24.3503 18.6920 21.5562 0.0000 0.0000 0.0000
# 2 18.6920 104.8406 40.8770 0.0000 0.0000 0.0000
# 3 21.5562 40.8770 129.5457 0.0000 0.0000 0.0000
# 4 0.0000 0.0000 0.0000 0.6964 0.0000 0.0000
# 5 0.0000 0.0000 0.0000 0.0000 31.8160 0.0000
# 6 0.0000 0.0000 0.0000 0.0000 0.0000 22.6528
#
#
#
# Elastic Compliance Matrix: (Units=1/GPa)
#
#
# Indices 1 2 3 4 5 6 
#
# 1 0.052014 -0.006727 -0.006533 0.000000 0.000000 0.000000
# 2 -0.006727 0.011746 -0.002587 0.000000 0.000000 0.000000
# 3 -0.006533 -0.002587 0.009623 0.000000 0.000000 0.000000
# 4 0.000000 0.000000 0.000000 1.435884 0.000000 0.000000
# 5 0.000000 0.000000 0.000000 0.000000 0.031431 0.000000
# 6 0.000000 0.000000 0.000000 0.000000 0.000000 0.044145
#
#
# Mechanical properties :
#
#
# Convention : Reuss Voigt Hill
#
# Bulk Modulus (GPa) = 23.98639 46.77633 35.38136
# Shear Modulus (GPa) = 3.06667 22.87380 12.97024
#
# Velocity S-wave (km/s) = 1.25361 3.42372 2.57812
# Velocity P-wave (km/s) = 3.79307 6.29286 5.19555
#
# Compressibility (1/GPa) = 0.04169031
#
# Stress axis : x y z
#
# Youngs Moduli (GPa) = 19.22567 85.13332 103.92162
#
# Poissons Ratio (x) = 0.57265 0.67887
# Poissons Ratio (y) = 0.12932 0.26886
# Poissons Ratio (z) = 0.12559 0.22025
#
# Static dielectric constant tensor:
#      x y z
#    x 3.367120 0.000000 0.000000 
#    y 0.000000 3.624110 0.000000 
#    z 0.000000 0.000000 3.967080 
# 
# 
# High freq. dielectric constant tensor:
#      x y z
#    x 1.743150 0.000000 0.000000 
#    y 0.000000 1.763280 0.000000 
#    z 0.000000 0.000000 1.777490 
# 
# From -- ./inp_files/10939.got.cif
#   From: 2010.03.12/outbox.cif.g09.slc.cpg/sg36_6_cif.got.tgz:10939.got - 2010.04.14 02:13:53.
