data_PCOD8174771
_publ_section_title
;
Structure prediction by ZEFSAII (Michael W. Deem and Ramdas Pophale) SiO2 
 PCOD8174771
Probable space group: C M C 21
;
_chemical_formula_sum "Si O2"
_cell_formula_units_Z 64
_cell_length_a 9.400951
_cell_length_b 24.944021
_cell_length_c 13.717910
_cell_angle_alpha 90.000000
_cell_angle_beta 90.000000
_cell_angle_gamma 90.000000
_cell_volume 3216.815863
_symmetry_space_group_name_H-M "C M C 21"
_symmetry_group_IT_number 36
_symmetry_cell_setting 'orthorhombic'
loop_
_space_group_symop_operation_xyz
x,y,z
-x,-y,1/2+z
x,-y,1/2+z
-x,y,z
1/2+x,1/2+y,z
1/2-x,1/2-y,1/2+z
1/2+x,1/2-y,1/2+z
1/2-x,1/2+y,z
loop_
_atom_site_type_symbol
_atom_site_label
_atom_site_fract_x
_atom_site_fract_y
_atom_site_fract_z
Si Si1 0.668507 0.836704 0.372030
Si Si2 0.164321 0.880388 0.684544
Si Si3 0.343709 0.958595 0.377883
Si Si4 0.158298 0.524134 0.103607
Si Si5 0.165935 0.074849 0.589589
Si Si6 0.335768 0.794049 0.583029
Si Si7 0.839362 0.944211 0.869479
Si Si8 0.836418 0.814444 0.186969
O O1 0.500000 0.833347 0.358703
O O2 0.721901 0.898700 0.370541
O O3 0.713900 0.808171 0.473235
O O4 0.743191 0.804868 0.283875
O O5 0.245141 0.925111 0.623885
O O6 0.239086 0.824264 0.662106
O O7 0.180293 0.893272 0.798984
O O8 0.000000 0.878565 0.652141
O O9 0.500000 0.958906 0.329455
O O10 0.355512 0.977372 0.488382
O O11 0.249053 0.004862 0.327178
O O12 0.238022 0.470531 0.141513
O O13 0.000000 0.528196 0.150482
O O14 0.204449 0.076832 0.475440
O O15 0.211916 0.130822 0.635926
O O16 0.000000 0.061905 0.606654
O O17 0.500000 0.811471 0.596807
O O18 0.312834 0.731540 0.606140
O O19 0.000000 0.965304 0.869877
O O20 0.000000 0.816555 0.219895
#
# Coordination Sequence:
#
# PCOD8174771 Si02
#       8
#     8   8   8   8   8   8   8   8
#     4  10  21  39  61  85 115 152 194 240 290 348
#     4  11  22  35  56  88 118 151 195 242 290 340
#     4   9  18  34  55  82 113 152 194 232 283 342
#     4  10  19  34  56  82 115 153 191 234 287 347
#     4   9  19  38  57  81 117 153 191 237 289 345
#     4  10  22  43  63  83 116 159 199 239 291 347
#     4   9  20  35  54  83 119 156 191 233 288 347
#     4  10  23  40  62  88 115 152 197 243 292 344
#
# _framework density 19.895451999999999
#
# number of rings (size 3 to 8) (size 9 to 14) (size 15 to 20)
#    0.000    2.250    1.250    0.750    1.750    4.500 
#    0.000    2.500    0.000    0.000    0.000    0.000 
#    0.000    0.000    0.000    0.000    0.000    0.000 
#
# Total GULP energy -396765.669994 kJ/mol
# GULP energy per Si atom -12398.927187 kJ/mol
# Density = 1.985017 g / cm^3
# Si number density = 19.895452 Si / 1000 Ang^3
#
#
#
# Elastic Constant Matrix: (Units=GPa)
#
#
# Indices 1 2 3 4 5 6 
#
# 1 81.2063 39.7568 31.4953 0.0000 0.0000 0.0000
# 2 39.7568 98.4001 27.3557 0.0000 0.0000 0.0000
# 3 31.4953 27.3557 71.7234 0.0000 0.0000 0.0000
# 4 0.0000 0.0000 0.0000 28.5074 0.0000 0.0000
# 5 0.0000 0.0000 0.0000 0.0000 26.9106 0.0000
# 6 0.0000 0.0000 0.0000 0.0000 0.0000 29.8321
#
#
#
# Elastic Compliance Matrix: (Units=1/GPa)
#
#
# Indices 1 2 3 4 5 6 
#
# 1 0.017057 -0.005380 -0.005438 0.000000 0.000000 0.000000
# 2 -0.005380 0.013065 -0.002621 0.000000 0.000000 0.000000
# 3 -0.005438 -0.002621 0.017330 0.000000 0.000000 0.000000
# 4 0.000000 0.000000 0.000000 0.035079 0.000000 0.000000
# 5 0.000000 0.000000 0.000000 0.000000 0.037160 0.000000
# 6 0.000000 0.000000 0.000000 0.000000 0.000000 0.033521
#
#
# Mechanical properties :
#
#
# Convention : Reuss Voigt Hill
#
# Bulk Modulus (GPa) = 48.60350 49.83838 49.22094
# Shear Modulus (GPa) = 26.74548 27.23150 26.98849
#
# Velocity S-wave (km/s) = 3.67045 3.70365 3.68709
# Velocity P-wave (km/s) = 6.51501 6.58740 6.55131
#
# Compressibility (1/GPa) = 0.02057465
#
# Stress axis : x y z
#
# Youngs Moduli (GPa) = 58.62560 76.54184 57.70329
#
# Poissons Ratio (x) = 0.41178 0.31381
# Poissons Ratio (y) = 0.31540 0.15121
# Poissons Ratio (z) = 0.31883 0.20058
#
# Static dielectric constant tensor:
#      x y z
#    x 3.776460 0.000000 0.000000 
#    y 0.000000 3.561800 0.000000 
#    z 0.000000 0.000000 3.593920 
# 
# 
# High freq. dielectric constant tensor:
#      x y z
#    x 1.773420 0.000000 0.000000 
#    y 0.000000 1.767440 0.000000 
#    z 0.000000 0.000000 1.778040 
# 
# From -- ./inp_files/11084.got.cif
#   From: 2010.03.12/outbox.cif.g09.slc.cpg/sg36_6_cif.got.tgz:11084.got - 2010.04.14 02:13:53.
