data_PCOD8174143
_publ_section_title
;
Structure prediction by ZEFSAII (Michael W. Deem and Ramdas Pophale) SiO2 
 PCOD8174143
Probable space group: C M M 2
;
_chemical_formula_sum "Si O2"
_cell_formula_units_Z 48
_cell_length_a 9.159723
_cell_length_b 15.661044
_cell_length_c 17.137280
_cell_angle_alpha 90.000000
_cell_angle_beta 90.000000
_cell_angle_gamma 90.000000
_cell_volume 2458.356953
_symmetry_space_group_name_H-M "C M M 2"
_symmetry_group_IT_number 35
_symmetry_cell_setting 'orthorhombic'
loop_
_space_group_symop_operation_xyz
x,y,z
-x,-y,z
-x,y,z
x,-y,z
1/2+x,1/2+y,z
1/2-x,1/2-y,z
1/2-x,1/2+y,z
1/2+x,1/2-y,z
loop_
_atom_site_type_symbol
_atom_site_label
_atom_site_fract_x
_atom_site_fract_y
_atom_site_fract_z
Si Si1 0.170235 0.000000 0.789240
Si Si2 0.170699 0.836248 0.058259
Si Si3 0.672634 0.339407 0.884349
Si Si4 0.673512 0.837377 0.530796
Si Si5 0.168264 0.403051 0.363342
Si Si6 0.326510 0.500000 0.607090
Si Si7 0.340434 0.597858 0.218702
O O1 0.234938 0.913488 0.827807
O O2 0.205101 0.000000 0.698685
O O3 0.000000 0.000000 0.808182
O O4 0.250000 0.750000 0.077140
O O5 0.221055 0.896534 0.129999
O O6 0.000000 0.819917 0.059414
O O7 0.213518 0.870650 0.972395
O O8 0.500000 0.325317 0.873960
O O9 0.750000 0.250000 0.863721
O O10 0.500000 0.836519 0.549356
O O11 0.750000 0.750000 0.559746
O O12 0.703472 0.846266 0.438724
O O13 0.750173 0.915861 0.573963
O O14 0.220895 0.500000 0.381023
O O15 0.243602 0.360264 0.287152
O O16 0.000000 0.403234 0.343042
O O17 0.500000 0.500000 0.588567
O O18 0.500000 0.641343 0.222418
O O19 0.350442 0.500000 0.240776
#
# Coordination Sequence:
#
# PCOD8174143 Si02
#       7
#     4   8   8   8   8   4   8
#     4   9  20  37  61  88 111 144 186 225 279 343
#     4   9  18  31  49  72 103 141 180 223 271 319
#     4   9  18  35  57  81 112 148 185 229 275 327
#     4  11  23  41  63  89 118 154 196 238 289 349
#     4   9  18  35  55  75 107 148 187 231 283 334
#     4  11  23  41  63  90 121 150 188 239 293 353
#     4   9  18  30  47  75 105 137 184 230 269 319
#
# _framework density 19.525237000000001
#
# number of rings (size 3 to 8) (size 9 to 14) (size 15 to 20)
#    0.000    2.500    0.833    0.750    1.167    3.333 
#    0.000    7.083    0.000    0.000    0.000    0.000 
#    0.000    0.000    0.000    0.000    0.000    0.000 
#
# Total GULP energy -297393.663532 kJ/mol
# GULP energy per Si atom -12391.402647 kJ/mol
# Density = 1.948080 g / cm^3
# Si number density = 19.525237 Si / 1000 Ang^3
#
#
#
# Elastic Constant Matrix: (Units=GPa)
#
#
# Indices 1 2 3 4 5 6 
#
# 1 65.3939 53.2126 56.7599 0.0000 0.0000 0.0000
# 2 53.2126 118.6736 66.6074 0.0000 0.0000 0.0000
# 3 56.7599 66.6074 130.4945 0.0000 0.0000 0.0000
# 4 0.0000 0.0000 0.0000 12.2486 0.0000 0.0000
# 5 0.0000 0.0000 0.0000 0.0000 13.7977 0.0000
# 6 0.0000 0.0000 0.0000 0.0000 0.0000 28.1366
#
#
#
# Elastic Compliance Matrix: (Units=1/GPa)
#
#
# Indices 1 2 3 4 5 6 
#
# 1 0.029616 -0.008478 -0.008554 0.000000 0.000000 0.000000
# 2 -0.008478 0.014237 -0.003579 0.000000 0.000000 0.000000
# 3 -0.008554 -0.003579 0.013211 0.000000 0.000000 0.000000
# 4 0.000000 0.000000 0.000000 0.081642 0.000000 0.000000
# 5 0.000000 0.000000 0.000000 0.000000 0.072476 0.000000
# 6 0.000000 0.000000 0.000000 0.000000 0.000000 0.035541
#
#
# Mechanical properties :
#
#
# Convention : Reuss Voigt Hill
#
# Bulk Modulus (GPa) = 63.13058 74.19133 68.66095
# Shear Modulus (GPa) = 17.05172 20.03538 18.54355
#
# Velocity S-wave (km/s) = 2.95840 3.20680 3.08510
# Velocity P-wave (km/s) = 6.63871 7.19663 6.92330
#
# Compressibility (1/GPa) = 0.01584018
#
# Stress axis : x y z
#
# Youngs Moduli (GPa) = 33.76583 70.23962 75.69624
#
# Poissons Ratio (x) = 0.59552 0.64751
# Poissons Ratio (y) = 0.28628 0.27092
# Poissons Ratio (z) = 0.28884 0.25139
#
# Static dielectric constant tensor:
#      x y z
#    x 3.590110 0.000000 0.000000 
#    y 0.000000 3.420040 0.000000 
#    z 0.000000 0.000000 3.766760 
# 
# 
# High freq. dielectric constant tensor:
#      x y z
#    x 1.745940 0.000000 0.000000 
#    y 0.000000 1.750550 0.000000 
#    z 0.000000 0.000000 1.769870 
# 
# From -- ./inp_files/17857.got.cif
#   From: 2010.03.12/outbox.cif.g09.slc.cpg/sg35_9_cif.got.tgz:17857.got - 2010.04.14 02:02:04.
