data_PCOD8174748
_publ_section_title
;
Structure prediction by ZEFSAII (Michael W. Deem and Ramdas Pophale) SiO2 
 PCOD8174748
Probable space group: C M C 21
;
_chemical_formula_sum "Si O2"
_cell_formula_units_Z 52
_cell_length_a 9.864055
_cell_length_b 21.799064
_cell_length_c 11.734764
_cell_angle_alpha 90.000000
_cell_angle_beta 90.000000
_cell_angle_gamma 90.000000
_cell_volume 2523.293049
_symmetry_space_group_name_H-M "C M C 21"
_symmetry_group_IT_number 36
_symmetry_cell_setting 'orthorhombic'
loop_
_space_group_symop_operation_xyz
x,y,z
-x,-y,1/2+z
x,-y,1/2+z
-x,y,z
1/2+x,1/2+y,z
1/2-x,1/2-y,1/2+z
1/2+x,1/2-y,1/2+z
1/2-x,1/2+y,z
loop_
_atom_site_type_symbol
_atom_site_label
_atom_site_fract_x
_atom_site_fract_y
_atom_site_fract_z
Si Si1 0.258332 0.440743 0.082720
Si Si2 0.500000 0.222775 0.838025
Si Si3 0.155440 0.427756 0.641111
Si Si4 0.647658 0.578488 0.816251
Si Si5 0.734508 0.824689 0.473347
Si Si6 0.500000 0.730588 0.094035
Si Si7 0.000000 0.363340 0.140805
Si Si8 0.842217 0.056559 0.339875
O O1 0.227193 0.513736 0.082095
O O2 0.365029 0.421167 0.179315
O O3 0.124807 0.404675 0.111124
O O4 0.322340 0.416286 0.965476
O O5 0.500000 0.274704 0.735587
O O6 0.500000 0.156176 0.774618
O O7 0.367664 0.227137 0.921720
O O8 0.154961 0.369663 0.557936
O O9 0.245230 0.408357 0.751101
O O10 0.000000 0.442271 0.676040
O O11 0.500000 0.581232 0.872644
O O12 0.713964 0.513240 0.848392
O O13 0.726903 0.636719 0.861891
O O14 0.864549 0.797758 0.539147
O O15 0.500000 0.802414 0.062073
O O16 0.000000 0.060547 0.301274
#
# Coordination Sequence:
#
# PCOD8174748 Si02
#       8
#     8   4   8   8   8   4   4   8
#     4  11  20  38  64  93 141 169 222 274 342 419
#     4  10  24  47  69  98 126 175 234 281 347 400
#     4  11  24  37  63 104 130 177 220 277 349 408
#     4  10  19  33  61  94 127 179 220 266 330 410
#     4  12  21  44  72  94 134 171 234 282 334 414
#     4  10  26  46  69  98 129 180 238 289 335 386
#     4  10  22  41  62  96 129 173 218 276 330 396
#     4  10  23  37  55  94 144 178 212 267 341 414
#
# _framework density 20.607990999999998
#
# number of rings (size 3 to 8) (size 9 to 14) (size 15 to 20)
#    0.462    0.923    5.385    0.462    2.154    0.615 
#    2.769    0.769    1.692    0.000    0.000    0.000 
#    0.000    0.000    0.000    0.000    0.000    0.000 
#
# Total GULP energy -322141.330002 kJ/mol
# GULP energy per Si atom -12390.051154 kJ/mol
# Density = 2.056109 g / cm^3
# Si number density = 20.607991 Si / 1000 Ang^3
#
#
#
# Elastic Constant Matrix: (Units=GPa)
#
#
# Indices 1 2 3 4 5 6 
#
# 1 115.5338 15.0786 49.5226 0.0000 0.0000 0.0000
# 2 15.0786 36.7086 16.5693 0.0000 0.0000 0.0000
# 3 49.5226 16.5693 135.6661 0.0000 0.0000 0.0000
# 4 0.0000 0.0000 0.0000 31.3244 0.0000 0.0000
# 5 0.0000 0.0000 0.0000 0.0000 23.2513 0.0000
# 6 0.0000 0.0000 0.0000 0.0000 0.0000 35.6734
#
#
#
# Elastic Compliance Matrix: (Units=1/GPa)
#
#
# Indices 1 2 3 4 5 6 
#
# 1 0.010515 -0.002738 -0.003504 0.000000 0.000000 0.000000
# 2 -0.002738 0.029544 -0.002609 0.000000 0.000000 0.000000
# 3 -0.003504 -0.002609 0.008969 0.000000 0.000000 0.000000
# 4 0.000000 0.000000 0.000000 0.031924 0.000000 0.000000
# 5 0.000000 0.000000 0.000000 0.000000 0.043008 0.000000
# 6 0.000000 0.000000 0.000000 0.000000 0.000000 0.028032
#
#
# Mechanical properties :
#
#
# Convention : Reuss Voigt Hill
#
# Bulk Modulus (GPa) = 31.92199 50.02771 40.97485
# Shear Modulus (GPa) = 27.75707 31.83234 29.79470
#
# Velocity S-wave (km/s) = 3.67401 3.93448 3.80647
# Velocity P-wave (km/s) = 5.78977 6.70588 6.26459
#
# Compressibility (1/GPa) = 0.03132637
#
# Stress axis : x y z
#
# Youngs Moduli (GPa) = 95.10532 33.84818 111.49881
#
# Poissons Ratio (x) = 0.09266 0.39068
# Poissons Ratio (y) = 0.26035 0.29090
# Poissons Ratio (z) = 0.33324 0.08831
#
# Static dielectric constant tensor:
#      x y z
#    x 3.555100 0.000000 0.000000 
#    y 0.000000 3.438620 0.000000 
#    z 0.000000 0.000000 3.985640 
# 
# 
# High freq. dielectric constant tensor:
#      x y z
#    x 1.814060 0.000000 0.000000 
#    y 0.000000 1.771580 0.000000 
#    z 0.000000 0.000000 1.810550 
# 
# From -- ./inp_files/6936.got.cif
#   From: 2010.03.12/outbox.cif.g09.slc.cpg/sg36_4_cif.got.tgz:6936.got - 2010.04.14 02:13:53.
