data_PCOD8174573
_publ_section_title
;
Structure prediction by ZEFSAII (Michael W. Deem and Ramdas Pophale) SiO2 
 PCOD8174573
Probable space group: C M C 21
;
_chemical_formula_sum "Si O2"
_cell_formula_units_Z 48
_cell_length_a 9.001840
_cell_length_b 18.028960
_cell_length_c 16.585037
_cell_angle_alpha 90.000000
_cell_angle_beta 90.000000
_cell_angle_gamma 90.000000
_cell_volume 2691.648898
_symmetry_space_group_name_H-M "C M C 21"
_symmetry_group_IT_number 36
_symmetry_cell_setting 'orthorhombic'
loop_
_space_group_symop_operation_xyz
x,y,z
-x,-y,1/2+z
x,-y,1/2+z
-x,y,z
1/2+x,1/2+y,z
1/2-x,1/2-y,1/2+z
1/2+x,1/2-y,1/2+z
1/2-x,1/2+y,z
loop_
_atom_site_type_symbol
_atom_site_label
_atom_site_fract_x
_atom_site_fract_y
_atom_site_fract_z
Si Si1 0.824119 0.580420 0.460370
Si Si2 0.334891 0.297716 0.866558
Si Si3 0.826846 0.074988 0.938099
Si Si4 0.171596 0.172874 0.785629
Si Si5 0.172821 0.840452 0.105404
Si Si6 0.663875 0.803276 0.523041
O O1 0.760392 0.629439 0.386969
O O2 0.771351 0.497374 0.446235
O O3 0.769917 0.607579 0.547969
O O4 0.000000 0.584647 0.458016
O O5 0.500000 0.322246 0.839514
O O6 0.261048 0.249548 0.795708
O O7 0.341828 0.247296 0.944661
O O8 0.785981 0.111552 0.852154
O O9 0.000000 0.055744 0.945877
O O10 0.782359 0.130966 0.010784
O O11 0.207464 0.138480 0.697937
O O12 0.000000 0.194410 0.793835
O O13 0.212343 0.752739 0.094564
O O14 0.000000 0.853413 0.083252
O O15 0.500000 0.837467 0.539575
#
# Coordination Sequence:
#
# PCOD8174573 Si02
#       6
#     8   8   8   8   8   8
#     4  11  21  33  51  74 101 134 173 210 249 300
#     4   9  17  31  51  73  98 128 163 202 244 293
#     4  10  19  32  51  74 101 132 167 205 248 299
#     4   9  18  33  54  78 102 130 165 208 255 303
#     4   9  18  34  54  76 103 131 163 208 258 302
#     4   8  15  29  49  71  95 125 159 195 238 291
#
# _framework density 17.832934999999999
#
# number of rings (size 3 to 8) (size 9 to 14) (size 15 to 20)
#    0.000    2.667    0.000    3.500    0.000    5.333 
#    0.000    1.667    0.000    0.000    0.000    0.000 
#    0.000    0.000    0.000    0.000    0.000    0.000 
#
# Total GULP energy -297526.403147 kJ/mol
# GULP energy per Si atom -12396.933464 kJ/mol
# Density = 1.779235 g / cm^3
# Si number density = 17.832935 Si / 1000 Ang^3
#
#
#
# Elastic Constant Matrix: (Units=GPa)
#
#
# Indices 1 2 3 4 5 6 
#
# 1 119.3795 63.1946 41.8589 0.0000 0.0000 0.0000
# 2 63.1946 105.9795 40.2854 0.0000 0.0000 0.0000
# 3 41.8589 40.2854 71.9930 0.0000 0.0000 0.0000
# 4 0.0000 0.0000 0.0000 17.2045 0.0000 0.0000
# 5 0.0000 0.0000 0.0000 0.0000 21.9731 0.0000
# 6 0.0000 0.0000 0.0000 0.0000 0.0000 31.8026
#
#
#
# Elastic Compliance Matrix: (Units=1/GPa)
#
#
# Indices 1 2 3 4 5 6 
#
# 1 0.013143 -0.006265 -0.004136 0.000000 0.000000 0.000000
# 2 -0.006265 0.014971 -0.004735 0.000000 0.000000 0.000000
# 3 -0.004136 -0.004735 0.018945 0.000000 0.000000 0.000000
# 4 0.000000 0.000000 0.000000 0.058124 0.000000 0.000000
# 5 0.000000 0.000000 0.000000 0.000000 0.045510 0.000000
# 6 0.000000 0.000000 0.000000 0.000000 0.000000 0.031444
#
#
# Mechanical properties :
#
#
# Convention : Reuss Voigt Hill
#
# Bulk Modulus (GPa) = 59.56933 65.33665 62.45299
# Shear Modulus (GPa) = 22.93512 24.33023 23.63267
#
# Velocity S-wave (km/s) = 3.59013 3.69771 3.64432
# Velocity P-wave (km/s) = 7.11772 7.41272 7.26672
#
# Compressibility (1/GPa) = 0.01678716
#
# Stress axis : x y z
#
# Youngs Moduli (GPa) = 76.08374 66.79393 52.78510
#
# Poissons Ratio (x) = 0.41846 0.21833
# Poissons Ratio (y) = 0.47667 0.24993
# Poissons Ratio (z) = 0.31470 0.31627
#
# Static dielectric constant tensor:
#      x y z
#    x 3.436120 0.000000 0.000000 
#    y 0.000000 3.297060 0.000000 
#    z 0.000000 0.000000 3.352950 
# 
# 
# High freq. dielectric constant tensor:
#      x y z
#    x 1.695590 0.000000 0.000000 
#    y 0.000000 1.679030 0.000000 
#    z 0.000000 0.000000 1.668620 
# 
# From -- ./inp_files/10408.got.cif
#   From: 2010.03.12/outbox.cif.g09.slc.cpg/sg36_6_cif.got.tgz:10408.got - 2010.04.14 02:13:53.
