data_PCOD8174693
_publ_section_title
;
Structure prediction by ZEFSAII (Michael W. Deem and Ramdas Pophale) SiO2 
 PCOD8174693
Probable space group: C M C 21
;
_chemical_formula_sum "Si O2"
_cell_formula_units_Z 64
_cell_length_a 8.973768
_cell_length_b 18.295726
_cell_length_c 20.775851
_cell_angle_alpha 90.000000
_cell_angle_beta 90.000000
_cell_angle_gamma 90.000000
_cell_volume 3411.012469
_symmetry_space_group_name_H-M "C M C 21"
_symmetry_group_IT_number 36
_symmetry_cell_setting 'orthorhombic'
loop_
_space_group_symop_operation_xyz
x,y,z
-x,-y,1/2+z
x,-y,1/2+z
-x,y,z
1/2+x,1/2+y,z
1/2-x,1/2-y,1/2+z
1/2+x,1/2-y,1/2+z
1/2-x,1/2+y,z
loop_
_atom_site_type_symbol
_atom_site_label
_atom_site_fract_x
_atom_site_fract_y
_atom_site_fract_z
Si Si1 0.176595 0.672289 0.618290
Si Si2 0.176782 0.160807 0.118290
Si Si3 0.173544 0.587905 0.742671
Si Si4 0.826455 0.587904 0.493909
Si Si5 0.326492 0.916818 0.737407
Si Si6 0.326491 0.083182 0.999174
Si Si7 0.832248 0.913180 0.370707
Si Si8 0.167752 0.913180 0.865873
O O1 0.230647 0.755478 0.618291
O O2 0.238507 0.631977 0.681795
O O3 0.238507 0.631978 0.554785
O O4 0.000000 0.665256 0.618290
O O5 0.239311 0.122720 0.181188
O O6 0.239304 0.122724 0.055389
O O7 0.000000 0.154454 0.118292
O O8 0.203081 0.502769 0.730171
O O9 0.259425 0.617446 0.805431
O O10 0.000000 0.603210 0.754162
O O11 0.796914 0.502768 0.506410
O O12 0.740578 0.617446 0.431149
O O13 0.000000 0.603207 0.482419
O O14 0.500000 0.897968 0.732826
O O15 0.263944 0.886493 0.805016
O O16 0.500000 0.102030 0.003757
O O17 0.263949 0.113505 0.931562
O O18 0.000000 0.882866 0.377102
O O19 0.830672 0.000000 0.368289
O O20 0.000000 0.882865 0.859480
#
# Coordination Sequence:
#
# PCOD8174693 Si02
#       8
#     8   8   8   8   8   8   8   8
#     4   9  19  35  53  73 100 135 172 210 252 297
#     4  11  22  35  51  73 104 137 168 208 256 301
#     4   9  17  33  56  78 100 131 172 211 248 296
#     4   9  17  33  56  78 100 131 172 211 248 296
#     4  10  19  33  55  79 102 132 170 209 249 300
#     4  10  19  33  55  79 102 132 170 209 249 300
#     4   9  17  30  50  79 109 131 159 206 259 303
#     4   9  17  30  50  79 109 131 159 206 259 303
#
# _framework density 18.762758000000002
#
# number of rings (size 3 to 8) (size 9 to 14) (size 15 to 20)
#    0.000    2.500    0.000    2.625    0.000    6.000 
#    0.000    4.375    0.000    0.000    0.000    0.000 
#    0.000    0.000    0.000    0.000    0.000    0.000 
#
# Total GULP energy -396839.929305 kJ/mol
# GULP energy per Si atom -12401.247791 kJ/mol
# Density = 1.872005 g / cm^3
# Si number density = 18.762758 Si / 1000 Ang^3
#
#
#
# Elastic Constant Matrix: (Units=GPa)
#
#
# Indices 1 2 3 4 5 6 
#
# 1 99.1733 44.2513 71.2123 0.0000 0.0000 0.0000
# 2 44.2513 57.8521 60.6833 0.0000 0.0000 0.0000
# 3 71.2123 60.6833 194.7726 0.0000 0.0000 0.0000
# 4 0.0000 0.0000 0.0000 -10.2349 0.0000 0.0000
# 5 0.0000 0.0000 0.0000 0.0000 39.1291 0.0000
# 6 0.0000 0.0000 0.0000 0.0000 0.0000 15.9732
#
#
#
# Elastic Compliance Matrix: (Units=1/GPa)
#
#
# Indices 1 2 3 4 5 6 
#
# 1 0.016492 -0.009343 -0.003119 0.000000 0.000000 0.000000
# 2 -0.009343 0.030970 -0.006233 0.000000 0.000000 0.000000
# 3 -0.003119 -0.006233 0.008216 0.000000 0.000000 0.000000
# 4 0.000000 0.000000 0.000000 -0.097705 0.000000 0.000000
# 5 0.000000 0.000000 0.000000 0.000000 0.025556 0.000000
# 6 0.000000 0.000000 0.000000 0.000000 0.000000 0.062605
#
#
# Mechanical properties :
#
#
# Convention : Reuss Voigt Hill
#
# Bulk Modulus (GPa) = 54.67946 78.23240 66.45593
# Shear Modulus (GPa) = 55.79054 20.68355 38.23704
#
# Velocity S-wave (km/s) = 5.45887 3.32380 4.51923
# Velocity P-wave (km/s) = 8.30290 7.51773 7.92005
#
# Compressibility (1/GPa) = 0.01828840
#
# Stress axis : x y z
#
# Youngs Moduli (GPa) = 60.63636 32.28911 121.70803
#
# Poissons Ratio (x) = 0.30169 0.37957
# Poissons Ratio (y) = 0.56654 0.75860
# Poissons Ratio (z) = 0.18911 0.20126
#
# Static dielectric constant tensor:
#      x y z
#    x 3.446930 0.000000 0.000000 
#    y 0.000000 3.186200 0.000000 
#    z 0.000000 0.000000 3.803240 
# 
# 
# High freq. dielectric constant tensor:
#      x y z
#    x 1.725220 0.000000 0.000000 
#    y 0.000000 1.692740 0.000000 
#    z 0.000000 0.000000 1.749930 
# 
# From -- ./inp_files/15795.got.cif
#   From: 2010.03.12/outbox.cif.g09.slc.cpg/sg36_8_cif.got.tgz:15795.got - 2010.04.14 02:13:53.
