data_PCOD8174167
_publ_section_title
;
Structure prediction by ZEFSAII (Michael W. Deem and Ramdas Pophale) SiO2 
 PCOD8174167
Probable space group: C M M 2
;
_chemical_formula_sum "Si O2"
_cell_formula_units_Z 24
_cell_length_a 15.000000
_cell_length_b 9.000000
_cell_length_c 18.000000
_cell_angle_alpha 90.000000
_cell_angle_beta 90.000000
_cell_angle_gamma 90.000000
_cell_volume 2430.000000
_symmetry_space_group_name_H-M "C M M 2"
_symmetry_group_IT_number 35
_symmetry_cell_setting 'orthorhombic'
loop_
_space_group_symop_operation_xyz
x,y,z
-x,-y,z
-x,y,z
x,-y,z
1/2+x,1/2+y,z
1/2-x,1/2-y,z
1/2-x,1/2+y,z
1/2+x,1/2-y,z
loop_
_atom_site_type_symbol
_atom_site_label
_atom_site_fract_x
_atom_site_fract_y
_atom_site_fract_z
Si Si1 0.153380 0.175572 0.297700
Si Si2 0.666437 0.168849 0.946206
Si Si3 0.835907 0.329528 0.637888
Si Si4 0.500000 0.327572 0.194158
Si Si5 0.597792 0.171125 0.795338
Si Si6 0.500000 0.835317 0.049046
Si Si7 0.500000 0.324372 0.568094
Si Si8 0.500000 0.675910 0.404897
O O1 0.250000 0.250000 0.298634
O O2 0.093032 0.233233 0.228456
O O3 0.092665 0.227712 0.367313
O O4 0.169883 0.000000 0.296370
O O5 0.750000 0.250000 0.983004
O O6 0.642296 0.246953 0.867306
O O7 0.693967 0.000000 0.934558
O O8 0.585251 0.189337 0.000134
O O9 0.841400 0.500000 0.611839
O O10 0.750000 0.250000 0.604175
O O11 0.835678 0.313652 0.726591
O O12 0.916086 0.234850 0.609783
O O13 0.500000 0.500000 0.212388
O O14 0.500000 0.293461 0.108507
O O15 0.500000 0.241809 0.778211
O O16 0.582054 0.000000 0.815716
O O17 0.500000 0.000000 0.085419
O O18 0.500000 0.500000 0.567951
O O19 0.500000 0.255595 0.486248
O O20 0.500000 0.500000 0.404501
#
# Coordination Sequence:
#
# PCOD8174167 Si02
#       8
#     8   8   8   4   8   4   4   4
#     4   9  18  36  60  84 108 139 176 215 260 310
#     4  10  20  35  55  77 103 138 180 224 272 321
#     4  11  22  37  57  81 110 147 188 233 282 332
#     4   9  20  37  56  78 110 144 172 211 262 312
#     4   9  16  32  57  77 100 138 182 229 278 323
#     4  10  21  36  54  76 107 144 178 214 260 318
#     4  11  22  38  58  82 114 149 184 226 274 331
#     4   8  18  37  58  80 111 145 176 215 266 317
#
# _framework density 9.8765429999999999
#
# number of rings (size 3 to 8) (size 9 to 14) (size 15 to 20)
#    0.000    2.333    1.667    2.250    0.000    2.667 
#    0.000    8.750    0.000    0.000    0.000    0.000 
#    0.000    0.000    0.000    0.000    0.000    0.000 
#
# Total GULP energy -297359.965223 kJ/mol
# GULP energy per Si atom -12389.998551 kJ/mol
# Density = 0.985406 g / cm^3
# Si number density = 9.876543 Si / 1000 Ang^3
#
#
#
# Elastic Constant Matrix: (Units=GPa)
#
#
# Indices 1 2 3 4 5 6 
#
# 1 164.5721 52.2181 28.9948 0.0000 0.0000 0.0000
# 2 52.2181 47.6616 33.1170 0.0000 0.0000 0.0000
# 3 28.9948 33.1170 70.0815 0.0000 0.0000 0.0000
# 4 0.0000 0.0000 0.0000 12.2239 0.0000 0.0000
# 5 0.0000 0.0000 0.0000 0.0000 30.4543 0.0000
# 6 0.0000 0.0000 0.0000 0.0000 0.0000 124.4951
#
#
#
# Elastic Compliance Matrix: (Units=1/GPa)
#
#
# Indices 1 2 3 4 5 6 
#
# 1 0.009413 -0.011326 0.001458 0.000000 0.000000 0.000000
# 2 -0.011326 0.044865 -0.016515 0.000000 0.000000 0.000000
# 3 0.001458 -0.016515 0.021470 0.000000 0.000000 0.000000
# 4 0.000000 0.000000 0.000000 0.081807 0.000000 0.000000
# 5 0.000000 0.000000 0.000000 0.000000 0.032836 0.000000
# 6 0.000000 0.000000 0.000000 0.000000 0.000000 0.008032
#
#
# Mechanical properties :
#
#
# Convention : Reuss Voigt Hill
#
# Bulk Modulus (GPa) = 43.51294 56.77499 50.14397
# Shear Modulus (GPa) = 19.31602 44.63367 31.97485
#
# Velocity S-wave (km/s) = 3.13049 4.75866 4.02770
# Velocity P-wave (km/s) = 5.92814 7.68101 6.86078
#
# Compressibility (1/GPa) = 0.02298167
#
# Stress axis : x y z
#
# Youngs Moduli (GPa) = 106.23347 22.28892 46.57580
#
# Poissons Ratio (x) = 0.25244 -0.06788
# Poissons Ratio (y) = 1.20319 0.76921
# Poissons Ratio (z) = -0.15484 0.36811
#
# Static dielectric constant tensor:
#      x y z
#    x 3.589370 0.000000 0.000000 
#    y 0.000000 3.257120 0.000000 
#    z 0.000000 0.000000 3.566980 
# 
# 
# High freq. dielectric constant tensor:
#      x y z
#    x 1.779150 0.000000 0.000000 
#    y 0.000000 1.731760 0.000000 
#    z 0.000000 0.000000 1.750800 
# 
# From -- ./inp_files/18829.got.cif
#   From: 2010.03.12/outbox.ucp.g09.slc.cvg/sg35_10_cif.got.tgz:18829.got - 2010.05.04 21:11:10.
