data_PCOD8174132
_publ_section_title
;
Structure prediction by ZEFSAII (Michael W. Deem and Ramdas Pophale) SiO2 
 PCOD8174132
Probable space group: C M M 2
;
_chemical_formula_sum "Si O2"
_cell_formula_units_Z 40
_cell_length_a 9.589394
_cell_length_b 15.367279
_cell_length_c 12.819214
_cell_angle_alpha 90.000000
_cell_angle_beta 90.000000
_cell_angle_gamma 90.000000
_cell_volume 1889.076462
_symmetry_space_group_name_H-M "C M M 2"
_symmetry_group_IT_number 35
_symmetry_cell_setting 'orthorhombic'
loop_
_space_group_symop_operation_xyz
x,y,z
-x,-y,z
-x,y,z
x,-y,z
1/2+x,1/2+y,z
1/2-x,1/2-y,z
1/2-x,1/2+y,z
1/2+x,1/2-y,z
loop_
_atom_site_type_symbol
_atom_site_label
_atom_site_fract_x
_atom_site_fract_y
_atom_site_fract_z
Si Si1 0.000000 0.403583 0.773980
Si Si2 0.500000 0.595761 0.726093
Si Si3 0.665383 0.160433 0.387028
Si Si4 0.500000 0.260056 0.908764
Si Si5 0.266883 0.852067 0.618363
Si Si6 0.835973 0.097738 0.204491
Si Si7 0.750000 0.750000 0.061222
O O1 0.133578 0.390236 0.704519
O O2 0.000000 0.500000 0.822569
O O3 0.000000 0.337732 0.868880
O O4 0.500000 0.500000 0.779630
O O5 0.500000 0.669012 0.815970
O O6 0.377349 0.602965 0.643094
O O7 0.500000 0.170503 0.358116
O O8 0.750000 0.250000 0.376993
O O9 0.676740 0.123678 0.504175
O O10 0.749847 0.094630 0.312821
O O11 0.372935 0.271634 0.984305
O O12 0.250000 0.750000 0.633040
O O13 0.746051 0.164349 0.133670
O O14 0.000000 0.126258 0.217987
O O15 0.831202 0.000000 0.157424
#
# Coordination Sequence:
#
# PCOD8174132 Si02
#       7
#     4   4   8   4   8   8   4
#     4  12  24  44  69 101 138 175 223 280 341 404
#     4  12  26  44  71 103 138 183 235 280 339 412
#     4  11  24  41  72 107 142 188 229 273 341 418
#     4  12  26  46  72  98 134 176 232 294 350 400
#     4  11  22  43  69 100 144 185 221 274 334 407
#     4  11  26  48  73 104 140 179 230 286 350 421
#     4  12  26  48  74  96 134 178 228 296 356 400
#
# _framework density 21.174368000000001
#
# number of rings (size 3 to 8) (size 9 to 14) (size 15 to 20)
#    0.000    0.600    5.000    2.400    7.000    3.600 
#    0.000    0.000    0.000    0.000    0.000    0.000 
#    0.000    0.000    0.000    0.000    0.000    0.000 
#
# Total GULP energy -247863.193274 kJ/mol
# GULP energy per Si atom -12393.159664 kJ/mol
# Density = 2.112617 g / cm^3
# Si number density = 21.174368 Si / 1000 Ang^3
#
#
#
# Elastic Constant Matrix: (Units=GPa)
#
#
# Indices 1 2 3 4 5 6 
#
# 1 126.3900 9.2878 14.1485 0.0000 0.0000 0.0000
# 2 9.2878 130.7090 36.8949 0.0000 0.0000 0.0000
# 3 14.1485 36.8949 71.9534 0.0000 0.0000 0.0000
# 4 0.0000 0.0000 0.0000 12.8320 0.0000 0.0000
# 5 0.0000 0.0000 0.0000 0.0000 25.2182 0.0000
# 6 0.0000 0.0000 0.0000 0.0000 0.0000 31.9425
#
#
#
# Elastic Compliance Matrix: (Units=1/GPa)
#
#
# Indices 1 2 3 4 5 6 
#
# 1 0.008093 -0.000147 -0.001516 0.000000 0.000000 0.000000
# 2 -0.000147 0.008948 -0.004559 0.000000 0.000000 0.000000
# 3 -0.001516 -0.004559 0.016534 0.000000 0.000000 0.000000
# 4 0.000000 0.000000 0.000000 0.077930 0.000000 0.000000
# 5 0.000000 0.000000 0.000000 0.000000 0.039654 0.000000
# 6 0.000000 0.000000 0.000000 0.000000 0.000000 0.031306
#
#
# Mechanical properties :
#
#
# Convention : Reuss Voigt Hill
#
# Bulk Modulus (GPa) = 47.32647 49.96829 48.64738
# Shear Modulus (GPa) = 24.75834 31.91329 28.33582
#
# Velocity S-wave (km/s) = 3.42315 3.88644 3.66213
# Velocity P-wave (km/s) = 6.16631 6.61732 6.39579
#
# Compressibility (1/GPa) = 0.02112982
#
# Stress axis : x y z
#
# Youngs Moduli (GPa) = 123.57092 111.75740 60.48245
#
# Poissons Ratio (x) = 0.01645 0.09168
# Poissons Ratio (y) = 0.01819 0.27575
# Poissons Ratio (z) = 0.18731 0.50953
#
# Static dielectric constant tensor:
#      x y z
#    x 4.097250 0.000000 0.000000 
#    y 0.000000 3.903270 0.000000 
#    z 0.000000 0.000000 3.992110 
# 
# 
# High freq. dielectric constant tensor:
#      x y z
#    x 1.848320 0.000000 0.000000 
#    y 0.000000 1.832250 0.000000 
#    z 0.000000 0.000000 1.830240 
# 
# From -- ./inp_files/14869.got.cif
#   From: 2010.03.12/outbox.cif.g09.slc.cpg/sg35_8_cif.got.tgz:14869.got - 2010.04.14 02:02:04.
