data_PCOD8174611
_publ_section_title
;
Structure prediction by ZEFSAII (Michael W. Deem and Ramdas Pophale) SiO2 
 PCOD8174611
Probable space group: C M C 21
;
_chemical_formula_sum "Si O2"
_cell_formula_units_Z 64
_cell_length_a 8.880259
_cell_length_b 19.865604
_cell_length_c 19.843609
_cell_angle_alpha 90.000000
_cell_angle_beta 90.000000
_cell_angle_gamma 90.000000
_cell_volume 3500.644971
_symmetry_space_group_name_H-M "C M C 21"
_symmetry_group_IT_number 36
_symmetry_cell_setting 'orthorhombic'
loop_
_space_group_symop_operation_xyz
x,y,z
-x,-y,1/2+z
x,-y,1/2+z
-x,y,z
1/2+x,1/2+y,z
1/2-x,1/2-y,1/2+z
1/2+x,1/2-y,1/2+z
1/2-x,1/2+y,z
loop_
_atom_site_type_symbol
_atom_site_label
_atom_site_fract_x
_atom_site_fract_y
_atom_site_fract_z
Si Si1 0.175179 0.911459 0.485540
Si Si2 0.824473 0.698180 0.755031
Si Si3 0.176683 0.845544 0.715442
Si Si4 0.174696 0.689074 0.077053
Si Si5 0.322463 0.979756 0.733562
Si Si6 0.671481 0.333569 0.119721
Si Si7 0.173184 0.981509 0.095461
Si Si8 0.323787 0.413371 0.331821
O O1 0.266907 0.845625 0.509012
O O2 0.218258 0.928127 0.409003
O O3 0.000000 0.894242 0.492195
O O4 0.221183 0.976364 0.529817
O O5 0.783399 0.777234 0.755396
O O6 0.782087 0.665867 0.683296
O O7 0.730228 0.662111 0.813773
O O8 0.000000 0.685879 0.767475
O O9 0.235096 0.842757 0.639097
O O10 0.255644 0.907026 0.754151
O O11 0.000000 0.858209 0.712643
O O12 0.204810 0.769436 0.071875
O O13 0.000000 0.673015 0.087825
O O14 0.500000 0.977178 0.738318
O O15 0.275096 0.997580 0.657924
O O16 0.263113 0.034185 0.785736
O O17 0.500000 0.329563 0.147081
O O18 0.697486 0.402413 0.078219
O O19 0.000000 0.995925 0.114966
O O20 0.500000 0.420336 0.317842
#
# Coordination Sequence:
#
# PCOD8174611 Si02
#       8
#     8   8   8   8   8   8   8   8
#     4  10  22  38  57  80 111 154 196 231 282 349
#     4  10  20  34  55  83 111 142 186 237 281 332
#     4  10  20  35  56  82 113 146 183 231 287 338
#     4  10  19  32  53  83 114 143 181 231 282 331
#     4  12  23  35  56  87 115 146 192 241 288 337
#     4   9  18  32  54  82 111 143 179 225 281 333
#     4  10  19  35  58  82 111 149 189 233 282 337
#     4  11  23  39  57  79 114 159 196 233 287 347
#
# _framework density 18.282346
#
# number of rings (size 3 to 8) (size 9 to 14) (size 15 to 20)
#    0.000    1.750    2.500    2.625    0.000    3.000 
#    0.000    1.250    0.000    3.000    0.000    0.000 
#    0.000    0.000    0.000    0.000    0.000    0.000 
#
# Total GULP energy -396863.671413 kJ/mol
# GULP energy per Si atom -12401.989732 kJ/mol
# Density = 1.824073 g / cm^3
# Si number density = 18.282346 Si / 1000 Ang^3
#
#
#
# Elastic Constant Matrix: (Units=GPa)
#
#
# Indices 1 2 3 4 5 6 
#
# 1 99.5462 55.4859 51.8932 0.0000 0.0000 0.0000
# 2 55.4859 136.6110 57.5702 0.0000 0.0000 0.0000
# 3 51.8932 57.5702 97.7409 0.0000 0.0000 0.0000
# 4 0.0000 0.0000 0.0000 24.7646 0.0000 0.0000
# 5 0.0000 0.0000 0.0000 0.0000 21.6501 0.0000
# 6 0.0000 0.0000 0.0000 0.0000 0.0000 31.6960
#
#
#
# Elastic Compliance Matrix: (Units=1/GPa)
#
#
# Indices 1 2 3 4 5 6 
#
# 1 0.015163 -0.003679 -0.005884 0.000000 0.000000 0.000000
# 2 -0.003679 0.010630 -0.004308 0.000000 0.000000 0.000000
# 3 -0.005884 -0.004308 0.015892 0.000000 0.000000 0.000000
# 4 0.000000 0.000000 0.000000 0.040380 0.000000 0.000000
# 5 0.000000 0.000000 0.000000 0.000000 0.046189 0.000000
# 6 0.000000 0.000000 0.000000 0.000000 0.000000 0.031550
#
#
# Mechanical properties :
#
#
# Convention : Reuss Voigt Hill
#
# Bulk Modulus (GPa) = 71.71334 73.75518 72.73426
# Shear Modulus (GPa) = 26.01548 26.88540 26.45044
#
# Velocity S-wave (km/s) = 3.77634 3.83896 3.80778
# Velocity P-wave (km/s) = 7.63708 7.75113 7.69431
#
# Compressibility (1/GPa) = 0.01394441
#
# Stress axis : x y z
#
# Youngs Moduli (GPa) = 65.94792 94.07576 62.92475
#
# Poissons Ratio (x) = 0.34614 0.37022
# Poissons Ratio (y) = 0.24265 0.27105
# Poissons Ratio (z) = 0.38800 0.40523
#
# Static dielectric constant tensor:
#      x y z
#    x 3.421070 0.000000 0.000000 
#    y 0.000000 3.748290 0.000000 
#    z 0.000000 0.000000 3.143270 
# 
# 
# High freq. dielectric constant tensor:
#      x y z
#    x 1.716620 0.000000 0.000000 
#    y 0.000000 1.727270 0.000000 
#    z 0.000000 0.000000 1.671820 
# 
# From -- ./inp_files/13858.got.cif
#   From: 2010.03.12/outbox.cif.g09.slc.cpg/sg36_7_cif.got.tgz:13858.got - 2010.04.14 02:13:53.
