data_PCOD8174991
_publ_section_title
;
Structure prediction by ZEFSAII (Michael W. Deem and Ramdas Pophale) SiO2 
 PCOD8174991
Probable space group: C M C 21
;
_chemical_formula_sum "Si O2"
_cell_formula_units_Z 64
_cell_length_a 8.927584
_cell_length_b 19.772157
_cell_length_c 18.607778
_cell_angle_alpha 90.000000
_cell_angle_beta 90.000000
_cell_angle_gamma 90.000000
_cell_volume 3284.600174
_symmetry_space_group_name_H-M "C M C 21"
_symmetry_group_IT_number 36
_symmetry_cell_setting 'orthorhombic'
loop_
_space_group_symop_operation_xyz
x,y,z
-x,-y,1/2+z
x,-y,1/2+z
-x,y,z
1/2+x,1/2+y,z
1/2-x,1/2-y,1/2+z
1/2+x,1/2-y,1/2+z
1/2-x,1/2+y,z
loop_
_atom_site_type_symbol
_atom_site_label
_atom_site_fract_x
_atom_site_fract_y
_atom_site_fract_z
Si Si1 0.676880 0.566803 0.706140
Si Si2 0.675927 0.632767 0.556977
Si Si3 0.324263 0.802220 0.738700
Si Si4 0.177726 0.771866 0.588145
Si Si5 0.177022 0.877093 0.472491
Si Si6 0.824214 0.974358 0.938022
Si Si7 0.323395 0.673241 0.822319
Si Si8 0.323141 0.049964 0.286071
O O1 0.500000 0.555675 0.712067
O O2 0.723863 0.590631 0.627061
O O3 0.738763 0.622139 0.762178
O O4 0.757684 0.496382 0.722888
O O5 0.500000 0.648499 0.559167
O O6 0.764151 0.702822 0.552425
O O7 0.721568 0.588479 0.487845
O O8 0.500000 0.799374 0.721359
O O9 0.238720 0.780922 0.667505
O O10 0.279850 0.749537 0.801262
O O11 0.271374 0.874482 0.767052
O O12 0.238054 0.834926 0.540470
O O13 0.000000 0.769221 0.590370
O O14 0.247029 0.845150 0.399543
O O15 0.000000 0.869010 0.469948
O O16 0.222253 0.955978 0.478337
O O17 0.739914 0.970902 0.862986
O O18 0.000000 0.974792 0.921403
O O19 0.500000 0.664023 0.825139
O O20 0.500000 0.043305 0.288271
#
# Coordination Sequence:
#
# PCOD8174991 Si02
#       8
#     8   8   8   8   8   8   8   8
#     4  10  19  37  65  84 107 155 202 238 280 349
#     4  10  22  39  61  86 118 158 196 237 293 357
#     4  10  22  40  60  82 116 158 196 234 292 358
#     4  11  23  37  60  89 119 151 193 248 289 340
#     4   9  19  35  58  86 111 147 196 237 282 339
#     4  10  21  40  62  84 114 156 203 241 281 354
#     4   9  16  34  62  80 100 148 200 234 272 340
#     4  11  24  38  58  89 123 153 190 249 303 343
#
# _framework density 19.484867000000001
#
# number of rings (size 3 to 8) (size 9 to 14) (size 15 to 20)
#    0.000    2.000    2.500    0.750    3.500    2.000 
#    0.000    1.250    0.000    0.000    0.000    0.000 
#    0.000    0.000    0.000    0.000    0.000    0.000 
#
# Total GULP energy -396840.870942 kJ/mol
# GULP energy per Si atom -12401.277217 kJ/mol
# Density = 1.944052 g / cm^3
# Si number density = 19.484867 Si / 1000 Ang^3
#
#
#
# Elastic Constant Matrix: (Units=GPa)
#
#
# Indices 1 2 3 4 5 6 
#
# 1 33.8954 31.3298 12.9670 0.0000 0.0000 0.0000
# 2 31.3298 134.6871 17.0368 0.0000 0.0000 0.0000
# 3 12.9670 17.0368 56.3362 0.0000 0.0000 0.0000
# 4 0.0000 0.0000 0.0000 40.8321 0.0000 0.0000
# 5 0.0000 0.0000 0.0000 0.0000 20.9817 0.0000
# 6 0.0000 0.0000 0.0000 0.0000 0.0000 29.4970
#
#
#
# Elastic Compliance Matrix: (Units=1/GPa)
#
#
# Indices 1 2 3 4 5 6 
#
# 1 0.039823 -0.008426 -0.006618 0.000000 0.000000 0.000000
# 2 -0.008426 0.009503 -0.000934 0.000000 0.000000 0.000000
# 3 -0.006618 -0.000934 0.019556 0.000000 0.000000 0.000000
# 4 0.000000 0.000000 0.000000 0.024491 0.000000 0.000000
# 5 0.000000 0.000000 0.000000 0.000000 0.047661 0.000000
# 6 0.000000 0.000000 0.000000 0.000000 0.000000 0.033902
#
#
# Mechanical properties :
#
#
# Convention : Reuss Voigt Hill
#
# Bulk Modulus (GPa) = 27.08178 38.62064 32.85121
# Shear Modulus (GPa) = 22.81028 29.16783 25.98905
#
# Velocity S-wave (km/s) = 3.42521 3.87324 3.65609
# Velocity P-wave (km/s) = 5.43800 6.31399 5.89230
#
# Compressibility (1/GPa) = 0.03692520
#
# Stress axis : x y z
#
# Youngs Moduli (GPa) = 25.11142 105.23205 51.13422
#
# Poissons Ratio (x) = 0.88669 0.33840
# Poissons Ratio (y) = 0.21159 0.04778
# Poissons Ratio (z) = 0.16618 0.09832
#
# Static dielectric constant tensor:
#      x y z
#    x 3.234560 0.000000 0.000000 
#    y 0.000000 3.867730 0.000000 
#    z 0.000000 0.000000 3.676980 
# 
# 
# High freq. dielectric constant tensor:
#      x y z
#    x 1.724910 0.000000 0.000000 
#    y 0.000000 1.776380 0.000000 
#    z 0.000000 0.000000 1.766380 
# 
# From -- ./inp_files/13982.got.cif
#   From: 2010.03.12/outbox.cif.g09.slc.cpg/sg36_7_cif.got.tgz:13982.got - 2010.04.14 02:13:53.
