data_PCOD8174661
_publ_section_title
;
Structure prediction by ZEFSAII (Michael W. Deem and Ramdas Pophale) SiO2 
 PCOD8174661
Probable space group: C M C 21
;
_chemical_formula_sum "Si O2"
_cell_formula_units_Z 64
_cell_length_a 21.841243
_cell_length_b 27.222844
_cell_length_c 5.415781
_cell_angle_alpha 90.000000
_cell_angle_beta 90.000000
_cell_angle_gamma 90.000000
_cell_volume 3220.119134
_symmetry_space_group_name_H-M "C M C 21"
_symmetry_group_IT_number 36
_symmetry_cell_setting 'orthorhombic'
loop_
_space_group_symop_operation_xyz
x,y,z
-x,-y,1/2+z
x,-y,1/2+z
-x,y,z
1/2+x,1/2+y,z
1/2-x,1/2-y,1/2+z
1/2+x,1/2-y,1/2+z
1/2-x,1/2+y,z
loop_
_atom_site_type_symbol
_atom_site_label
_atom_site_fract_x
_atom_site_fract_y
_atom_site_fract_z
Si Si1 0.238516 0.371977 0.274610
Si Si2 0.725312 0.022572 0.893822
Si Si3 0.069724 0.712237 0.084801
Si Si4 0.847630 0.120037 0.446048
Si Si5 0.819713 0.802952 0.576105
Si Si6 0.858112 0.695771 0.586220
Si Si7 0.431755 0.679447 0.738074
Si Si8 0.360894 0.483755 0.812708
O O1 0.213451 0.418765 0.428581
O O2 0.261221 0.325187 0.433878
O O3 0.185889 0.351571 0.093213
O O4 0.295831 0.396878 0.136997
O O5 0.695161 0.002846 0.637346
O O6 0.797104 0.009448 0.889226
O O7 0.103978 0.692781 0.331292
O O8 0.071587 0.771161 0.075415
O O9 0.000000 0.693019 0.096798
O O10 0.099307 0.693478 0.829862
O O11 0.819897 0.170585 0.339045
O O12 0.912519 0.132970 0.571557
O O13 0.856073 0.074839 0.257438
O O14 0.814831 0.744306 0.592862
O O15 0.885506 0.817112 0.464362
O O16 0.500000 0.671135 0.842597
O O17 0.395908 0.508309 0.578318
#
# Coordination Sequence:
#
# PCOD8174661 Si02
#       8
#     8   8   8   8   8   8   8   8
#     4  11  24  33  55  83 125 153 187 236 294 366
#     4  10  19  35  53  77 107 153 191 232 279 338
#     4  10  21  42  61  80 113 156 199 244 280 329
#     4  11  20  34  56  78 108 151 186 233 289 343
#     4  10  22  34  51  79 116 158 186 230 296 349
#     4  11  24  37  56  88 119 157 193 233 285 355
#     4   9  20  36  54  78 103 142 204 247 275 326
#     4  10  19  33  53  75 100 140 189 225 278 338
#
# _framework density 19.875042000000001
#
# number of rings (size 3 to 8) (size 9 to 14) (size 15 to 20)
#    0.000    1.750    3.750    1.875    5.250    1.000 
#    0.000    0.000    0.000    0.750    0.000    0.000 
#    0.000   10.000    0.000    0.000    0.000    0.000 
#
# Total GULP energy -396519.530148 kJ/mol
# GULP energy per Si atom -12391.235317 kJ/mol
# Density = 1.982981 g / cm^3
# Si number density = 19.875042 Si / 1000 Ang^3
#
#
#
# Elastic Constant Matrix: (Units=GPa)
#
#
# Indices 1 2 3 4 5 6 
#
# 1 59.9121 37.7536 20.3967 0.0000 0.0000 0.0000
# 2 37.7536 88.6419 18.3157 0.0000 0.0000 0.0000
# 3 20.3967 18.3157 116.0568 0.0000 0.0000 0.0000
# 4 0.0000 0.0000 0.0000 27.5807 0.0000 0.0000
# 5 0.0000 0.0000 0.0000 0.0000 17.3853 0.0000
# 6 0.0000 0.0000 0.0000 0.0000 0.0000 10.2379
#
#
#
# Elastic Compliance Matrix: (Units=1/GPa)
#
#
# Indices 1 2 3 4 5 6 
#
# 1 0.023574 -0.009494 -0.002645 0.000000 0.000000 0.000000
# 2 -0.009494 0.015485 -0.000775 0.000000 0.000000 0.000000
# 3 -0.002645 -0.000775 0.009204 0.000000 0.000000 0.000000
# 4 0.000000 0.000000 0.000000 0.036257 0.000000 0.000000
# 5 0.000000 0.000000 0.000000 0.000000 0.057520 0.000000
# 6 0.000000 0.000000 0.000000 0.000000 0.000000 0.097676
#
#
# Mechanical properties :
#
#
# Convention : Reuss Voigt Hill
#
# Bulk Modulus (GPa) = 44.57361 46.39364 45.48362
# Shear Modulus (GPa) = 18.31350 23.58377 20.94864
#
# Velocity S-wave (km/s) = 3.03880 3.44845 3.25009
# Velocity P-wave (km/s) = 5.89814 6.26491 6.08429
#
# Compressibility (1/GPa) = 0.02243480
#
# Stress axis : x y z
#
# Youngs Moduli (GPa) = 42.41937 64.57808 108.65271
#
# Poissons Ratio (x) = 0.61310 0.28736
# Poissons Ratio (y) = 0.40273 0.08423
# Poissons Ratio (z) = 0.11219 0.05006
#
# Static dielectric constant tensor:
#      x y z
#    x 3.246360 0.000000 0.000000 
#    y 0.000000 3.475110 0.000000 
#    z 0.000000 0.000000 4.046790 
# 
# 
# High freq. dielectric constant tensor:
#      x y z
#    x 1.718910 0.000000 0.000000 
#    y 0.000000 1.766590 0.000000 
#    z 0.000000 0.000000 1.788640 
# 
# From -- ./inp_files/1483.got.cif
#   From: 2010.03.12/outbox.cif.g09.slc.cpg/sg36_1_cif.got.tgz:1483.got - 2010.04.14 02:13:53.
