data_PCOD8174521
_publ_section_title
;
Structure prediction by ZEFSAII (Michael W. Deem and Ramdas Pophale) SiO2 
 PCOD8174521
Probable space group: C M C 21
;
_chemical_formula_sum "Si O2"
_cell_formula_units_Z 48
_cell_length_a 8.852745
_cell_length_b 18.541049
_cell_length_c 16.689102
_cell_angle_alpha 90.000000
_cell_angle_beta 90.000000
_cell_angle_gamma 90.000000
_cell_volume 2739.335498
_symmetry_space_group_name_H-M "C M C 21"
_symmetry_group_IT_number 36
_symmetry_cell_setting 'orthorhombic'
loop_
_space_group_symop_operation_xyz
x,y,z
-x,-y,1/2+z
x,-y,1/2+z
-x,y,z
1/2+x,1/2+y,z
1/2-x,1/2-y,1/2+z
1/2+x,1/2-y,1/2+z
1/2-x,1/2+y,z
loop_
_atom_site_type_symbol
_atom_site_label
_atom_site_fract_x
_atom_site_fract_y
_atom_site_fract_z
Si Si1 0.176818 0.662963 0.400760
Si Si2 0.819660 0.925764 0.038458
Si Si3 0.664185 0.301174 0.139640
Si Si4 0.821391 0.088236 0.072256
Si Si5 0.333227 0.790327 0.479742
Si Si6 0.678699 0.164582 0.218735
O O1 0.251601 0.601063 0.454625
O O2 0.242741 0.742932 0.415045
O O3 0.212325 0.641303 0.309162
O O4 0.000000 0.665554 0.418678
O O5 0.754748 0.876069 0.112843
O O6 0.000000 0.916671 0.033657
O O7 0.769326 0.006958 0.054137
O O8 0.500000 0.321505 0.174795
O O9 0.648867 0.255823 0.058938
O O10 0.744543 0.246726 0.202826
O O11 0.756226 0.136505 0.000152
O O12 0.758283 0.108359 0.159657
O O13 0.000000 0.096558 0.073482
O O14 0.500000 0.809660 0.445924
O O15 0.500000 0.165185 0.199478
#
# Coordination Sequence:
#
# PCOD8174521 Si02
#       6
#     8   8   8   8   8   8
#     4  10  19  31  50  75 100 129 167 207 246 294
#     4   9  18  32  50  72  98 131 167 203 247 295
#     4   7  12  27  48  65  85 119 158 191 232 285
#     4  10  19  31  50  75 100 129 169 207 241 295
#     4   9  17  31  50  69  94 128 162 199 245 291
#     4   9  18  32  50  72  99 130 163 205 255 298
#
# _framework density 17.522497000000001
#
# number of rings (size 3 to 8) (size 9 to 14) (size 15 to 20)
#    0.000    3.000    0.000    3.500    0.000    2.667 
#    0.000    1.667    0.000    4.000    0.000    0.000 
#    0.000    0.000    0.000    0.000    0.000    0.000 
#
# Total GULP energy -297329.588099 kJ/mol
# GULP energy per Si atom -12388.732837 kJ/mol
# Density = 1.748261 g / cm^3
# Si number density = 17.522497 Si / 1000 Ang^3
#
#
#
# Elastic Constant Matrix: (Units=GPa)
#
#
# Indices 1 2 3 4 5 6 
#
# 1 67.4066 48.0781 36.2067 0.0000 0.0000 0.0000
# 2 48.0781 155.8529 58.6137 0.0000 0.0000 0.0000
# 3 36.2067 58.6137 83.6999 0.0000 0.0000 0.0000
# 4 0.0000 0.0000 0.0000 20.8553 0.0000 0.0000
# 5 0.0000 0.0000 0.0000 0.0000 23.8135 0.0000
# 6 0.0000 0.0000 0.0000 0.0000 0.0000 24.3600
#
#
#
# Elastic Compliance Matrix: (Units=1/GPa)
#
#
# Indices 1 2 3 4 5 6 
#
# 1 0.021165 -0.004189 -0.006222 0.000000 0.000000 0.000000
# 2 -0.004189 0.009539 -0.004868 0.000000 0.000000 0.000000
# 3 -0.006222 -0.004868 0.018048 0.000000 0.000000 0.000000
# 4 0.000000 0.000000 0.000000 0.047949 0.000000 0.000000
# 5 0.000000 0.000000 0.000000 0.000000 0.041993 0.000000
# 6 0.000000 0.000000 0.000000 0.000000 0.000000 0.041051
#
#
# Mechanical properties :
#
#
# Convention : Reuss Voigt Hill
#
# Bulk Modulus (GPa) = 54.96288 65.86181 60.41234
# Shear Modulus (GPa) = 23.10860 24.74317 23.92589
#
# Velocity S-wave (km/s) = 3.63546 3.76184 3.69919
# Velocity P-wave (km/s) = 7.00409 7.51912 7.26617
#
# Compressibility (1/GPa) = 0.01819410
#
# Stress axis : x y z
#
# Youngs Moduli (GPa) = 47.24689 104.82807 55.40756
#
# Poissons Ratio (x) = 0.43914 0.34475
# Poissons Ratio (y) = 0.19792 0.26973
# Poissons Ratio (z) = 0.29397 0.51032
#
# Static dielectric constant tensor:
#      x y z
#    x 3.202080 0.000000 0.000000 
#    y 0.000000 3.504040 0.000000 
#    z 0.000000 0.000000 3.175040 
# 
# 
# High freq. dielectric constant tensor:
#      x y z
#    x 1.667090 0.000000 0.000000 
#    y 0.000000 1.675240 0.000000 
#    z 0.000000 0.000000 1.655550 
# 
# From -- ./inp_files/10464.got.cif
#   From: 2010.03.12/outbox.cif.g09.slc.cpg/sg36_6_cif.got.tgz:10464.got - 2010.04.14 02:13:53.
