data_PCOD8174774
_publ_section_title
;
Structure prediction by ZEFSAII (Michael W. Deem and Ramdas Pophale) SiO2 
 PCOD8174774
Probable space group: C M C 21
;
_chemical_formula_sum "Si O2"
_cell_formula_units_Z 64
_cell_length_a 9.397303
_cell_length_b 28.875213
_cell_length_c 12.265944
_cell_angle_alpha 90.000000
_cell_angle_beta 90.000000
_cell_angle_gamma 90.000000
_cell_volume 3328.353181
_symmetry_space_group_name_H-M "C M C 21"
_symmetry_group_IT_number 36
_symmetry_cell_setting 'orthorhombic'
loop_
_space_group_symop_operation_xyz
x,y,z
-x,-y,1/2+z
x,-y,1/2+z
-x,y,z
1/2+x,1/2+y,z
1/2-x,1/2-y,1/2+z
1/2+x,1/2-y,1/2+z
1/2-x,1/2+y,z
loop_
_atom_site_type_symbol
_atom_site_label
_atom_site_fract_x
_atom_site_fract_y
_atom_site_fract_z
Si Si1 0.342715 0.069151 0.530550
Si Si2 0.336721 0.381675 0.321657
Si Si3 0.342650 0.938768 0.783209
Si Si4 0.332670 0.175532 0.986621
Si Si5 0.833356 0.023372 0.706952
Si Si6 0.838479 0.848004 0.088800
Si Si7 0.832519 0.665589 0.235695
Si Si8 0.836738 0.775606 0.911494
O O1 0.500000 0.072296 0.584868
O O2 0.357887 0.050791 0.409716
O O3 0.241969 0.033810 0.593182
O O4 0.271928 0.119528 0.526413
O O5 0.500000 0.377474 0.357159
O O6 0.242344 0.366846 0.424349
O O7 0.298596 0.434825 0.290890
O O8 0.303963 0.347983 0.218081
O O9 0.500000 0.946028 0.729098
O O10 0.286989 0.887071 0.760097
O O11 0.225110 0.974070 0.742119
O O12 0.500000 0.167014 0.979514
O O13 0.286562 0.222888 0.926963
O O14 0.284769 0.177215 0.112568
O O15 0.000000 0.018991 0.686981
O O16 0.000000 0.867102 0.074056
O O17 0.820513 0.798247 0.032206
O O18 0.755925 0.700235 0.318758
O O19 0.000000 0.672491 0.253107
O O20 0.000000 0.778407 0.873337
#
# Coordination Sequence:
#
# PCOD8174774 Si02
#       8
#     8   8   8   8   8   8   8   8
#     4  10  19  34  56  83 113 146 191 243 291 345
#     4   9  20  38  58  82 114 152 195 238 288 348
#     4  10  21  37  58  86 115 149 195 244 295 350
#     4  10  23  39  58  85 120 158 194 239 295 351
#     4  10  22  38  58  85 116 156 200 241 295 354
#     4   9  18  34  57  82 110 146 189 241 291 341
#     4  10  22  41  61  85 119 155 194 239 296 354
#     4  10  21  37  58  86 115 148 194 241 289 347
#
# _framework density 19.228729999999999
#
# number of rings (size 3 to 8) (size 9 to 14) (size 15 to 20)
#    0.000    2.250    1.250    1.500    1.750    6.000 
#    0.000    3.750    0.000    0.000    0.000    0.000 
#    0.000    0.000    0.000    0.000    0.000    0.000 
#
# Total GULP energy -396739.118056 kJ/mol
# GULP energy per Si atom -12398.097439 kJ/mol
# Density = 1.918496 g / cm^3
# Si number density = 19.228730 Si / 1000 Ang^3
#
#
#
# Elastic Constant Matrix: (Units=GPa)
#
#
# Indices 1 2 3 4 5 6 
#
# 1 89.3836 52.4755 45.2528 0.0000 0.0000 0.0000
# 2 52.4755 102.8349 50.6562 0.0000 0.0000 0.0000
# 3 45.2528 50.6562 100.4735 0.0000 0.0000 0.0000
# 4 0.0000 0.0000 0.0000 27.2270 0.0000 0.0000
# 5 0.0000 0.0000 0.0000 0.0000 29.5420 0.0000
# 6 0.0000 0.0000 0.0000 0.0000 0.0000 29.6054
#
#
#
# Elastic Compliance Matrix: (Units=1/GPa)
#
#
# Indices 1 2 3 4 5 6 
#
# 1 0.017355 -0.006660 -0.004459 0.000000 0.000000 0.000000
# 2 -0.006660 0.015493 -0.004812 0.000000 0.000000 0.000000
# 3 -0.004459 -0.004812 0.014387 0.000000 0.000000 0.000000
# 4 0.000000 0.000000 0.000000 0.036728 0.000000 0.000000
# 5 0.000000 0.000000 0.000000 0.000000 0.033850 0.000000
# 6 0.000000 0.000000 0.000000 0.000000 0.000000 0.033778
#
#
# Mechanical properties :
#
#
# Convention : Reuss Voigt Hill
#
# Bulk Modulus (GPa) = 65.04301 65.49566 65.26934
# Shear Modulus (GPa) = 26.51449 26.89537 26.70493
#
# Velocity S-wave (km/s) = 3.71738 3.74399 3.73071
# Velocity P-wave (km/s) = 7.23358 7.26810 7.25086
#
# Compressibility (1/GPa) = 0.01537444
#
# Stress axis : x y z
#
# Youngs Moduli (GPa) = 57.62054 64.54599 69.50664
#
# Poissons Ratio (x) = 0.42985 0.30993
# Poissons Ratio (y) = 0.38373 0.33444
# Poissons Ratio (z) = 0.25693 0.31057
#
# Static dielectric constant tensor:
#      x y z
#    x 3.593920 0.000000 0.000000 
#    y 0.000000 3.446600 0.000000 
#    z 0.000000 0.000000 3.452160 
# 
# 
# High freq. dielectric constant tensor:
#      x y z
#    x 1.749660 0.000000 0.000000 
#    y 0.000000 1.743390 0.000000 
#    z 0.000000 0.000000 1.744010 
# 
# From -- ./inp_files/7128.got.cif
#   From: 2010.03.12/outbox.cif.g09.slc.cpg/sg36_4_cif.got.tgz:7128.got - 2010.04.14 02:13:53.
