data_PCOD8174708
_publ_section_title
;
Structure prediction by ZEFSAII (Michael W. Deem and Ramdas Pophale) SiO2 
 PCOD8174708
Probable space group: C M C 21
;
_chemical_formula_sum "Si O2"
_cell_formula_units_Z 64
_cell_length_a 8.649071
_cell_length_b 19.877185
_cell_length_c 19.707127
_cell_angle_alpha 90.000000
_cell_angle_beta 90.000000
_cell_angle_gamma 90.000000
_cell_volume 3388.033200
_symmetry_space_group_name_H-M "C M C 21"
_symmetry_group_IT_number 36
_symmetry_cell_setting 'orthorhombic'
loop_
_space_group_symop_operation_xyz
x,y,z
-x,-y,1/2+z
x,-y,1/2+z
-x,y,z
1/2+x,1/2+y,z
1/2-x,1/2-y,1/2+z
1/2+x,1/2-y,1/2+z
1/2-x,1/2+y,z
loop_
_atom_site_type_symbol
_atom_site_label
_atom_site_fract_x
_atom_site_fract_y
_atom_site_fract_z
Si Si1 0.179252 0.666371 0.437180
Si Si2 0.823370 0.417848 0.153487
Si Si3 0.822380 0.730643 0.676588
Si Si4 0.819943 0.832956 0.792835
Si Si5 0.321695 0.552370 0.514325
Si Si6 0.320070 0.407981 0.559397
Si Si7 0.320821 0.060473 0.201307
Si Si8 0.820296 0.273051 0.537398
O O1 0.220503 0.679447 0.359572
O O2 0.220923 0.589571 0.457120
O O3 0.275497 0.715787 0.484687
O O4 0.000000 0.679798 0.449455
O O5 0.799633 0.348328 0.194239
O O6 0.713288 0.417225 0.088318
O O7 0.783039 0.480557 0.202505
O O8 0.000000 0.425031 0.127457
O O9 0.772062 0.773273 0.741773
O O10 0.717266 0.750156 0.613408
O O11 0.000000 0.746496 0.657173
O O12 0.779103 0.904984 0.760129
O O13 0.000000 0.831302 0.811272
O O14 0.500000 0.565317 0.497534
O O15 0.280827 0.473018 0.513439
O O16 0.500000 0.407215 0.578772
O O17 0.223271 0.408667 0.628708
O O18 0.271923 0.341358 0.518412
O O19 0.500000 0.075101 0.215381
O O20 0.000000 0.288136 0.530831
#
# Coordination Sequence:
#
# PCOD8174708 Si02
#       8
#     8   8   8   8   8   8   8   8
#     4  12  25  41  60  82 117 159 201 246 302 360
#     4   9  18  33  56  85 116 149 188 234 286 341
#     4  10  20  36  59  86 117 155 194 241 295 347
#     4  11  23  39  59  83 117 157 200 246 298 354
#     4  10  20  35  57  86 116 148 191 240 292 347
#     4  10  20  35  57  86 119 151 188 240 294 344
#     4  10  19  33  55  85 117 150 191 237 286 345
#     4  12  23  36  59  89 119 153 199 248 293 352
#
# _framework density 18.890015999999999
#
# number of rings (size 3 to 8) (size 9 to 14) (size 15 to 20)
#    0.000    1.500    2.500    3.750    0.000    2.500 
#    0.000    1.250    0.000    4.500    0.000    0.000 
#    0.000    0.000    0.000    0.000    0.000    0.000 
#
# Total GULP energy -396913.584519 kJ/mol
# GULP energy per Si atom -12403.549516 kJ/mol
# Density = 1.884702 g / cm^3
# Si number density = 18.890016 Si / 1000 Ang^3
#
#
#
# Elastic Constant Matrix: (Units=GPa)
#
#
# Indices 1 2 3 4 5 6 
#
# 1 55.4663 29.2441 20.2481 0.0000 0.0000 0.0000
# 2 29.2441 128.8046 42.4300 0.0000 0.0000 0.0000
# 3 20.2481 42.4300 76.8619 0.0000 0.0000 0.0000
# 4 0.0000 0.0000 0.0000 24.4932 0.0000 0.0000
# 5 0.0000 0.0000 0.0000 0.0000 30.0078 0.0000
# 6 0.0000 0.0000 0.0000 0.0000 0.0000 28.3870
#
#
#
# Elastic Compliance Matrix: (Units=1/GPa)
#
#
# Indices 1 2 3 4 5 6 
#
# 1 0.021261 -0.003645 -0.003589 0.000000 0.000000 0.000000
# 2 -0.003645 0.010114 -0.004623 0.000000 0.000000 0.000000
# 3 -0.003589 -0.004623 0.016508 0.000000 0.000000 0.000000
# 4 0.000000 0.000000 0.000000 0.040828 0.000000 0.000000
# 5 0.000000 0.000000 0.000000 0.000000 0.033325 0.000000
# 6 0.000000 0.000000 0.000000 0.000000 0.000000 0.035227
#
#
# Mechanical properties :
#
#
# Convention : Reuss Voigt Hill
#
# Bulk Modulus (GPa) = 41.37484 49.44191 45.40838
# Shear Modulus (GPa) = 26.45047 27.85829 27.15438
#
# Velocity S-wave (km/s) = 3.74603 3.84443 3.79555
# Velocity P-wave (km/s) = 6.37659 6.77765 6.58018
#
# Compressibility (1/GPa) = 0.02416928
#
# Stress axis : x y z
#
# Youngs Moduli (GPa) = 47.03489 98.87108 60.57726
#
# Poissons Ratio (x) = 0.36038 0.21739
# Poissons Ratio (y) = 0.17144 0.28006
# Poissons Ratio (z) = 0.16879 0.45709
#
# Static dielectric constant tensor:
#      x y z
#    x 3.497440 0.000000 0.000000 
#    y 0.000000 3.839530 0.000000 
#    z 0.000000 0.000000 3.164830 
# 
# 
# High freq. dielectric constant tensor:
#      x y z
#    x 1.743230 0.000000 0.000000 
#    y 0.000000 1.751840 0.000000 
#    z 0.000000 0.000000 1.696010 
# 
# From -- ./inp_files/13826.got.cif
#   From: 2010.03.12/outbox.cif.g09.slc.cpg/sg36_7_cif.got.tgz:13826.got - 2010.04.14 02:13:53.
