data_PCOD8174021
_publ_section_title
;
Structure prediction by ZEFSAII (Michael W. Deem and Ramdas Pophale) SiO2 
 PCOD8174021
Probable space group: C M M 2
;
_chemical_formula_sum "Si O2"
_cell_formula_units_Z 64
_cell_length_a 30.923818
_cell_length_b 8.600718
_cell_length_c 11.897823
_cell_angle_alpha 90.000000
_cell_angle_beta 90.000000
_cell_angle_gamma 90.000000
_cell_volume 3164.428743
_symmetry_space_group_name_H-M "C M M 2"
_symmetry_group_IT_number 35
_symmetry_cell_setting 'orthorhombic'
loop_
_space_group_symop_operation_xyz
x,y,z
-x,-y,z
-x,y,z
x,-y,z
1/2+x,1/2+y,z
1/2-x,1/2-y,z
1/2-x,1/2+y,z
1/2+x,1/2-y,z
loop_
_atom_site_type_symbol
_atom_site_label
_atom_site_fract_x
_atom_site_fract_y
_atom_site_fract_z
Si Si1 0.677538 0.818388 0.222160
Si Si2 0.793652 0.817025 0.451198
Si Si3 0.415392 0.318187 0.224335
Si Si4 0.547768 0.684328 0.988372
Si Si5 0.451669 0.178751 0.438852
Si Si6 0.125475 0.184669 0.833390
Si Si7 0.795105 0.182542 0.987591
Si Si8 0.128522 0.318720 0.588453
O O1 0.703688 0.763980 0.330407
O O2 0.627750 0.779295 0.242719
O O3 0.696340 0.732754 0.114386
O O4 0.683899 0.000000 0.204433
O O5 0.750000 0.750000 0.509030
O O6 0.834300 0.778969 0.528785
O O7 0.790713 0.000000 0.435757
O O8 0.403747 0.500000 0.216112
O O9 0.446398 0.286368 0.329487
O O10 0.438514 0.257406 0.111722
O O11 0.500000 0.750789 0.959472
O O12 0.546770 0.500000 0.989803
O O13 0.582069 0.741956 0.896322
O O14 0.500000 0.205680 0.487007
O O15 0.417632 0.227239 0.534737
O O16 0.444650 0.000000 0.403128
O O17 0.127274 0.275800 0.718023
O O18 0.125612 0.000000 0.813227
O O19 0.166195 0.239535 0.907592
O O20 0.750000 0.250000 0.941870
O O21 0.791992 0.000000 0.984389
O O22 0.138645 0.500000 0.572940
#
# Coordination Sequence:
#
# PCOD8174021 Si02
#       8
#     8   8   8   8   8   8   8   8
#     4  12  23  38  62  93 128 164 200 245 306 370
#     4  12  25  43  67  94 125 161 203 251 306 368
#     4  11  20  35  61  93 125 162 203 251 306 367
#     4   9  18  35  60  90 123 158 199 250 305 359
#     4  10  22  40  61  88 126 167 205 253 310 368
#     4  10  22  41  62  86 120 161 208 259 307 357
#     4  11  23  41  63  91 123 160 203 251 305 362
#     4  11  24  42  63  89 123 164 210 258 309 363
#
# _framework density 20.224820999999999
#
# number of rings (size 3 to 8) (size 9 to 14) (size 15 to 20)
#    0.000    1.250    2.500    4.125    0.000    3.250 
#    0.000    1.250    0.000    1.500    0.000    0.000 
#    0.000    0.000    0.000    0.000    0.000    0.000 
#
# Total GULP energy -396939.922414 kJ/mol
# GULP energy per Si atom -12404.372575 kJ/mol
# Density = 2.017879 g / cm^3
# Si number density = 20.224821 Si / 1000 Ang^3
#
#
#
# Elastic Constant Matrix: (Units=GPa)
#
#
# Indices 1 2 3 4 5 6 
#
# 1 160.7027 22.4807 45.3647 0.0000 0.0000 0.0000
# 2 22.4807 32.3051 11.3623 0.0000 0.0000 0.0000
# 3 45.3647 11.3623 112.4616 0.0000 0.0000 0.0000
# 4 0.0000 0.0000 0.0000 31.0634 0.0000 0.0000
# 5 0.0000 0.0000 0.0000 0.0000 3.3391 0.0000
# 6 0.0000 0.0000 0.0000 0.0000 0.0000 23.4955
#
#
#
# Elastic Compliance Matrix: (Units=1/GPa)
#
#
# Indices 1 2 3 4 5 6 
#
# 1 0.007569 -0.004348 -0.002614 0.000000 0.000000 0.000000
# 2 -0.004348 0.034593 -0.001741 0.000000 0.000000 0.000000
# 3 -0.002614 -0.001741 0.010122 0.000000 0.000000 0.000000
# 4 0.000000 0.000000 0.000000 0.032192 0.000000 0.000000
# 5 0.000000 0.000000 0.000000 0.000000 0.299483 0.000000
# 6 0.000000 0.000000 0.000000 0.000000 0.000000 0.042561
#
#
# Mechanical properties :
#
#
# Convention : Reuss Voigt Hill
#
# Bulk Modulus (GPa) = 28.67114 51.54274 40.10694
# Shear Modulus (GPa) = 10.97569 26.66371 18.81970
#
# Velocity S-wave (km/s) = 2.33209 3.63487 3.05376
# Velocity P-wave (km/s) = 4.63233 6.56937 5.68397
#
# Compressibility (1/GPa) = 0.03487828
#
# Stress axis : x y z
#
# Youngs Moduli (GPa) = 132.12286 28.90779 98.79278
#
# Poissons Ratio (x) = 0.12568 0.25823
# Poissons Ratio (y) = 0.57442 0.17202
# Poissons Ratio (z) = 0.34534 0.05034
#
# Static dielectric constant tensor:
#      x y z
#    x 4.180560 0.000000 0.000000 
#    y 0.000000 3.539790 0.000000 
#    z 0.000000 0.000000 3.607490 
# 
# 
# High freq. dielectric constant tensor:
#      x y z
#    x 1.810080 0.000000 0.000000 
#    y 0.000000 1.781910 0.000000 
#    z 0.000000 0.000000 1.784380 
# 
# From -- ./inp_files/11958.got.cif
#   From: 2010.03.12/outbox.cif.g09.slc.cpg/sg35_6_cif.got.tgz:11958.got - 2010.04.14 02:02:04.
