data_PCOD8174422
_publ_section_title
;
Structure prediction by ZEFSAII (Michael W. Deem and Ramdas Pophale) SiO2 
 PCOD8174422
Probable space group: C M C 21
;
_chemical_formula_sum "Si O2"
_cell_formula_units_Z 64
_cell_length_a 8.695893
_cell_length_b 30.799377
_cell_length_c 12.216586
_cell_angle_alpha 90.000000
_cell_angle_beta 90.000000
_cell_angle_gamma 90.000000
_cell_volume 3271.944856
_symmetry_space_group_name_H-M "C M C 21"
_symmetry_group_IT_number 36
_symmetry_cell_setting 'orthorhombic'
loop_
_space_group_symop_operation_xyz
x,y,z
-x,-y,1/2+z
x,-y,1/2+z
-x,y,z
1/2+x,1/2+y,z
1/2-x,1/2-y,1/2+z
1/2+x,1/2-y,1/2+z
1/2-x,1/2+y,z
loop_
_atom_site_type_symbol
_atom_site_label
_atom_site_fract_x
_atom_site_fract_y
_atom_site_fract_z
Si Si1 0.328038 0.322805 0.661050
Si Si2 0.183279 0.954720 0.436584
Si Si3 0.683030 0.297398 0.896937
Si Si4 0.682569 0.447253 0.895494
Si Si5 0.328593 0.576377 0.163045
Si Si6 0.183036 0.127342 0.558003
Si Si7 0.317324 0.122246 0.798876
Si Si8 0.680291 0.797748 0.444057
O O1 0.500000 0.302875 0.650748
O O2 0.256050 0.314053 0.780063
O O3 0.335031 0.373292 0.639660
O O4 0.217615 0.302318 0.571354
O O5 0.252900 0.944564 0.557035
O O6 0.253878 0.922888 0.346222
O O7 0.000000 0.949022 0.432957
O O8 0.235623 0.003735 0.414761
O O9 0.500000 0.298293 0.897682
O O10 0.750032 0.248893 0.910117
O O11 0.739682 0.329733 0.992717
O O12 0.500000 0.441949 0.890632
O O13 0.755920 0.433752 0.777890
O O14 0.741409 0.415103 0.990920
O O15 0.500000 0.556508 0.170600
O O16 0.262862 0.127803 0.675127
O O17 0.000000 0.126662 0.573725
O O18 0.500000 0.121029 0.803455
O O19 0.251605 0.163011 0.870101
O O20 0.500000 0.796984 0.427350
#
# Coordination Sequence:
#
# PCOD8174422 Si02
#       8
#     8   8   8   8   8   8   8   8
#     4  10  18  34  60  82 104 137 183 229 271 318
#     4  10  20  34  58  86 109 139 182 226 270 324
#     4   9  19  36  58  83 110 142 178 225 280 325
#     4   9  18  32  56  88 112 134 174 230 281 318
#     4   9  16  30  53  83 110 132 170 227 275 315
#     4  10  20  37  60  83 109 142 182 229 277 325
#     4  11  24  39  53  76 116 155 183 219 269 326
#     4  10  22  38  54  77 112 149 182 219 271 327
#
# _framework density 19.560233
#
# number of rings (size 3 to 8) (size 9 to 14) (size 15 to 20)
#    0.000    2.250    2.500    0.375    3.500    0.500 
#    0.000    1.875    0.000    1.500    0.000    0.000 
#    0.000    0.000    0.000    0.000    0.000    0.000 
#
# Total GULP energy -396670.349702 kJ/mol
# GULP energy per Si atom -12395.948428 kJ/mol
# Density = 1.951571 g / cm^3
# Si number density = 19.560233 Si / 1000 Ang^3
#
#
#
# Elastic Constant Matrix: (Units=GPa)
#
#
# Indices 1 2 3 4 5 6 
#
# 1 19.7615 21.0447 15.3453 0.0000 0.0000 0.0000
# 2 21.0447 138.9748 56.3585 0.0000 0.0000 0.0000
# 3 15.3453 56.3585 144.7939 0.0000 0.0000 0.0000
# 4 0.0000 0.0000 0.0000 36.4665 0.0000 0.0000
# 5 0.0000 0.0000 0.0000 0.0000 18.8791 0.0000
# 6 0.0000 0.0000 0.0000 0.0000 0.0000 15.3900
#
#
#
# Elastic Compliance Matrix: (Units=1/GPa)
#
#
# Indices 1 2 3 4 5 6 
#
# 1 0.061750 -0.007952 -0.003449 0.000000 0.000000 0.000000
# 2 -0.007952 0.009568 -0.002882 0.000000 0.000000 0.000000
# 3 -0.003449 -0.002882 0.008393 0.000000 0.000000 0.000000
# 4 0.000000 0.000000 0.000000 0.027422 0.000000 0.000000
# 5 0.000000 0.000000 0.000000 0.000000 0.052969 0.000000
# 6 0.000000 0.000000 0.000000 0.000000 0.000000 0.064977
#
#
# Mechanical properties :
#
#
# Convention : Reuss Voigt Hill
#
# Bulk Modulus (GPa) = 19.55162 54.33636 36.94399
# Shear Modulus (GPa) = 18.47100 28.19921 23.33510
#
# Velocity S-wave (km/s) = 3.07630 3.80104 3.45771
# Velocity P-wave (km/s) = 4.75768 6.86317 5.90503
#
# Compressibility (1/GPa) = 0.05114666
#
# Stress axis : x y z
#
# Youngs Moduli (GPa) = 16.19428 104.51236 119.13990
#
# Poissons Ratio (x) = 0.83108 0.41093
# Poissons Ratio (y) = 0.12878 0.34330
# Poissons Ratio (z) = 0.05586 0.30115
#
# Static dielectric constant tensor:
#      x y z
#    x 3.080720 0.000000 0.000000 
#    y 0.000000 3.789260 0.000000 
#    z 0.000000 0.000000 3.786890 
# 
# 
# High freq. dielectric constant tensor:
#      x y z
#    x 1.705460 0.000000 0.000000 
#    y 0.000000 1.772800 0.000000 
#    z 0.000000 0.000000 1.781070 
# 
# From -- ./inp_files/7190.got.cif
#   From: 2010.03.12/outbox.cif.g09.slc.cpg/sg36_4_cif.got.tgz:7190.got - 2010.04.14 02:13:53.
