data_PCOD8174901
_publ_section_title
;
Structure prediction by ZEFSAII (Michael W. Deem and Ramdas Pophale) SiO2 
 PCOD8174901
Probable space group: C M C 21
;
_chemical_formula_sum "Si O2"
_cell_formula_units_Z 60
_cell_length_a 17.974083
_cell_length_b 32.599583
_cell_length_c 4.991142
_cell_angle_alpha 90.000000
_cell_angle_beta 90.000000
_cell_angle_gamma 90.000000
_cell_volume 2924.547729
_symmetry_space_group_name_H-M "C M C 21"
_symmetry_group_IT_number 36
_symmetry_cell_setting 'orthorhombic'
loop_
_space_group_symop_operation_xyz
x,y,z
-x,-y,1/2+z
x,-y,1/2+z
-x,y,z
1/2+x,1/2+y,z
1/2-x,1/2-y,1/2+z
1/2+x,1/2-y,1/2+z
1/2-x,1/2+y,z
loop_
_atom_site_type_symbol
_atom_site_label
_atom_site_fract_x
_atom_site_fract_y
_atom_site_fract_z
Si Si1 0.084255 0.331188 0.107260
Si Si2 0.914159 0.027593 0.239153
Si Si3 0.739305 0.137011 0.689970
Si Si4 0.284043 0.410737 0.703284
Si Si5 0.656494 0.972553 0.852043
Si Si6 0.000000 0.473321 0.731619
Si Si7 0.917627 0.723844 0.108383
Si Si8 0.281463 0.729329 0.758599
O O1 0.148940 0.364878 0.157709
O O2 0.095399 0.293638 0.312341
O O3 0.000000 0.349712 0.137624
O O4 0.097497 0.313766 0.810489
O O5 0.864867 0.068178 0.198352
O O6 0.000000 0.041589 0.217504
O O7 0.895359 0.007307 0.522977
O O8 0.781143 0.127036 0.411332
O O9 0.765726 0.181477 0.783635
O O10 0.764285 0.103848 0.906922
O O11 0.223697 0.442545 0.806639
O O12 0.576789 0.949211 0.800854
O O13 0.661694 0.011678 0.655620
O O14 0.000000 0.485794 0.419930
O O15 0.864882 0.762597 0.156347
O O16 0.000000 0.741368 0.146857
O O17 0.225347 0.750618 0.550760
#
# Coordination Sequence:
#
# PCOD8174901 Si02
#       8
#     8   8   8   8   8   4   8   8
#     4  10  20  37  58  82 115 150 195 248 290 338
#     4  10  21  41  69  95 119 159 210 251 298 363
#     4  12  24  38  56  89 123 158 192 244 310 352
#     4  12  24  38  57  91 125 152 193 243 305 356
#     4  10  19  36  58  77 107 149 190 229 271 335
#     4   8  16  30  52  78 102 140 188 228 264 308
#     4  10  19  35  60  86 106 141 199 252 288 337
#     4  12  21  38  62  81 110 155 205 247 294 362
#
# _framework density 20.515992000000001
#
# number of rings (size 3 to 8) (size 9 to 14) (size 15 to 20)
#    0.000    1.333    2.667    4.000    0.000    0.000 
#    2.400    1.333    0.000    0.000    0.000    0.000 
#    0.000    0.000    0.000    0.000    0.000    0.000 
#
# Total GULP energy -372002.607787 kJ/mol
# GULP energy per Si atom -12400.086926 kJ/mol
# Density = 2.046930 g / cm^3
# Si number density = 20.515992 Si / 1000 Ang^3
#
#
#
# Elastic Constant Matrix: (Units=GPa)
#
#
# Indices 1 2 3 4 5 6 
#
# 1 132.1069 40.0092 13.2189 0.0000 0.0000 0.0000
# 2 40.0092 51.2184 2.9052 0.0000 0.0000 0.0000
# 3 13.2189 2.9052 73.7994 0.0000 0.0000 0.0000
# 4 0.0000 0.0000 0.0000 17.0064 0.0000 0.0000
# 5 0.0000 0.0000 0.0000 0.0000 28.4056 0.0000
# 6 0.0000 0.0000 0.0000 0.0000 0.0000 31.5531
#
#
#
# Elastic Compliance Matrix: (Units=1/GPa)
#
#
# Indices 1 2 3 4 5 6 
#
# 1 0.010078 -0.007787 -0.001499 0.000000 0.000000 0.000000
# 2 -0.007787 0.025585 0.000388 0.000000 0.000000 0.000000
# 3 -0.001499 0.000388 0.013803 0.000000 0.000000 0.000000
# 4 0.000000 0.000000 0.000000 0.058801 0.000000 0.000000
# 5 0.000000 0.000000 0.000000 0.000000 0.035204 0.000000
# 6 0.000000 0.000000 0.000000 0.000000 0.000000 0.031693
#
#
# Mechanical properties :
#
#
# Convention : Reuss Voigt Hill
#
# Bulk Modulus (GPa) = 31.57549 41.04347 36.30948
# Shear Modulus (GPa) = 24.56779 28.79246 26.68013
#
# Velocity S-wave (km/s) = 3.46424 3.75028 3.61009
# Velocity P-wave (km/s) = 5.60583 6.22911 5.92567
#
# Compressibility (1/GPa) = 0.03167013
#
# Stress axis : x y z
#
# Youngs Moduli (GPa) = 99.22550 39.08473 72.44583
#
# Poissons Ratio (x) = 0.30437 0.10857
# Poissons Ratio (y) = 0.77272 -0.02809
# Poissons Ratio (z) = 0.14870 -0.01515
#
# Static dielectric constant tensor:
#      x y z
#    x 4.061340 0.000000 0.000000 
#    y 0.000000 3.305830 0.000000 
#    z 0.000000 0.000000 3.992360 
# 
# 
# High freq. dielectric constant tensor:
#      x y z
#    x 1.814500 0.000000 0.000000 
#    y 0.000000 1.758160 0.000000 
#    z 0.000000 0.000000 1.827340 
# 
# From -- ./inp_files/1185.got.cif
#   From: 2010.03.12/outbox.cif.g09.slc.cpg/sg36_1_cif.got.tgz:1185.got - 2010.04.14 02:13:53.
