data_PCOD8174046
_publ_section_title
;
Structure prediction by ZEFSAII (Michael W. Deem and Ramdas Pophale) SiO2 
 PCOD8174046
Probable space group: C M M 2
;
_chemical_formula_sum "Si O2"
_cell_formula_units_Z 64
_cell_length_a 14.917260
_cell_length_b 23.171159
_cell_length_c 8.984643
_cell_angle_alpha 90.000000
_cell_angle_beta 90.000000
_cell_angle_gamma 90.000000
_cell_volume 3105.543680
_symmetry_space_group_name_H-M "C M M 2"
_symmetry_group_IT_number 35
_symmetry_cell_setting 'orthorhombic'
loop_
_space_group_symop_operation_xyz
x,y,z
-x,-y,z
-x,y,z
x,-y,z
1/2+x,1/2+y,z
1/2-x,1/2-y,z
1/2-x,1/2+y,z
1/2+x,1/2-y,z
loop_
_atom_site_type_symbol
_atom_site_label
_atom_site_fract_x
_atom_site_fract_y
_atom_site_fract_z
Si Si1 0.099920 0.143267 0.102580
Si Si2 0.758950 0.932490 0.277756
Si Si3 0.900412 0.436277 0.812390
Si Si4 0.101846 0.621342 0.113132
Si Si5 0.398493 0.665314 0.765150
Si Si6 0.233976 0.388347 0.606519
Si Si7 0.355750 0.758484 0.253000
Si Si8 0.651383 0.771167 0.579479
O O1 0.166458 0.096428 0.172508
O O2 0.096154 0.201451 0.196654
O O3 0.000000 0.116257 0.101452
O O4 0.130533 0.161544 0.936967
O O5 0.661696 0.922045 0.209374
O O6 0.757914 0.902355 0.437724
O O7 0.780212 0.000000 0.292189
O O8 0.900006 0.500000 0.885244
O O9 0.821135 0.438433 0.688857
O O10 0.000000 0.424022 0.743936
O O11 0.878133 0.389302 0.939119
O O12 0.121784 0.687990 0.146670
O O13 0.000000 0.605651 0.152198
O O14 0.500000 0.642566 0.742567
O O15 0.330857 0.624311 0.676705
O O16 0.395034 0.731552 0.705241
O O17 0.161140 0.337011 0.630656
O O18 0.250000 0.750000 0.251038
O O19 0.396728 0.768780 0.418382
O O20 0.750000 0.750000 0.546683
#
# Coordination Sequence:
#
# PCOD8174046 Si02
#       8
#     8   8   8   8   8   8   8   8
#     4  11  24  42  65  97 131 167 216 274 329 386
#     4  12  25  44  68  93 127 173 222 273 328 385
#     4  10  23  42  62  87 124 169 217 269 324 387
#     4  11  23  40  64  95 127 167 213 263 325 388
#     4  10  23  39  62  94 129 168 208 260 327 391
#     4  11  22  41  63  91 125 169 216 270 320 389
#     4  11  20  38  65  94 130 166 206 262 326 389
#     4   9  19  36  57  88 126 165 203 250 317 382
#
# _framework density 20.608308000000001
#
# number of rings (size 3 to 8) (size 9 to 14) (size 15 to 20)
#    0.000    1.375    2.500    3.375    1.750    5.000 
#    0.000    0.625    0.000    2.625    0.000    0.000 
#    0.000    0.000    0.000    0.000    0.000    0.000 
#
# Total GULP energy -396692.358694 kJ/mol
# GULP energy per Si atom -12396.636209 kJ/mol
# Density = 2.056140 g / cm^3
# Si number density = 20.608308 Si / 1000 Ang^3
#
#
#
# Elastic Constant Matrix: (Units=GPa)
#
#
# Indices 1 2 3 4 5 6 
#
# 1 120.1626 39.3452 63.0074 0.0000 0.0000 0.0000
# 2 39.3452 90.6974 35.0432 0.0000 0.0000 0.0000
# 3 63.0074 35.0432 125.5432 0.0000 0.0000 0.0000
# 4 0.0000 0.0000 0.0000 31.9387 0.0000 0.0000
# 5 0.0000 0.0000 0.0000 0.0000 8.2486 0.0000
# 6 0.0000 0.0000 0.0000 0.0000 0.0000 22.9905
#
#
#
# Elastic Compliance Matrix: (Units=1/GPa)
#
#
# Indices 1 2 3 4 5 6 
#
# 1 0.012093 -0.003252 -0.005162 0.000000 0.000000 0.000000
# 2 -0.003252 0.013233 -0.002062 0.000000 0.000000 0.000000
# 3 -0.005162 -0.002062 0.011131 0.000000 0.000000 0.000000
# 4 0.000000 0.000000 0.000000 0.031310 0.000000 0.000000
# 5 0.000000 0.000000 0.000000 0.000000 0.121232 0.000000
# 6 0.000000 0.000000 0.000000 0.000000 0.000000 0.043496
#
#
# Mechanical properties :
#
#
# Convention : Reuss Voigt Hill
#
# Bulk Modulus (GPa) = 64.48613 67.91053 66.19833
# Shear Modulus (GPa) = 19.33369 25.90274 22.61822
#
# Velocity S-wave (km/s) = 3.06625 3.54914 3.31649
# Velocity P-wave (km/s) = 6.62534 7.05831 6.84525
#
# Compressibility (1/GPa) = 0.01550721
#
# Stress axis : x y z
#
# Youngs Moduli (GPa) = 82.69005 75.56903 89.83581
#
# Poissons Ratio (x) = 0.24574 0.46371
# Poissons Ratio (y) = 0.26889 0.18522
# Poissons Ratio (z) = 0.42682 0.15580
#
# Static dielectric constant tensor:
#      x y z
#    x 3.763970 0.000000 0.000000 
#    y 0.000000 3.624690 0.000000 
#    z 0.000000 0.000000 3.843660 
# 
# 
# High freq. dielectric constant tensor:
#      x y z
#    x 1.811920 0.000000 0.000000 
#    y 0.000000 1.796210 0.000000 
#    z 0.000000 0.000000 1.813170 
# 
# From -- ./inp_files/7854.got.cif
#   From: 2010.03.12/outbox.cif.g09.slc.cpg/sg35_4_cif.got.tgz:7854.got - 2010.04.14 02:02:04.
