data_PCOD8174451
_publ_section_title
;
Structure prediction by ZEFSAII (Michael W. Deem and Ramdas Pophale) SiO2 
 PCOD8174451
Probable space group: C M C 21
;
_chemical_formula_sum "Si O2"
_cell_formula_units_Z 48
_cell_length_a 13.370635
_cell_length_b 17.858277
_cell_length_c 9.762673
_cell_angle_alpha 90.000000
_cell_angle_beta 90.000000
_cell_angle_gamma 90.000000
_cell_volume 2331.096924
_symmetry_space_group_name_H-M "C M C 21"
_symmetry_group_IT_number 36
_symmetry_cell_setting 'orthorhombic'
loop_
_space_group_symop_operation_xyz
x,y,z
-x,-y,1/2+z
x,-y,1/2+z
-x,y,z
1/2+x,1/2+y,z
1/2-x,1/2-y,1/2+z
1/2+x,1/2-y,1/2+z
1/2-x,1/2+y,z
loop_
_atom_site_type_symbol
_atom_site_label
_atom_site_fract_x
_atom_site_fract_y
_atom_site_fract_z
Si Si1 0.184352 0.335723 0.258160
Si Si2 0.889298 0.878340 0.372738
Si Si3 0.817111 0.170262 0.164668
Si Si4 0.890428 0.373265 0.556596
Si Si5 0.810982 0.031845 0.319109
Si Si6 0.183815 0.470088 0.079650
O O1 0.304924 0.345568 0.270966
O O2 0.155924 0.253047 0.211836
O O3 0.131656 0.352965 0.400261
O O4 0.140806 0.393269 0.144338
O O5 0.871884 0.845441 0.522929
O O6 0.000000 0.854608 0.321916
O O7 0.885864 0.969443 0.380029
O O8 0.696263 0.161325 0.152042
O O9 0.858940 0.112635 0.281004
O O10 0.896999 0.463501 0.570231
O O11 0.000000 0.341603 0.598414
O O12 0.722693 0.046438 0.427156
O O13 0.772748 0.999491 0.175273
#
# Coordination Sequence:
#
# PCOD8174451 Si02
#       6
#     8   8   8   8   8   8
#     4  10  22  39  62  87 124 160 195 251 310 358
#     4  10  21  39  60  88 119 156 207 253 295 359
#     4  10  22  39  62  87 124 160 195 251 310 358
#     4  10  21  39  60  88 119 156 207 253 295 359
#     4  10  18  38  61  85 113 158 207 242 295 355
#     4  10  18  38  61  85 113 158 207 242 295 355
#
# _framework density 20.591163999999999
#
# number of rings (size 3 to 8) (size 9 to 14) (size 15 to 20)
#    0.000    2.000    6.667    0.000    4.667    2.667 
#    0.000    0.000    0.000    0.000    0.000    0.000 
#    0.000    0.000    0.000    0.000    0.000    0.000 
#
# Total GULP energy -297403.625796 kJ/mol
# GULP energy per Si atom -12391.817741 kJ/mol
# Density = 2.054430 g / cm^3
# Si number density = 20.591164 Si / 1000 Ang^3
#
#
#
# Elastic Constant Matrix: (Units=GPa)
#
#
# Indices 1 2 3 4 5 6 
#
# 1 75.9798 6.3608 3.3842 0.0000 0.0000 0.0000
# 2 6.3608 168.6172 38.9569 0.0000 0.0000 0.0000
# 3 3.3842 38.9569 68.9071 0.0000 0.0000 0.0000
# 4 0.0000 0.0000 0.0000 32.8080 0.0000 0.0000
# 5 0.0000 0.0000 0.0000 0.0000 5.0152 0.0000
# 6 0.0000 0.0000 0.0000 0.0000 0.0000 0.7614
#
#
#
# Elastic Compliance Matrix: (Units=1/GPa)
#
#
# Indices 1 2 3 4 5 6 
#
# 1 0.013214 -0.000401 -0.000422 0.000000 0.000000 0.000000
# 2 -0.000401 0.006834 -0.003844 0.000000 0.000000 0.000000
# 3 -0.000422 -0.003844 0.016706 0.000000 0.000000 0.000000
# 4 0.000000 0.000000 0.000000 0.030480 0.000000 0.000000
# 5 0.000000 0.000000 0.000000 0.000000 0.199394 0.000000
# 6 0.000000 0.000000 0.000000 0.000000 0.000000 1.313440
#
#
# Mechanical properties :
#
#
# Convention : Reuss Voigt Hill
#
# Bulk Modulus (GPa) = 36.47018 45.65642 41.06330
# Shear Modulus (GPa) = 3.12785 25.37040 14.24912
#
# Velocity S-wave (km/s) = 1.23382 3.51394 2.63345
# Velocity P-wave (km/s) = 4.44745 6.21970 5.40668
#
# Compressibility (1/GPa) = 0.02741966
#
# Stress axis : x y z
#
# Youngs Moduli (GPa) = 75.67869 146.33188 59.85818
#
# Poissons Ratio (x) = 0.05866 0.02528
# Poissons Ratio (y) = 0.03034 0.23008
# Poissons Ratio (z) = 0.03196 0.56247
#
# Static dielectric constant tensor:
#      x y z
#    x 3.397250 0.000000 0.000000 
#    y 0.000000 4.001190 0.000000 
#    z 0.000000 0.000000 3.741020 
# 
# 
# High freq. dielectric constant tensor:
#      x y z
#    x 1.767740 0.000000 0.000000 
#    y 0.000000 1.808450 0.000000 
#    z 0.000000 0.000000 1.802580 
# 
# From -- ./inp_files/4073.got.cif
#   From: 2010.03.12/outbox.cif.g09.slc.cpg/sg36_3_cif.got.tgz:4073.got - 2010.04.14 02:13:53.
