data_PCOD8174815
_publ_section_title
;
Structure prediction by ZEFSAII (Michael W. Deem and Ramdas Pophale) SiO2 
 PCOD8174815
Probable space group: C M C 21
;
_chemical_formula_sum "Si O2"
_cell_formula_units_Z 64
_cell_length_a 8.775552
_cell_length_b 22.821968
_cell_length_c 16.084781
_cell_angle_alpha 90.000000
_cell_angle_beta 90.000000
_cell_angle_gamma 90.000000
_cell_volume 3221.385417
_symmetry_space_group_name_H-M "C M C 21"
_symmetry_group_IT_number 36
_symmetry_cell_setting 'orthorhombic'
loop_
_space_group_symop_operation_xyz
x,y,z
-x,-y,1/2+z
x,-y,1/2+z
-x,y,z
1/2+x,1/2+y,z
1/2-x,1/2-y,1/2+z
1/2+x,1/2-y,1/2+z
1/2-x,1/2+y,z
loop_
_atom_site_type_symbol
_atom_site_label
_atom_site_fract_x
_atom_site_fract_y
_atom_site_fract_z
Si Si1 0.321687 0.459636 0.934350
Si Si2 0.319723 0.149507 0.114352
Si Si3 0.678324 0.180781 0.835345
Si Si4 0.321287 0.719695 0.664017
Si Si5 0.679107 0.594533 0.950125
Si Si6 0.819754 0.115748 0.278017
Si Si7 0.330789 0.865783 0.040846
Si Si8 0.169407 0.712565 0.381325
O O1 0.500000 0.448551 0.945493
O O2 0.275691 0.526777 0.943906
O O3 0.271414 0.435677 0.842888
O O4 0.238182 0.427110 0.010238
O O5 0.500000 0.143790 0.116750
O O6 0.268115 0.217433 0.126852
O O7 0.249982 0.106895 0.186027
O O8 0.261387 0.126006 0.026511
O O9 0.500000 0.169467 0.835151
O O10 0.734642 0.206490 0.748729
O O11 0.762532 0.121415 0.862942
O O12 0.728239 0.230451 0.902088
O O13 0.500000 0.719347 0.679415
O O14 0.279828 0.665280 0.605428
O O15 0.500000 0.603542 0.959737
O O16 0.752064 0.177083 0.308528
O O17 0.000000 0.120273 0.270817
O O18 0.500000 0.876216 0.078952
O O19 0.344300 0.823942 0.963279
O O20 0.000000 0.730270 0.349622
#
# Coordination Sequence:
#
# PCOD8174815 Si02
#       8
#     8   8   8   8   8   8   8   8
#     4   9  21  42  64  87 117 160 208 248 299 365
#     4  11  23  39  62  93 126 159 202 253 309 367
#     4  12  24  38  59  87 122 159 199 248 306 364
#     4  11  23  39  60  88 125 160 197 246 304 369
#     4  11  24  43  64  87 121 165 209 254 306 365
#     4  10  19  35  62  91 119 155 201 250 299 359
#     4  10  21  36  60  90 119 153 196 247 298 353
#     4  10  19  34  57  87 121 155 192 238 299 362
#
# _framework density 19.867229999999999
#
# number of rings (size 3 to 8) (size 9 to 14) (size 15 to 20)
#    0.000    1.500    1.250    4.125    0.000    6.500 
#    2.250    0.000    0.000    0.000    0.000    0.000 
#    0.000    0.000    0.000    0.000    0.000    0.000 
#
# Total GULP energy -396759.583067 kJ/mol
# GULP energy per Si atom -12398.736971 kJ/mol
# Density = 1.982201 g / cm^3
# Si number density = 19.867230 Si / 1000 Ang^3
#
#
#
# Elastic Constant Matrix: (Units=GPa)
#
#
# Indices 1 2 3 4 5 6 
#
# 1 73.3737 36.9530 20.5886 0.0000 0.0000 0.0000
# 2 36.9530 117.4056 38.6898 0.0000 0.0000 0.0000
# 3 20.5886 38.6898 67.7684 0.0000 0.0000 0.0000
# 4 0.0000 0.0000 0.0000 26.5350 0.0000 0.0000
# 5 0.0000 0.0000 0.0000 0.0000 34.0710 0.0000
# 6 0.0000 0.0000 0.0000 0.0000 0.0000 29.2427
#
#
#
# Elastic Compliance Matrix: (Units=1/GPa)
#
#
# Indices 1 2 3 4 5 6 
#
# 1 0.016541 -0.004373 -0.002529 0.000000 0.000000 0.000000
# 2 -0.004373 0.011647 -0.005321 0.000000 0.000000 0.000000
# 3 -0.002529 -0.005321 0.018562 0.000000 0.000000 0.000000
# 4 0.000000 0.000000 0.000000 0.037686 0.000000 0.000000
# 5 0.000000 0.000000 0.000000 0.000000 0.029350 0.000000
# 6 0.000000 0.000000 0.000000 0.000000 0.000000 0.034197
#
#
# Mechanical properties :
#
#
# Convention : Reuss Voigt Hill
#
# Bulk Modulus (GPa) = 44.83294 50.11228 47.47261
# Shear Modulus (GPa) = 27.79886 28.79085 28.29485
#
# Velocity S-wave (km/s) = 3.74469 3.81092 3.77795
# Velocity P-wave (km/s) = 6.42746 6.68150 6.55571
#
# Compressibility (1/GPa) = 0.02230503
#
# Stress axis : x y z
#
# Youngs Moduli (GPa) = 60.45701 85.85671 53.87274
#
# Poissons Ratio (x) = 0.37544 0.13623
# Poissons Ratio (y) = 0.26437 0.28666
# Poissons Ratio (z) = 0.15288 0.45685
#
# Static dielectric constant tensor:
#      x y z
#    x 4.403220 0.000000 0.000000 
#    y 0.000000 3.778920 0.000000 
#    z 0.000000 0.000000 3.869030 
# 
# 
# High freq. dielectric constant tensor:
#      x y z
#    x 1.786560 0.000000 0.000000 
#    y 0.000000 1.766650 0.000000 
#    z 0.000000 0.000000 1.776130 
# 
# From -- ./inp_files/11074.got.cif
#   From: 2010.03.12/outbox.cif.g09.slc.cpg/sg36_6_cif.got.tgz:11074.got - 2010.04.14 02:13:53.
