data_PCOD8174117
_publ_section_title
;
Structure prediction by ZEFSAII (Michael W. Deem and Ramdas Pophale) SiO2 
 PCOD8174117
Probable space group: C M M 2
;
_chemical_formula_sum "Si O2"
_cell_formula_units_Z 48
_cell_length_a 8.537108
_cell_length_b 15.597310
_cell_length_c 16.963033
_cell_angle_alpha 90.000000
_cell_angle_beta 90.000000
_cell_angle_gamma 90.000000
_cell_volume 2258.728265
_symmetry_space_group_name_H-M "C M M 2"
_symmetry_group_IT_number 35
_symmetry_cell_setting 'orthorhombic'
loop_
_space_group_symop_operation_xyz
x,y,z
-x,-y,z
-x,y,z
x,-y,z
1/2+x,1/2+y,z
1/2-x,1/2-y,z
1/2-x,1/2+y,z
1/2+x,1/2-y,z
loop_
_atom_site_type_symbol
_atom_site_label
_atom_site_fract_x
_atom_site_fract_y
_atom_site_fract_z
Si Si1 0.180820 0.340963 0.789840
Si Si2 0.669704 0.598039 0.640425
Si Si3 0.182502 0.500000 0.051200
Si Si4 0.815829 0.154812 0.953535
Si Si5 0.683141 0.500000 0.221804
Si Si6 0.684370 0.598973 0.468975
Si Si7 0.316474 0.159837 0.313750
O O1 0.250000 0.250000 0.767010
O O2 0.206448 0.396426 0.711408
O O3 0.268425 0.378572 0.866351
O O4 0.000000 0.335818 0.811907
O O5 0.500000 0.638652 0.665078
O O6 0.640669 0.500000 0.620327
O O7 0.728289 0.636105 0.556561
O O8 0.213767 0.500000 0.143434
O O9 0.000000 0.500000 0.032874
O O10 0.254600 0.586781 0.016143
O O11 0.750000 0.250000 0.969892
O O12 0.000000 0.159849 0.960245
O O13 0.500000 0.500000 0.200549
O O14 0.723277 0.584187 0.271158
O O15 0.500000 0.611039 0.452686
O O16 0.733605 0.500000 0.458950
O O17 0.784542 0.653997 0.407203
O O18 0.500000 0.152897 0.295338
O O19 0.250000 0.250000 0.281488
#
# Coordination Sequence:
#
# PCOD8174117 Si02
#       7
#     8   8   4   8   4   8   8
#     4  11  22  37  57  83 119 163 209 262 316 370
#     4   9  19  35  56  84 119 162 210 259 314 371
#     4  12  26  46  72 103 132 167 212 256 314 387
#     4  11  23  43  68  97 132 172 215 265 320 378
#     4  12  26  48  72  99 134 167 206 262 320 381
#     4   9  18  36  61  87 122 167 212 265 322 376
#     4  12  25  42  67  99 131 172 216 262 318 381
#
# _framework density 21.250895
#
# number of rings (size 3 to 8) (size 9 to 14) (size 15 to 20)
#    0.000    1.333    0.833    8.000    1.167    2.333 
#    0.000    5.000    0.000    0.000    0.000    0.000 
#    0.000    0.000    0.000    0.000    0.000    0.000 
#
# Total GULP energy -297579.633271 kJ/mol
# GULP energy per Si atom -12399.151386 kJ/mol
# Density = 2.120253 g / cm^3
# Si number density = 21.250895 Si / 1000 Ang^3
#
#
#
# Elastic Constant Matrix: (Units=GPa)
#
#
# Indices 1 2 3 4 5 6 
#
# 1 138.7273 33.1559 26.6869 0.0000 0.0000 0.0000
# 2 33.1559 96.9710 41.0290 0.0000 0.0000 0.0000
# 3 26.6869 41.0290 117.5779 0.0000 0.0000 0.0000
# 4 0.0000 0.0000 0.0000 2.9046 0.0000 0.0000
# 5 0.0000 0.0000 0.0000 0.0000 33.3841 0.0000
# 6 0.0000 0.0000 0.0000 0.0000 0.0000 31.0739
#
#
#
# Elastic Compliance Matrix: (Units=1/GPa)
#
#
# Indices 1 2 3 4 5 6 
#
# 1 0.007950 -0.002293 -0.001004 0.000000 0.000000 0.000000
# 2 -0.002293 0.012760 -0.003932 0.000000 0.000000 0.000000
# 3 -0.001004 -0.003932 0.010105 0.000000 0.000000 0.000000
# 4 0.000000 0.000000 0.000000 0.344280 0.000000 0.000000
# 5 0.000000 0.000000 0.000000 0.000000 0.029954 0.000000
# 6 0.000000 0.000000 0.000000 0.000000 0.000000 0.032181
#
#
# Mechanical properties :
#
#
# Convention : Reuss Voigt Hill
#
# Bulk Modulus (GPa) = 61.14050 61.66886 61.40468
# Shear Modulus (GPa) = 10.93754 30.29949 20.61852
#
# Velocity S-wave (km/s) = 2.27113 3.78007 3.11825
# Velocity P-wave (km/s) = 5.97584 6.93789 6.47476
#
# Compressibility (1/GPa) = 0.01635577
#
# Stress axis : x y z
#
# Youngs Moduli (GPa) = 125.79195 78.36867 98.96048
#
# Poissons Ratio (x) = 0.17972 0.09937
# Poissons Ratio (y) = 0.28847 0.38913
# Poissons Ratio (z) = 0.12631 0.30816
#
# Static dielectric constant tensor:
#      x y z
#    x 3.918500 0.000000 0.000000 
#    y 0.000000 3.711680 0.000000 
#    z 0.000000 0.000000 3.918010 
# 
# 
# High freq. dielectric constant tensor:
#      x y z
#    x 1.837140 0.000000 0.000000 
#    y 0.000000 1.826920 0.000000 
#    z 0.000000 0.000000 1.838980 
# 
# From -- ./inp_files/17934.got.cif
#   From: 2010.03.12/outbox.cif.g09.slc.cpg/sg35_9_cif.got.tgz:17934.got - 2010.04.14 02:02:04.
