data_PCOD8174116
_publ_section_title
;
Structure prediction by ZEFSAII (Michael W. Deem and Ramdas Pophale) SiO2 
 PCOD8174116
Probable space group: C M M 2
;
_chemical_formula_sum "Si O2"
_cell_formula_units_Z 48
_cell_length_a 8.502130
_cell_length_b 18.729770
_cell_length_c 15.229147
_cell_angle_alpha 90.000000
_cell_angle_beta 90.000000
_cell_angle_gamma 90.000000
_cell_volume 2425.134133
_symmetry_space_group_name_H-M "C M M 2"
_symmetry_group_IT_number 35
_symmetry_cell_setting 'orthorhombic'
loop_
_space_group_symop_operation_xyz
x,y,z
-x,-y,z
-x,y,z
x,-y,z
1/2+x,1/2+y,z
1/2-x,1/2-y,z
1/2-x,1/2+y,z
1/2+x,1/2-y,z
loop_
_atom_site_type_symbol
_atom_site_label
_atom_site_fract_x
_atom_site_fract_y
_atom_site_fract_z
Si Si1 0.314776 0.828132 0.563120
Si Si2 0.187162 0.420505 0.034327
Si Si3 0.817465 0.824659 0.375994
Si Si4 0.684067 0.171570 0.874923
Si Si5 0.822324 0.584312 0.229357
Si Si6 0.683639 0.582754 0.716984
O O1 0.500000 0.829865 0.579416
O O2 0.250000 0.750000 0.587404
O O3 0.276011 0.848305 0.462906
O O4 0.230816 0.887075 0.622417
O O5 0.254974 0.500000 0.015731
O O6 0.236613 0.394190 0.131637
O O7 0.000000 0.424220 0.029455
O O8 0.256649 0.366176 0.961864
O O9 0.750000 0.750000 0.340704
O O10 0.795042 0.882307 0.299886
O O11 0.000000 0.816949 0.400108
O O12 0.500000 0.178228 0.886005
O O13 0.750000 0.250000 0.862368
O O14 0.720644 0.124206 0.790768
O O15 0.816665 0.500000 0.239728
O O16 0.000000 0.612202 0.245492
O O17 0.500000 0.594282 0.733347
O O18 0.730825 0.500000 0.720560
#
# Coordination Sequence:
#
# PCOD8174116 Si02
#       6
#     8   8   8   8   8   8
#     4  11  22  39  62  85 112 146 186 229 277 332
#     4   8  16  33  57  82 109 145 188 233 279 328
#     4  11  22  37  57  82 114 149 188 232 279 330
#     4  11  22  37  58  84 115 149 188 230 276 331
#     4   9  18  35  58  83 113 149 188 230 279 333
#     4  11  24  41  60  84 114 146 183 229 279 330
#
# _framework density 19.792722000000001
#
# number of rings (size 3 to 8) (size 9 to 14) (size 15 to 20)
#    0.000    1.833    0.000    7.000    0.000    3.667 
#    0.000    3.333    0.000    2.000    0.000    0.000 
#    0.000    0.000    0.000    0.000    0.000    0.000 
#
# Total GULP energy -297661.446938 kJ/mol
# GULP energy per Si atom -12402.560289 kJ/mol
# Density = 1.974767 g / cm^3
# Si number density = 19.792722 Si / 1000 Ang^3
#
#
#
# Elastic Constant Matrix: (Units=GPa)
#
#
# Indices 1 2 3 4 5 6 
#
# 1 51.5577 22.8254 9.3868 0.0000 0.0000 0.0000
# 2 22.8254 106.6396 65.6973 0.0000 0.0000 0.0000
# 3 9.3868 65.6973 115.0572 0.0000 0.0000 0.0000
# 4 0.0000 0.0000 0.0000 41.2860 0.0000 0.0000
# 5 0.0000 0.0000 0.0000 0.0000 19.0911 0.0000
# 6 0.0000 0.0000 0.0000 0.0000 0.0000 17.5289
#
#
#
# Elastic Compliance Matrix: (Units=1/GPa)
#
#
# Indices 1 2 3 4 5 6 
#
# 1 0.021561 -0.005448 0.001352 0.000000 0.000000 0.000000
# 2 -0.005448 0.015843 -0.008602 0.000000 0.000000 0.000000
# 3 0.001352 -0.008602 0.013493 0.000000 0.000000 0.000000
# 4 0.000000 0.000000 0.000000 0.024221 0.000000 0.000000
# 5 0.000000 0.000000 0.000000 0.000000 0.052380 0.000000
# 6 0.000000 0.000000 0.000000 0.000000 0.000000 0.057049
#
#
# Mechanical properties :
#
#
# Convention : Reuss Voigt Hill
#
# Bulk Modulus (GPa) = 39.21403 52.11927 45.66665
# Shear Modulus (GPa) = 22.88926 27.27087 25.08006
#
# Velocity S-wave (km/s) = 3.40435 3.71593 3.56355
# Velocity P-wave (km/s) = 5.94207 6.69332 6.32885
#
# Compressibility (1/GPa) = 0.02550107
#
# Stress axis : x y z
#
# Youngs Moduli (GPa) = 46.37902 63.12086 74.11482
#
# Poissons Ratio (x) = 0.34386 -0.10017
# Poissons Ratio (y) = 0.25266 0.63751
# Poissons Ratio (z) = -0.06268 0.54294
#
# Static dielectric constant tensor:
#      x y z
#    x 3.501780 0.000000 0.000000 
#    y 0.000000 3.711830 0.000000 
#    z 0.000000 0.000000 3.767490 
# 
# 
# High freq. dielectric constant tensor:
#      x y z
#    x 1.762700 0.000000 0.000000 
#    y 0.000000 1.770210 0.000000 
#    z 0.000000 0.000000 1.784590 
# 
# From -- ./inp_files/15110.got.cif
#   From: 2010.03.12/outbox.cif.g09.slc.cpg/sg35_8_cif.got.tgz:15110.got - 2010.04.14 02:02:04.
