data_PCOD8174347
_publ_section_title
;
Structure prediction by ZEFSAII (Michael W. Deem and Ramdas Pophale) SiO2 
 PCOD8174347
Probable space group: C M C 21
;
_chemical_formula_sum "Si O2"
_cell_formula_units_Z 64
_cell_length_a 9.241726
_cell_length_b 29.475300
_cell_length_c 12.336161
_cell_angle_alpha 90.000000
_cell_angle_beta 90.000000
_cell_angle_gamma 90.000000
_cell_volume 3360.402902
_symmetry_space_group_name_H-M "C M C 21"
_symmetry_group_IT_number 36
_symmetry_cell_setting 'orthorhombic'
loop_
_space_group_symop_operation_xyz
x,y,z
-x,-y,1/2+z
x,-y,1/2+z
-x,y,z
1/2+x,1/2+y,z
1/2-x,1/2-y,1/2+z
1/2+x,1/2-y,1/2+z
1/2-x,1/2+y,z
loop_
_atom_site_type_symbol
_atom_site_label
_atom_site_fract_x
_atom_site_fract_y
_atom_site_fract_z
Si Si1 0.161549 0.326486 0.461320
Si Si2 0.827804 0.220289 0.783176
Si Si3 0.672124 0.086492 0.256717
Si Si4 0.839706 0.684769 0.207453
Si Si5 0.167069 0.427233 0.999852
Si Si6 0.332607 0.371394 0.169544
Si Si7 0.668671 0.971885 0.552357
Si Si8 0.829697 0.088361 0.898598
O O1 0.249281 0.289159 0.395475
O O2 0.149620 0.307453 0.580593
O O3 0.250379 0.372852 0.466933
O O4 0.000000 0.334559 0.413139
O O5 0.763616 0.269343 0.749968
O O6 0.786563 0.180246 0.698283
O O7 0.000000 0.219951 0.799741
O O8 0.500000 0.088119 0.245770
O O9 0.738447 0.137280 0.238753
O O10 0.722609 0.069349 0.375151
O O11 0.727812 0.052193 0.162396
O O12 0.000000 0.682922 0.258615
O O13 0.000000 0.413835 0.998568
O O14 0.247222 0.387299 0.063729
O O15 0.193709 0.474354 0.062547
O O16 0.500000 0.374051 0.140129
O O17 0.296935 0.404489 0.271263
O O18 0.500000 0.960602 0.531725
O O19 0.760199 0.957524 0.445833
O O20 0.000000 0.089974 0.921544
#
# Coordination Sequence:
#
# PCOD8174347 Si02
#       8
#     8   8   8   8   8   8   8   8
#     4  10  18  32  54  80 105 140 186 230 276 328
#     4   9  19  35  54  78 108 148 187 226 281 332
#     4   9  18  35  54  81 114 142 181 227 281 333
#     4   9  17  32  56  78 106 147 181 219 277 336
#     4  10  22  35  56  84 111 146 187 228 274 334
#     4   9  20  37  53  74 111 147 180 225 277 328
#     4  10  20  35  57  83 110 142 181 230 277 329
#     4  10  20  35  56  80 107 142 183 231 279 330
#
# _framework density 19.045335000000001
#
# number of rings (size 3 to 8) (size 9 to 14) (size 15 to 20)
#    0.000    2.500    1.250    1.500    1.750    4.000 
#    0.000    1.875    0.000    0.000    0.000    0.000 
#    0.000    0.000    0.000    0.000    0.000    0.000 
#
# Total GULP energy -396617.189055 kJ/mol
# GULP energy per Si atom -12394.287158 kJ/mol
# Density = 1.900199 g / cm^3
# Si number density = 19.045335 Si / 1000 Ang^3
#
#
#
# Elastic Constant Matrix: (Units=GPa)
#
#
# Indices 1 2 3 4 5 6 
#
# 1 45.7379 26.0158 24.3274 0.0000 0.0000 0.0000
# 2 26.0158 114.5626 53.6445 0.0000 0.0000 0.0000
# 3 24.3274 53.6445 93.8634 0.0000 0.0000 0.0000
# 4 0.0000 0.0000 0.0000 28.7969 0.0000 0.0000
# 5 0.0000 0.0000 0.0000 0.0000 27.2672 0.0000
# 6 0.0000 0.0000 0.0000 0.0000 0.0000 18.1193
#
#
#
# Elastic Compliance Matrix: (Units=1/GPa)
#
#
# Indices 1 2 3 4 5 6 
#
# 1 0.026536 -0.003831 -0.004688 0.000000 0.000000 0.000000
# 2 -0.003831 0.012471 -0.006135 0.000000 0.000000 0.000000
# 3 -0.004688 -0.006135 0.015375 0.000000 0.000000 0.000000
# 4 0.000000 0.000000 0.000000 0.034726 0.000000 0.000000
# 5 0.000000 0.000000 0.000000 0.000000 0.036674 0.000000
# 6 0.000000 0.000000 0.000000 0.000000 0.000000 0.055190
#
#
# Mechanical properties :
#
#
# Convention : Reuss Voigt Hill
#
# Bulk Modulus (GPa) = 39.88025 51.34880 45.61453
# Shear Modulus (GPa) = 22.86880 24.84843 23.85861
#
# Velocity S-wave (km/s) = 3.46895 3.61598 3.54323
# Velocity P-wave (km/s) = 6.08522 6.66736 6.38293
#
# Compressibility (1/GPa) = 0.02507507
#
# Stress axis : x y z
#
# Youngs Moduli (GPa) = 37.68422 80.18339 65.04067
#
# Poissons Ratio (x) = 0.30716 0.30493
# Poissons Ratio (y) = 0.14436 0.39901
# Poissons Ratio (z) = 0.17667 0.49191
#
# Static dielectric constant tensor:
#      x y z
#    x 3.281860 0.000000 0.000000 
#    y 0.000000 3.593260 0.000000 
#    z 0.000000 0.000000 3.415750 
# 
# 
# High freq. dielectric constant tensor:
#      x y z
#    x 1.709240 0.000000 0.000000 
#    y 0.000000 1.744210 0.000000 
#    z 0.000000 0.000000 1.736300 
# 
# From -- ./inp_files/7174.got.cif
#   From: 2010.03.12/outbox.cif.g09.slc.cpg/sg36_4_cif.got.tgz:7174.got - 2010.04.14 02:13:53.
