data_PCOD8174679
_publ_section_title
;
Structure prediction by ZEFSAII (Michael W. Deem and Ramdas Pophale) SiO2 
 PCOD8174679
Probable space group: C M C 21
;
_chemical_formula_sum "Si O2"
_cell_formula_units_Z 48
_cell_length_a 13.296018
_cell_length_b 17.032957
_cell_length_c 11.215365
_cell_angle_alpha 90.000000
_cell_angle_beta 90.000000
_cell_angle_gamma 90.000000
_cell_volume 2539.949351
_symmetry_space_group_name_H-M "C M C 21"
_symmetry_group_IT_number 36
_symmetry_cell_setting 'orthorhombic'
loop_
_space_group_symop_operation_xyz
x,y,z
-x,-y,1/2+z
x,-y,1/2+z
-x,y,z
1/2+x,1/2+y,z
1/2-x,1/2-y,1/2+z
1/2+x,1/2-y,1/2+z
1/2-x,1/2+y,z
loop_
_atom_site_type_symbol
_atom_site_label
_atom_site_fract_x
_atom_site_fract_y
_atom_site_fract_z
Si Si1 0.742504 0.197997 0.643840
Si Si2 0.613773 0.168409 0.851392
Si Si3 0.716226 0.364739 0.531722
Si Si4 0.616877 0.539031 0.226556
Si Si5 0.889576 0.134500 0.803972
Si Si6 0.386087 0.655734 0.439385
O O1 0.648875 0.154845 0.712495
O O2 0.713314 0.283437 0.601665
O O3 0.822619 0.205113 0.751776
O O4 0.799330 0.148338 0.540466
O O5 0.500000 0.136918 0.865432
O O6 0.621018 0.261119 0.873999
O O7 0.682822 0.123737 0.950765
O O8 0.696620 0.433944 0.625957
O O9 0.619742 0.365679 0.446058
O O10 0.500000 0.549696 0.186987
O O11 0.643931 0.449228 0.250938
O O12 0.637075 0.587169 0.346822
O O13 0.000000 0.155892 0.765073
O O14 0.500000 0.645335 0.492662
#
# Coordination Sequence:
#
# PCOD8174679 Si02
#       6
#     8   8   8   8   8   8
#     4  10  19  33  54  78 110 149 185 229 268 330
#     4   9  18  33  53  77 103 144 192 234 268 309
#     4  10  20  35  55  79 113 153 187 225 272 335
#     4  10  20  34  56  84 118 148 171 219 293 351
#     4  10  22  35  54  89 118 140 177 229 288 346
#     4   9  17  30  50  77 110 144 176 216 277 341
#
# _framework density 18.898015000000001
#
# number of rings (size 3 to 8) (size 9 to 14) (size 15 to 20)
#    0.000    2.333    1.667    1.000    2.333    1.333 
#    0.000    0.000    0.000    4.000    0.000    0.000 
#    0.000    0.000    0.000    0.000    0.000    0.000 
#
# Total GULP energy -297313.914854 kJ/mol
# GULP energy per Si atom -12388.079786 kJ/mol
# Density = 1.885500 g / cm^3
# Si number density = 18.898015 Si / 1000 Ang^3
#
#
#
# Elastic Constant Matrix: (Units=GPa)
#
#
# Indices 1 2 3 4 5 6 
#
# 1 100.8033 34.8219 56.8625 0.0000 0.0000 0.0000
# 2 34.8219 42.6958 27.4975 0.0000 0.0000 0.0000
# 3 56.8625 27.4975 113.0904 0.0000 0.0000 0.0000
# 4 0.0000 0.0000 0.0000 9.6976 0.0000 0.0000
# 5 0.0000 0.0000 0.0000 0.0000 29.4213 0.0000
# 6 0.0000 0.0000 0.0000 0.0000 0.0000 18.4291
#
#
#
# Elastic Compliance Matrix: (Units=1/GPa)
#
#
# Indices 1 2 3 4 5 6 
#
# 1 0.016675 -0.009722 -0.006020 0.000000 0.000000 0.000000
# 2 -0.009722 0.033439 -0.003242 0.000000 0.000000 0.000000
# 3 -0.006020 -0.003242 0.012658 0.000000 0.000000 0.000000
# 4 0.000000 0.000000 0.000000 0.103119 0.000000 0.000000
# 5 0.000000 0.000000 0.000000 0.000000 0.033989 0.000000
# 6 0.000000 0.000000 0.000000 0.000000 0.000000 0.054262
#
#
# Mechanical properties :
#
#
# Convention : Reuss Voigt Hill
#
# Bulk Modulus (GPa) = 40.31918 54.99480 47.65699
# Shear Modulus (GPa) = 16.64570 20.67012 18.65791
#
# Velocity S-wave (km/s) = 2.97108 3.31081 3.14553
# Velocity P-wave (km/s) = 5.75771 6.61659 6.20204
#
# Compressibility (1/GPa) = 0.02480209
#
# Stress axis : x y z
#
# Youngs Moduli (GPa) = 59.97060 29.90529 79.00280
#
# Poissons Ratio (x) = 0.29075 0.47561
# Poissons Ratio (y) = 0.58306 0.25613
# Poissons Ratio (z) = 0.36104 0.09695
#
# Static dielectric constant tensor:
#      x y z
#    x 3.609710 0.000000 0.000000 
#    y 0.000000 3.178650 0.000000 
#    z 0.000000 0.000000 3.667680 
# 
# 
# High freq. dielectric constant tensor:
#      x y z
#    x 1.726670 0.000000 0.000000 
#    y 0.000000 1.702630 0.000000 
#    z 0.000000 0.000000 1.751450 
# 
# From -- ./inp_files/7693.got.cif
#   From: 2010.03.12/outbox.cif.g09.slc.cpg/sg36_4_cif.got.tgz:7693.got - 2010.04.14 02:13:53.
