data_PCOD8174481
_publ_section_title
;
Structure prediction by ZEFSAII (Michael W. Deem and Ramdas Pophale) SiO2 
 PCOD8174481
Probable space group: C M C 21
;
_chemical_formula_sum "Si O2"
_cell_formula_units_Z 64
_cell_length_a 9.220302
_cell_length_b 22.827042
_cell_length_c 17.856497
_cell_angle_alpha 90.000000
_cell_angle_beta 90.000000
_cell_angle_gamma 90.000000
_cell_volume 3758.296583
_symmetry_space_group_name_H-M "C M C 21"
_symmetry_group_IT_number 36
_symmetry_cell_setting 'orthorhombic'
loop_
_space_group_symop_operation_xyz
x,y,z
-x,-y,1/2+z
x,-y,1/2+z
-x,y,z
1/2+x,1/2+y,z
1/2-x,1/2-y,1/2+z
1/2+x,1/2-y,1/2+z
1/2-x,1/2+y,z
loop_
_atom_site_type_symbol
_atom_site_label
_atom_site_fract_x
_atom_site_fract_y
_atom_site_fract_z
Si Si1 0.164194 0.393404 0.663410
Si Si2 0.668562 0.123859 0.327397
Si Si3 0.169915 0.440282 0.978718
Si Si4 0.340080 0.340131 0.041669
Si Si5 0.830497 0.943369 0.524075
Si Si6 0.162754 0.772143 0.885638
Si Si7 0.835985 0.722071 0.089078
Si Si8 0.667110 0.323901 0.453600
O O1 0.204793 0.409230 0.749219
O O2 0.268422 0.426241 0.605557
O O3 0.176494 0.322071 0.659133
O O4 0.000000 0.413456 0.644971
O O5 0.500000 0.140077 0.332879
O O6 0.712438 0.080950 0.395367
O O7 0.755732 0.184643 0.328995
O O8 0.000000 0.449722 0.989257
O O9 0.222479 0.391886 0.039588
O O10 0.251808 0.500109 0.992591
O O11 0.500000 0.368667 0.050237
O O12 0.310756 0.291725 0.107960
O O13 0.331509 0.301003 0.967194
O O14 0.803392 0.893538 0.460823
O O15 0.000000 0.955716 0.534888
O O16 0.239707 0.708017 0.888528
O O17 0.000000 0.763173 0.856312
O O18 0.000000 0.716020 0.054129
O O19 0.710720 0.702496 0.033082
O O20 0.500000 0.310249 0.437711
#
# Coordination Sequence:
#
# PCOD8174481 Si02
#       8
#     8   8   8   8   8   8   8   8
#     4   9  17  31  50  71  96 124 154 193 242 294
#     4   9  18  31  48  71  97 124 155 194 242 292
#     4  10  19  30  46  68  93 125 163 199 236 279
#     4   8  14  25  41  63  89 114 143 180 220 265
#     4  10  20  32  47  69  95 125 163 204 241 280
#     4   9  16  26  43  66  91 118 146 179 223 273
#     4   8  14  25  43  66  90 116 143 174 221 276
#     4   9  16  26  42  64  89 114 143 183 227 269
#
# _framework density 17.028991000000001
#
# number of rings (size 3 to 8) (size 9 to 14) (size 15 to 20)
#    0.000    3.000    0.000    2.250    0.000    5.500 
#    0.000    0.000    0.000    1.500    0.000    1.750 
#    0.000    0.000    0.000    0.000    0.000    0.000 
#
# Total GULP energy -396445.167022 kJ/mol
# GULP energy per Si atom -12388.911469 kJ/mol
# Density = 1.699023 g / cm^3
# Si number density = 17.028991 Si / 1000 Ang^3
#
#
#
# Elastic Constant Matrix: (Units=GPa)
#
#
# Indices 1 2 3 4 5 6 
#
# 1 105.1042 70.3507 34.2737 0.0000 0.0000 0.0000
# 2 70.3507 119.2051 37.4638 0.0000 0.0000 0.0000
# 3 34.2737 37.4638 52.6094 0.0000 0.0000 0.0000
# 4 0.0000 0.0000 0.0000 15.6358 0.0000 0.0000
# 5 0.0000 0.0000 0.0000 0.0000 17.1173 0.0000
# 6 0.0000 0.0000 0.0000 0.0000 0.0000 29.2728
#
#
#
# Elastic Compliance Matrix: (Units=1/GPa)
#
#
# Indices 1 2 3 4 5 6 
#
# 1 0.016677 -0.008281 -0.004968 0.000000 0.000000 0.000000
# 2 -0.008281 0.014920 -0.005230 0.000000 0.000000 0.000000
# 3 -0.004968 -0.005230 0.025968 0.000000 0.000000 0.000000
# 4 0.000000 0.000000 0.000000 0.063956 0.000000 0.000000
# 5 0.000000 0.000000 0.000000 0.000000 0.058420 0.000000
# 6 0.000000 0.000000 0.000000 0.000000 0.000000 0.034161
#
#
# Mechanical properties :
#
#
# Convention : Reuss Voigt Hill
#
# Bulk Modulus (GPa) = 48.52356 62.34391 55.43373
# Shear Modulus (GPa) = 19.38519 21.39389 20.38954
#
# Velocity S-wave (km/s) = 3.37763 3.54831 3.46402
# Velocity P-wave (km/s) = 6.61571 7.31281 6.97298
#
# Compressibility (1/GPa) = 0.02060855
#
# Stress axis : x y z
#
# Youngs Moduli (GPa) = 59.96222 67.02586 38.50829
#
# Poissons Ratio (x) = 0.55504 0.19130
# Poissons Ratio (y) = 0.49655 0.20138
# Poissons Ratio (z) = 0.29788 0.35052
#
# Static dielectric constant tensor:
#      x y z
#    x 3.297230 0.000000 0.000000 
#    y 0.000000 3.312830 0.000000 
#    z 0.000000 0.000000 2.914120 
# 
# 
# High freq. dielectric constant tensor:
#      x y z
#    x 1.667680 0.000000 0.000000 
#    y 0.000000 1.651070 0.000000 
#    z 0.000000 0.000000 1.608010 
# 
# From -- ./inp_files/13770.got.cif
#   From: 2010.03.12/outbox.cif.g09.slc.cpg/sg36_7_cif.got.tgz:13770.got - 2010.04.14 02:13:53.
