data_PCOD8174704
_publ_section_title
;
Structure prediction by ZEFSAII (Michael W. Deem and Ramdas Pophale) SiO2 
 PCOD8174704
Probable space group: C M C 21
;
_chemical_formula_sum "Si O2"
_cell_formula_units_Z 64
_cell_length_a 8.969417
_cell_length_b 20.466818
_cell_length_c 19.139562
_cell_angle_alpha 90.000000
_cell_angle_beta 90.000000
_cell_angle_gamma 90.000000
_cell_volume 3513.553234
_symmetry_space_group_name_H-M "C M C 21"
_symmetry_group_IT_number 36
_symmetry_cell_setting 'orthorhombic'
loop_
_space_group_symop_operation_xyz
x,y,z
-x,-y,1/2+z
x,-y,1/2+z
-x,y,z
1/2+x,1/2+y,z
1/2-x,1/2-y,1/2+z
1/2+x,1/2-y,1/2+z
1/2-x,1/2+y,z
loop_
_atom_site_type_symbol
_atom_site_label
_atom_site_fract_x
_atom_site_fract_y
_atom_site_fract_z
Si Si1 0.173339 0.052914 0.829570
Si Si2 0.175748 0.567390 0.258770
Si Si3 0.828999 0.190042 0.763814
Si Si4 0.324123 0.612252 0.126384
Si Si5 0.329794 0.246432 0.123764
Si Si6 0.673747 0.383520 0.470755
Si Si7 0.670691 0.750242 0.468853
Si Si8 0.172843 0.811075 0.829757
O O1 0.216091 0.117339 0.785944
O O2 0.000000 0.034891 0.819507
O O3 0.274958 0.994717 0.803054
O O4 0.211590 0.063007 0.911721
O O5 0.246447 0.563577 0.181249
O O6 0.226750 0.632393 0.298316
O O7 0.000000 0.568367 0.251493
O O8 0.809192 0.195760 0.679842
O O9 0.718891 0.241134 0.799497
O O10 0.000000 0.204697 0.786173
O O11 0.500000 0.605364 0.135178
O O12 0.276403 0.686247 0.144391
O O13 0.269643 0.593939 0.047622
O O14 0.500000 0.220380 0.124669
O O15 0.286940 0.274109 0.047010
O O16 0.500000 0.370890 0.475041
O O17 0.739537 0.314483 0.447391
O O18 0.500000 0.771725 0.465254
O O19 0.701231 0.692146 0.413600
O O20 0.000000 0.825098 0.812248
#
# Coordination Sequence:
#
# PCOD8174704 Si02
#       8
#     8   8   8   8   8   8   8   8
#     4  10  21  38  57  81 113 148 185 229 279 334
#     4  12  25  39  55  78 111 152 193 235 279 326
#     4  10  19  33  57  83 110 141 178 225 277 331
#     4  10  19  33  55  83 110 142 183 227 276 331
#     4   9  17  31  52  82 114 144 178 218 272 331
#     4   9  18  33  56  83 111 142 179 223 275 334
#     4   9  18  31  51  81 114 144 178 222 270 324
#     4  11  21  34  55  81 111 145 184 229 274 325
#
# _framework density 18.215178999999999
#
# number of rings (size 3 to 8) (size 9 to 14) (size 15 to 20)
#    0.000    2.000    2.500    1.875    0.000    2.000 
#    0.000    1.250    0.000    4.500    0.000    0.000 
#    0.000    0.000    0.000    0.000    0.000    0.000 
#
# Total GULP energy -396748.935330 kJ/mol
# GULP energy per Si atom -12398.404229 kJ/mol
# Density = 1.817372 g / cm^3
# Si number density = 18.215179 Si / 1000 Ang^3
#
#
#
# Elastic Constant Matrix: (Units=GPa)
#
#
# Indices 1 2 3 4 5 6 
#
# 1 75.9856 36.1643 44.9140 0.0000 0.0000 0.0000
# 2 36.1643 72.4353 50.7499 0.0000 0.0000 0.0000
# 3 44.9140 50.7499 124.6369 0.0000 0.0000 0.0000
# 4 0.0000 0.0000 0.0000 24.5608 0.0000 0.0000
# 5 0.0000 0.0000 0.0000 0.0000 24.3722 0.0000
# 6 0.0000 0.0000 0.0000 0.0000 0.0000 29.4449
#
#
#
# Elastic Compliance Matrix: (Units=1/GPa)
#
#
# Indices 1 2 3 4 5 6 
#
# 1 0.018647 -0.006439 -0.004098 0.000000 0.000000 0.000000
# 2 -0.006439 0.021539 -0.006450 0.000000 0.000000 0.000000
# 3 -0.004098 -0.006450 0.012126 0.000000 0.000000 0.000000
# 4 0.000000 0.000000 0.000000 0.040715 0.000000 0.000000
# 5 0.000000 0.000000 0.000000 0.000000 0.041030 0.000000
# 6 0.000000 0.000000 0.000000 0.000000 0.000000 0.033962
#
#
# Mechanical properties :
#
#
# Convention : Reuss Voigt Hill
#
# Bulk Modulus (GPa) = 54.52820 59.63491 57.08156
# Shear Modulus (GPa) = 24.02618 25.09088 24.55853
#
# Velocity S-wave (km/s) = 3.63577 3.71546 3.67583
# Velocity P-wave (km/s) = 6.90114 7.15656 7.03001
#
# Compressibility (1/GPa) = 0.01833913
#
# Stress axis : x y z
#
# Youngs Moduli (GPa) = 53.62796 46.42719 82.46485
#
# Poissons Ratio (x) = 0.29893 0.33793
# Poissons Ratio (y) = 0.34529 0.53191
# Poissons Ratio (z) = 0.21976 0.29946
#
# Static dielectric constant tensor:
#      x y z
#    x 3.354570 0.000000 0.000000 
#    y 0.000000 3.045600 0.000000 
#    z 0.000000 0.000000 3.981530 
# 
# 
# High freq. dielectric constant tensor:
#      x y z
#    x 1.706470 0.000000 0.000000 
#    y 0.000000 1.665560 0.000000 
#    z 0.000000 0.000000 1.730420 
# 
# From -- ./inp_files/15807.got.cif
#   From: 2010.03.12/outbox.cif.g09.slc.cpg/sg36_8_cif.got.tgz:15807.got - 2010.04.14 02:13:53.
