data_PCOD8174666
_publ_section_title
;
Structure prediction by ZEFSAII (Michael W. Deem and Ramdas Pophale) SiO2 
 PCOD8174666
Probable space group: C M C 21
;
_chemical_formula_sum "Si O2"
_cell_formula_units_Z 48
_cell_length_a 8.639441
_cell_length_b 31.163183
_cell_length_c 8.996298
_cell_angle_alpha 90.000000
_cell_angle_beta 90.000000
_cell_angle_gamma 90.000000
_cell_volume 2422.095629
_symmetry_space_group_name_H-M "C M C 21"
_symmetry_group_IT_number 36
_symmetry_cell_setting 'orthorhombic'
loop_
_space_group_symop_operation_xyz
x,y,z
-x,-y,1/2+z
x,-y,1/2+z
-x,y,z
1/2+x,1/2+y,z
1/2-x,1/2-y,1/2+z
1/2+x,1/2-y,1/2+z
1/2-x,1/2+y,z
loop_
_atom_site_type_symbol
_atom_site_label
_atom_site_fract_x
_atom_site_fract_y
_atom_site_fract_z
Si Si1 0.682779 0.125300 0.501910
Si Si2 0.815462 0.456903 0.503778
Si Si3 0.684676 0.958475 0.168067
Si Si4 0.320662 0.705032 0.665794
Si Si5 0.681468 0.209810 0.985869
Si Si6 0.315855 0.872474 0.668762
O O1 0.500000 0.121374 0.492673
O O2 0.750394 0.082737 0.580311
O O3 0.723209 0.166435 0.598552
O O4 0.752445 0.129127 0.335862
O O5 0.752060 0.498780 0.588553
O O6 0.751479 0.457162 0.335958
O O7 0.751421 0.414763 0.586799
O O8 0.000000 0.456791 0.503780
O O9 0.500000 0.958282 0.168519
O O10 0.500000 0.693760 0.651240
O O11 0.278351 0.748109 0.578871
O O12 0.277832 0.712001 0.835974
O O13 0.500000 0.205935 0.949358
O O14 0.741285 0.169232 0.080231
O O15 0.500000 0.873400 0.674411
#
# Coordination Sequence:
#
# PCOD8174666 Si02
#       6
#     8   8   8   8   8   8
#     4  10  19  33  53  76 105 141 176 212 259 309
#     4   9  15  24  40  69 105 134 169 217 264 307
#     4   9  16  25  42  70 104 139 172 213 262 307
#     4  11  23  37  55  80 107 136 172 213 256 306
#     4  10  21  37  55  76 104 137 172 213 261 309
#     4   9  17  30  50  75 103 135 173 218 264 310
#
# _framework density 19.817551000000002
#
# number of rings (size 3 to 8) (size 9 to 14) (size 15 to 20)
#    0.000    2.333    0.000    3.500    0.000    9.333 
#    0.000    0.833    0.000    0.000    0.000   10.500 
#    0.000    0.000    0.000    0.000    0.000    0.000 
#
# Total GULP energy -297644.267116 kJ/mol
# GULP energy per Si atom -12401.844463 kJ/mol
# Density = 1.977244 g / cm^3
# Si number density = 19.817551 Si / 1000 Ang^3
#
#
#
# Elastic Constant Matrix: (Units=GPa)
#
#
# Indices 1 2 3 4 5 6 
#
# 1 4.1293 7.7698 9.1240 0.0000 0.0000 0.0000
# 2 7.7698 164.7905 68.1354 0.0000 0.0000 0.0000
# 3 9.1240 68.1354 167.4482 0.0000 0.0000 0.0000
# 4 0.0000 0.0000 0.0000 46.2816 0.0000 0.0000
# 5 0.0000 0.0000 0.0000 0.0000 17.0440 0.0000
# 6 0.0000 0.0000 0.0000 0.0000 0.0000 16.0757
#
#
#
# Elastic Compliance Matrix: (Units=1/GPa)
#
#
# Indices 1 2 3 4 5 6 
#
# 1 0.284733 -0.008428 -0.012085 0.000000 0.000000 0.000000
# 2 -0.008428 0.007545 -0.002611 0.000000 0.000000 0.000000
# 3 -0.012085 -0.002611 0.007693 0.000000 0.000000 0.000000
# 4 0.000000 0.000000 0.000000 0.021607 0.000000 0.000000
# 5 0.000000 0.000000 0.000000 0.000000 0.058672 0.000000
# 6 0.000000 0.000000 0.000000 0.000000 0.000000 0.062206
#
#
# Mechanical properties :
#
#
# Convention : Reuss Voigt Hill
#
# Bulk Modulus (GPa) = 3.94132 56.26960 30.10546
# Shear Modulus (GPa) = 8.72178 32.63620 20.67899
#
# Velocity S-wave (km/s) = 2.10014 4.06252 3.23378
# Velocity P-wave (km/s) = 2.80605 7.10358 5.40069
#
# Compressibility (1/GPa) = 0.25372211
#
# Stress axis : x y z
#
# Youngs Moduli (GPa) = 3.51207 132.53404 129.98984
#
# Poissons Ratio (x) = 1.11701 1.57096
# Poissons Ratio (y) = 0.02960 0.33940
# Poissons Ratio (z) = 0.04244 0.34604
#
# Static dielectric constant tensor:
#      x y z
#    x 2.957470 0.000000 0.000000 
#    y 0.000000 3.827990 0.000000 
#    z 0.000000 0.000000 3.869950 
# 
# 
# High freq. dielectric constant tensor:
#      x y z
#    x 1.706340 0.000000 0.000000 
#    y 0.000000 1.793280 0.000000 
#    z 0.000000 0.000000 1.793990 
# 
# From -- ./inp_files/2646.got.cif
#   From: 2010.03.12/outbox.cif.g09.slc.cpg/sg36_2_cif.got.tgz:2646.got - 2010.04.14 02:13:53.
