data_PCOD8174002
_publ_section_title
;
Structure prediction by ZEFSAII (Michael W. Deem and Ramdas Pophale) SiO2 
 PCOD8174002
Probable space group: C M M 2
;
_chemical_formula_sum "Si O2"
_cell_formula_units_Z 28
_cell_length_a 22.914364
_cell_length_b 11.039907
_cell_length_c 5.025278
_cell_angle_alpha 90.000000
_cell_angle_beta 90.000000
_cell_angle_gamma 90.000000
_cell_volume 1271.256875
_symmetry_space_group_name_H-M "C M M 2"
_symmetry_group_IT_number 35
_symmetry_cell_setting 'orthorhombic'
loop_
_space_group_symop_operation_xyz
x,y,z
-x,-y,z
-x,y,z
x,-y,z
1/2+x,1/2+y,z
1/2-x,1/2-y,z
1/2-x,1/2+y,z
1/2+x,1/2-y,z
loop_
_atom_site_type_symbol
_atom_site_label
_atom_site_fract_x
_atom_site_fract_y
_atom_site_fract_z
Si Si1 0.750000 0.750000 0.783330
Si Si2 0.433016 0.862128 0.092115
Si Si3 0.122751 0.746280 0.585117
Si Si4 0.284038 0.500000 0.932645
Si Si5 0.639590 0.500000 0.432685
O O1 0.807018 0.743275 0.597072
O O2 0.751243 0.627181 0.967710
O O3 0.500000 0.823850 0.129701
O O4 0.400343 0.850845 0.374007
O O5 0.427592 0.000000 0.994959
O O6 0.403374 0.776466 0.875369
O O7 0.101637 0.879438 0.487602
O O8 0.304748 0.500000 0.627531
O O9 0.338894 0.500000 0.128887
#
# Coordination Sequence:
#
# PCOD8174002 Si02
#       5
#     4   8   8   4   4
#     4  10  24  40  64 104 134 182 230 274 348 416
#     4  11  25  44  68  98 134 175 230 290 333 392
#     4  11  23  43  67  95 136 178 221 281 339 410
#     4  10  22  38  60  92 138 174 216 274 325 410
#     4  10  22  42  61  90 134 168 205 282 335 380
#
# _framework density 22.025445999999999
#
# number of rings (size 3 to 8) (size 9 to 14) (size 15 to 20)
#    0.000    1.429    0.000    5.143    4.000   12.571 
#    0.000    4.286    0.000    0.000    0.000    0.000 
#    0.000    0.000    0.000    0.000    0.000    0.000 
#
# Total GULP energy -173584.925255 kJ/mol
# GULP energy per Si atom -12398.923232 kJ/mol
# Density = 2.197532 g / cm^3
# Si number density = 22.025446 Si / 1000 Ang^3
#
#
#
# Elastic Constant Matrix: (Units=GPa)
#
#
# Indices 1 2 3 4 5 6 
#
# 1 125.8785 36.7588 44.3560 0.0000 0.0000 0.0000
# 2 36.7588 145.7188 22.7612 0.0000 0.0000 0.0000
# 3 44.3560 22.7612 97.7625 0.0000 0.0000 0.0000
# 4 0.0000 0.0000 0.0000 32.0243 0.0000 0.0000
# 5 0.0000 0.0000 0.0000 0.0000 27.5051 0.0000
# 6 0.0000 0.0000 0.0000 0.0000 0.0000 28.6798
#
#
#
# Elastic Compliance Matrix: (Units=1/GPa)
#
#
# Indices 1 2 3 4 5 6 
#
# 1 0.009923 -0.001868 -0.004067 0.000000 0.000000 0.000000
# 2 -0.001868 0.007473 -0.000892 0.000000 0.000000 0.000000
# 3 -0.004067 -0.000892 0.012282 0.000000 0.000000 0.000000
# 4 0.000000 0.000000 0.000000 0.031226 0.000000 0.000000
# 5 0.000000 0.000000 0.000000 0.000000 0.036357 0.000000
# 6 0.000000 0.000000 0.000000 0.000000 0.000000 0.034868
#
#
# Mechanical properties :
#
#
# Convention : Reuss Voigt Hill
#
# Bulk Modulus (GPa) = 62.41055 64.12351 63.26703
# Shear Modulus (GPa) = 33.08526 35.34076 34.21301
#
# Velocity S-wave (km/s) = 3.87995 4.01002 3.94552
# Velocity P-wave (km/s) = 6.96198 7.11456 7.03868
#
# Compressibility (1/GPa) = 0.01602293
#
# Stress axis : x y z
#
# Youngs Moduli (GPa) = 100.77829 133.81323 81.41997
#
# Poissons Ratio (x) = 0.24994 0.33115
# Poissons Ratio (y) = 0.18823 0.07266
# Poissons Ratio (z) = 0.40989 0.11942
#
# Static dielectric constant tensor:
#      x y z
#    x 3.712360 0.000000 0.000000 
#    y 0.000000 4.638540 0.000000 
#    z 0.000000 0.000000 3.718730 
# 
# 
# High freq. dielectric constant tensor:
#      x y z
#    x 1.837430 0.000000 0.000000 
#    y 0.000000 1.891260 0.000000 
#    z 0.000000 0.000000 1.865610 
# 
# From -- ./inp_files/2818.got.cif
#   From: 2010.03.12/outbox.cif.g09.slc.cpg/sg35_2_cif.got.tgz:2818.got - 2010.04.14 02:02:04.
