data_PCOD8174473
_publ_section_title
;
Structure prediction by ZEFSAII (Michael W. Deem and Ramdas Pophale) SiO2 
 PCOD8174473
Probable space group: C M C 21
;
_chemical_formula_sum "Si O2"
_cell_formula_units_Z 48
_cell_length_a 18.542031
_cell_length_b 37.794194
_cell_length_c 5.075141
_cell_angle_alpha 90.000000
_cell_angle_beta 90.000000
_cell_angle_gamma 90.000000
_cell_volume 3556.562978
_symmetry_space_group_name_H-M "C M C 21"
_symmetry_group_IT_number 36
_symmetry_cell_setting 'orthorhombic'
loop_
_space_group_symop_operation_xyz
x,y,z
-x,-y,1/2+z
x,-y,1/2+z
-x,y,z
1/2+x,1/2+y,z
1/2-x,1/2-y,1/2+z
1/2+x,1/2-y,1/2+z
1/2-x,1/2+y,z
loop_
_atom_site_type_symbol
_atom_site_label
_atom_site_fract_x
_atom_site_fract_y
_atom_site_fract_z
Si Si1 0.655904 0.752013 0.473760
Si Si2 0.414243 0.979372 0.456017
Si Si3 0.291914 0.792034 0.974101
Si Si4 0.500000 0.805244 0.873544
Si Si5 0.128510 0.357569 0.896014
Si Si6 0.913601 0.398946 0.391664
Si Si7 0.500000 0.239374 0.872276
O O1 0.677542 0.781445 0.259073
O O2 0.707459 0.717872 0.450346
O O3 0.573379 0.738730 0.432286
O O4 0.661944 0.770574 0.757345
O O5 0.500000 0.980590 0.451636
O O6 0.388577 0.938987 0.441918
O O7 0.382781 0.997820 0.715469
O O8 0.297872 0.834677 0.931812
O O9 0.568627 0.828243 0.944921
O O10 0.500000 0.794763 0.566003
O O11 0.500000 0.771591 0.066845
O O12 0.123755 0.374361 0.608225
O O13 0.118280 0.388552 0.108522
O O14 0.000000 0.394728 0.402527
#
# Coordination Sequence:
#
# PCOD8174473 Si02
#       7
#     8   8   8   4   8   8   4
#     4  10  19  30  42  56  72  99 129 156 193 236
#     4   9  17  29  40  51  70  94 119 151 185 213
#     4  10  20  30  40  55  78  99 121 156 201 237
#     4  12  20  26  40  60  74  99 118 166 206 227
#     4  12  19  28  38  55  79  95 119 156 199 235
#     4  11  20  27  40  58  73  94 125 155 187 227
#     4  12  18  30  44  58  70  95 136 162 192 237
#
# _framework density 13.496176
#
# number of rings (size 3 to 8) (size 9 to 14) (size 15 to 20)
#    0.000    1.333    5.000    3.000    0.000    2.667 
#    0.000    0.000    0.000    0.000    0.000    0.000 
#    0.000    0.000    0.000    0.000    0.000    0.000 
#
# Total GULP energy -297563.536570 kJ/mol
# GULP energy per Si atom -12398.480690 kJ/mol
# Density = 1.346546 g / cm^3
# Si number density = 13.496176 Si / 1000 Ang^3
#
#
#
# Elastic Constant Matrix: (Units=GPa)
#
#
# Indices 1 2 3 4 5 6 
#
# 1 59.8102 21.3626 3.7288 0.0000 0.0000 0.0000
# 2 21.3626 62.5673 6.1385 0.0000 0.0000 0.0000
# 3 3.7288 6.1385 58.4365 0.0000 0.0000 0.0000
# 4 0.0000 0.0000 0.0000 23.8815 0.0000 0.0000
# 5 0.0000 0.0000 0.0000 0.0000 10.2200 0.0000
# 6 0.0000 0.0000 0.0000 0.0000 0.0000 11.8599
#
#
#
# Elastic Compliance Matrix: (Units=1/GPa)
#
#
# Indices 1 2 3 4 5 6 
#
# 1 0.019058 -0.006454 -0.000538 0.000000 0.000000 0.000000
# 2 -0.006454 0.018335 -0.001514 0.000000 0.000000 0.000000
# 3 -0.000538 -0.001514 0.017306 0.000000 0.000000 0.000000
# 4 0.000000 0.000000 0.000000 0.041873 0.000000 0.000000
# 5 0.000000 0.000000 0.000000 0.000000 0.097847 0.000000
# 6 0.000000 0.000000 0.000000 0.000000 0.000000 0.084318
#
#
# Mechanical properties :
#
#
# Convention : Reuss Voigt Hill
#
# Bulk Modulus (GPa) = 26.53494 27.03043 26.78269
# Shear Modulus (GPa) = 16.21726 19.16456 17.69091
#
# Velocity S-wave (km/s) = 3.47020 3.77238 3.62444
# Velocity P-wave (km/s) = 5.97998 6.24869 6.11581
#
# Compressibility (1/GPa) = 0.03768616
#
# Stress axis : x y z
#
# Youngs Moduli (GPa) = 52.47020 54.54025 57.78352
#
# Poissons Ratio (x) = 0.35202 0.03109
# Poissons Ratio (y) = 0.33866 0.08749
# Poissons Ratio (z) = 0.02823 0.08258
#
# Static dielectric constant tensor:
#      x y z
#    x 2.766230 0.000000 0.000000 
#    y 0.000000 2.634290 0.000000 
#    z 0.000000 0.000000 2.887290 
# 
# 
# High freq. dielectric constant tensor:
#      x y z
#    x 1.467140 0.000000 0.000000 
#    y 0.000000 1.490030 0.000000 
#    z 0.000000 0.000000 1.541570 
# 
# From -- ./inp_files/1503.got.cif
#   From: 2010.03.12/outbox.cif.g09.slc.cpg/sg36_1_cif.got.tgz:1503.got - 2010.04.14 02:13:53.
