data_PCOD8174975
_publ_section_title
;
Structure prediction by ZEFSAII (Michael W. Deem and Ramdas Pophale) SiO2 
 PCOD8174975
Probable space group: C M C 21
;
_chemical_formula_sum "Si O2"
_cell_formula_units_Z 64
_cell_length_a 8.792721
_cell_length_b 24.413380
_cell_length_c 15.312655
_cell_angle_alpha 90.000000
_cell_angle_beta 90.000000
_cell_angle_gamma 90.000000
_cell_volume 3287.015120
_symmetry_space_group_name_H-M "C M C 21"
_symmetry_group_IT_number 36
_symmetry_cell_setting 'orthorhombic'
loop_
_space_group_symop_operation_xyz
x,y,z
-x,-y,1/2+z
x,-y,1/2+z
-x,y,z
1/2+x,1/2+y,z
1/2-x,1/2-y,1/2+z
1/2+x,1/2-y,1/2+z
1/2-x,1/2+y,z
loop_
_atom_site_type_symbol
_atom_site_label
_atom_site_fract_x
_atom_site_fract_y
_atom_site_fract_z
Si Si1 0.681377 0.262238 0.285440
Si Si2 0.319813 0.190837 0.446287
Si Si3 0.668065 0.623131 0.835880
Si Si4 0.322479 0.235177 0.092844
Si Si5 0.178963 0.991429 0.591455
Si Si6 0.331296 0.372199 0.539216
Si Si7 0.819705 0.434696 0.944108
Si Si8 0.180315 0.994078 0.292608
O O1 0.500000 0.265243 0.294452
O O2 0.745211 0.221304 0.359904
O O3 0.751726 0.323543 0.296155
O O4 0.734908 0.242001 0.191591
O O5 0.500000 0.193077 0.447025
O O6 0.262929 0.221660 0.532240
O O7 0.262658 0.128174 0.446463
O O8 0.500000 0.618277 0.793635
O O9 0.751007 0.565662 0.816093
O O10 0.654639 0.634065 0.937138
O O11 0.500000 0.246250 0.082908
O O12 0.286707 0.172531 0.071866
O O13 0.234586 0.931637 0.562229
O O14 0.000000 0.998871 0.576298
O O15 0.262060 0.036370 0.532311
O O16 0.224668 0.996092 0.692472
O O17 0.500000 0.363883 0.581013
O O18 0.755666 0.461396 0.855641
O O19 0.000000 0.438411 0.941279
O O20 0.000000 0.996652 0.309179
#
# Coordination Sequence:
#
# PCOD8174975 Si02
#       8
#     8   8   8   8   8   8   8   8
#     4   9  19  36  58  82 110 151 192 227 283 351
#     4  10  22  42  60  78 117 165 195 226 290 363
#     4   9  16  33  61  82 104 147 195 233 277 341
#     4  11  23  36  59  91 114 144 195 250 290 332
#     4  10  22  39  62  88 117 157 200 243 292 350
#     4  10  19  37  61  82 112 153 192 233 292 354
#     4  11  24  39  59  86 121 161 196 242 301 353
#     4  10  21  38  62  89 115 152 201 246 291 348
#
# _framework density 19.470552000000001
#
# number of rings (size 3 to 8) (size 9 to 14) (size 15 to 20)
#    0.000    2.000    2.500    0.750    3.500    2.000 
#    0.000    1.250    0.000    0.000    0.000    0.000 
#    0.000    0.000    0.000    0.000    0.000    0.000 
#
# Total GULP energy -396731.943765 kJ/mol
# GULP energy per Si atom -12397.873243 kJ/mol
# Density = 1.942624 g / cm^3
# Si number density = 19.470552 Si / 1000 Ang^3
#
#
#
# Elastic Constant Matrix: (Units=GPa)
#
#
# Indices 1 2 3 4 5 6 
#
# 1 27.6826 26.0068 21.7109 0.0000 0.0000 0.0000
# 2 26.0068 155.9382 51.0782 0.0000 0.0000 0.0000
# 3 21.7109 51.0782 116.2363 0.0000 0.0000 0.0000
# 4 0.0000 0.0000 0.0000 41.9350 0.0000 0.0000
# 5 0.0000 0.0000 0.0000 0.0000 24.3428 0.0000
# 6 0.0000 0.0000 0.0000 0.0000 0.0000 30.3070
#
#
#
# Elastic Compliance Matrix: (Units=1/GPa)
#
#
# Indices 1 2 3 4 5 6 
#
# 1 0.046304 -0.005712 -0.006139 0.000000 0.000000 0.000000
# 2 -0.005712 0.008196 -0.002535 0.000000 0.000000 0.000000
# 3 -0.006139 -0.002535 0.010864 0.000000 0.000000 0.000000
# 4 0.000000 0.000000 0.000000 0.023846 0.000000 0.000000
# 5 0.000000 0.000000 0.000000 0.000000 0.041080 0.000000
# 6 0.000000 0.000000 0.000000 0.000000 0.000000 0.032996
#
#
# Mechanical properties :
#
#
# Convention : Reuss Voigt Hill
#
# Bulk Modulus (GPa) = 27.32751 55.27212 41.29981
# Shear Modulus (GPa) = 24.47938 32.72104 28.60021
#
# Velocity S-wave (km/s) = 3.54962 4.10389 3.83678
# Velocity P-wave (km/s) = 5.55567 7.13477 6.39416
#
# Compressibility (1/GPa) = 0.03659316
#
# Stress axis : x y z
#
# Youngs Moduli (GPa) = 21.59625 122.01695 92.05058
#
# Poissons Ratio (x) = 0.69692 0.56509
# Poissons Ratio (y) = 0.12335 0.23331
# Poissons Ratio (z) = 0.13258 0.30926
#
# Static dielectric constant tensor:
#      x y z
#    x 3.255770 0.000000 0.000000 
#    y 0.000000 3.780260 0.000000 
#    z 0.000000 0.000000 3.603860 
# 
# 
# High freq. dielectric constant tensor:
#      x y z
#    x 1.721000 0.000000 0.000000 
#    y 0.000000 1.778760 0.000000 
#    z 0.000000 0.000000 1.766780 
# 
# From -- ./inp_files/10969.got.cif
#   From: 2010.03.12/outbox.cif.g09.slc.cpg/sg36_6_cif.got.tgz:10969.got - 2010.04.14 02:13:53.
