data_PCOD8174393
_publ_section_title
;
Structure prediction by ZEFSAII (Michael W. Deem and Ramdas Pophale) SiO2 
 PCOD8174393
Probable space group: C M C 21
;
_chemical_formula_sum "Si O2"
_cell_formula_units_Z 64
_cell_length_a 8.959234
_cell_length_b 20.021286
_cell_length_c 19.888453
_cell_angle_alpha 90.000000
_cell_angle_beta 90.000000
_cell_angle_gamma 90.000000
_cell_volume 3567.498939
_symmetry_space_group_name_H-M "C M C 21"
_symmetry_group_IT_number 36
_symmetry_cell_setting 'orthorhombic'
loop_
_space_group_symop_operation_xyz
x,y,z
-x,-y,1/2+z
x,-y,1/2+z
-x,y,z
1/2+x,1/2+y,z
1/2-x,1/2-y,1/2+z
1/2+x,1/2-y,1/2+z
1/2-x,1/2+y,z
loop_
_atom_site_type_symbol
_atom_site_label
_atom_site_fract_x
_atom_site_fract_y
_atom_site_fract_z
Si Si1 0.671178 0.837272 0.951490
Si Si2 0.673525 0.017073 0.484021
Si Si3 0.675348 0.836980 0.354698
Si Si4 0.677366 0.088181 0.228879
Si Si5 0.676337 0.306257 0.815495
Si Si6 0.325505 0.579212 0.087682
Si Si7 0.828581 0.193055 0.989686
Si Si8 0.176128 0.518473 0.834835
O O1 0.500000 0.835631 0.925780
O O2 0.698078 0.903455 0.995824
O O3 0.774425 0.839323 0.885663
O O4 0.707950 0.772182 0.997333
O O5 0.500000 0.997114 0.493533
O O6 0.732166 0.000463 0.409184
O O7 0.774852 0.978317 0.536763
O O8 0.500000 0.834348 0.362882
O O9 0.729390 0.771453 0.314347
O O10 0.735693 0.839382 0.430036
O O11 0.725039 0.905243 0.317278
O O12 0.500000 0.091663 0.229128
O O13 0.743367 0.158965 0.252716
O O14 0.732705 0.070572 0.155126
O O15 0.742481 0.031130 0.278859
O O16 0.500000 0.313696 0.807161
O O17 0.500000 0.570629 0.102765
O O18 0.289967 0.652942 0.057658
O O19 0.000000 0.182370 0.970575
O O20 0.000000 0.510569 0.833361
#
# Coordination Sequence:
#
# PCOD8174393 Si02
#       8
#     8   8   8   8   8   8   8   8
#     4   9  17  32  54  79 105 136 177 219 256 308
#     4  10  18  33  57  81 105 138 180 223 262 313
#     4   9  17  31  53  79 106 132 167 216 264 310
#     4  11  22  38  57  76 103 146 187 223 264 321
#     4  10  19  31  51  80 109 136 166 214 272 317
#     4  11  23  37  52  78 112 144 177 222 276 328
#     4   9  18  32  51  76 106 137 172 214 261 312
#     4   9  17  32  55  81 104 133 180 225 259 309
#
# _framework density 17.939738999999999
#
# number of rings (size 3 to 8) (size 9 to 14) (size 15 to 20)
#    0.000    2.250    2.500    1.125    0.000    1.500 
#    0.000    2.500    0.000    7.500    0.000    0.000 
#    0.000    0.000    0.000    0.000    0.000    0.000 
#
# Total GULP energy -396713.614734 kJ/mol
# GULP energy per Si atom -12397.300460 kJ/mol
# Density = 1.789891 g / cm^3
# Si number density = 17.939739 Si / 1000 Ang^3
#
#
#
# Elastic Constant Matrix: (Units=GPa)
#
#
# Indices 1 2 3 4 5 6 
#
# 1 45.9993 34.1734 26.4789 0.0000 0.0000 0.0000
# 2 34.1734 126.6171 60.5061 0.0000 0.0000 0.0000
# 3 26.4789 60.5061 96.5681 0.0000 0.0000 0.0000
# 4 0.0000 0.0000 0.0000 25.7037 0.0000 0.0000
# 5 0.0000 0.0000 0.0000 0.0000 28.3409 0.0000
# 6 0.0000 0.0000 0.0000 0.0000 0.0000 23.8922
#
#
#
# Elastic Compliance Matrix: (Units=1/GPa)
#
#
# Indices 1 2 3 4 5 6 
#
# 1 0.028366 -0.005622 -0.004255 0.000000 0.000000 0.000000
# 2 -0.005622 0.012388 -0.006220 0.000000 0.000000 0.000000
# 3 -0.004255 -0.006220 0.015419 0.000000 0.000000 0.000000
# 4 0.000000 0.000000 0.000000 0.038905 0.000000 0.000000
# 5 0.000000 0.000000 0.000000 0.000000 0.035285 0.000000
# 6 0.000000 0.000000 0.000000 0.000000 0.000000 0.041855
#
#
# Mechanical properties :
#
#
# Convention : Reuss Voigt Hill
#
# Bulk Modulus (GPa) = 41.70523 56.83348 49.26936
# Shear Modulus (GPa) = 23.53998 25.45576 24.49787
#
# Velocity S-wave (km/s) = 3.62632 3.77099 3.69936
# Velocity P-wave (km/s) = 6.38995 7.12106 6.76539
#
# Compressibility (1/GPa) = 0.02397781
#
# Stress axis : x y z
#
# Youngs Moduli (GPa) = 35.25366 80.72581 64.85378
#
# Poissons Ratio (x) = 0.45388 0.27596
# Poissons Ratio (y) = 0.19821 0.40339
# Poissons Ratio (z) = 0.15001 0.50211
#
# Static dielectric constant tensor:
#      x y z
#    x 3.216650 0.000000 0.000000 
#    y 0.000000 3.868440 0.000000 
#    z 0.000000 0.000000 3.085930 
# 
# 
# High freq. dielectric constant tensor:
#      x y z
#    x 1.684950 0.000000 0.000000 
#    y 0.000000 1.713990 0.000000 
#    z 0.000000 0.000000 1.661560 
# 
# From -- ./inp_files/13760.got.cif
#   From: 2010.03.12/outbox.cif.g09.slc.cpg/sg36_7_cif.got.tgz:13760.got - 2010.04.14 02:13:53.
