data_PCOD8174276
_publ_section_title
;
Structure prediction by ZEFSAII (Michael W. Deem and Ramdas Pophale) SiO2 
 PCOD8174276
Probable space group: C M C 21
;
_chemical_formula_sum "Si O2"
_cell_formula_units_Z 64
_cell_length_a 8.667983
_cell_length_b 20.841485
_cell_length_c 19.194487
_cell_angle_alpha 90.000000
_cell_angle_beta 90.000000
_cell_angle_gamma 90.000000
_cell_volume 3467.553900
_symmetry_space_group_name_H-M "C M C 21"
_symmetry_group_IT_number 36
_symmetry_cell_setting 'orthorhombic'
loop_
_space_group_symop_operation_xyz
x,y,z
-x,-y,1/2+z
x,-y,1/2+z
-x,y,z
1/2+x,1/2+y,z
1/2-x,1/2-y,1/2+z
1/2+x,1/2-y,1/2+z
1/2-x,1/2+y,z
loop_
_atom_site_type_symbol
_atom_site_label
_atom_site_fract_x
_atom_site_fract_y
_atom_site_fract_z
Si Si1 0.182038 0.562723 0.837620
Si Si2 0.817356 0.884881 0.629710
Si Si3 0.315832 0.933932 0.766112
Si Si4 0.821786 0.246436 0.624071
Si Si5 0.822012 0.817150 0.266262
Si Si6 0.820324 0.308033 0.840846
Si Si7 0.682192 0.884915 0.483039
Si Si8 0.820511 0.747283 0.483827
O O1 0.247622 0.496397 0.806536
O O2 0.231738 0.619585 0.786783
O O3 0.240763 0.573049 0.917070
O O4 0.000000 0.560947 0.838408
O O5 0.751842 0.933098 0.688072
O O6 0.753830 0.813876 0.645687
O O7 0.763483 0.909515 0.553645
O O8 0.000000 0.884010 0.632524
O O9 0.500000 0.934065 0.762181
O O10 0.248981 0.872812 0.808972
O O11 0.801658 0.193792 0.683943
O O12 0.738970 0.217108 0.556043
O O13 0.000000 0.260470 0.608008
O O14 0.748883 0.755626 0.305705
O O15 0.000000 0.826062 0.287509
O O16 0.790333 0.305205 0.923738
O O17 0.000000 0.308255 0.822401
O O18 0.500000 0.890226 0.493089
O O19 0.727123 0.811697 0.467030
O O20 0.000000 0.765418 0.489487
#
# Coordination Sequence:
#
# PCOD8174276 Si02
#       8
#     8   8   8   8   8   8   8   8
#     4  10  22  36  56  83 110 143 182 227 267 314
#     4  11  21  33  53  82 108 139 181 226 269 315
#     4  10  20  39  58  77 109 146 184 220 268 327
#     4  10  19  33  53  78 108 146 180 218 273 325
#     4  10  19  34  56  78 106 144 178 216 270 325
#     4   9  17  32  55  78 102 139 178 215 266 322
#     4  10  19  33  52  78 108 141 178 218 269 325
#     4  10  18  30  51  80 107 136 177 228 274 315
#
# _framework density 18.456814999999999
#
# number of rings (size 3 to 8) (size 9 to 14) (size 15 to 20)
#    0.000    2.000    2.500    3.750    0.000    2.000 
#    0.000    2.500    0.000    3.000    0.000    0.000 
#    0.000    0.000    0.000    0.000    0.000    0.000 
#
# Total GULP energy -396766.086222 kJ/mol
# GULP energy per Si atom -12398.940194 kJ/mol
# Density = 1.841481 g / cm^3
# Si number density = 18.456815 Si / 1000 Ang^3
#
#
#
# Elastic Constant Matrix: (Units=GPa)
#
#
# Indices 1 2 3 4 5 6 
#
# 1 42.7725 14.1197 27.3511 0.0000 0.0000 0.0000
# 2 14.1197 106.7108 65.0880 0.0000 0.0000 0.0000
# 3 27.3511 65.0880 141.4171 0.0000 0.0000 0.0000
# 4 0.0000 0.0000 0.0000 27.4742 0.0000 0.0000
# 5 0.0000 0.0000 0.0000 0.0000 28.4352 0.0000
# 6 0.0000 0.0000 0.0000 0.0000 0.0000 20.0623
#
#
#
# Elastic Compliance Matrix: (Units=1/GPa)
#
#
# Indices 1 2 3 4 5 6 
#
# 1 0.026701 -0.000533 -0.004919 0.000000 0.000000 0.000000
# 2 -0.000533 0.013039 -0.005898 0.000000 0.000000 0.000000
# 3 -0.004919 -0.005898 0.010737 0.000000 0.000000 0.000000
# 4 0.000000 0.000000 0.000000 0.036398 0.000000 0.000000
# 5 0.000000 0.000000 0.000000 0.000000 0.035168 0.000000
# 6 0.000000 0.000000 0.000000 0.000000 0.000000 0.049845
#
#
# Mechanical properties :
#
#
# Convention : Reuss Voigt Hill
#
# Bulk Modulus (GPa) = 36.00041 56.00200 46.00120
# Shear Modulus (GPa) = 24.52822 27.48379 26.00601
#
# Velocity S-wave (km/s) = 3.64943 3.86305 3.75776
# Velocity P-wave (km/s) = 6.10781 7.09265 6.61857
#
# Compressibility (1/GPa) = 0.02777746
#
# Stress axis : x y z
#
# Youngs Moduli (GPa) = 37.45209 76.69120 93.13237
#
# Poissons Ratio (x) = 0.04085 0.45812
# Poissons Ratio (y) = 0.01995 0.54933
# Poissons Ratio (z) = 0.18423 0.45235
#
# Static dielectric constant tensor:
#      x y z
#    x 3.268720 0.000000 0.000000 
#    y 0.000000 3.288030 0.000000 
#    z 0.000000 0.000000 3.762860 
# 
# 
# High freq. dielectric constant tensor:
#      x y z
#    x 1.705730 0.000000 0.000000 
#    y 0.000000 1.682670 0.000000 
#    z 0.000000 0.000000 1.735280 
# 
# From -- ./inp_files/15718.got.cif
#   From: 2010.03.12/outbox.cif.g09.slc.cpg/sg36_8_cif.got.tgz:15718.got - 2010.04.14 02:13:53.
