data_PCOD8174019
_publ_section_title
;
Structure prediction by ZEFSAII (Michael W. Deem and Ramdas Pophale) SiO2 
 PCOD8174019
Probable space group: C M M 2
;
_chemical_formula_sum "Si O2"
_cell_formula_units_Z 40
_cell_length_a 8.634212
_cell_length_b 18.279623
_cell_length_c 12.663102
_cell_angle_alpha 90.000000
_cell_angle_beta 90.000000
_cell_angle_gamma 90.000000
_cell_volume 1998.619165
_symmetry_space_group_name_H-M "C M M 2"
_symmetry_group_IT_number 35
_symmetry_cell_setting 'orthorhombic'
loop_
_space_group_symop_operation_xyz
x,y,z
-x,-y,z
-x,y,z
x,-y,z
1/2+x,1/2+y,z
1/2-x,1/2-y,z
1/2-x,1/2+y,z
1/2+x,1/2-y,z
loop_
_atom_site_type_symbol
_atom_site_label
_atom_site_fract_x
_atom_site_fract_y
_atom_site_fract_z
Si Si1 0.817407 0.828041 0.865360
Si Si2 0.321640 0.584730 0.272817
Si Si3 0.817392 0.830056 0.483580
Si Si4 0.681360 0.173021 0.090524
Si Si5 0.318837 0.915772 0.679249
O O1 0.750000 0.750000 0.828717
O O2 0.768295 0.890583 0.784417
O O3 0.000000 0.821189 0.869504
O O4 0.756158 0.851014 0.980144
O O5 0.500000 0.599968 0.244179
O O6 0.288470 0.500000 0.291882
O O7 0.273028 0.625894 0.378899
O O8 0.216040 0.611583 0.176834
O O9 0.750000 0.750000 0.470116
O O10 0.737245 0.868744 0.581305
O O11 0.000000 0.827330 0.503436
O O12 0.500000 0.181928 0.073779
O O13 0.750000 0.250000 0.130461
O O14 0.500000 0.903704 0.696105
O O15 0.276964 0.000000 0.658206
#
# Coordination Sequence:
#
# PCOD8174019 Si02
#       5
#     8   8   8   8   8
#     4  11  22  39  63  88 118 155 197 243 291 346
#     4  10  22  40  61  87 120 156 195 241 293 348
#     4  11  23  40  63  89 118 154 197 242 290 347
#     4  11  22  38  61  88 119 155 198 244 291 345
#     4  11  24  41  61  87 120 155 194 242 294 348
#
# _framework density 20.013818000000001
#
# number of rings (size 3 to 8) (size 9 to 14) (size 15 to 20)
#    0.000    1.200    0.000    7.800    0.000    6.800 
#    0.000    0.000    0.000    0.000    0.000    0.000 
#    0.000    0.000    0.000    0.000    0.000    0.000 
#
# Total GULP energy -248147.363876 kJ/mol
# GULP energy per Si atom -12407.368194 kJ/mol
# Density = 1.996827 g / cm^3
# Si number density = 20.013818 Si / 1000 Ang^3
#
#
#
# Elastic Constant Matrix: (Units=GPa)
#
#
# Indices 1 2 3 4 5 6 
#
# 1 137.1738 52.5904 50.9872 0.0000 0.0000 0.0000
# 2 52.5904 129.7209 70.9119 0.0000 0.0000 0.0000
# 3 50.9872 70.9119 122.1047 0.0000 0.0000 0.0000
# 4 0.0000 0.0000 0.0000 12.5690 0.0000 0.0000
# 5 0.0000 0.0000 0.0000 0.0000 99.6045 0.0000
# 6 0.0000 0.0000 0.0000 0.0000 0.0000 42.6764
#
#
#
# Elastic Compliance Matrix: (Units=1/GPa)
#
#
# Indices 1 2 3 4 5 6 
#
# 1 0.009098 -0.002361 -0.002428 0.000000 0.000000 0.000000
# 2 -0.002361 0.011907 -0.005929 0.000000 0.000000 0.000000
# 3 -0.002428 -0.005929 0.012647 0.000000 0.000000 0.000000
# 4 0.000000 0.000000 0.000000 0.079561 0.000000 0.000000
# 5 0.000000 0.000000 0.000000 0.000000 0.010040 0.000000
# 6 0.000000 0.000000 0.000000 0.000000 0.000000 0.023432
#
#
# Mechanical properties :
#
#
# Convention : Reuss Voigt Hill
#
# Bulk Modulus (GPa) = 81.86211 81.99760 81.92985
# Shear Modulus (GPa) = 29.03734 45.27065 37.15400
#
# Velocity S-wave (km/s) = 3.81315 4.76118 4.31329
# Velocity P-wave (km/s) = 7.77036 8.44302 8.11366
#
# Compressibility (1/GPa) = 0.01221566
#
# Stress axis : x y z
#
# Youngs Moduli (GPa) = 109.91885 83.98211 79.07185
#
# Poissons Ratio (x) = 0.19830 0.19196
# Poissons Ratio (y) = 0.25954 0.46883
# Poissons Ratio (z) = 0.26684 0.49794
#
# Static dielectric constant tensor:
#      x y z
#    x 3.582570 0.000000 0.000000 
#    y 0.000000 3.704820 0.000000 
#    z 0.000000 0.000000 3.739820 
# 
# 
# High freq. dielectric constant tensor:
#      x y z
#    x 1.794720 0.000000 0.000000 
#    y 0.000000 1.786430 0.000000 
#    z 0.000000 0.000000 1.794960 
# 
# From -- ./inp_files/11004.got.cif
#   From: 2010.03.12/outbox.cif.g09.slc.cpg/sg35_6_cif.got.tgz:11004.got - 2010.04.14 02:02:04.
