data_PCOD8174612
_publ_section_title
;
Structure prediction by ZEFSAII (Michael W. Deem and Ramdas Pophale) SiO2 
 PCOD8174612
Probable space group: C M C 21
;
_chemical_formula_sum "Si O2"
_cell_formula_units_Z 64
_cell_length_a 8.590645
_cell_length_b 20.089244
_cell_length_c 19.818900
_cell_angle_alpha 90.000000
_cell_angle_beta 90.000000
_cell_angle_gamma 90.000000
_cell_volume 3420.337111
_symmetry_space_group_name_H-M "C M C 21"
_symmetry_group_IT_number 36
_symmetry_cell_setting 'orthorhombic'
loop_
_space_group_symop_operation_xyz
x,y,z
-x,-y,1/2+z
x,-y,1/2+z
-x,y,z
1/2+x,1/2+y,z
1/2-x,1/2-y,1/2+z
1/2+x,1/2-y,1/2+z
1/2-x,1/2+y,z
loop_
_atom_site_type_symbol
_atom_site_label
_atom_site_fract_x
_atom_site_fract_y
_atom_site_fract_z
Si Si1 0.316282 0.330648 0.654050
Si Si2 0.679553 0.662210 0.758643
Si Si3 0.320086 0.486138 0.280972
Si Si4 0.683012 0.420175 0.025213
Si Si5 0.184794 0.025327 0.132782
Si Si6 0.819121 0.590501 0.380578
Si Si7 0.182349 0.688430 0.615672
Si Si8 0.683281 0.292297 0.801027
O O1 0.500000 0.335278 0.658738
O O2 0.252160 0.399121 0.621425
O O3 0.267873 0.266386 0.610174
O O4 0.255089 0.323829 0.730764
O O5 0.500000 0.671761 0.738087
O O6 0.702901 0.592003 0.796773
O O7 0.780551 0.662384 0.690494
O O8 0.734848 0.720273 0.809642
O O9 0.500000 0.508046 0.288032
O O10 0.258258 0.499949 0.205542
O O11 0.220590 0.528408 0.333211
O O12 0.500000 0.426835 0.012428
O O13 0.750627 0.477858 0.074275
O O14 0.718912 0.349183 0.059097
O O15 0.772365 0.428985 0.955754
O O16 0.000000 0.021506 0.130065
O O17 0.729308 0.657984 0.360696
O O18 0.000000 0.605911 0.376302
O O19 0.000000 0.678487 0.601703
O O20 0.500000 0.280533 0.801293
#
# Coordination Sequence:
#
# PCOD8174612 Si02
#       8
#     8   8   8   8   8   8   8   8
#     4   8  15  29  54  83 109 137 177 229 280 331
#     4  10  19  33  56  87 118 148 190 239 285 338
#     4  10  19  36  60  85 115 153 195 238 284 346
#     4  11  22  38  59  81 110 155 196 238 293 355
#     4   9  16  32  58  85 109 142 191 236 281 340
#     4  12  25  39  56  83 117 154 195 245 296 354
#     4  10  19  32  53  83 115 148 186 237 290 339
#     4  10  19  35  58  83 113 149 188 236 291 347
#
# _framework density 18.711604999999999
#
# number of rings (size 3 to 8) (size 9 to 14) (size 15 to 20)
#    0.000    2.000    2.500    3.375    0.000    1.000 
#    0.000    1.250    0.000    6.000    0.000    0.000 
#    0.000    0.000    0.000    0.000    0.000    0.000 
#
# Total GULP energy -396781.834027 kJ/mol
# GULP energy per Si atom -12399.432313 kJ/mol
# Density = 1.866902 g / cm^3
# Si number density = 18.711605 Si / 1000 Ang^3
#
#
#
# Elastic Constant Matrix: (Units=GPa)
#
#
# Indices 1 2 3 4 5 6 
#
# 1 45.3783 28.8784 10.9388 0.0000 0.0000 0.0000
# 2 28.8784 140.3245 48.2641 0.0000 0.0000 0.0000
# 3 10.9388 48.2641 86.8809 0.0000 0.0000 0.0000
# 4 0.0000 0.0000 0.0000 26.6996 0.0000 0.0000
# 5 0.0000 0.0000 0.0000 0.0000 26.1850 0.0000
# 6 0.0000 0.0000 0.0000 0.0000 0.0000 29.4281
#
#
#
# Elastic Compliance Matrix: (Units=1/GPa)
#
#
# Indices 1 2 3 4 5 6 
#
# 1 0.025367 -0.005096 -0.000363 0.000000 0.000000 0.000000
# 2 -0.005096 0.009833 -0.004821 0.000000 0.000000 0.000000
# 3 -0.000363 -0.004821 0.014234 0.000000 0.000000 0.000000
# 4 0.000000 0.000000 0.000000 0.037454 0.000000 0.000000
# 5 0.000000 0.000000 0.000000 0.000000 0.038190 0.000000
# 6 0.000000 0.000000 0.000000 0.000000 0.000000 0.033981
#
#
# Mechanical properties :
#
#
# Convention : Reuss Voigt Hill
#
# Bulk Modulus (GPa) = 34.63220 49.86069 42.24644
# Shear Modulus (GPa) = 26.42098 28.76268 27.59183
#
# Velocity S-wave (km/s) = 3.76175 3.92491 3.84420
# Velocity P-wave (km/s) = 6.11688 6.87348 6.50619
#
# Compressibility (1/GPa) = 0.02887486
#
# Stress axis : x y z
#
# Youngs Moduli (GPa) = 39.42080 101.69685 70.25498
#
# Poissons Ratio (x) = 0.51821 0.02552
# Poissons Ratio (y) = 0.20087 0.33870
# Poissons Ratio (z) = 0.01432 0.49027
#
# Static dielectric constant tensor:
#      x y z
#    x 3.250520 0.000000 0.000000 
#    y 0.000000 3.913400 0.000000 
#    z 0.000000 0.000000 3.226610 
# 
# 
# High freq. dielectric constant tensor:
#      x y z
#    x 1.711350 0.000000 0.000000 
#    y 0.000000 1.744400 0.000000 
#    z 0.000000 0.000000 1.694910 
# 
# From -- ./inp_files/13922.got.cif
#   From: 2010.03.12/outbox.cif.g09.slc.cpg/sg36_7_cif.got.tgz:13922.got - 2010.04.14 02:13:53.
