data_PCOD8174134
_publ_section_title
;
Structure prediction by ZEFSAII (Michael W. Deem and Ramdas Pophale) SiO2 
 PCOD8174134
Probable space group: C M M 2
;
_chemical_formula_sum "Si O2"
_cell_formula_units_Z 48
_cell_length_a 7.942239
_cell_length_b 18.419105
_cell_length_c 17.294312
_cell_angle_alpha 90.000000
_cell_angle_beta 90.000000
_cell_angle_gamma 90.000000
_cell_volume 2529.966468
_symmetry_space_group_name_H-M "C M M 2"
_symmetry_group_IT_number 35
_symmetry_cell_setting 'orthorhombic'
loop_
_space_group_symop_operation_xyz
x,y,z
-x,-y,z
-x,y,z
x,-y,z
1/2+x,1/2+y,z
1/2-x,1/2-y,z
1/2-x,1/2+y,z
1/2+x,1/2-y,z
loop_
_atom_site_type_symbol
_atom_site_label
_atom_site_fract_x
_atom_site_fract_y
_atom_site_fract_z
Si Si1 0.315574 0.413630 0.490940
Si Si2 0.695025 0.668570 0.020995
Si Si3 0.312912 0.913718 0.330303
Si Si4 0.000000 0.586792 0.588133
Si Si5 0.500000 0.086133 0.762047
Si Si6 0.695462 0.079636 0.164068
Si Si7 0.692252 0.414358 0.866773
O O1 0.500000 0.388174 0.521193
O O2 0.304205 0.500000 0.491924
O O3 0.295277 0.384664 0.402879
O O4 0.167469 0.382737 0.545769
O O5 0.500000 0.663757 0.036849
O O6 0.750000 0.750000 0.004949
O O7 0.747347 0.621347 0.947258
O O8 0.781880 0.637967 0.097261
O O9 0.500000 0.880832 0.339868
O O10 0.230064 0.891925 0.246808
O O11 0.321630 0.000000 0.333388
O O12 0.000000 0.500000 0.587920
O O13 0.000000 0.617428 0.675407
O O14 0.671954 0.113285 0.803722
O O15 0.500000 0.000000 0.760932
O O16 0.500000 0.069092 0.180154
O O17 0.772324 0.000000 0.141379
O O18 0.500000 0.392146 0.842877
O O19 0.704540 0.500000 0.878268
#
# Coordination Sequence:
#
# PCOD8174134 Si02
#       7
#     8   8   8   4   4   8   8
#     4   9  15  22  36  58  89 130 165 195 237 288
#     4  11  23  36  51  72 100 133 166 216 259 302
#     4   8  13  24  40  60  91 129 167 204 237 282
#     4   9  16  26  38  61  95 125 159 199 244 295
#     4   9  18  30  50  71  93 133 166 201 254 303
#     4   9  18  31  50  74 100 135 173 208 251 301
#     4   9  19  35  53  74  99 130 171 211 251 307
#
# _framework density 18.972584000000001
#
# number of rings (size 3 to 8) (size 9 to 14) (size 15 to 20)
#    0.000    2.833    0.833    2.000    2.333    2.333 
#    0.000    5.000    0.000    0.000    0.000    0.000 
#    0.000    1.333    1.000    0.000    0.000    0.000 
#
# Total GULP energy -297382.497091 kJ/mol
# GULP energy per Si atom -12390.937379 kJ/mol
# Density = 1.892940 g / cm^3
# Si number density = 18.972584 Si / 1000 Ang^3
#
#
#
# Elastic Constant Matrix: (Units=GPa)
#
#
# Indices 1 2 3 4 5 6 
#
# 1 115.3659 15.6486 79.1703 0.0000 0.0000 0.0000
# 2 15.6486 25.6304 22.9545 0.0000 0.0000 0.0000
# 3 79.1703 22.9545 165.1955 0.0000 0.0000 0.0000
# 4 0.0000 0.0000 0.0000 1.5179 0.0000 0.0000
# 5 0.0000 0.0000 0.0000 0.0000 19.4835 0.0000
# 6 0.0000 0.0000 0.0000 0.0000 0.0000 12.6787
#
#
#
# Elastic Compliance Matrix: (Units=1/GPa)
#
#
# Indices 1 2 3 4 5 6 
#
# 1 0.013079 -0.002709 -0.005892 0.000000 0.000000 0.000000
# 2 -0.002709 0.045123 -0.004972 0.000000 0.000000 0.000000
# 3 -0.005892 -0.004972 0.009568 0.000000 0.000000 0.000000
# 4 0.000000 0.000000 0.000000 0.658802 0.000000 0.000000
# 5 0.000000 0.000000 0.000000 0.000000 0.051326 0.000000
# 6 0.000000 0.000000 0.000000 0.000000 0.000000 0.078873
#
#
# Mechanical properties :
#
#
# Convention : Reuss Voigt Hill
#
# Bulk Modulus (GPa) = 24.61537 60.19317 42.40427
# Shear Modulus (GPa) = 5.57131 19.29724 12.43428
#
# Velocity S-wave (km/s) = 1.71548 3.19268 2.56282
# Velocity P-wave (km/s) = 4.11414 6.73693 5.58177
#
# Compressibility (1/GPa) = 0.04062502
#
# Stress axis : x y z
#
# Youngs Moduli (GPa) = 76.46078 22.16181 104.51691
#
# Poissons Ratio (x) = 0.06003 0.61577
# Poissons Ratio (y) = 0.20711 0.51964
# Poissons Ratio (z) = 0.45047 0.11018
#
# Static dielectric constant tensor:
#      x y z
#    x 3.672830 0.000000 0.000000 
#    y 0.000000 2.812630 0.000000 
#    z 0.000000 0.000000 3.731820 
# 
# 
# High freq. dielectric constant tensor:
#      x y z
#    x 1.743100 0.000000 0.000000 
#    y 0.000000 1.663540 0.000000 
#    z 0.000000 0.000000 1.745070 
# 
# From -- ./inp_files/15220.got.cif
#   From: 2010.03.12/outbox.cif.g09.slc.cpg/sg35_8_cif.got.tgz:15220.got - 2010.04.14 02:02:04.
