data_PCOD8174151
_publ_section_title
;
Structure prediction by ZEFSAII (Michael W. Deem and Ramdas Pophale) SiO2 
 PCOD8174151
Probable space group: C M M 2
;
_chemical_formula_sum "Si O2"
_cell_formula_units_Z 64
_cell_length_a 9.895304
_cell_length_b 20.044995
_cell_length_c 20.383973
_cell_angle_alpha 90.000000
_cell_angle_beta 90.000000
_cell_angle_gamma 90.000000
_cell_volume 4043.187935
_symmetry_space_group_name_H-M "C M M 2"
_symmetry_group_IT_number 35
_symmetry_cell_setting 'orthorhombic'
loop_
_space_group_symop_operation_xyz
x,y,z
-x,-y,z
-x,y,z
x,-y,z
1/2+x,1/2+y,z
1/2-x,1/2-y,z
1/2-x,1/2+y,z
1/2+x,1/2-y,z
loop_
_atom_site_type_symbol
_atom_site_label
_atom_site_fract_x
_atom_site_fract_y
_atom_site_fract_z
Si Si1 0.656567 0.311994 0.295360
Si Si2 0.349742 0.420679 0.688551
Si Si3 0.839581 0.926241 0.198536
Si Si4 0.160419 0.073759 0.543677
Si Si5 0.656567 0.311994 0.446853
Si Si6 0.650258 0.579321 0.053662
Si Si7 0.848819 0.420647 0.798146
Si Si8 0.348819 0.920647 0.944066
O O1 0.500000 0.294791 0.279779
O O2 0.750000 0.250000 0.276067
O O3 0.710634 0.374398 0.253172
O O4 0.674985 0.331533 0.371106
O O5 0.500000 0.391165 0.699785
O O6 0.355538 0.500000 0.694184
O O7 0.293666 0.401693 0.616157
O O8 0.251719 0.389590 0.743925
O O9 0.793665 0.901694 0.126055
O O10 0.000000 0.931153 0.198845
O O11 0.779542 0.000000 0.214254
O O12 0.210635 0.125602 0.489041
O O13 0.000000 0.068847 0.543367
O O14 0.220458 0.000000 0.527959
O O15 0.500000 0.294791 0.462433
O O16 0.750000 0.250000 0.466146
O O17 0.500000 0.608836 0.042428
O O18 0.644462 0.500000 0.048028
O O19 0.748281 0.610410 0.998288
O O20 0.847394 0.500000 0.793740
O O21 0.802333 0.398230 0.871106
O O22 0.000000 0.394291 0.783910
O O23 0.500000 0.894291 0.958303
O O24 0.347395 0.000000 0.948473
#
# Coordination Sequence:
#
# PCOD8174151 Si02
#       8
#     8   8   8   8   8   8   8   8
#     4   9  17  29  45  63  83 108 136 167 203 242
#     4   8  13  21  33  49  70  96 126 161 197 230
#     4   8  14  25  41  61  83 106 135 171 206 238
#     4   8  14  25  41  61  83 106 135 171 206 238
#     4   9  17  29  45  63  83 108 136 167 203 242
#     4   8  13  21  33  49  70  96 126 161 197 230
#     4   8  13  20  29  43  67  99 130 157 187 227
#     4   8  13  20  29  43  67  99 130 157 187 227
#
# _framework density 15.829094
#
# number of rings (size 3 to 8) (size 9 to 14) (size 15 to 20)
#    0.000    3.750    0.000    2.250    0.000    1.000 
#    0.000    6.250    0.000    2.250    0.000    3.500 
#    0.000    1.000    0.000    2.250    0.000    6.000 
#
# Total GULP energy -396515.177012 kJ/mol
# GULP energy per Si atom -12391.099282 kJ/mol
# Density = 1.579307 g / cm^3
# Si number density = 15.829094 Si / 1000 Ang^3
#
#
#
# Elastic Constant Matrix: (Units=GPa)
#
#
# Indices 1 2 3 4 5 6 
#
# 1 61.4039 32.9606 58.1332 0.0000 0.0000 0.0000
# 2 32.9606 55.6475 59.6502 0.0000 0.0000 0.0000
# 3 58.1332 59.6502 131.5835 0.0000 0.0000 0.0000
# 4 0.0000 0.0000 0.0000 2.5501 0.0000 0.0000
# 5 0.0000 0.0000 0.0000 0.0000 19.5730 0.0000
# 6 0.0000 0.0000 0.0000 0.0000 0.0000 12.9245
#
#
#
# Elastic Compliance Matrix: (Units=1/GPa)
#
#
# Indices 1 2 3 4 5 6 
#
# 1 0.029244 -0.006755 -0.009858 0.000000 0.000000 0.000000
# 2 -0.006755 0.036517 -0.013570 0.000000 0.000000 0.000000
# 3 -0.009858 -0.013570 0.018107 0.000000 0.000000 0.000000
# 4 0.000000 0.000000 0.000000 0.392146 0.000000 0.000000
# 5 0.000000 0.000000 0.000000 0.000000 0.051091 0.000000
# 6 0.000000 0.000000 0.000000 0.000000 0.000000 0.077373
#
#
# Mechanical properties :
#
#
# Convention : Reuss Voigt Hill
#
# Bulk Modulus (GPa) = 42.54812 61.12477 51.83644
# Shear Modulus (GPa) = 7.43299 13.53557 10.48428
#
# Velocity S-wave (km/s) = 2.16932 2.92739 2.57639
# Velocity P-wave (km/s) = 5.76304 7.07993 6.45516
#
# Compressibility (1/GPa) = 0.02350280
#
# Stress axis : x y z
#
# Youngs Moduli (GPa) = 34.19469 27.38440 55.22858
#
# Poissons Ratio (x) = 0.18497 0.54444
# Poissons Ratio (y) = 0.23097 0.74945
# Poissons Ratio (z) = 0.33709 0.37161
#
# Static dielectric constant tensor:
#      x y z
#    x 3.031080 0.000000 0.000000 
#    y 0.000000 2.702510 0.000000 
#    z 0.000000 0.000000 3.353480 
# 
# 
# High freq. dielectric constant tensor:
#      x y z
#    x 1.586250 0.000000 0.000000 
#    y 0.000000 1.547850 0.000000 
#    z 0.000000 0.000000 1.620950 
# 
# From -- ./inp_files/18671.got.cif
#   From: 2010.03.12/outbox.cif.g09.slc.cpg/sg35_10_cif.got.tgz:18671.got - 2010.04.14 02:02:04.
