data_PCOD8174575
_publ_section_title
;
Structure prediction by ZEFSAII (Michael W. Deem and Ramdas Pophale) SiO2 
 PCOD8174575
Probable space group: C M C 21
;
_chemical_formula_sum "Si O2"
_cell_formula_units_Z 64
_cell_length_a 9.027241
_cell_length_b 18.663705
_cell_length_c 19.929919
_cell_angle_alpha 90.000000
_cell_angle_beta 90.000000
_cell_angle_gamma 90.000000
_cell_volume 3357.827889
_symmetry_space_group_name_H-M "C M C 21"
_symmetry_group_IT_number 36
_symmetry_cell_setting 'orthorhombic'
loop_
_space_group_symop_operation_xyz
x,y,z
-x,-y,1/2+z
x,-y,1/2+z
-x,y,z
1/2+x,1/2+y,z
1/2-x,1/2-y,1/2+z
1/2+x,1/2-y,1/2+z
1/2-x,1/2+y,z
loop_
_atom_site_type_symbol
_atom_site_label
_atom_site_fract_x
_atom_site_fract_y
_atom_site_fract_z
Si Si1 0.663656 0.726010 0.552310
Si Si2 0.836515 0.475943 0.979709
Si Si3 0.823803 0.261663 0.697376
Si Si4 0.828373 0.385315 0.223661
Si Si5 0.335708 0.563630 0.600356
Si Si6 0.675885 0.358328 0.801980
Si Si7 0.828758 0.502716 0.835611
Si Si8 0.664951 0.186371 0.430778
O O1 0.500000 0.752120 0.531468
O O2 0.718533 0.768610 0.618433
O O3 0.657950 0.643055 0.571589
O O4 0.770155 0.738747 0.488610
O O5 0.785252 0.519559 0.913261
O O6 0.838684 0.393167 0.959302
O O7 0.000000 0.500465 0.002506
O O8 0.727652 0.489042 0.042467
O O9 0.764041 0.187365 0.727729
O O10 0.745628 0.327568 0.733885
O O11 0.000000 0.263350 0.707509
O O12 0.769289 0.438165 0.165369
O O13 0.805755 0.424869 0.294346
O O14 0.000000 0.367896 0.209472
O O15 0.500000 0.536972 0.620030
O O16 0.500000 0.353050 0.799565
O O17 0.724879 0.440592 0.806596
O O18 0.733792 0.311048 0.864570
O O19 0.000000 0.476085 0.832517
O O20 0.500000 0.212931 0.412408
#
# Coordination Sequence:
#
# PCOD8174575 Si02
#       8
#     8   8   8   8   8   8   8   8
#     4   8  15  27  44  67  93 122 157 197 239 284
#     4   8  14  26  44  66  91 121 157 196 238 283
#     4  10  20  34  51  72 101 132 162 200 245 290
#     4  10  19  32  51  74  99 128 162 199 241 290
#     4   9  16  26  42  67  96 124 156 196 239 281
#     4  11  21  32  50  74 100 130 165 202 240 289
#     4   9  19  34  51  72  99 129 161 200 245 290
#     4   9  16  27  45  68  95 124 156 198 243 285
#
# _framework density 19.059940999999998
#
# number of rings (size 3 to 8) (size 9 to 14) (size 15 to 20)
#    0.000    2.750    0.000    4.125    0.000    7.500 
#    0.000    0.000    0.000    1.500    0.000    7.000 
#    0.000    0.000    0.000    0.000    0.000    0.000 
#
# Total GULP energy -396673.692090 kJ/mol
# GULP energy per Si atom -12396.052878 kJ/mol
# Density = 1.901656 g / cm^3
# Si number density = 19.059941 Si / 1000 Ang^3
#
#
#
# Elastic Constant Matrix: (Units=GPa)
#
#
# Indices 1 2 3 4 5 6 
#
# 1 101.7871 7.1617 3.9123 0.0000 0.0000 0.0000
# 2 7.1617 13.4792 -5.6990 0.0000 0.0000 0.0000
# 3 3.9123 -5.6990 17.9903 0.0000 0.0000 0.0000
# 4 0.0000 0.0000 0.0000 23.0719 0.0000 0.0000
# 5 0.0000 0.0000 0.0000 0.0000 33.8986 0.0000
# 6 0.0000 0.0000 0.0000 0.0000 0.0000 18.6499
#
#
#
# Elastic Compliance Matrix: (Units=1/GPa)
#
#
# Indices 1 2 3 4 5 6 
#
# 1 0.010538 -0.007584 -0.004694 0.000000 0.000000 0.000000
# 2 -0.007584 0.091119 0.030514 0.000000 0.000000 0.000000
# 3 -0.004694 0.030514 0.066273 0.000000 0.000000 0.000000
# 4 0.000000 0.000000 0.000000 0.043343 0.000000 0.000000
# 5 0.000000 0.000000 0.000000 0.000000 0.029500 0.000000
# 6 0.000000 0.000000 0.000000 0.000000 0.000000 0.053620
#
#
# Mechanical properties :
#
#
# Convention : Reuss Voigt Hill
#
# Bulk Modulus (GPa) = 4.89231 16.00072 10.44652
# Shear Modulus (GPa) = 15.33485 23.64953 19.49219
#
# Velocity S-wave (km/s) = 2.83955 3.52632 3.20140
# Velocity P-wave (km/s) = 3.65008 4.99931 4.37700
#
# Compressibility (1/GPa) = 0.20440232
#
# Stress axis : x y z
#
# Youngs Moduli (GPa) = 94.89063 10.97463 15.08916
#
# Poissons Ratio (x) = 0.08323 0.07083
# Poissons Ratio (y) = 0.71964 -0.46043
# Poissons Ratio (z) = 0.44544 -0.33488
#
# Static dielectric constant tensor:
#      x y z
#    x 3.688850 0.000000 0.000000 
#    y 0.000000 2.878600 0.000000 
#    z 0.000000 0.000000 3.835320 
# 
# 
# High freq. dielectric constant tensor:
#      x y z
#    x 1.749560 0.000000 0.000000 
#    y 0.000000 1.675520 0.000000 
#    z 0.000000 0.000000 1.752040 
# 
# From -- ./inp_files/13767.got.cif
#   From: 2010.03.12/outbox.cif.g09.slc.cpg/sg36_7_cif.got.tgz:13767.got - 2010.04.14 02:13:53.
