data_PCOD8174729
_publ_section_title
;
Structure prediction by ZEFSAII (Michael W. Deem and Ramdas Pophale) SiO2 
 PCOD8174729
Probable space group: C M C 21
;
_chemical_formula_sum "Si O2"
_cell_formula_units_Z 64
_cell_length_a 8.832599
_cell_length_b 19.877665
_cell_length_c 19.617247
_cell_angle_alpha 90.000000
_cell_angle_beta 90.000000
_cell_angle_gamma 90.000000
_cell_volume 3444.228383
_symmetry_space_group_name_H-M "C M C 21"
_symmetry_group_IT_number 36
_symmetry_cell_setting 'orthorhombic'
loop_
_space_group_symop_operation_xyz
x,y,z
-x,-y,1/2+z
x,-y,1/2+z
-x,y,z
1/2+x,1/2+y,z
1/2-x,1/2-y,1/2+z
1/2+x,1/2-y,1/2+z
1/2-x,1/2+y,z
loop_
_atom_site_type_symbol
_atom_site_label
_atom_site_fract_x
_atom_site_fract_y
_atom_site_fract_z
Si Si1 0.678000 0.280540 0.474480
Si Si2 0.175744 0.096111 0.616527
Si Si3 0.176274 0.334966 0.729899
Si Si4 0.674812 0.963313 0.645081
Si Si5 0.678378 0.234630 0.624219
Si Si6 0.676900 0.919386 0.495640
Si Si7 0.324359 0.447632 0.964391
Si Si8 0.677938 0.323790 0.874553
O O1 0.500000 0.280255 0.467269
O O2 0.728997 0.250390 0.547033
O O3 0.736415 0.356029 0.465077
O O4 0.745407 0.236998 0.413921
O O5 0.272920 0.158990 0.642940
O O6 0.212013 0.085545 0.537125
O O7 0.000000 0.110223 0.630106
O O8 0.226377 0.029992 0.658534
O O9 0.205362 0.411490 0.706048
O O10 0.230503 0.284865 0.671769
O O11 0.272273 0.321479 0.796821
O O12 0.000000 0.322441 0.744369
O O13 0.500000 0.984746 0.640283
O O14 0.724976 0.928294 0.574439
O O15 0.500000 0.243960 0.635479
O O16 0.500000 0.907207 0.486982
O O17 0.726224 0.985304 0.453360
O O18 0.500000 0.466949 0.958875
O O19 0.272974 0.395018 0.906867
O O20 0.500000 0.313817 0.880368
#
# Coordination Sequence:
#
# PCOD8174729 Si02
#       8
#     8   8   8   8   8   8   8   8
#     4  11  22  36  58  87 118 153 196 244 291 345
#     4  10  19  33  57  86 115 146 188 240 290 339
#     4  11  23  40  60  84 118 156 195 238 292 353
#     4   9  19  35  55  82 115 149 186 235 289 345
#     4  11  22  36  58  87 118 153 196 244 291 345
#     4  10  19  33  57  86 115 146 188 240 290 339
#     4   9  19  35  55  82 115 149 186 235 289 345
#     4  11  23  40  60  84 118 156 195 238 292 353
#
# _framework density 18.581811999999999
#
# number of rings (size 3 to 8) (size 9 to 14) (size 15 to 20)
#    0.000    1.750    2.500    2.250    0.000    4.000 
#    0.000    1.250    0.000    3.000    0.000    0.000 
#    0.000    0.000    0.000    0.000    0.000    0.000 
#
# Total GULP energy -396961.373873 kJ/mol
# GULP energy per Si atom -12405.042934 kJ/mol
# Density = 1.853952 g / cm^3
# Si number density = 18.581812 Si / 1000 Ang^3
#
#
#
# Elastic Constant Matrix: (Units=GPa)
#
#
# Indices 1 2 3 4 5 6 
#
# 1 56.9517 38.9307 15.5091 0.0000 0.0000 0.0000
# 2 38.9307 104.4861 17.8931 0.0000 0.0000 0.0000
# 3 15.5091 17.8931 40.0359 0.0000 0.0000 0.0000
# 4 0.0000 0.0000 0.0000 21.7243 0.0000 0.0000
# 5 0.0000 0.0000 0.0000 0.0000 27.1145 0.0000
# 6 0.0000 0.0000 0.0000 0.0000 0.0000 37.2462
#
#
#
# Elastic Compliance Matrix: (Units=1/GPa)
#
#
# Indices 1 2 3 4 5 6 
#
# 1 0.024794 -0.008223 -0.005930 0.000000 0.000000 0.000000
# 2 -0.008223 0.013091 -0.002665 0.000000 0.000000 0.000000
# 3 -0.005930 -0.002665 0.028466 0.000000 0.000000 0.000000
# 4 0.000000 0.000000 0.000000 0.046031 0.000000 0.000000
# 5 0.000000 0.000000 0.000000 0.000000 0.036881 0.000000
# 6 0.000000 0.000000 0.000000 0.000000 0.000000 0.026848
#
#
# Mechanical properties :
#
#
# Convention : Reuss Voigt Hill
#
# Bulk Modulus (GPa) = 30.56678 38.45994 34.51336
# Shear Modulus (GPa) = 22.66008 25.82639 24.24323
#
# Velocity S-wave (km/s) = 3.49589 3.73215 3.61595
# Velocity P-wave (km/s) = 5.72543 6.27012 6.00396
#
# Compressibility (1/GPa) = 0.03271525
#
# Stress axis : x y z
#
# Youngs Moduli (GPa) = 40.33168 76.38958 35.12977
#
# Poissons Ratio (x) = 0.62813 0.20832
# Poissons Ratio (y) = 0.33164 0.09363
# Poissons Ratio (z) = 0.23916 0.20360
#
# Static dielectric constant tensor:
#      x y z
#    x 3.428000 0.000000 0.000000 
#    y 0.000000 3.510370 0.000000 
#    z 0.000000 0.000000 3.205690 
# 
# 
# High freq. dielectric constant tensor:
#      x y z
#    x 1.731510 0.000000 0.000000 
#    y 0.000000 1.734210 0.000000 
#    z 0.000000 0.000000 1.692330 
# 
# From -- ./inp_files/15603.got.cif
#   From: 2010.03.12/outbox.cif.g09.slc.cpg/sg36_8_cif.got.tgz:15603.got - 2010.04.14 02:13:53.
