data_PCOD8174100
_publ_section_title
;
Structure prediction by ZEFSAII (Michael W. Deem and Ramdas Pophale) SiO2 
 PCOD8174100
Probable space group: C M M 2
;
_chemical_formula_sum "Si O2"
_cell_formula_units_Z 40
_cell_length_a 7.660996
_cell_length_b 15.559627
_cell_length_c 16.281547
_cell_angle_alpha 90.000000
_cell_angle_beta 90.000000
_cell_angle_gamma 90.000000
_cell_volume 1940.796876
_symmetry_space_group_name_H-M "C M M 2"
_symmetry_group_IT_number 35
_symmetry_cell_setting 'orthorhombic'
loop_
_space_group_symop_operation_xyz
x,y,z
-x,-y,z
-x,y,z
x,-y,z
1/2+x,1/2+y,z
1/2-x,1/2-y,z
1/2-x,1/2+y,z
1/2+x,1/2-y,z
loop_
_atom_site_type_symbol
_atom_site_label
_atom_site_fract_x
_atom_site_fract_y
_atom_site_fract_z
Si Si1 0.206264 0.500000 0.287200
Si Si2 0.000000 0.102599 0.706008
Si Si3 0.801267 0.845587 0.172756
Si Si4 0.194906 0.652352 0.996837
Si Si5 0.705262 0.000000 0.470626
Si Si6 0.205800 0.344774 0.585617
Si Si7 0.000000 0.905617 0.885182
O O1 0.273273 0.413321 0.244837
O O2 0.285155 0.500000 0.379079
O O3 0.000000 0.500000 0.286249
O O4 0.177281 0.139280 0.665960
O O5 0.000000 0.144749 0.798390
O O6 0.000000 0.000000 0.698656
O O7 0.750000 0.750000 0.203380
O O8 0.000000 0.843018 0.144702
O O9 0.697390 0.877438 0.091932
O O10 0.250000 0.750000 0.994383
O O11 0.326918 0.602711 0.939102
O O12 0.000000 0.638712 0.962186
O O13 0.766175 0.085873 0.517655
O O14 0.500000 0.000000 0.462733
O O15 0.250000 0.250000 0.550636
O O16 0.000000 0.354267 0.607266
O O17 0.000000 0.000000 0.849856
#
# Coordination Sequence:
#
# PCOD8174100 Si02
#       7
#     4   4   8   8   4   8   4
#     4  11  23  41  63  97 126 167 210 263 324 370
#     4  11  24  44  66  93 131 170 205 270 324 374
#     4  11  22  40  62  91 128 170 218 263 311 377
#     4  11  21  41  65  89 125 175 212 260 318 371
#     4   9  22  42  66  92 132 161 208 271 312 376
#     4  11  22  42  68  98 126 170 215 255 319 391
#     4  11  26  42  62  96 132 159 214 274 312 371
#
# _framework density 20.610088999999999
#
# number of rings (size 3 to 8) (size 9 to 14) (size 15 to 20)
#    0.000    1.200    4.000    3.300    1.400    2.800 
#    3.600    4.000    0.000    0.000    0.000    0.000 
#    0.000    0.000    0.000    0.000    0.000    0.000 
#
# Total GULP energy -247945.707960 kJ/mol
# GULP energy per Si atom -12397.285398 kJ/mol
# Density = 2.056318 g / cm^3
# Si number density = 20.610089 Si / 1000 Ang^3
#
#
#
# Elastic Constant Matrix: (Units=GPa)
#
#
# Indices 1 2 3 4 5 6 
#
# 1 148.5407 28.8489 46.3285 0.0000 0.0000 0.0000
# 2 28.8489 129.8375 73.0551 0.0000 0.0000 0.0000
# 3 46.3285 73.0551 143.4336 0.0000 0.0000 0.0000
# 4 0.0000 0.0000 0.0000 5.7828 0.0000 0.0000
# 5 0.0000 0.0000 0.0000 0.0000 26.3494 0.0000
# 6 0.0000 0.0000 0.0000 0.0000 0.0000 18.0406
#
#
#
# Elastic Compliance Matrix: (Units=1/GPa)
#
#
# Indices 1 2 3 4 5 6 
#
# 1 0.007503 -0.000425 -0.002207 0.000000 0.000000 0.000000
# 2 -0.000425 0.010820 -0.005374 0.000000 0.000000 0.000000
# 3 -0.002207 -0.005374 0.010422 0.000000 0.000000 0.000000
# 4 0.000000 0.000000 0.000000 0.172927 0.000000 0.000000
# 5 0.000000 0.000000 0.000000 0.000000 0.037952 0.000000
# 6 0.000000 0.000000 0.000000 0.000000 0.000000 0.055431
#
#
# Mechanical properties :
#
#
# Convention : Reuss Voigt Hill
#
# Bulk Modulus (GPa) = 78.53551 79.80854 79.17202
# Shear Modulus (GPa) = 15.85742 28.27316 22.06529
#
# Velocity S-wave (km/s) = 2.77682 3.70782 3.27556
# Velocity P-wave (km/s) = 6.96197 7.55894 7.26659
#
# Compressibility (1/GPa) = 0.01273309
#
# Stress axis : x y z
#
# Youngs Moduli (GPa) = 133.27899 92.42178 95.95507
#
# Poissons Ratio (x) = 0.03932 0.21175
# Poissons Ratio (y) = 0.05670 0.51562
# Poissons Ratio (z) = 0.29412 0.49663
#
# Static dielectric constant tensor:
#      x y z
#    x 3.782600 0.000000 0.000000 
#    y 0.000000 3.967950 0.000000 
#    z 0.000000 0.000000 3.964210 
# 
# 
# High freq. dielectric constant tensor:
#      x y z
#    x 1.819050 0.000000 0.000000 
#    y 0.000000 1.810440 0.000000 
#    z 0.000000 0.000000 1.796860 
# 
# From -- ./inp_files/14862.got.cif
#   From: 2010.03.12/outbox.cif.g09.slc.cpg/sg35_8_cif.got.tgz:14862.got - 2010.04.14 02:02:04.
