data_PCOD8174091
_publ_section_title
;
Structure prediction by ZEFSAII (Michael W. Deem and Ramdas Pophale) SiO2 
 PCOD8174091
Probable space group: C M M 2
;
_chemical_formula_sum "Si O2"
_cell_formula_units_Z 40
_cell_length_a 14.627176
_cell_length_b 8.578156
_cell_length_c 16.604816
_cell_angle_alpha 90.000000
_cell_angle_beta 90.000000
_cell_angle_gamma 90.000000
_cell_volume 2083.475963
_symmetry_space_group_name_H-M "C M M 2"
_symmetry_group_IT_number 35
_symmetry_cell_setting 'orthorhombic'
loop_
_space_group_symop_operation_xyz
x,y,z
-x,-y,z
-x,y,z
x,-y,z
1/2+x,1/2+y,z
1/2-x,1/2-y,z
1/2-x,1/2+y,z
1/2+x,1/2-y,z
loop_
_atom_site_type_symbol
_atom_site_label
_atom_site_fract_x
_atom_site_fract_y
_atom_site_fract_z
Si Si1 0.649084 0.182110 0.333580
Si Si2 0.500000 0.317939 0.031237
Si Si3 0.000000 0.681205 0.203298
Si Si4 0.849815 0.684646 0.920370
Si Si5 0.149739 0.815065 0.752164
Si Si6 0.500000 0.814809 0.638366
Si Si7 0.500000 0.814344 0.455143
O O1 0.750000 0.250000 0.328644
O O2 0.591364 0.221605 0.253478
O O3 0.591574 0.248253 0.410130
O O4 0.660575 0.000000 0.343520
O O5 0.500000 0.500000 0.011442
O O6 0.500000 0.291434 0.126209
O O7 0.411004 0.237270 0.994510
O O8 0.000000 0.500000 0.177893
O O9 0.846941 0.500000 0.913681
O O10 0.750000 0.750000 0.937138
O O11 0.890032 0.752761 0.836911
O O12 0.250000 0.750000 0.737569
O O13 0.089544 0.754226 0.679186
O O14 0.150542 0.000000 0.753951
O O15 0.500000 0.755653 0.546522
O O16 0.500000 0.000000 0.644863
O O17 0.500000 0.000000 0.449334
#
# Coordination Sequence:
#
# PCOD8174091 Si02
#       7
#     8   4   4   8   8   4   4
#     4   9  18  36  60  82 107 142 180 221 273 329
#     4  12  24  38  57  84 116 149 186 229 278 329
#     4   9  20  38  56  78 111 146 181 222 273 332
#     4  11  22  39  60  83 111 147 190 233 280 330
#     4  11  22  38  57  81 112 148 191 234 279 330
#     4  11  21  36  57  82 114 150 187 231 282 329
#     4   8  18  36  56  80 111 145 180 220 271 332
#
# _framework density 19.198685999999999
#
# number of rings (size 3 to 8) (size 9 to 14) (size 15 to 20)
#    0.000    1.800    0.000    7.800    0.000    2.400 
#    0.000    7.500    0.000    0.000    0.000    0.000 
#    0.000    0.000    0.000    0.000    0.000    0.000 
#
# Total GULP energy -248018.670785 kJ/mol
# GULP energy per Si atom -12400.933539 kJ/mol
# Density = 1.915499 g / cm^3
# Si number density = 19.198686 Si / 1000 Ang^3
#
#
#
# Elastic Constant Matrix: (Units=GPa)
#
#
# Indices 1 2 3 4 5 6 
#
# 1 143.2900 45.6870 77.5007 0.0000 0.0000 0.0000
# 2 45.6870 127.4493 55.2864 0.0000 0.0000 0.0000
# 3 77.5007 55.2864 144.8215 0.0000 0.0000 0.0000
# 4 0.0000 0.0000 0.0000 26.8020 0.0000 0.0000
# 5 0.0000 0.0000 0.0000 0.0000 14.5576 0.0000
# 6 0.0000 0.0000 0.0000 0.0000 0.0000 35.6777
#
#
#
# Elastic Compliance Matrix: (Units=1/GPa)
#
#
# Indices 1 2 3 4 5 6 
#
# 1 0.010063 -0.001524 -0.004803 0.000000 0.000000 0.000000
# 2 -0.001524 0.009634 -0.002863 0.000000 0.000000 0.000000
# 3 -0.004803 -0.002863 0.010568 0.000000 0.000000 0.000000
# 4 0.000000 0.000000 0.000000 0.037311 0.000000 0.000000
# 5 0.000000 0.000000 0.000000 0.000000 0.068693 0.000000
# 6 0.000000 0.000000 0.000000 0.000000 0.000000 0.028029
#
#
# Mechanical properties :
#
#
# Convention : Reuss Voigt Hill
#
# Bulk Modulus (GPa) = 84.13114 85.83433 84.98274
# Shear Modulus (GPa) = 26.78980 31.21322 29.00151
#
# Velocity S-wave (km/s) = 3.73955 4.03650 3.89086
# Velocity P-wave (km/s) = 7.90962 8.15659 8.03405
#
# Compressibility (1/GPa) = 0.01188621
#
# Stress axis : x y z
#
# Youngs Moduli (GPa) = 99.37807 103.79727 94.62203
#
# Poissons Ratio (x) = 0.15814 0.45450
# Poissons Ratio (y) = 0.15140 0.27087
# Poissons Ratio (z) = 0.47735 0.29713
#
# Static dielectric constant tensor:
#      x y z
#    x 4.221000 0.000000 0.000000 
#    y 0.000000 3.468100 0.000000 
#    z 0.000000 0.000000 3.633270 
# 
# 
# High freq. dielectric constant tensor:
#      x y z
#    x 1.757720 0.000000 0.000000 
#    y 0.000000 1.747640 0.000000 
#    z 0.000000 0.000000 1.748330 
# 
# From -- ./inp_files/14829.got.cif
#   From: 2010.03.12/outbox.cif.g09.slc.cpg/sg35_8_cif.got.tgz:14829.got - 2010.04.14 02:02:04.
