data_PCOD8174209
_publ_section_title
;
Structure prediction by ZEFSAII (Michael W. Deem and Ramdas Pophale) SiO2 
 PCOD8174209
Probable space group: C M C 21
;
_chemical_formula_sum "Si O2"
_cell_formula_units_Z 48
_cell_length_a 22.143494
_cell_length_b 25.039232
_cell_length_c 5.332083
_cell_angle_alpha 90.000000
_cell_angle_beta 90.000000
_cell_angle_gamma 90.000000
_cell_volume 2956.405857
_symmetry_space_group_name_H-M "C M C 21"
_symmetry_group_IT_number 36
_symmetry_cell_setting 'orthorhombic'
loop_
_space_group_symop_operation_xyz
x,y,z
-x,-y,1/2+z
x,-y,1/2+z
-x,y,z
1/2+x,1/2+y,z
1/2-x,1/2-y,1/2+z
1/2+x,1/2-y,1/2+z
1/2-x,1/2+y,z
loop_
_atom_site_type_symbol
_atom_site_label
_atom_site_fract_x
_atom_site_fract_y
_atom_site_fract_z
Si Si1 0.380445 0.786380 0.711210
Si Si2 0.500000 0.855103 0.697982
Si Si3 0.716255 0.128025 0.712772
Si Si4 0.500000 0.924118 0.197877
Si Si5 0.662498 0.753929 0.211073
Si Si6 0.629148 0.031009 0.716014
Si Si7 0.746219 0.156909 0.212867
O O1 0.441387 0.819191 0.721214
O O2 0.379015 0.749708 0.460195
O O3 0.324567 0.827350 0.708433
O O4 0.377403 0.748542 0.958227
O O5 0.500000 0.882655 0.426894
O O6 0.500000 0.896511 0.926444
O O7 0.695370 0.189343 0.708375
O O8 0.659319 0.089062 0.715441
O O9 0.756696 0.120324 0.460834
O O10 0.757520 0.121133 0.962877
O O11 0.442592 0.962447 0.219081
O O12 0.713020 0.708958 0.217079
O O13 0.650086 0.999891 0.466305
#
# Coordination Sequence:
#
# PCOD8174209 Si02
#       7
#     8   4   8   4   8   8   8
#     4  10  18  28  41  65  91 114 139 178 230 281
#     4  12  22  33  50  68  90 122 160 200 252 295
#     4  10  18  30  46  64  86 108 136 183 240 279
#     4  12  22  37  50  60  78 116 170 222 250 269
#     4  10  18  30  49  69  88 107 140 191 236 278
#     4  12  24  37  48  63  86 120 163 208 249 286
#     4  10  17  30  49  71  87 106 139 191 237 279
#
# _framework density 16.235928999999999
#
# number of rings (size 3 to 8) (size 9 to 14) (size 15 to 20)
#    0.000    1.333    0.000   12.500    0.000    0.000 
#    0.000    0.000    0.000    0.000    0.000    0.000 
#    0.000    0.000    0.000    0.000    0.000    0.000 
#
# Total GULP energy -297461.699436 kJ/mol
# GULP energy per Si atom -12394.237476 kJ/mol
# Density = 1.619898 g / cm^3
# Si number density = 16.235929 Si / 1000 Ang^3
#
#
#
# Elastic Constant Matrix: (Units=GPa)
#
#
# Indices 1 2 3 4 5 6 
#
# 1 28.9237 17.7996 15.1011 0.0000 0.0000 0.0000
# 2 17.7996 39.8096 24.5679 0.0000 0.0000 0.0000
# 3 15.1011 24.5679 175.3961 0.0000 0.0000 0.0000
# 4 0.0000 0.0000 0.0000 25.8390 0.0000 0.0000
# 5 0.0000 0.0000 0.0000 0.0000 14.8689 0.0000
# 6 0.0000 0.0000 0.0000 0.0000 0.0000 33.5171
#
#
#
# Elastic Compliance Matrix: (Units=1/GPa)
#
#
# Indices 1 2 3 4 5 6 
#
# 1 0.047940 -0.020675 -0.001232 0.000000 0.000000 0.000000
# 2 -0.020675 0.036413 -0.003320 0.000000 0.000000 0.000000
# 3 -0.001232 -0.003320 0.006272 0.000000 0.000000 0.000000
# 4 0.000000 0.000000 0.000000 0.038701 0.000000 0.000000
# 5 0.000000 0.000000 0.000000 0.000000 0.067255 0.000000
# 6 0.000000 0.000000 0.000000 0.000000 0.000000 0.029836
#
#
# Mechanical properties :
#
#
# Convention : Reuss Voigt Hill
#
# Bulk Modulus (GPa) = 24.89303 39.89629 32.39466
# Shear Modulus (GPa) = 17.22591 27.28905 22.25748
#
# Velocity S-wave (km/s) = 3.26079 4.10418 3.70655
# Velocity P-wave (km/s) = 5.43529 6.86187 6.18982
#
# Compressibility (1/GPa) = 0.04017189
#
# Stress axis : x y z
#
# Youngs Moduli (GPa) = 20.85942 27.46294 159.42614
#
# Poissons Ratio (x) = 0.56779 0.19634
# Poissons Ratio (y) = 0.43126 0.52935
# Poissons Ratio (z) = 0.02569 0.09119
#
# Static dielectric constant tensor:
#      x y z
#    x 2.747300 0.000000 0.000000 
#    y 0.000000 2.748290 0.000000 
#    z 0.000000 0.000000 5.380170 
# 
# 
# High freq. dielectric constant tensor:
#      x y z
#    x 1.574690 0.000000 0.000000 
#    y 0.000000 1.581730 0.000000 
#    z 0.000000 0.000000 1.676900 
# 
# From -- ./inp_files/1133.got.cif
#   From: 2010.03.12/outbox.cif.g09.slc.cpg/sg36_1_cif.got.tgz:1133.got - 2010.04.14 02:13:53.
