data_PCOD8174824
_publ_section_title
;
Structure prediction by ZEFSAII (Michael W. Deem and Ramdas Pophale) SiO2 
 PCOD8174824
Probable space group: C M C 21
;
_chemical_formula_sum "Si O2"
_cell_formula_units_Z 64
_cell_length_a 8.700819
_cell_length_b 20.430015
_cell_length_c 19.056923
_cell_angle_alpha 90.000000
_cell_angle_beta 90.000000
_cell_angle_gamma 90.000000
_cell_volume 3387.517902
_symmetry_space_group_name_H-M "C M C 21"
_symmetry_group_IT_number 36
_symmetry_cell_setting 'orthorhombic'
loop_
_space_group_symop_operation_xyz
x,y,z
-x,-y,1/2+z
x,-y,1/2+z
-x,y,z
1/2+x,1/2+y,z
1/2-x,1/2-y,1/2+z
1/2+x,1/2-y,1/2+z
1/2-x,1/2+y,z
loop_
_atom_site_type_symbol
_atom_site_label
_atom_site_fract_x
_atom_site_fract_y
_atom_site_fract_z
Si Si1 0.821094 0.063011 0.987780
Si Si2 0.321995 0.301238 0.414848
Si Si3 0.179211 0.183926 0.497732
Si Si4 0.678470 0.752965 0.124663
Si Si5 0.322625 0.937462 0.922826
Si Si6 0.176477 0.377726 0.778327
Si Si7 0.821500 0.387085 0.621443
Si Si8 0.176789 0.259700 0.282528
O O1 0.777986 0.131693 0.952359
O O2 0.000000 0.046570 0.982059
O O3 0.726007 0.009316 0.945768
O O4 0.772232 0.065336 0.069497
O O5 0.500000 0.284354 0.425435
O O6 0.222137 0.242563 0.445882
O O7 0.280077 0.305750 0.332409
O O8 0.270317 0.191008 0.570916
O O9 0.221946 0.114904 0.464253
O O10 0.000000 0.185346 0.513705
O O11 0.500000 0.735193 0.114644
O O12 0.774394 0.687857 0.108543
O O13 0.711951 0.779872 0.202476
O O14 0.500000 0.925214 0.941248
O O15 0.294966 0.931392 0.838824
O O16 0.216297 0.408022 0.701836
O O17 0.284397 0.316340 0.794433
O O18 0.000000 0.353001 0.778395
O O19 0.000000 0.394852 0.603926
O O20 0.000000 0.270714 0.301843
#
# Coordination Sequence:
#
# PCOD8174824 Si02
#       8
#     8   8   8   8   8   8   8   8
#     4  11  24  40  58  84 119 157 197 243 290 348
#     4  11  22  37  58  83 117 154 192 240 292 341
#     4  12  23  36  59  88 116 150 195 240 287 348
#     4  10  20  35  55  85 120 153 191 242 296 344
#     4  11  23  40  61  85 118 156 193 241 294 349
#     4   9  19  35  57  84 114 149 190 236 291 349
#     4  10  19  34  58  86 113 149 195 240 288 350
#     4  10  20  33  56  87 117 150 193 242 290 345
#
# _framework density 18.892889
#
# number of rings (size 3 to 8) (size 9 to 14) (size 15 to 20)
#    0.000    1.500    2.500    3.375    0.000    4.000 
#    0.000    1.250    0.000    4.500    0.000    0.000 
#    0.000    0.000    0.000    0.000    0.000    0.000 
#
# Total GULP energy -396911.330918 kJ/mol
# GULP energy per Si atom -12403.479091 kJ/mol
# Density = 1.884989 g / cm^3
# Si number density = 18.892889 Si / 1000 Ang^3
#
#
#
# Elastic Constant Matrix: (Units=GPa)
#
#
# Indices 1 2 3 4 5 6 
#
# 1 49.6567 18.5095 34.3647 0.0000 0.0000 0.0000
# 2 18.5095 57.9500 41.2379 0.0000 0.0000 0.0000
# 3 34.3647 41.2379 139.5731 0.0000 0.0000 0.0000
# 4 0.0000 0.0000 0.0000 29.8406 0.0000 0.0000
# 5 0.0000 0.0000 0.0000 0.0000 31.4588 0.0000
# 6 0.0000 0.0000 0.0000 0.0000 0.0000 29.6000
#
#
#
# Elastic Compliance Matrix: (Units=1/GPa)
#
#
# Indices 1 2 3 4 5 6 
#
# 1 0.025208 -0.004603 -0.004847 0.000000 0.000000 0.000000
# 2 -0.004603 0.022691 -0.005571 0.000000 0.000000 0.000000
# 3 -0.004847 -0.005571 0.010004 0.000000 0.000000 0.000000
# 4 0.000000 0.000000 0.000000 0.033511 0.000000 0.000000
# 5 0.000000 0.000000 0.000000 0.000000 0.031788 0.000000
# 6 0.000000 0.000000 0.000000 0.000000 0.000000 0.033784
#
#
# Mechanical properties :
#
#
# Convention : Reuss Voigt Hill
#
# Bulk Modulus (GPa) = 35.89077 48.37819 42.13448
# Shear Modulus (GPa) = 25.46951 28.38440 26.92696
#
# Velocity S-wave (km/s) = 3.67563 3.88027 3.77933
# Velocity P-wave (km/s) = 6.08703 6.76295 6.43387
#
# Compressibility (1/GPa) = 0.02786232
#
# Stress axis : x y z
#
# Youngs Moduli (GPa) = 39.66997 44.07099 99.96025
#
# Poissons Ratio (x) = 0.20284 0.48447
# Poissons Ratio (y) = 0.18258 0.55687
# Poissons Ratio (z) = 0.19227 0.24552
#
# Static dielectric constant tensor:
#      x y z
#    x 3.522760 0.000000 0.000000 
#    y 0.000000 3.111910 0.000000 
#    z 0.000000 0.000000 3.845280 
# 
# 
# High freq. dielectric constant tensor:
#      x y z
#    x 1.747230 0.000000 0.000000 
#    y 0.000000 1.693800 0.000000 
#    z 0.000000 0.000000 1.754260 
# 
# From -- ./inp_files/15657.got.cif
#   From: 2010.03.12/outbox.cif.g09.slc.cpg/sg36_8_cif.got.tgz:15657.got - 2010.04.14 02:13:53.
