data_PCOD8174980
_publ_section_title
;
Structure prediction by ZEFSAII (Michael W. Deem and Ramdas Pophale) SiO2 
 PCOD8174980
Probable space group: C M C 21
;
_chemical_formula_sum "Si O2"
_cell_formula_units_Z 64
_cell_length_a 9.089810
_cell_length_b 22.505092
_cell_length_c 16.449707
_cell_angle_alpha 90.000000
_cell_angle_beta 90.000000
_cell_angle_gamma 90.000000
_cell_volume 3365.067382
_symmetry_space_group_name_H-M "C M C 21"
_symmetry_group_IT_number 36
_symmetry_cell_setting 'orthorhombic'
loop_
_space_group_symop_operation_xyz
x,y,z
-x,-y,1/2+z
x,-y,1/2+z
-x,y,z
1/2+x,1/2+y,z
1/2-x,1/2-y,1/2+z
1/2+x,1/2-y,1/2+z
1/2-x,1/2+y,z
loop_
_atom_site_type_symbol
_atom_site_label
_atom_site_fract_x
_atom_site_fract_y
_atom_site_fract_z
Si Si1 0.659694 0.785721 0.920890
Si Si2 0.825555 0.604067 0.316818
Si Si3 0.330473 0.595151 0.990298
Si Si4 0.175121 0.718781 0.702883
Si Si5 0.837223 0.369609 0.069942
Si Si6 0.325192 0.647821 0.163312
Si Si7 0.828064 0.319663 0.379263
Si Si8 0.328917 0.458547 0.961780
O O1 0.500000 0.758075 0.897629
O O2 0.713129 0.830885 0.851327
O O3 0.779761 0.734777 0.936839
O O4 0.640742 0.819567 0.003761
O O5 0.751848 0.603071 0.227870
O O6 0.756599 0.554948 0.377611
O O7 0.000000 0.592385 0.311894
O O8 0.500000 0.610590 0.977556
O O9 0.275672 0.624627 0.074599
O O10 0.243466 0.620414 0.912736
O O11 0.300920 0.525364 0.990094
O O12 0.233681 0.665137 0.646188
O O13 0.231642 0.784231 0.675785
O O14 0.233798 0.700128 0.791426
O O15 0.000000 0.719969 0.699909
O O16 0.000000 0.396663 0.089918
O O17 0.728840 0.420357 0.038039
O O18 0.500000 0.642830 0.175115
O O19 0.000000 0.329075 0.378905
O O20 0.500000 0.444572 0.947466
#
# Coordination Sequence:
#
# PCOD8174980 Si02
#       8
#     8   8   8   8   8   8   8   8
#     4   9  17  31  53  79 110 144 179 221 277 340
#     4  10  20  35  58  87 114 146 187 232 284 336
#     4  10  23  41  59  80 112 157 196 234 287 340
#     4   9  18  33  55  85 116 146 180 225 287 347
#     4   9  18  35  58  81 109 147 186 228 281 335
#     4  10  19  37  62  84 113 149 190 236 286 343
#     4  11  21  33  54  83 116 149 186 230 279 338
#     4  10  21  39  59  81 110 148 198 238 277 335
#
# _framework density 19.018936
#
# number of rings (size 3 to 8) (size 9 to 14) (size 15 to 20)
#    0.000    2.250    1.250    2.625    0.000    5.500 
#    2.250    1.875    0.000    0.000    0.000    0.000 
#    0.000    0.000    0.000    0.000    0.000    0.000 
#
# Total GULP energy -396666.285006 kJ/mol
# GULP energy per Si atom -12395.821406 kJ/mol
# Density = 1.897565 g / cm^3
# Si number density = 19.018936 Si / 1000 Ang^3
#
#
#
# Elastic Constant Matrix: (Units=GPa)
#
#
# Indices 1 2 3 4 5 6 
#
# 1 69.8277 46.8426 42.9283 0.0000 0.0000 0.0000
# 2 46.8426 103.9776 65.0360 0.0000 0.0000 0.0000
# 3 42.9283 65.0360 101.2842 0.0000 0.0000 0.0000
# 4 0.0000 0.0000 0.0000 23.0834 0.0000 0.0000
# 5 0.0000 0.0000 0.0000 0.0000 26.2286 0.0000
# 6 0.0000 0.0000 0.0000 0.0000 0.0000 27.4330
#
#
#
# Elastic Compliance Matrix: (Units=1/GPa)
#
#
# Indices 1 2 3 4 5 6 
#
# 1 0.021901 -0.006786 -0.004925 0.000000 0.000000 0.000000
# 2 -0.006786 0.018175 -0.008794 0.000000 0.000000 0.000000
# 3 -0.004925 -0.008794 0.017608 0.000000 0.000000 0.000000
# 4 0.000000 0.000000 0.000000 0.043321 0.000000 0.000000
# 5 0.000000 0.000000 0.000000 0.000000 0.038126 0.000000
# 6 0.000000 0.000000 0.000000 0.000000 0.000000 0.036452
#
#
# Mechanical properties :
#
#
# Convention : Reuss Voigt Hill
#
# Bulk Modulus (GPa) = 59.97750 64.96703 62.47226
# Shear Modulus (GPa) = 22.50700 23.36785 22.93743
#
# Velocity S-wave (km/s) = 3.44379 3.50903 3.47656
# Velocity P-wave (km/s) = 6.88600 7.11695 7.00243
#
# Compressibility (1/GPa) = 0.01667292
#
# Stress axis : x y z
#
# Youngs Moduli (GPa) = 45.65981 55.01957 56.79312
#
# Poissons Ratio (x) = 0.37336 0.27972
# Poissons Ratio (y) = 0.30985 0.49947
# Poissons Ratio (z) = 0.22488 0.48387
#
# Static dielectric constant tensor:
#      x y z
#    x 3.768260 0.000000 0.000000 
#    y 0.000000 3.389240 0.000000 
#    z 0.000000 0.000000 3.740530 
# 
# 
# High freq. dielectric constant tensor:
#      x y z
#    x 1.727230 0.000000 0.000000 
#    y 0.000000 1.728060 0.000000 
#    z 0.000000 0.000000 1.741930 
# 
# From -- ./inp_files/13937.got.cif
#   From: 2010.03.12/outbox.cif.g09.slc.cpg/sg36_7_cif.got.tgz:13937.got - 2010.04.14 02:13:53.
