data_PCOD8174646
_publ_section_title
;
Structure prediction by ZEFSAII (Michael W. Deem and Ramdas Pophale) SiO2 
 PCOD8174646
Probable space group: C M C 21
;
_chemical_formula_sum "Si O2"
_cell_formula_units_Z 56
_cell_length_a 13.896273
_cell_length_b 37.889660
_cell_length_c 5.207864
_cell_angle_alpha 90.000000
_cell_angle_beta 90.000000
_cell_angle_gamma 90.000000
_cell_volume 2742.070901
_symmetry_space_group_name_H-M "C M C 21"
_symmetry_group_IT_number 36
_symmetry_cell_setting 'orthorhombic'
loop_
_space_group_symop_operation_xyz
x,y,z
-x,-y,1/2+z
x,-y,1/2+z
-x,y,z
1/2+x,1/2+y,z
1/2-x,1/2-y,1/2+z
1/2+x,1/2-y,1/2+z
1/2-x,1/2+y,z
loop_
_atom_site_type_symbol
_atom_site_label
_atom_site_fract_x
_atom_site_fract_y
_atom_site_fract_z
Si Si1 0.388237 0.978018 0.085990
Si Si2 0.305035 0.902000 0.077319
Si Si3 0.897392 0.168167 0.020946
Si Si4 0.847346 0.282555 0.561391
Si Si5 0.384734 0.367898 0.021432
Si Si6 0.384847 0.863812 0.577824
Si Si7 0.633595 0.253990 0.561326
O O1 0.500000 0.967647 0.074810
O O2 0.361196 0.995679 0.355921
O O3 0.327070 0.942968 0.052021
O O4 0.356519 0.880565 0.849818
O O5 0.187356 0.900822 0.059782
O O6 0.343495 0.887622 0.348774
O O7 0.844146 0.151304 0.265358
O O8 0.920628 0.209122 0.055497
O O9 0.000000 0.148434 0.020024
O O10 0.851512 0.159385 0.745666
O O11 0.838640 0.324759 0.554409
O O12 0.744769 0.263885 0.558779
O O13 0.901148 0.268266 0.308504
O O14 0.899978 0.269699 0.819500
O O15 0.500000 0.377256 0.020297
O O16 0.500000 0.861256 0.557390
#
# Coordination Sequence:
#
# PCOD8174646 Si02
#       7
#     8   8   8   8   8   8   8
#     4  10  21  38  61  90 121 151 188 228 267 325
#     4  12  23  40  65  87 119 159 189 231 289 340
#     4  10  20  34  54  79 107 140 188 248 296 339
#     4  10  21  33  49  71 104 143 186 242 289 340
#     4  10  21  37  59  88 116 147 195 248 293 340
#     4  12  25  39  57  86 120 155 197 236 287 356
#     4  10  19  33  50  71  99 143 193 237 296 346
#
# _framework density 20.422521
#
# number of rings (size 3 to 8) (size 9 to 14) (size 15 to 20)
#    0.000    1.429    0.000    6.429    0.000    4.571 
#    0.000    0.000    0.000    0.857    0.000    0.000 
#    0.000    0.000    0.000    0.000    0.000    0.000 
#
# Total GULP energy -346956.106047 kJ/mol
# GULP energy per Si atom -12391.289502 kJ/mol
# Density = 2.037604 g / cm^3
# Si number density = 20.422521 Si / 1000 Ang^3
#
#
#
# Elastic Constant Matrix: (Units=GPa)
#
#
# Indices 1 2 3 4 5 6 
#
# 1 58.0051 20.4688 21.6523 0.0000 0.0000 0.0000
# 2 20.4688 107.7622 22.4541 0.0000 0.0000 0.0000
# 3 21.6523 22.4541 131.9349 0.0000 0.0000 0.0000
# 4 0.0000 0.0000 0.0000 25.9831 0.0000 0.0000
# 5 0.0000 0.0000 0.0000 0.0000 -17.0830 0.0000
# 6 0.0000 0.0000 0.0000 0.0000 0.0000 40.6198
#
#
#
# Elastic Compliance Matrix: (Units=1/GPa)
#
#
# Indices 1 2 3 4 5 6 
#
# 1 0.019327 -0.003121 -0.002641 0.000000 0.000000 0.000000
# 2 -0.003121 0.010125 -0.001211 0.000000 0.000000 0.000000
# 3 -0.002641 -0.001211 0.008219 0.000000 0.000000 0.000000
# 4 0.000000 0.000000 0.000000 0.038487 0.000000 0.000000
# 5 0.000000 0.000000 0.000000 0.000000 -0.058538 0.000000
# 6 0.000000 0.000000 0.000000 0.000000 0.000000 0.024619
#
#
# Mechanical properties :
#
#
# Convention : Reuss Voigt Hill
#
# Bulk Modulus (GPa) = 42.14836 47.42807 44.78821
# Shear Modulus (GPa) = 78.01360 25.44578 51.72969
#
# Velocity S-wave (km/s) = 6.18730 3.53365 5.03832
# Velocity P-wave (km/s) = 8.46916 6.31845 7.47159
#
# Compressibility (1/GPa) = 0.02372571
#
# Stress axis : x y z
#
# Youngs Moduli (GPa) = 51.74156 98.76740 121.66983
#
# Poissons Ratio (x) = 0.30823 0.32129
# Poissons Ratio (y) = 0.16147 0.14734
# Poissons Ratio (z) = 0.13663 0.11961
#
# Static dielectric constant tensor:
#      x y z
#    x 3.800240 0.000000 0.000000 
#    y 0.000000 3.404670 0.000000 
#    z 0.000000 0.000000 4.234310 
# 
# 
# High freq. dielectric constant tensor:
#      x y z
#    x 1.802050 0.000000 0.000000 
#    y 0.000000 1.766240 0.000000 
#    z 0.000000 0.000000 1.827740 
# 
# From -- ./inp_files/925.got.cif
#   From: 2010.03.12/outbox.cif.g09.slc.cpg/sg36_1_cif.got.tgz:925.got - 2010.04.14 02:13:53.
