data_PCOD8174826
_publ_section_title
;
Structure prediction by ZEFSAII (Michael W. Deem and Ramdas Pophale) SiO2 
 PCOD8174826
Probable space group: C M C 21
;
_chemical_formula_sum "Si O2"
_cell_formula_units_Z 64
_cell_length_a 9.021324
_cell_length_b 15.148324
_cell_length_c 23.766515
_cell_angle_alpha 90.000000
_cell_angle_beta 90.000000
_cell_angle_gamma 90.000000
_cell_volume 3247.882954
_symmetry_space_group_name_H-M "C M C 21"
_symmetry_group_IT_number 36
_symmetry_cell_setting 'orthorhombic'
loop_
_space_group_symop_operation_xyz
x,y,z
-x,-y,1/2+z
x,-y,1/2+z
-x,y,z
1/2+x,1/2+y,z
1/2-x,1/2-y,1/2+z
1/2+x,1/2-y,1/2+z
1/2-x,1/2+y,z
loop_
_atom_site_type_symbol
_atom_site_label
_atom_site_fract_x
_atom_site_fract_y
_atom_site_fract_z
Si Si1 0.167523 0.775141 0.214320
Si Si2 0.329450 0.641431 0.407483
Si Si3 0.323454 0.515249 0.825227
Si Si4 0.672063 0.538654 0.084778
Si Si5 0.828273 0.697094 0.827017
Si Si6 0.670835 0.267087 0.605314
Si Si7 0.833991 0.981044 0.202415
Si Si8 0.175398 0.386609 0.023164
O O1 0.257721 0.759434 0.271483
O O2 0.240890 0.721551 0.163411
O O3 0.171569 0.876500 0.196861
O O4 0.000000 0.741825 0.223389
O O5 0.500000 0.626902 0.424654
O O6 0.276879 0.562404 0.366816
O O7 0.306458 0.734793 0.377608
O O8 0.228071 0.641571 0.461911
O O9 0.500000 0.530248 0.822166
O O10 0.250866 0.606590 0.845637
O O11 0.261724 0.491052 0.762379
O O12 0.500000 0.509558 0.083411
O O13 0.690624 0.641979 0.070333
O O14 0.744032 0.520918 0.146904
O O15 0.758769 0.482064 0.038520
O O16 0.000000 0.678409 0.814800
O O17 0.500000 0.250706 0.620739
O O18 0.732425 0.187074 0.567359
O O19 0.000000 0.018573 0.202235
O O20 0.000000 0.392454 0.023079
#
# Coordination Sequence:
#
# PCOD8174826 Si02
#       8
#     8   8   8   8   8   8   8   8
#     4  10  19  34  58  87 120 156 191 236 291 347
#     4  10  23  41  63  84 111 159 204 234 280 353
#     4   9  19  37  59  86 116 150 194 236 284 343
#     4  10  20  37  61  85 113 154 197 234 286 358
#     4  10  21  37  59  89 120 152 192 240 291 345
#     4  10  22  37  58  87 116 152 195 243 295 345
#     4   8  15  30  56  84 111 145 183 229 279 338
#     4  11  24  41  58  84 121 152 192 250 296 333
#
# _framework density 19.705143
#
# number of rings (size 3 to 8) (size 9 to 14) (size 15 to 20)
#    0.000    2.250    1.250    1.875    1.750    3.500 
#    0.000    3.750    0.000    0.000    0.000    0.000 
#    0.000    0.000    0.000    0.000    0.000    0.000 
#
# Total GULP energy -396784.817987 kJ/mol
# GULP energy per Si atom -12399.525562 kJ/mol
# Density = 1.966029 g / cm^3
# Si number density = 19.705143 Si / 1000 Ang^3
#
#
#
# Elastic Constant Matrix: (Units=GPa)
#
#
# Indices 1 2 3 4 5 6 
#
# 1 67.2231 23.2984 31.1103 0.0000 0.0000 0.0000
# 2 23.2984 60.6771 18.2179 0.0000 0.0000 0.0000
# 3 31.1103 18.2179 80.2738 0.0000 0.0000 0.0000
# 4 0.0000 0.0000 0.0000 25.6401 0.0000 0.0000
# 5 0.0000 0.0000 0.0000 0.0000 33.6206 0.0000
# 6 0.0000 0.0000 0.0000 0.0000 0.0000 27.6180
#
#
#
# Elastic Compliance Matrix: (Units=1/GPa)
#
#
# Indices 1 2 3 4 5 6 
#
# 1 0.019801 -0.005686 -0.006383 0.000000 0.000000 0.000000
# 2 -0.005686 0.019319 -0.002181 0.000000 0.000000 0.000000
# 3 -0.006383 -0.002181 0.015426 0.000000 0.000000 0.000000
# 4 0.000000 0.000000 0.000000 0.039001 0.000000 0.000000
# 5 0.000000 0.000000 0.000000 0.000000 0.029744 0.000000
# 6 0.000000 0.000000 0.000000 0.000000 0.000000 0.036208
#
#
# Mechanical properties :
#
#
# Convention : Reuss Voigt Hill
#
# Bulk Modulus (GPa) = 38.39495 39.26970 38.83233
# Shear Modulus (GPa) = 25.42180 26.41223 25.91701
#
# Velocity S-wave (km/s) = 3.59571 3.66508 3.63056
# Velocity P-wave (km/s) = 6.06348 6.15486 6.10935
#
# Compressibility (1/GPa) = 0.02604509
#
# Stress axis : x y z
#
# Youngs Moduli (GPa) = 50.50287 51.76292 64.82512
#
# Poissons Ratio (x) = 0.29435 0.41380
# Poissons Ratio (y) = 0.28718 0.14135
# Poissons Ratio (z) = 0.32238 0.11287
#
# Static dielectric constant tensor:
#      x y z
#    x 3.449310 0.000000 0.000000 
#    y 0.000000 3.533290 0.000000 
#    z 0.000000 0.000000 3.575230 
# 
# 
# High freq. dielectric constant tensor:
#      x y z
#    x 1.750980 0.000000 0.000000 
#    y 0.000000 1.769860 0.000000 
#    z 0.000000 0.000000 1.766420 
# 
# From -- ./inp_files/16695.got.cif
#   From: 2010.03.12/outbox.cif.g09.slc.cpg/sg36_9_cif.got.tgz:16695.got - 2010.04.14 02:13:53.
