data_PCOD8174791
_publ_section_title
;
Structure prediction by ZEFSAII (Michael W. Deem and Ramdas Pophale) SiO2 
 PCOD8174791
Probable space group: C M C 21
;
_chemical_formula_sum "Si O2"
_cell_formula_units_Z 64
_cell_length_a 8.927712
_cell_length_b 19.921686
_cell_length_c 19.737406
_cell_angle_alpha 90.000000
_cell_angle_beta 90.000000
_cell_angle_gamma 90.000000
_cell_volume 3510.397828
_symmetry_space_group_name_H-M "C M C 21"
_symmetry_group_IT_number 36
_symmetry_cell_setting 'orthorhombic'
loop_
_space_group_symop_operation_xyz
x,y,z
-x,-y,1/2+z
x,-y,1/2+z
-x,y,z
1/2+x,1/2+y,z
1/2-x,1/2-y,1/2+z
1/2+x,1/2-y,1/2+z
1/2-x,1/2+y,z
loop_
_atom_site_type_symbol
_atom_site_label
_atom_site_fract_x
_atom_site_fract_y
_atom_site_fract_z
Si Si1 0.323365 0.272303 0.461140
Si Si2 0.322901 0.908833 0.448866
Si Si3 0.823781 0.279923 0.816702
Si Si4 0.828158 0.913514 0.837102
Si Si5 0.176688 0.042813 0.486322
Si Si6 0.174145 0.172904 0.706285
Si Si7 0.327885 0.560998 0.810649
Si Si8 0.675486 0.843118 0.066066
O O1 0.500000 0.286385 0.459682
O O2 0.237711 0.340145 0.481618
O O3 0.262434 0.247520 0.388235
O O4 0.279118 0.216623 0.515919
O O5 0.500000 0.912161 0.455038
O O6 0.275913 0.911216 0.370226
O O7 0.252595 0.970021 0.491353
O O8 0.765679 0.354733 0.802260
O O9 0.770957 0.231475 0.756582
O O10 0.000000 0.282702 0.820417
O O11 0.778527 0.923467 0.914923
O O12 0.000000 0.892428 0.832931
O O13 0.796338 0.982496 0.796433
O O14 0.237550 0.089180 0.546370
O O15 0.000000 0.033569 0.493419
O O16 0.203217 0.101227 0.741947
O O17 0.276500 0.178509 0.640754
O O18 0.000000 0.181187 0.686849
O O19 0.500000 0.571095 0.834987
O O20 0.500000 0.857873 0.063249
#
# Coordination Sequence:
#
# PCOD8174791 Si02
#       8
#     8   8   8   8   8   8   8   8
#     4  10  20  37  57  80 114 152 188 232 285 341
#     4  11  21  32  55  88 115 140 184 242 284 325
#     4  10  19  34  57  81 110 148 187 229 279 335
#     4   9  18  31  54  84 110 136 178 232 276 322
#     4  10  20  36  57  81 113 150 185 226 283 346
#     4  10  21  38  58  78 109 154 195 229 280 347
#     4   9  18  36  56  78 110 151 189 225 278 341
#     4  11  23  38  58  84 115 149 190 239 287 339
#
# _framework density 18.231552000000001
#
# number of rings (size 3 to 8) (size 9 to 14) (size 15 to 20)
#    0.000    2.000    2.500    2.625    0.000    4.500 
#    0.000    1.250    0.000    4.500    0.000    0.000 
#    0.000    0.000    0.000    0.000    0.000    0.000 
#
# Total GULP energy -396900.215683 kJ/mol
# GULP energy per Si atom -12403.131740 kJ/mol
# Density = 1.819006 g / cm^3
# Si number density = 18.231552 Si / 1000 Ang^3
#
#
#
# Elastic Constant Matrix: (Units=GPa)
#
#
# Indices 1 2 3 4 5 6 
#
# 1 70.4078 50.1815 35.4885 0.0000 0.0000 0.0000
# 2 50.1815 139.9406 52.1022 0.0000 0.0000 0.0000
# 3 35.4885 52.1022 90.8022 0.0000 0.0000 0.0000
# 4 0.0000 0.0000 0.0000 25.3068 0.0000 0.0000
# 5 0.0000 0.0000 0.0000 0.0000 27.9457 0.0000
# 6 0.0000 0.0000 0.0000 0.0000 0.0000 34.8496
#
#
#
# Elastic Compliance Matrix: (Units=1/GPa)
#
#
# Indices 1 2 3 4 5 6 
#
# 1 0.020636 -0.005592 -0.004857 0.000000 0.000000 0.000000
# 2 -0.005592 0.010602 -0.003898 0.000000 0.000000 0.000000
# 3 -0.004857 -0.003898 0.015148 0.000000 0.000000 0.000000
# 4 0.000000 0.000000 0.000000 0.039515 0.000000 0.000000
# 5 0.000000 0.000000 0.000000 0.000000 0.035784 0.000000
# 6 0.000000 0.000000 0.000000 0.000000 0.000000 0.028695
#
#
# Mechanical properties :
#
#
# Convention : Reuss Voigt Hill
#
# Bulk Modulus (GPa) = 56.51907 64.07724 60.29815
# Shear Modulus (GPa) = 27.03118 28.51231 27.77175
#
# Velocity S-wave (km/s) = 3.85471 3.95891 3.90716
# Velocity P-wave (km/s) = 7.13300 7.49132 7.31436
#
# Compressibility (1/GPa) = 0.01769314
#
# Stress axis : x y z
#
# Youngs Moduli (GPa) = 48.45806 94.31816 66.01551
#
# Poissons Ratio (x) = 0.52740 0.32063
# Poissons Ratio (y) = 0.27096 0.25734
# Poissons Ratio (z) = 0.23535 0.36767
#
# Static dielectric constant tensor:
#      x y z
#    x 3.235870 0.000000 0.000000 
#    y 0.000000 3.567430 0.000000 
#    z 0.000000 0.000000 3.133990 
# 
# 
# High freq. dielectric constant tensor:
#      x y z
#    x 1.703180 0.000000 0.000000 
#    y 0.000000 1.721860 0.000000 
#    z 0.000000 0.000000 1.676840 
# 
# From -- ./inp_files/13846.got.cif
#   From: 2010.03.12/outbox.cif.g09.slc.cpg/sg36_7_cif.got.tgz:13846.got - 2010.04.14 02:13:53.
