data_PCOD8174348
_publ_section_title
;
Structure prediction by ZEFSAII (Michael W. Deem and Ramdas Pophale) SiO2 
 PCOD8174348
Probable space group: C M C 21
;
_chemical_formula_sum "Si O2"
_cell_formula_units_Z 56
_cell_length_a 13.516634
_cell_length_b 22.580972
_cell_length_c 9.429408
_cell_angle_alpha 90.000000
_cell_angle_beta 90.000000
_cell_angle_gamma 90.000000
_cell_volume 2878.031971
_symmetry_space_group_name_H-M "C M C 21"
_symmetry_group_IT_number 36
_symmetry_cell_setting 'orthorhombic'
loop_
_space_group_symop_operation_xyz
x,y,z
-x,-y,1/2+z
x,-y,1/2+z
-x,y,z
1/2+x,1/2+y,z
1/2-x,1/2-y,1/2+z
1/2+x,1/2-y,1/2+z
1/2-x,1/2+y,z
loop_
_atom_site_type_symbol
_atom_site_label
_atom_site_fract_x
_atom_site_fract_y
_atom_site_fract_z
Si Si1 0.607116 0.905305 0.315180
Si Si2 0.252422 0.500000 0.406554
Si Si3 0.887345 0.896449 0.497862
Si Si4 0.107116 0.594695 0.497929
Si Si5 0.259394 0.311543 0.327236
Si Si6 0.612655 0.603550 0.315247
Si Si7 0.740606 0.688457 0.485873
O O1 0.500000 0.915799 0.392980
O O2 0.664469 0.849219 0.381362
O O3 0.678006 0.962381 0.309234
O O4 0.583252 0.887606 0.156555
O O5 0.321564 0.455972 0.495395
O O6 0.178007 0.537620 0.503874
O O7 0.321565 0.544027 0.317713
O O8 0.855292 0.847052 0.383384
O O9 0.878276 0.869739 0.656554
O O10 0.000000 0.914000 0.462652
O O11 0.164468 0.650782 0.431747
O O12 0.000000 0.584201 0.420130
O O13 0.266375 0.304548 0.156554
O O14 0.249999 0.250000 0.406554
O O15 0.500000 0.586000 0.350457
O O16 0.644708 0.652948 0.429726
#
# Coordination Sequence:
#
# PCOD8174348 Si02
#       7
#     8   8   8   8   8   8   8
#     4   9  18  32  51  76 105 138 174 214 266 325
#     4  10  18  32  54  80 108 140 180 226 268 322
#     4  10  21  36  55  80 111 147 184 225 276 330
#     4   9  18  32  51  76 105 138 174 214 266 325
#     4  10  21  37  57  80 108 142 182 228 276 330
#     4  10  21  36  55  80 111 147 184 225 276 330
#     4  10  21  37  57  80 108 142 182 228 276 330
#
# _framework density 19.457740999999999
#
# number of rings (size 3 to 8) (size 9 to 14) (size 15 to 20)
#    0.000    2.286    0.000    2.571    0.000    2.857 
#    0.000    2.857    0.000   16.286    0.000    0.000 
#    0.000    0.000    0.000    0.000    0.000    0.000 
#
# Total GULP energy -346872.368816 kJ/mol
# GULP energy per Si atom -12388.298886 kJ/mol
# Density = 1.941345 g / cm^3
# Si number density = 19.457741 Si / 1000 Ang^3
#
#
#
# Elastic Constant Matrix: (Units=GPa)
#
#
# Indices 1 2 3 4 5 6 
#
# 1 171.0891 73.2855 41.8446 0.0000 0.0000 0.0000
# 2 73.2855 144.6416 42.8032 0.0000 0.0000 0.0000
# 3 41.8446 42.8032 86.8704 0.0000 0.0000 0.0000
# 4 0.0000 0.0000 0.0000 30.1691 0.0000 0.0000
# 5 0.0000 0.0000 0.0000 0.0000 24.1563 0.0000
# 6 0.0000 0.0000 0.0000 0.0000 0.0000 16.0065
#
#
#
# Elastic Compliance Matrix: (Units=1/GPa)
#
#
# Indices 1 2 3 4 5 6 
#
# 1 0.007783 -0.003318 -0.002114 0.000000 0.000000 0.000000
# 2 -0.003318 0.009508 -0.003087 0.000000 0.000000 0.000000
# 3 -0.002114 -0.003087 0.014051 0.000000 0.000000 0.000000
# 4 0.000000 0.000000 0.000000 0.033146 0.000000 0.000000
# 5 0.000000 0.000000 0.000000 0.000000 0.041397 0.000000
# 6 0.000000 0.000000 0.000000 0.000000 0.000000 0.062475
#
#
# Mechanical properties :
#
#
# Convention : Reuss Voigt Hill
#
# Bulk Modulus (GPa) = 69.90885 79.82976 74.86930
# Shear Modulus (GPa) = 26.29281 30.37757 28.33519
#
# Velocity S-wave (km/s) = 3.67996 3.95550 3.82021
# Velocity P-wave (km/s) = 7.35273 7.87259 7.61710
#
# Compressibility (1/GPa) = 0.01430434
#
# Stress axis : x y z
#
# Youngs Moduli (GPa) = 128.48178 105.17313 71.17058
#
# Poissons Ratio (x) = 0.34895 0.15048
# Poissons Ratio (y) = 0.42628 0.21968
# Poissons Ratio (z) = 0.27165 0.32464
#
# Static dielectric constant tensor:
#      x y z
#    x 4.207790 0.000000 0.000000 
#    y 0.000000 3.492560 0.000000 
#    z 0.000000 0.000000 3.362990 
# 
# 
# High freq. dielectric constant tensor:
#      x y z
#    x 1.774180 0.000000 0.000000 
#    y 0.000000 1.754650 0.000000 
#    z 0.000000 0.000000 1.736840 
# 
# From -- ./inp_files/4203.got.cif
#   From: 2010.03.12/outbox.cif.g09.slc.cpg/sg36_3_cif.got.tgz:4203.got - 2010.04.14 02:13:53.
