data_PCOD8174981
_publ_section_title
;
Structure prediction by ZEFSAII (Michael W. Deem and Ramdas Pophale) SiO2 
 PCOD8174981
Probable space group: C M C 21
;
_chemical_formula_sum "Si O2"
_cell_formula_units_Z 48
_cell_length_a 9.100810
_cell_length_b 27.185613
_cell_length_c 10.011878
_cell_angle_alpha 90.000000
_cell_angle_beta 90.000000
_cell_angle_gamma 90.000000
_cell_volume 2477.049735
_symmetry_space_group_name_H-M "C M C 21"
_symmetry_group_IT_number 36
_symmetry_cell_setting 'orthorhombic'
loop_
_space_group_symop_operation_xyz
x,y,z
-x,-y,1/2+z
x,-y,1/2+z
-x,y,z
1/2+x,1/2+y,z
1/2-x,1/2-y,1/2+z
1/2+x,1/2-y,1/2+z
1/2-x,1/2+y,z
loop_
_atom_site_type_symbol
_atom_site_label
_atom_site_fract_x
_atom_site_fract_y
_atom_site_fract_z
Si Si1 0.826909 0.898916 0.729180
Si Si2 0.673575 0.783166 0.096189
Si Si3 0.327732 0.927303 0.467865
Si Si4 0.825779 0.610157 0.683936
Si Si5 0.327952 0.958733 0.946928
Si Si6 0.328071 0.291181 0.824690
O O1 0.760198 0.898735 0.581559
O O2 0.756941 0.943094 0.813632
O O3 0.784757 0.847520 0.798484
O O4 0.000000 0.906329 0.719484
O O5 0.500000 0.784338 0.076054
O O6 0.732008 0.835348 0.151586
O O7 0.723222 0.741106 0.198738
O O8 0.745681 0.771129 0.954505
O O9 0.500000 0.916659 0.485410
O O10 0.266348 0.906643 0.327746
O O11 0.293577 0.984921 0.477403
O O12 0.767128 0.572733 0.571437
O O13 0.000000 0.607908 0.685749
O O14 0.500000 0.949872 0.920980
O O15 0.500000 0.284611 0.849394
#
# Coordination Sequence:
#
# PCOD8174981 Si02
#       6
#     8   8   8   8   8   8
#     4  11  23  38  55  83 123 155 183 226 287 351
#     4  10  21  39  61  83 111 148 192 237 282 337
#     4  10  21  36  59  88 114 146 193 241 277 324
#     4   9  18  34  57  84 110 142 187 237 282 325
#     4  10  19  37  62  85 111 147 195 241 280 325
#     4  10  23  40  58  85 117 148 186 236 286 338
#
# _framework density 19.377893
#
# number of rings (size 3 to 8) (size 9 to 14) (size 15 to 20)
#    0.000    2.000    1.667    1.500    2.333    4.667 
#    0.000    1.667    0.000    0.000    0.000    0.000 
#    0.000    0.000    0.000    0.000    0.000    0.000 
#
# Total GULP energy -297716.504945 kJ/mol
# GULP energy per Si atom -12404.854373 kJ/mol
# Density = 1.933379 g / cm^3
# Si number density = 19.377893 Si / 1000 Ang^3
#
#
#
# Elastic Constant Matrix: (Units=GPa)
#
#
# Indices 1 2 3 4 5 6 
#
# 1 44.7647 35.2596 47.3233 0.0000 0.0000 0.0000
# 2 35.2596 74.1296 38.2182 0.0000 0.0000 0.0000
# 3 47.3233 38.2182 153.3120 0.0000 0.0000 0.0000
# 4 0.0000 0.0000 0.0000 39.5361 0.0000 0.0000
# 5 0.0000 0.0000 0.0000 0.0000 32.3390 0.0000
# 6 0.0000 0.0000 0.0000 0.0000 0.0000 16.0885
#
#
#
# Elastic Compliance Matrix: (Units=1/GPa)
#
#
# Indices 1 2 3 4 5 6 
#
# 1 0.046219 -0.016786 -0.010082 0.000000 0.000000 0.000000
# 2 -0.016786 0.021576 -0.000197 0.000000 0.000000 0.000000
# 3 -0.010082 -0.000197 0.009684 0.000000 0.000000 0.000000
# 4 0.000000 0.000000 0.000000 0.025293 0.000000 0.000000
# 5 0.000000 0.000000 0.000000 0.000000 0.030922 0.000000
# 6 0.000000 0.000000 0.000000 0.000000 0.000000 0.062156
#
#
# Mechanical properties :
#
#
# Convention : Reuss Voigt Hill
#
# Bulk Modulus (GPa) = 42.82979 57.08984 49.95982
# Shear Modulus (GPa) = 19.39755 27.68640 23.54198
#
# Velocity S-wave (km/s) = 3.16731 3.78400 3.48931
# Velocity P-wave (km/s) = 5.96039 6.97258 6.48626
#
# Compressibility (1/GPa) = 0.02334823
#
# Stress axis : x y z
#
# Youngs Moduli (GPa) = 21.63593 46.34820 103.26457
#
# Poissons Ratio (x) = 0.77801 1.04113
# Poissons Ratio (y) = 0.36319 0.02035
# Poissons Ratio (z) = 0.21814 0.00913
#
# Static dielectric constant tensor:
#      x y z
#    x 3.209910 0.000000 0.000000 
#    y 0.000000 3.630010 0.000000 
#    z 0.000000 0.000000 3.644840 
# 
# 
# High freq. dielectric constant tensor:
#      x y z
#    x 1.725440 0.000000 0.000000 
#    y 0.000000 1.762450 0.000000 
#    z 0.000000 0.000000 1.770240 
# 
# From -- ./inp_files/2658.got.cif
#   From: 2010.03.12/outbox.cif.g09.slc.cpg/sg36_2_cif.got.tgz:2658.got - 2010.04.14 02:13:53.
