data_PCOD8174777
_publ_section_title
;
Structure prediction by ZEFSAII (Michael W. Deem and Ramdas Pophale) SiO2 
 PCOD8174777
Probable space group: C M C 21
;
_chemical_formula_sum "Si O2"
_cell_formula_units_Z 64
_cell_length_a 9.117586
_cell_length_b 28.488582
_cell_length_c 12.544103
_cell_angle_alpha 90.000000
_cell_angle_beta 90.000000
_cell_angle_gamma 90.000000
_cell_volume 3258.294331
_symmetry_space_group_name_H-M "C M C 21"
_symmetry_group_IT_number 36
_symmetry_cell_setting 'orthorhombic'
loop_
_space_group_symop_operation_xyz
x,y,z
-x,-y,1/2+z
x,-y,1/2+z
-x,y,z
1/2+x,1/2+y,z
1/2-x,1/2-y,1/2+z
1/2+x,1/2-y,1/2+z
1/2-x,1/2+y,z
loop_
_atom_site_type_symbol
_atom_site_label
_atom_site_fract_x
_atom_site_fract_y
_atom_site_fract_z
Si Si1 0.337953 0.435981 0.939550
Si Si2 0.161117 0.836629 0.043668
Si Si3 0.169610 0.681475 0.924486
Si Si4 0.170896 0.782151 0.844523
Si Si5 0.672445 0.072821 0.224274
Si Si6 0.670620 0.026868 0.625996
Si Si7 0.170162 0.623967 0.727628
Si Si8 0.174874 0.838326 0.639069
O O1 0.500000 0.453853 0.903351
O O2 0.234149 0.423367 0.842165
O O3 0.355949 0.389634 0.007313
O O4 0.260026 0.474079 0.015352
O O5 0.254931 0.837280 0.151464
O O6 0.000000 0.815514 0.069867
O O7 0.240388 0.806472 0.950264
O O8 0.201626 0.726873 0.850671
O O9 0.208182 0.636382 0.850629
O O10 0.000000 0.680435 0.961264
O O11 0.272071 0.683340 0.027648
O O12 0.233048 0.804555 0.734848
O O13 0.000000 0.794707 0.847062
O O14 0.500000 0.083293 0.223344
O O15 0.753696 0.110360 0.149806
O O16 0.709826 0.020853 0.184998
O O17 0.500000 0.030238 0.596642
O O18 0.717235 0.070290 0.702936
O O19 0.000000 0.630995 0.706644
O O20 0.000000 0.842855 0.638526
#
# Coordination Sequence:
#
# PCOD8174777 Si02
#       8
#     8   8   8   8   8   8   8   8
#     4  10  19  34  56  83 114 149 191 243 298 349
#     4   9  17  33  56  79 108 146 186 236 289 338
#     4  10  22  39  59  85 120 160 195 234 296 361
#     4   9  19  37  58  81 115 153 187 236 293 347
#     4  11  22  37  59  84 116 158 201 246 297 354
#     4   9  20  37  56  82 114 153 200 246 293 348
#     4   9  19  36  57  82 114 149 192 241 288 345
#     4  11  23  41  61  86 121 154 196 248 300 352
#
# _framework density 19.642178999999999
#
# number of rings (size 3 to 8) (size 9 to 14) (size 15 to 20)
#    0.000    2.250    1.250    1.125    1.750    3.000 
#    0.000    3.750    0.000    0.000    0.000    0.000 
#    0.000    0.000    0.000    0.000    0.000    0.000 
#
# Total GULP energy -396714.154055 kJ/mol
# GULP energy per Si atom -12397.317314 kJ/mol
# Density = 1.959747 g / cm^3
# Si number density = 19.642179 Si / 1000 Ang^3
#
#
#
# Elastic Constant Matrix: (Units=GPa)
#
#
# Indices 1 2 3 4 5 6 
#
# 1 69.6207 34.3855 42.0246 0.0000 0.0000 0.0000
# 2 34.3855 84.4289 39.0401 0.0000 0.0000 0.0000
# 3 42.0246 39.0401 106.1682 0.0000 0.0000 0.0000
# 4 0.0000 0.0000 0.0000 14.8684 0.0000 0.0000
# 5 0.0000 0.0000 0.0000 0.0000 34.2172 0.0000
# 6 0.0000 0.0000 0.0000 0.0000 0.0000 18.8909
#
#
#
# Elastic Compliance Matrix: (Units=1/GPa)
#
#
# Indices 1 2 3 4 5 6 
#
# 1 0.020889 -0.005644 -0.006193 0.000000 0.000000 0.000000
# 2 -0.005644 0.015796 -0.003574 0.000000 0.000000 0.000000
# 3 -0.006193 -0.003574 0.013185 0.000000 0.000000 0.000000
# 4 0.000000 0.000000 0.000000 0.067257 0.000000 0.000000
# 5 0.000000 0.000000 0.000000 0.000000 0.029225 0.000000
# 6 0.000000 0.000000 0.000000 0.000000 0.000000 0.052936
#
#
# Mechanical properties :
#
#
# Convention : Reuss Voigt Hill
#
# Bulk Modulus (GPa) = 52.50196 54.56868 53.53532
# Shear Modulus (GPa) = 21.14525 23.24646 22.19586
#
# Velocity S-wave (km/s) = 3.28460 3.44393 3.36521
# Velocity P-wave (km/s) = 6.41654 6.60726 6.51260
#
# Compressibility (1/GPa) = 0.01904691
#
# Stress axis : x y z
#
# Youngs Moduli (GPa) = 47.87095 63.30852 75.84442
#
# Poissons Ratio (x) = 0.35731 0.46973
# Poissons Ratio (y) = 0.27018 0.27109
# Poissons Ratio (z) = 0.29648 0.22629
#
# Static dielectric constant tensor:
#      x y z
#    x 3.662040 0.000000 0.000000 
#    y 0.000000 3.605560 0.000000 
#    z 0.000000 0.000000 3.605010 
# 
# 
# High freq. dielectric constant tensor:
#      x y z
#    x 1.751900 0.000000 0.000000 
#    y 0.000000 1.760230 0.000000 
#    z 0.000000 0.000000 1.766860 
# 
# From -- ./inp_files/7092.got.cif
#   From: 2010.03.12/outbox.cif.g09.slc.cpg/sg36_4_cif.got.tgz:7092.got - 2010.04.14 02:13:53.
