data_PCOD8174482
_publ_section_title
;
Structure prediction by ZEFSAII (Michael W. Deem and Ramdas Pophale) SiO2 
 PCOD8174482
Probable space group: C M C 21
;
_chemical_formula_sum "Si O2"
_cell_formula_units_Z 64
_cell_length_a 9.240690
_cell_length_b 22.606082
_cell_length_c 17.912090
_cell_angle_alpha 90.000000
_cell_angle_beta 90.000000
_cell_angle_gamma 90.000000
_cell_volume 3741.760296
_symmetry_space_group_name_H-M "C M C 21"
_symmetry_group_IT_number 36
_symmetry_cell_setting 'orthorhombic'
loop_
_space_group_symop_operation_xyz
x,y,z
-x,-y,1/2+z
x,-y,1/2+z
-x,y,z
1/2+x,1/2+y,z
1/2-x,1/2-y,1/2+z
1/2+x,1/2-y,1/2+z
1/2-x,1/2+y,z
loop_
_atom_site_type_symbol
_atom_site_label
_atom_site_fract_x
_atom_site_fract_y
_atom_site_fract_z
Si Si1 0.166821 0.874665 0.094190
Si Si2 0.170719 0.317852 0.790526
Si Si3 0.837964 0.921272 0.715752
Si Si4 0.662762 0.020390 0.653193
Si Si5 0.667445 0.685546 0.745654
Si Si6 0.331803 0.637456 0.429075
Si Si7 0.161179 0.583251 0.812181
Si Si8 0.341194 0.485570 0.871833
O O1 0.261732 0.933919 0.097085
O O2 0.209852 0.829171 0.159897
O O3 0.000000 0.894115 0.101781
O O4 0.193860 0.842431 0.014599
O O5 0.248393 0.362157 0.733485
O O6 0.207285 0.252991 0.760762
O O7 0.233273 0.323466 0.874400
O O8 0.000000 0.331171 0.791910
O O9 0.850095 0.961478 0.788242
O O10 0.000000 0.905165 0.687254
O O11 0.752161 0.958890 0.653116
O O12 0.500000 0.007550 0.625432
O O13 0.660295 0.048493 0.734898
O O14 0.500000 0.672502 0.760231
O O15 0.754173 0.644747 0.803549
O O16 0.500000 0.644362 0.404691
O O17 0.286144 0.568182 0.423826
O O18 0.234712 0.541863 0.875390
O O19 0.000000 0.597926 0.839558
O O20 0.500000 0.507006 0.897696
#
# Coordination Sequence:
#
# PCOD8174482 Si02
#       8
#     8   8   8   8   8   8   8   8
#     4   9  17  31  49  68  92 122 157 194 236 290
#     4  10  19  30  46  69  95 123 158 199 240 280
#     4   9  16  27  44  65  89 118 150 184 224 270
#     4   9  16  26  42  67  94 116 142 181 230 276
#     4   9  18  31  47  67  92 124 159 196 237 278
#     4   9  18  31  48  69  92 122 156 192 238 290
#     4   9  16  25  41  65  89 113 143 180 220 264
#     4   8  14  25  41  62  87 112 139 174 221 272
#
# _framework density 17.104247999999998
#
# number of rings (size 3 to 8) (size 9 to 14) (size 15 to 20)
#    0.000    3.000    0.000    2.250    0.000    7.500 
#    0.000    0.000    0.000    1.500    0.000    3.500 
#    0.000    0.000    0.000    0.000    0.000    0.000 
#
# Total GULP energy -396669.833756 kJ/mol
# GULP energy per Si atom -12395.932305 kJ/mol
# Density = 1.706532 g / cm^3
# Si number density = 17.104248 Si / 1000 Ang^3
#
#
#
# Elastic Constant Matrix: (Units=GPa)
#
#
# Indices 1 2 3 4 5 6 
#
# 1 113.0307 70.1171 33.6178 0.0000 0.0000 0.0000
# 2 70.1171 112.6106 39.4283 0.0000 0.0000 0.0000
# 3 33.6178 39.4283 54.5959 0.0000 0.0000 0.0000
# 4 0.0000 0.0000 0.0000 15.3893 0.0000 0.0000
# 5 0.0000 0.0000 0.0000 0.0000 16.9962 0.0000
# 6 0.0000 0.0000 0.0000 0.0000 0.0000 28.0476
#
#
#
# Elastic Compliance Matrix: (Units=1/GPa)
#
#
# Indices 1 2 3 4 5 6 
#
# 1 0.014846 -0.008089 -0.003300 0.000000 0.000000 0.000000
# 2 -0.008089 0.016292 -0.006785 0.000000 0.000000 0.000000
# 3 -0.003300 -0.006785 0.025249 0.000000 0.000000 0.000000
# 4 0.000000 0.000000 0.000000 0.064980 0.000000 0.000000
# 5 0.000000 0.000000 0.000000 0.000000 0.058837 0.000000
# 6 0.000000 0.000000 0.000000 0.000000 0.000000 0.035654
#
#
# Mechanical properties :
#
#
# Convention : Reuss Voigt Hill
#
# Bulk Modulus (GPa) = 49.90284 62.95151 56.42717
# Shear Modulus (GPa) = 19.31346 21.22487 20.26916
#
# Velocity S-wave (km/s) = 3.36395 3.52648 3.44617
# Velocity P-wave (km/s) = 6.65787 7.31204 6.99261
#
# Compressibility (1/GPa) = 0.02003894
#
# Stress axis : x y z
#
# Youngs Moduli (GPa) = 67.35644 61.37865 39.60560
#
# Poissons Ratio (x) = 0.49647 0.13071
# Poissons Ratio (y) = 0.54482 0.26874
# Poissons Ratio (z) = 0.22230 0.41648
#
# Static dielectric constant tensor:
#      x y z
#    x 3.428530 0.000000 0.000000 
#    y 0.000000 3.074100 0.000000 
#    z 0.000000 0.000000 2.928850 
# 
# 
# High freq. dielectric constant tensor:
#      x y z
#    x 1.670770 0.000000 0.000000 
#    y 0.000000 1.642180 0.000000 
#    z 0.000000 0.000000 1.618800 
# 
# From -- ./inp_files/13782.got.cif
#   From: 2010.03.12/outbox.cif.g09.slc.cpg/sg36_7_cif.got.tgz:13782.got - 2010.04.14 02:13:53.
