data_PCOD8174457
_publ_section_title
;
Structure prediction by ZEFSAII (Michael W. Deem and Ramdas Pophale) SiO2 
 PCOD8174457
Probable space group: C M C 21
;
_chemical_formula_sum "Si O2"
_cell_formula_units_Z 40
_cell_length_a 14.343811
_cell_length_b 13.119103
_cell_length_c 9.572032
_cell_angle_alpha 90.000000
_cell_angle_beta 90.000000
_cell_angle_gamma 90.000000
_cell_volume 1801.245205
_symmetry_space_group_name_H-M "C M C 21"
_symmetry_group_IT_number 36
_symmetry_cell_setting 'orthorhombic'
loop_
_space_group_symop_operation_xyz
x,y,z
-x,-y,1/2+z
x,-y,1/2+z
-x,y,z
1/2+x,1/2+y,z
1/2-x,1/2-y,1/2+z
1/2+x,1/2-y,1/2+z
1/2-x,1/2+y,z
loop_
_atom_site_type_symbol
_atom_site_label
_atom_site_fract_x
_atom_site_fract_y
_atom_site_fract_z
Si Si1 0.347270 0.495068 0.588950
Si Si2 0.000000 0.155363 0.661410
Si Si3 0.303072 0.147498 0.522934
Si Si4 0.500000 0.748398 0.376197
Si Si5 0.196550 0.810416 0.766362
Si Si6 0.500000 0.359986 0.465647
Si Si7 0.000000 0.652183 0.609607
O O1 0.409951 0.583618 0.653808
O O2 0.261230 0.548496 0.513096
O O3 0.298412 0.422779 0.702245
O O4 0.407692 0.428606 0.480277
O O5 0.000000 0.248585 0.547406
O O6 0.000000 0.200283 0.818301
O O7 0.280028 0.206915 0.378876
O O8 0.286440 0.222094 0.653467
O O9 0.409252 0.105699 0.534780
O O10 0.404810 0.690167 0.339398
O O11 0.500000 0.854176 0.282393
O O12 0.500000 0.275846 0.587804
#
# Coordination Sequence:
#
# PCOD8174457 Si02
#       7
#     8   4   8   4   8   4   4
#     4  11  22  38  65  95 133 167 214 269 330 385
#     4  11  22  30  66 101 122 159 211 269 332 389
#     4  11  24  40  66  91 133 173 217 260 335 384
#     4  10  18  42  59  92 135 156 199 277 335 370
#     4  11  23  42  61  97 131 173 215 274 324 394
#     4  11  21  39  66  97 130 156 212 279 331 375
#     4  10  23  43  63  88 135 173 204 269 326 380
#
# _framework density 22.206859000000001
#
# number of rings (size 3 to 8) (size 9 to 14) (size 15 to 20)
#    0.000    1.200    6.000    1.800    5.600    1.600 
#    0.000    1.000    0.000    2.400    0.000    0.000 
#    0.000    0.000    0.000    0.000    0.000    0.000 
#
# Total GULP energy -247778.391436 kJ/mol
# GULP energy per Si atom -12388.919572 kJ/mol
# Density = 2.215632 g / cm^3
# Si number density = 22.206859 Si / 1000 Ang^3
#
#
#
# Elastic Constant Matrix: (Units=GPa)
#
#
# Indices 1 2 3 4 5 6 
#
# 1 139.6239 34.4674 49.8680 0.0000 0.0000 0.0000
# 2 34.4674 38.5748 13.8721 0.0000 0.0000 0.0000
# 3 49.8680 13.8721 150.5095 0.0000 0.0000 0.0000
# 4 0.0000 0.0000 0.0000 25.8966 0.0000 0.0000
# 5 0.0000 0.0000 0.0000 0.0000 28.2567 0.0000
# 6 0.0000 0.0000 0.0000 0.0000 0.0000 33.1409
#
#
#
# Elastic Compliance Matrix: (Units=1/GPa)
#
#
# Indices 1 2 3 4 5 6 
#
# 1 0.010083 -0.008076 -0.002596 0.000000 0.000000 0.000000
# 2 -0.008076 0.033280 -0.000392 0.000000 0.000000 0.000000
# 3 -0.002596 -0.000392 0.007540 0.000000 0.000000 0.000000
# 4 0.000000 0.000000 0.000000 0.038615 0.000000 0.000000
# 5 0.000000 0.000000 0.000000 0.000000 0.035390 0.000000
# 6 0.000000 0.000000 0.000000 0.000000 0.000000 0.030174
#
#
# Mechanical properties :
#
#
# Convention : Reuss Voigt Hill
#
# Bulk Modulus (GPa) = 34.75092 58.34701 46.54896
# Shear Modulus (GPa) = 26.76622 32.82555 29.79588
#
# Velocity S-wave (km/s) = 3.47553 3.84887 3.66695
# Velocity P-wave (km/s) = 5.63812 6.78845 6.23985
#
# Compressibility (1/GPa) = 0.02877622
#
# Stress axis : x y z
#
# Youngs Moduli (GPa) = 99.17688 30.04778 132.61757
#
# Poissons Ratio (x) = 0.24266 0.34434
# Poissons Ratio (y) = 0.80092 0.05194
# Poissons Ratio (z) = 0.25751 0.01177
#
# Static dielectric constant tensor:
#      x y z
#    x 4.785140 0.000000 0.000000 
#    y 0.000000 3.476790 0.000000 
#    z 0.000000 0.000000 4.214730 
# 
# 
# High freq. dielectric constant tensor:
#      x y z
#    x 1.883580 0.000000 0.000000 
#    y 0.000000 1.823040 0.000000 
#    z 0.000000 0.000000 1.883720 
# 
# From -- ./inp_files/3851.got.cif
#   From: 2010.03.12/outbox.cif.g09.slc.cpg/sg36_2_cif.got.tgz:3851.got - 2010.04.14 02:13:53.
