data_PCOD8174267
_publ_section_title
;
Structure prediction by ZEFSAII (Michael W. Deem and Ramdas Pophale) SiO2 
 PCOD8174267
Probable space group: C M C 21
;
_chemical_formula_sum "Si O2"
_cell_formula_units_Z 48
_cell_length_a 7.603706
_cell_length_b 18.108815
_cell_length_c 18.636546
_cell_angle_alpha 90.000000
_cell_angle_beta 90.000000
_cell_angle_gamma 90.000000
_cell_volume 2566.142527
_symmetry_space_group_name_H-M "C M C 21"
_symmetry_group_IT_number 36
_symmetry_cell_setting 'orthorhombic'
loop_
_space_group_symop_operation_xyz
x,y,z
-x,-y,1/2+z
x,-y,1/2+z
-x,y,z
1/2+x,1/2+y,z
1/2-x,1/2-y,1/2+z
1/2+x,1/2-y,1/2+z
1/2-x,1/2+y,z
loop_
_atom_site_type_symbol
_atom_site_label
_atom_site_fract_x
_atom_site_fract_y
_atom_site_fract_z
Si Si1 0.799862 0.163978 0.638000
Si Si2 0.000000 0.560222 0.935601
Si Si3 0.500000 0.190644 0.740611
Si Si4 0.700605 0.754618 0.998866
Si Si5 0.801247 0.003124 0.178948
Si Si6 0.500000 0.769823 0.395422
Si Si7 0.300017 0.587820 0.037729
Si Si8 0.000000 0.479638 0.280902
O O1 0.673723 0.207169 0.693520
O O2 0.748786 0.183971 0.557079
O O3 0.770547 0.076687 0.643732
O O4 0.000000 0.186631 0.655593
O O5 0.000000 0.643532 0.908919
O O6 0.000000 0.506160 0.866515
O O7 0.825925 0.544650 0.982483
O O8 0.500000 0.244557 0.809774
O O9 0.500000 0.106901 0.766133
O O10 0.500000 0.763291 0.972913
O O11 0.734551 0.675086 0.034799
O O12 0.825129 0.765979 0.929894
O O13 0.673486 0.016278 0.246346
O O14 0.000000 0.011507 0.207438
O O15 0.757085 0.063493 0.118590
O O16 0.500000 0.567443 0.016738
#
# Coordination Sequence:
#
# PCOD8174267 Si02
#       8
#     8   4   4   8   8   4   8   4
#     4  10  18  30  50  74  94 124 160 196 236 281
#     4   9  17  29  47  71  97 122 151 195 240 278
#     4   9  18  31  47  71  99 122 155 201 243 280
#     4  10  18  30  50  74  94 124 160 196 236 281
#     4   9  18  31  48  72  94 122 158 193 233 276
#     4   9  18  31  47  71  99 122 155 201 243 280
#     4   9  18  31  48  72  94 122 158 193 233 276
#     4   9  17  29  47  71  97 122 151 195 240 278
#
# _framework density 18.705120000000001
#
# number of rings (size 3 to 8) (size 9 to 14) (size 15 to 20)
#    0.000    2.667    1.667    0.500    0.000    1.333 
#    0.000    6.667    0.000    2.000    0.000    0.000 
#    0.000    0.000    0.000    0.000    0.000    0.000 
#
# Total GULP energy -297585.277282 kJ/mol
# GULP energy per Si atom -12399.386553 kJ/mol
# Density = 1.866255 g / cm^3
# Si number density = 18.705120 Si / 1000 Ang^3
#
#
#
# Elastic Constant Matrix: (Units=GPa)
#
#
# Indices 1 2 3 4 5 6 
#
# 1 119.3136 4.9645 17.7310 0.0000 0.0000 0.0000
# 2 4.9645 12.2791 -7.7437 0.0000 0.0000 0.0000
# 3 17.7310 -7.7437 31.3926 0.0000 0.0000 0.0000
# 4 0.0000 0.0000 0.0000 20.7613 0.0000 0.0000
# 5 0.0000 0.0000 0.0000 0.0000 31.2676 0.0000
# 6 0.0000 0.0000 0.0000 0.0000 0.0000 16.5126
#
#
#
# Elastic Compliance Matrix: (Units=1/GPa)
#
#
# Indices 1 2 3 4 5 6 
#
# 1 0.009912 -0.008927 -0.007800 0.000000 0.000000 0.000000
# 2 -0.008927 0.104482 0.030815 0.000000 0.000000 0.000000
# 3 -0.007800 0.030815 0.043861 0.000000 0.000000 0.000000
# 4 0.000000 0.000000 0.000000 0.048167 0.000000 0.000000
# 5 0.000000 0.000000 0.000000 0.000000 0.031982 0.000000
# 6 0.000000 0.000000 0.000000 0.000000 0.000000 0.060560
#
#
# Mechanical properties :
#
#
# Convention : Reuss Voigt Hill
#
# Bulk Modulus (GPa) = 5.36394 21.43210 13.39802
# Shear Modulus (GPa) = 15.01809 23.57718 19.29764
#
# Velocity S-wave (km/s) = 2.83660 3.55416 3.21546
# Velocity P-wave (km/s) = 3.68812 5.32217 4.57863
#
# Compressibility (1/GPa) = 0.18643028
#
# Stress axis : x y z
#
# Youngs Moduli (GPa) = 100.88879 9.57105 22.79905
#
# Poissons Ratio (x) = 0.08544 0.17784
# Poissons Ratio (y) = 0.90061 -0.70254
# Poissons Ratio (z) = 0.78697 -0.29493
#
# Static dielectric constant tensor:
#      x y z
#    x 3.731830 0.000000 0.000000 
#    y 0.000000 3.060450 0.000000 
#    z 0.000000 0.000000 3.522920 
# 
# 
# High freq. dielectric constant tensor:
#      x y z
#    x 1.745130 0.000000 0.000000 
#    y 0.000000 1.683630 0.000000 
#    z 0.000000 0.000000 1.714850 
# 
# From -- ./inp_files/10497.got.cif
#   From: 2010.03.12/outbox.cif.g09.slc.cpg/sg36_6_cif.got.tgz:10497.got - 2010.04.14 02:13:53.
