data_PCOD8174956
_publ_section_title
;
Structure prediction by ZEFSAII (Michael W. Deem and Ramdas Pophale) SiO2 
 PCOD8174956
Probable space group: C M C 21
;
_chemical_formula_sum "Si O2"
_cell_formula_units_Z 64
_cell_length_a 9.071762
_cell_length_b 30.318752
_cell_length_c 12.094085
_cell_angle_alpha 90.000000
_cell_angle_beta 90.000000
_cell_angle_gamma 90.000000
_cell_volume 3326.411589
_symmetry_space_group_name_H-M "C M C 21"
_symmetry_group_IT_number 36
_symmetry_cell_setting 'orthorhombic'
loop_
_space_group_symop_operation_xyz
x,y,z
-x,-y,1/2+z
x,-y,1/2+z
-x,y,z
1/2+x,1/2+y,z
1/2-x,1/2-y,1/2+z
1/2+x,1/2-y,1/2+z
1/2-x,1/2+y,z
loop_
_atom_site_type_symbol
_atom_site_label
_atom_site_fract_x
_atom_site_fract_y
_atom_site_fract_z
Si Si1 0.825998 0.621053 0.137690
Si Si2 0.673982 0.557037 0.731382
Si Si3 0.827336 0.801547 0.235341
Si Si4 0.173971 0.955705 0.767486
Si Si5 0.171223 0.702585 0.284636
Si Si6 0.174179 0.627866 0.881239
Si Si7 0.664928 0.577583 0.493419
Si Si8 0.335410 0.321955 0.993503
O O1 0.750841 0.576259 0.179663
O O2 0.765855 0.663551 0.206382
O O3 0.000000 0.615949 0.152488
O O4 0.783178 0.627902 0.010132
O O5 0.500000 0.567320 0.741513
O O6 0.710799 0.505771 0.739966
O O7 0.755674 0.584550 0.825785
O O8 0.742022 0.571217 0.612213
O O9 0.792421 0.749738 0.232147
O O10 0.737843 0.827123 0.329563
O O11 0.771172 0.819059 0.117002
O O12 0.000000 0.811486 0.253667
O O13 0.000000 0.945690 0.764850
O O14 0.239854 0.948134 0.891255
O O15 0.239274 0.704626 0.406552
O O16 0.000000 0.694859 0.300278
O O17 0.000000 0.626820 0.863456
O O18 0.500000 0.558955 0.508991
O O19 0.665133 0.627826 0.455301
O O20 0.500000 0.301865 0.992444
#
# Coordination Sequence:
#
# PCOD8174956 Si02
#       8
#     8   8   8   8   8   8   8   8
#     4  10  23  41  57  80 120 159 188 232 291 344
#     4  10  21  38  61  86 117 152 189 238 289 337
#     4  10  22  40  61  84 114 154 194 236 288 343
#     4  10  21  36  61  90 113 148 195 237 280 337
#     4  10  22  39  59  84 114 151 193 235 288 344
#     4  11  24  40  59  84 118 156 194 236 288 346
#     4   9  17  34  56  84 113 142 186 235 283 330
#     4  10  19  36  62  84 111 148 189 239 289 335
#
# _framework density 19.239951999999999
#
# number of rings (size 3 to 8) (size 9 to 14) (size 15 to 20)
#    0.000    2.000    2.500    0.375    3.500    2.500 
#    0.000    0.625    0.000    0.000    0.000    0.000 
#    0.000    0.000    0.000    0.000    0.000    0.000 
#
# Total GULP energy -396762.333501 kJ/mol
# GULP energy per Si atom -12398.822922 kJ/mol
# Density = 1.919616 g / cm^3
# Si number density = 19.239952 Si / 1000 Ang^3
#
#
#
# Elastic Constant Matrix: (Units=GPa)
#
#
# Indices 1 2 3 4 5 6 
#
# 1 45.9341 40.4514 44.6461 0.0000 0.0000 0.0000
# 2 40.4514 107.1958 51.4667 0.0000 0.0000 0.0000
# 3 44.6461 51.4667 143.1841 0.0000 0.0000 0.0000
# 4 0.0000 0.0000 0.0000 30.5496 0.0000 0.0000
# 5 0.0000 0.0000 0.0000 0.0000 30.9231 0.0000
# 6 0.0000 0.0000 0.0000 0.0000 0.0000 26.9895
#
#
#
# Elastic Compliance Matrix: (Units=1/GPa)
#
#
# Indices 1 2 3 4 5 6 
#
# 1 0.039528 -0.010876 -0.008416 0.000000 0.000000 0.000000
# 2 -0.010876 0.014267 -0.001737 0.000000 0.000000 0.000000
# 3 -0.008416 -0.001737 0.010233 0.000000 0.000000 0.000000
# 4 0.000000 0.000000 0.000000 0.032734 0.000000 0.000000
# 5 0.000000 0.000000 0.000000 0.000000 0.032338 0.000000
# 6 0.000000 0.000000 0.000000 0.000000 0.000000 0.037051
#
#
# Mechanical properties :
#
#
# Convention : Reuss Voigt Hill
#
# Bulk Modulus (GPa) = 45.51659 63.27138 54.39398
# Shear Modulus (GPa) = 23.19855 28.34241 25.77048
#
# Velocity S-wave (km/s) = 3.47616 3.84226 3.66379
# Velocity P-wave (km/s) = 6.31033 7.25540 6.79930
#
# Compressibility (1/GPa) = 0.02197001
#
# Stress axis : x y z
#
# Youngs Moduli (GPa) = 25.29869 70.09349 97.72736
#
# Poissons Ratio (x) = 0.76230 0.82247
# Poissons Ratio (y) = 0.27514 0.16975
# Poissons Ratio (z) = 0.21291 0.12175
#
# Static dielectric constant tensor:
#      x y z
#    x 3.305640 0.000000 0.000000 
#    y 0.000000 3.528310 0.000000 
#    z 0.000000 0.000000 3.692530 
# 
# 
# High freq. dielectric constant tensor:
#      x y z
#    x 1.719360 0.000000 0.000000 
#    y 0.000000 1.756070 0.000000 
#    z 0.000000 0.000000 1.764730 
# 
# From -- ./inp_files/7165.got.cif
#   From: 2010.03.12/outbox.cif.g09.slc.cpg/sg36_4_cif.got.tgz:7165.got - 2010.04.14 02:13:53.
