data_PCOD8174041
_publ_section_title
;
Structure prediction by ZEFSAII (Michael W. Deem and Ramdas Pophale) SiO2 
 PCOD8174041
Probable space group: C M M 2
;
_chemical_formula_sum "Si O2"
_cell_formula_units_Z 48
_cell_length_a 9.940590
_cell_length_b 17.783221
_cell_length_c 13.647692
_cell_angle_alpha 90.000000
_cell_angle_beta 90.000000
_cell_angle_gamma 90.000000
_cell_volume 2412.580427
_symmetry_space_group_name_H-M "C M M 2"
_symmetry_group_IT_number 35
_symmetry_cell_setting 'orthorhombic'
loop_
_space_group_symop_operation_xyz
x,y,z
-x,-y,z
-x,y,z
x,-y,z
1/2+x,1/2+y,z
1/2-x,1/2-y,z
1/2-x,1/2+y,z
1/2+x,1/2-y,z
loop_
_atom_site_type_symbol
_atom_site_label
_atom_site_fract_x
_atom_site_fract_y
_atom_site_fract_z
Si Si1 0.267575 0.163222 0.297180
Si Si2 0.242407 0.835555 0.720609
Si Si3 0.345389 0.087138 0.899212
Si Si4 0.152768 0.679959 0.091544
Si Si5 0.000000 0.911094 0.375599
Si Si6 0.500000 0.325750 0.571754
Si Si7 0.000000 0.333324 0.452102
Si Si8 0.000000 0.412986 0.635705
O O1 0.250000 0.250000 0.274982
O O2 0.323104 0.133081 0.192972
O O3 0.129863 0.122159 0.322324
O O4 0.368230 0.157888 0.387385
O O5 0.250000 0.750000 0.754377
O O6 0.233872 0.881971 0.822122
O O7 0.372488 0.866345 0.667948
O O8 0.124906 0.842205 0.641848
O O9 0.500000 0.103128 0.862120
O O10 0.319334 0.000000 0.910792
O O11 0.319368 0.122484 0.004346
O O12 0.250000 0.750000 0.076558
O O13 0.000000 0.710061 0.089593
O O14 0.000000 0.889377 0.489309
O O15 0.000000 0.000000 0.365423
O O16 0.500000 0.243986 0.517572
O O17 0.000000 0.407889 0.518350
O O18 0.000000 0.500000 0.671487
#
# Coordination Sequence:
#
# PCOD8174041 Si02
#       8
#     8   8   8   8   4   4   4   4
#     4  11  22  41  71  97 134 180 232 280 337 419
#     4  12  23  42  68  99 129 178 229 282 337 407
#     4  10  22  43  68  95 136 180 223 282 348 409
#     4  10  22  41  69 104 130 173 229 286 338 408
#     4  12  28  44  65 101 145 181 220 292 358 398
#     4  12  26  42  65 101 138 177 232 287 349 398
#     4  12  22  42  67 101 130 181 234 281 339 404
#     4  12  26  42  65  97 133 173 226 278 340 408
#
# _framework density 19.895710999999999
#
# number of rings (size 3 to 8) (size 9 to 14) (size 15 to 20)
#    0.000    0.833    5.000    2.000    3.500    4.000 
#    1.500    0.000    0.000    0.000    0.000    0.000 
#    0.000    0.000    0.000    0.000    0.000    0.000 
#
# Total GULP energy -297449.817137 kJ/mol
# GULP energy per Si atom -12393.742381 kJ/mol
# Density = 1.985043 g / cm^3
# Si number density = 19.895711 Si / 1000 Ang^3
#
#
#
# Elastic Constant Matrix: (Units=GPa)
#
#
# Indices 1 2 3 4 5 6 
#
# 1 143.8796 64.9749 75.5729 0.0000 0.0000 0.0000
# 2 64.9749 134.1913 66.0858 0.0000 0.0000 0.0000
# 3 75.5729 66.0858 166.5685 0.0000 0.0000 0.0000
# 4 0.0000 0.0000 0.0000 33.4119 0.0000 0.0000
# 5 0.0000 0.0000 0.0000 0.0000 38.3046 0.0000
# 6 0.0000 0.0000 0.0000 0.0000 0.0000 21.0105
#
#
#
# Elastic Compliance Matrix: (Units=1/GPa)
#
#
# Indices 1 2 3 4 5 6 
#
# 1 0.010178 -0.003298 -0.003309 0.000000 0.000000 0.000000
# 2 -0.003298 0.010331 -0.002602 0.000000 0.000000 0.000000
# 3 -0.003309 -0.002602 0.008537 0.000000 0.000000 0.000000
# 4 0.000000 0.000000 0.000000 0.029929 0.000000 0.000000
# 5 0.000000 0.000000 0.000000 0.000000 0.026107 0.000000
# 6 0.000000 0.000000 0.000000 0.000000 0.000000 0.047595
#
#
# Mechanical properties :
#
#
# Convention : Reuss Voigt Hill
#
# Bulk Modulus (GPa) = 94.10498 95.32297 94.71398
# Shear Modulus (GPa) = 32.33346 34.41246 33.37296
#
# Velocity S-wave (km/s) = 4.03569 4.16341 4.10004
# Velocity P-wave (km/s) = 8.31369 8.43370 8.37391
#
# Compressibility (1/GPa) = 0.01062643
#
# Stress axis : x y z
#
# Youngs Moduli (GPa) = 98.25176 96.79949 117.13314
#
# Poissons Ratio (x) = 0.31929 0.38761
# Poissons Ratio (y) = 0.32408 0.30480
# Poissons Ratio (z) = 0.32513 0.25189
#
# Static dielectric constant tensor:
#      x y z
#    x 4.125490 0.000000 0.000000 
#    y 0.000000 3.513750 0.000000 
#    z 0.000000 0.000000 4.156990 
# 
# 
# High freq. dielectric constant tensor:
#      x y z
#    x 1.776450 0.000000 0.000000 
#    y 0.000000 1.763560 0.000000 
#    z 0.000000 0.000000 1.806280 
# 
# From -- ./inp_files/15305.got.cif
#   From: 2010.03.12/outbox.cif.g09.slc.cpg/sg35_8_cif.got.tgz:15305.got - 2010.04.14 02:02:04.
