data_PCOD8174033
_publ_section_title
;
Structure prediction by ZEFSAII (Michael W. Deem and Ramdas Pophale) SiO2 
 PCOD8174033
Probable space group: C M M 2
;
_chemical_formula_sum "Si O2"
_cell_formula_units_Z 48
_cell_length_a 17.269708
_cell_length_b 10.106760
_cell_length_c 14.021062
_cell_angle_alpha 90.000000
_cell_angle_beta 90.000000
_cell_angle_gamma 90.000000
_cell_volume 2447.247295
_symmetry_space_group_name_H-M "C M M 2"
_symmetry_group_IT_number 35
_symmetry_cell_setting 'orthorhombic'
loop_
_space_group_symop_operation_xyz
x,y,z
-x,-y,z
-x,y,z
x,-y,z
1/2+x,1/2+y,z
1/2-x,1/2-y,z
1/2-x,1/2+y,z
1/2+x,1/2-y,z
loop_
_atom_site_type_symbol
_atom_site_label
_atom_site_fract_x
_atom_site_fract_y
_atom_site_fract_z
Si Si1 0.657998 0.737564 0.494550
Si Si2 0.908626 0.500000 0.580721
Si Si3 0.656414 0.000000 0.793930
Si Si4 0.091000 0.750354 0.903703
Si Si5 0.590463 0.500000 0.608522
Si Si6 0.339014 0.500000 0.809678
Si Si7 0.411009 0.351809 0.103766
Si Si8 0.677663 0.655203 0.292243
O O1 0.750000 0.750000 0.501319
O O2 0.618487 0.875116 0.519971
O O3 0.630521 0.630759 0.569978
O O4 0.631078 0.689364 0.389348
O O5 0.874270 0.500000 0.686655
O O6 0.000000 0.500000 0.590897
O O7 0.624730 0.877109 0.853078
O O8 0.748559 0.000000 0.784515
O O9 0.141509 0.871817 0.869451
O O10 0.000000 0.767553 0.879837
O O11 0.104311 0.747454 0.018266
O O12 0.500000 0.500000 0.584395
O O13 0.604431 0.500000 0.720143
O O14 0.500000 0.355923 0.130384
O O15 0.383477 0.500000 0.073749
O O16 0.370108 0.303691 0.199574
O O17 0.700710 0.500000 0.292105
O O18 0.750000 0.750000 0.290640
#
# Coordination Sequence:
#
# PCOD8174033 Si02
#       8
#     8   4   4   8   4   4   8   8
#     4  11  23  42  65  91 125 166 208 257 317 372
#     4  12  26  44  63  90 129 170 207 260 324 380
#     4  12  26  42  63  92 131 166 209 260 328 372
#     4  11  22  42  65  91 125 168 212 259 315 373
#     4  12  24  40  63  94 121 158 215 266 304 372
#     4  12  24  40  63  92 121 164 213 262 310 378
#     4   9  19  39  65  92 123 164 209 257 309 365
#     4  10  22  40  66  95 128 165 206 255 313 371
#
# _framework density 19.613873000000002
#
# number of rings (size 3 to 8) (size 9 to 14) (size 15 to 20)
#    0.000    1.167    1.667    5.000    3.500    2.667 
#    1.500    0.000    0.000    0.000    0.000    0.000 
#    0.000    0.000    0.000    0.000    0.000    0.000 
#
# Total GULP energy -297579.790546 kJ/mol
# GULP energy per Si atom -12399.157939 kJ/mol
# Density = 1.956923 g / cm^3
# Si number density = 19.613873 Si / 1000 Ang^3
#
#
#
# Elastic Constant Matrix: (Units=GPa)
#
#
# Indices 1 2 3 4 5 6 
#
# 1 98.2931 41.1277 36.8236 0.0000 0.0000 0.0000
# 2 41.1277 132.9286 51.0340 0.0000 0.0000 0.0000
# 3 36.8236 51.0340 125.9273 0.0000 0.0000 0.0000
# 4 0.0000 0.0000 0.0000 33.2400 0.0000 0.0000
# 5 0.0000 0.0000 0.0000 0.0000 33.1987 0.0000
# 6 0.0000 0.0000 0.0000 0.0000 0.0000 -214.4405
#
#
#
# Elastic Compliance Matrix: (Units=1/GPa)
#
#
# Indices 1 2 3 4 5 6 
#
# 1 0.012284 -0.002868 -0.002430 0.000000 0.000000 0.000000
# 2 -0.002868 0.009578 -0.003043 0.000000 0.000000 0.000000
# 3 -0.002430 -0.003043 0.009885 0.000000 0.000000 0.000000
# 4 0.000000 0.000000 0.000000 0.030084 0.000000 0.000000
# 5 0.000000 0.000000 0.000000 0.000000 0.030122 0.000000
# 6 0.000000 0.000000 0.000000 0.000000 0.000000 -0.004663
#
#
# Mechanical properties :
#
#
# Convention : Reuss Voigt Hill
#
# Bulk Modulus (GPa) = 66.37620 68.34662 67.36141
# Shear Modulus (GPa) = 45.87434 -14.38945 15.74245
#
# Velocity S-wave (km/s) = 4.84144 -2.71151 2.83612
# Velocity P-wave (km/s) = 8.07264 5.01185 6.71886
#
# Compressibility (1/GPa) = 0.01506564
#
# Stress axis : x y z
#
# Youngs Moduli (GPa) = 81.40759 104.40093 101.16389
#
# Poissons Ratio (x) = 0.29939 0.24581
# Poissons Ratio (y) = 0.23345 0.30787
# Poissons Ratio (z) = 0.19781 0.31772
#
# Static dielectric constant tensor:
#      x y z
#    x 3.617700 0.000000 0.000000 
#    y 0.000000 3.626550 0.000000 
#    z 0.000000 0.000000 3.959880 
# 
# 
# High freq. dielectric constant tensor:
#      x y z
#    x 1.765380 0.000000 0.000000 
#    y 0.000000 1.770530 0.000000 
#    z 0.000000 0.000000 1.784520 
# 
# From -- ./inp_files/17152.got.cif
#   From: 2010.03.12/outbox.cif.g09.slc.cpg/sg35_9_cif.got.tgz:17152.got - 2010.04.14 02:02:04.
