data_PCOD8174114
_publ_section_title
;
Structure prediction by ZEFSAII (Michael W. Deem and Ramdas Pophale) SiO2 
 PCOD8174114
Probable space group: C M M 2
;
_chemical_formula_sum "Si O2"
_cell_formula_units_Z 48
_cell_length_a 15.705553
_cell_length_b 8.649248
_cell_length_c 17.062611
_cell_angle_alpha 90.000000
_cell_angle_beta 90.000000
_cell_angle_gamma 90.000000
_cell_volume 2317.805944
_symmetry_space_group_name_H-M "C M M 2"
_symmetry_group_IT_number 35
_symmetry_cell_setting 'orthorhombic'
loop_
_space_group_symop_operation_xyz
x,y,z
-x,-y,z
-x,y,z
x,-y,z
1/2+x,1/2+y,z
1/2-x,1/2-y,z
1/2-x,1/2+y,z
1/2+x,1/2-y,z
loop_
_atom_site_type_symbol
_atom_site_label
_atom_site_fract_x
_atom_site_fract_y
_atom_site_fract_z
Si Si1 0.655973 0.816948 0.139000
Si Si2 0.902201 0.669082 0.449844
Si Si3 0.500000 0.323027 0.863331
Si Si4 0.660114 0.319952 0.302158
Si Si5 0.000000 0.177054 0.048484
Si Si6 0.161703 0.317068 0.780110
Si Si7 0.405281 0.183794 0.617461
O O1 0.750000 0.750000 0.120503
O O2 0.624204 0.765425 0.225327
O O3 0.586049 0.758491 0.078128
O O4 0.661850 0.000000 0.135011
O O5 0.862386 0.500000 0.427256
O O6 0.896452 0.789622 0.378671
O O7 0.864074 0.733893 0.532753
O O8 0.000000 0.643607 0.469920
O O9 0.500000 0.500000 0.835836
O O10 0.415729 0.240733 0.832576
O O11 0.500000 0.308700 0.956174
O O12 0.665332 0.500000 0.282943
O O13 0.750000 0.250000 0.325584
O O14 0.000000 0.000000 0.077236
O O15 0.164006 0.500000 0.785670
O O16 0.250000 0.250000 0.813613
O O17 0.151193 0.257218 0.690307
O O18 0.500000 0.253898 0.629236
O O19 0.410180 0.000000 0.619246
#
# Coordination Sequence:
#
# PCOD8174114 Si02
#       7
#     8   8   4   8   4   8   8
#     4  11  23  42  67  95 127 163 206 253 307 366
#     4   9  18  33  55  82 116 156 202 249 300 356
#     4  11  25  45  67  94 127 160 201 253 308 367
#     4  11  22  37  56  80 117 158 202 251 302 354
#     4  11  25  45  69  96 125 160 201 249 308 373
#     4  11  22  39  65  94 127 165 208 253 308 369
#     4   8  15  32  57  83 115 159 204 254 308 358
#
# _framework density 20.709239
#
# number of rings (size 3 to 8) (size 9 to 14) (size 15 to 20)
#    0.000    1.833    0.833    6.000    1.167    3.000 
#    0.000    3.333    0.000    0.000    0.000    0.000 
#    0.000    0.000    0.000    0.000    0.000    0.000 
#
# Total GULP energy -297487.020440 kJ/mol
# GULP energy per Si atom -12395.292518 kJ/mol
# Density = 2.066210 g / cm^3
# Si number density = 20.709239 Si / 1000 Ang^3
#
#
#
# Elastic Constant Matrix: (Units=GPa)
#
#
# Indices 1 2 3 4 5 6 
#
# 1 112.5436 48.7034 49.8112 0.0000 0.0000 0.0000
# 2 48.7034 137.8289 50.5205 0.0000 0.0000 0.0000
# 3 49.8112 50.5205 105.1153 0.0000 0.0000 0.0000
# 4 0.0000 0.0000 0.0000 27.4233 0.0000 0.0000
# 5 0.0000 0.0000 0.0000 0.0000 13.1031 0.0000
# 6 0.0000 0.0000 0.0000 0.0000 0.0000 30.2302
#
#
#
# Elastic Compliance Matrix: (Units=1/GPa)
#
#
# Indices 1 2 3 4 5 6 
#
# 1 0.011970 -0.002611 -0.004418 0.000000 0.000000 0.000000
# 2 -0.002611 0.009376 -0.003269 0.000000 0.000000 0.000000
# 3 -0.004418 -0.003269 0.013178 0.000000 0.000000 0.000000
# 4 0.000000 0.000000 0.000000 0.036465 0.000000 0.000000
# 5 0.000000 0.000000 0.000000 0.000000 0.076318 0.000000
# 6 0.000000 0.000000 0.000000 0.000000 0.000000 0.033080
#
#
# Mechanical properties :
#
#
# Convention : Reuss Voigt Hill
#
# Bulk Modulus (GPa) = 71.79028 72.61753 72.20390
# Shear Modulus (GPa) = 24.31603 27.91484 26.11543
#
# Velocity S-wave (km/s) = 3.43032 3.67542 3.55498
# Velocity P-wave (km/s) = 7.10145 7.29061 7.19665
#
# Compressibility (1/GPa) = 0.01392946
#
# Stress axis : x y z
#
# Youngs Moduli (GPa) = 83.53901 106.65305 75.88341
#
# Poissons Ratio (x) = 0.27843 0.33523
# Poissons Ratio (y) = 0.21809 0.24809
# Poissons Ratio (z) = 0.36906 0.34868
#
# Static dielectric constant tensor:
#      x y z
#    x 3.655720 0.000000 0.000000 
#    y 0.000000 3.689540 0.000000 
#    z 0.000000 0.000000 3.929230 
# 
# 
# High freq. dielectric constant tensor:
#      x y z
#    x 1.802630 0.000000 0.000000 
#    y 0.000000 1.801710 0.000000 
#    z 0.000000 0.000000 1.819270 
# 
# From -- ./inp_files/18771.got.cif
#   From: 2010.03.12/outbox.cif.g09.slc.cpg/sg35_10_cif.got.tgz:18771.got - 2010.04.14 02:02:04.
