data_PCOD8174832
_publ_section_title
;
Structure prediction by ZEFSAII (Michael W. Deem and Ramdas Pophale) SiO2 
 PCOD8174832
Probable space group: C M C 21
;
_chemical_formula_sum "Si O2"
_cell_formula_units_Z 64
_cell_length_a 9.007754
_cell_length_b 25.126015
_cell_length_c 14.460507
_cell_angle_alpha 90.000000
_cell_angle_beta 90.000000
_cell_angle_gamma 90.000000
_cell_volume 3272.831541
_symmetry_space_group_name_H-M "C M C 21"
_symmetry_group_IT_number 36
_symmetry_cell_setting 'orthorhombic'
loop_
_space_group_symop_operation_xyz
x,y,z
-x,-y,1/2+z
x,-y,1/2+z
-x,y,z
1/2+x,1/2+y,z
1/2-x,1/2-y,1/2+z
1/2+x,1/2-y,1/2+z
1/2-x,1/2+y,z
loop_
_atom_site_type_symbol
_atom_site_label
_atom_site_fract_x
_atom_site_fract_y
_atom_site_fract_z
Si Si1 0.176350 0.803749 0.182150
Si Si2 0.677276 0.569275 0.991007
Si Si3 0.323902 0.200920 0.294759
Si Si4 0.671584 0.107334 0.160961
Si Si5 0.322687 0.664259 0.480002
Si Si6 0.327537 0.597256 0.792180
Si Si7 0.336552 0.518665 0.251961
Si Si8 0.664627 0.454341 0.966380
O O1 0.233288 0.751918 0.236945
O O2 0.226398 0.805684 0.074447
O O3 0.246355 0.854480 0.235517
O O4 0.000000 0.805641 0.183666
O O5 0.500000 0.568242 0.987387
O O6 0.736600 0.611143 0.066072
O O7 0.743432 0.590559 0.893952
O O8 0.735150 0.508100 0.012696
O O9 0.500000 0.202198 0.309984
O O10 0.272587 0.151143 0.233103
O O11 0.247004 0.197036 0.394750
O O12 0.500000 0.114438 0.137864
O O13 0.704004 0.049934 0.204036
O O14 0.500000 0.663317 0.466570
O O15 0.257030 0.603170 0.483032
O O16 0.500000 0.609699 0.805004
O O17 0.303915 0.543372 0.733954
O O18 0.500000 0.533500 0.210174
O O19 0.339585 0.532029 0.359057
O O20 0.500000 0.447481 0.007190
#
# Coordination Sequence:
#
# PCOD8174832 Si02
#       8
#     8   8   8   8   8   8   8   8
#     4   9  19  35  57  82 106 138 181 225 271 318
#     4   9  18  32  53  81 110 139 175 222 271 318
#     4  10  22  39  54  74 112 152 182 217 264 320
#     4  11  22  33  47  74 111 151 183 209 256 320
#     4  10  19  34  59  85 104 133 181 231 271 316
#     4   8  16  32  55  82 106 131 171 225 277 317
#     4   9  16  30  54  79 104 132 170 224 272 314
#     4   8  15  29  51  81 107 128 167 223 274 311
#
# _framework density 19.554931
#
# number of rings (size 3 to 8) (size 9 to 14) (size 15 to 20)
#    0.000    2.750    1.250    1.875    1.750    1.500 
#    0.000    3.750    0.000    1.500    0.000    0.000 
#    0.000    0.000    0.000    0.000    0.000    0.000 
#
# Total GULP energy -396489.080579 kJ/mol
# GULP energy per Si atom -12390.283768 kJ/mol
# Density = 1.951042 g / cm^3
# Si number density = 19.554931 Si / 1000 Ang^3
#
#
#
# Elastic Constant Matrix: (Units=GPa)
#
#
# Indices 1 2 3 4 5 6 
#
# 1 21.9220 25.5986 23.7022 0.0000 0.0000 0.0000
# 2 25.5986 122.2578 84.7332 0.0000 0.0000 0.0000
# 3 23.7022 84.7332 126.3297 0.0000 0.0000 0.0000
# 4 0.0000 0.0000 0.0000 31.1596 0.0000 0.0000
# 5 0.0000 0.0000 0.0000 0.0000 25.4949 0.0000
# 6 0.0000 0.0000 0.0000 0.0000 0.0000 16.1608
#
#
#
# Elastic Compliance Matrix: (Units=1/GPa)
#
#
# Indices 1 2 3 4 5 6 
#
# 1 0.062357 -0.009246 -0.005498 0.000000 0.000000 0.000000
# 2 -0.009246 0.016656 -0.009437 0.000000 0.000000 0.000000
# 3 -0.005498 -0.009437 0.015277 0.000000 0.000000 0.000000
# 4 0.000000 0.000000 0.000000 0.032093 0.000000 0.000000
# 5 0.000000 0.000000 0.000000 0.000000 0.039224 0.000000
# 6 0.000000 0.000000 0.000000 0.000000 0.000000 0.061878
#
#
# Mechanical properties :
#
#
# Convention : Reuss Voigt Hill
#
# Bulk Modulus (GPa) = 21.77301 59.84197 40.80749
# Shear Modulus (GPa) = 17.17296 23.66143 20.41720
#
# Velocity S-wave (km/s) = 2.96664 3.48228 3.23475
# Velocity P-wave (km/s) = 4.78467 6.84374 5.90465
#
# Compressibility (1/GPa) = 0.04592841
#
# Stress axis : x y z
#
# Youngs Moduli (GPa) = 16.03657 60.03946 65.45850
#
# Poissons Ratio (x) = 0.55513 0.35989
# Poissons Ratio (y) = 0.14827 0.61771
# Poissons Ratio (z) = 0.08817 0.56658
#
# Static dielectric constant tensor:
#      x y z
#    x 3.009210 0.000000 0.000000 
#    y 0.000000 3.838560 0.000000 
#    z 0.000000 0.000000 3.734870 
# 
# 
# High freq. dielectric constant tensor:
#      x y z
#    x 1.698530 0.000000 0.000000 
#    y 0.000000 1.763020 0.000000 
#    z 0.000000 0.000000 1.774630 
# 
# From -- ./inp_files/11056.got.cif
#   From: 2010.03.12/outbox.cif.g09.slc.cpg/sg36_6_cif.got.tgz:11056.got - 2010.04.14 02:13:53.
