data_PCOD8174780
_publ_section_title
;
Structure prediction by ZEFSAII (Michael W. Deem and Ramdas Pophale) SiO2 
 PCOD8174780
Probable space group: C M C 21
;
_chemical_formula_sum "Si O2"
_cell_formula_units_Z 64
_cell_length_a 8.636743
_cell_length_b 20.029070
_cell_length_c 19.735595
_cell_angle_alpha 90.000000
_cell_angle_beta 90.000000
_cell_angle_gamma 90.000000
_cell_volume 3413.980258
_symmetry_space_group_name_H-M "C M C 21"
_symmetry_group_IT_number 36
_symmetry_cell_setting 'orthorhombic'
loop_
_space_group_symop_operation_xyz
x,y,z
-x,-y,1/2+z
x,-y,1/2+z
-x,y,z
1/2+x,1/2+y,z
1/2-x,1/2-y,1/2+z
1/2+x,1/2-y,1/2+z
1/2-x,1/2+y,z
loop_
_atom_site_type_symbol
_atom_site_label
_atom_site_fract_x
_atom_site_fract_y
_atom_site_fract_z
Si Si1 0.318291 0.525370 0.413680
Si Si2 0.681303 0.979360 0.274656
Si Si3 0.818335 0.157801 0.784344
Si Si4 0.681988 0.090664 0.167664
Si Si5 0.182455 0.685986 0.928064
Si Si6 0.318051 0.328639 0.893939
Si Si7 0.183165 0.207125 0.246284
Si Si8 0.819348 0.081906 0.023904
O O1 0.500000 0.521305 0.395769
O O2 0.222512 0.496882 0.351419
O O3 0.263100 0.601906 0.427492
O O4 0.277371 0.483514 0.480299
O O5 0.500000 0.965828 0.268923
O O6 0.771098 0.912755 0.251326
O O7 0.734589 0.039326 0.225922
O O8 0.768196 0.155743 0.862946
O O9 0.732944 0.215619 0.741795
O O10 0.000000 0.169062 0.779039
O O11 0.500000 0.090554 0.156168
O O12 0.737099 0.165047 0.186718
O O13 0.764162 0.067208 0.099279
O O14 0.232786 0.763885 0.937722
O O15 0.000000 0.679503 0.915259
O O16 0.231379 0.646604 0.994970
O O17 0.500000 0.328620 0.887104
O O18 0.252600 0.321828 0.817616
O O19 0.000000 0.201420 0.238566
O O20 0.000000 0.097444 0.022045
#
# Coordination Sequence:
#
# PCOD8174780 Si02
#       8
#     8   8   8   8   8   8   8   8
#     4  10  19  35  58  85 114 148 193 240 290 349
#     4  11  22  36  57  86 116 152 198 246 297 343
#     4  11  21  34  56  86 118 150 191 239 288 344
#     4  11  24  40  58  83 117 157 199 245 295 355
#     4  10  19  34  56  83 115 150 188 240 293 340
#     4   8  16  31  55  84 111 142 180 231 289 338
#     4  10  19  35  59  85 114 148 188 238 294 349
#     4  11  23  37  57  84 115 157 199 241 292 356
#
# _framework density 18.746445000000001
#
# number of rings (size 3 to 8) (size 9 to 14) (size 15 to 20)
#    0.000    1.750    2.500    3.750    0.000    2.000 
#    0.000    1.875    0.000    4.500    0.000    0.000 
#    0.000    0.000    0.000    0.000    0.000    0.000 
#
# Total GULP energy -396838.550673 kJ/mol
# GULP energy per Si atom -12401.204709 kJ/mol
# Density = 1.870378 g / cm^3
# Si number density = 18.746445 Si / 1000 Ang^3
#
#
#
# Elastic Constant Matrix: (Units=GPa)
#
#
# Indices 1 2 3 4 5 6 
#
# 1 48.6844 24.2215 15.2468 0.0000 0.0000 0.0000
# 2 24.2215 128.9241 32.1612 0.0000 0.0000 0.0000
# 3 15.2468 32.1612 63.0650 0.0000 0.0000 0.0000
# 4 0.0000 0.0000 0.0000 25.7661 0.0000 0.0000
# 5 0.0000 0.0000 0.0000 0.0000 28.4235 0.0000
# 6 0.0000 0.0000 0.0000 0.0000 0.0000 28.4702
#
#
#
# Elastic Compliance Matrix: (Units=1/GPa)
#
#
# Indices 1 2 3 4 5 6 
#
# 1 0.023477 -0.003431 -0.003926 0.000000 0.000000 0.000000
# 2 -0.003431 0.009389 -0.003958 0.000000 0.000000 0.000000
# 3 -0.003926 -0.003958 0.018824 0.000000 0.000000 0.000000
# 4 0.000000 0.000000 0.000000 0.038811 0.000000 0.000000
# 5 0.000000 0.000000 0.000000 0.000000 0.035182 0.000000
# 6 0.000000 0.000000 0.000000 0.000000 0.000000 0.035124
#
#
# Mechanical properties :
#
#
# Convention : Reuss Voigt Hill
#
# Bulk Modulus (GPa) = 34.41298 42.65916 38.53607
# Shear Modulus (GPa) = 25.88993 27.80156 26.84575
#
# Velocity S-wave (km/s) = 3.72029 3.85519 3.78834
# Velocity P-wave (km/s) = 6.07050 6.52855 6.30369
#
# Compressibility (1/GPa) = 0.02905880
#
# Stress axis : x y z
#
# Youngs Moduli (GPa) = 42.59451 106.51218 53.12243
#
# Poissons Ratio (x) = 0.36548 0.20856
# Poissons Ratio (y) = 0.14616 0.21028
# Poissons Ratio (z) = 0.16723 0.42161
#
# Static dielectric constant tensor:
#      x y z
#    x 3.350790 0.000000 0.000000 
#    y 0.000000 3.943760 0.000000 
#    z 0.000000 0.000000 3.170030 
# 
# 
# High freq. dielectric constant tensor:
#      x y z
#    x 1.727980 0.000000 0.000000 
#    y 0.000000 1.746400 0.000000 
#    z 0.000000 0.000000 1.694130 
# 
# From -- ./inp_files/13942.got.cif
#   From: 2010.03.12/outbox.cif.g09.slc.cpg/sg36_7_cif.got.tgz:13942.got - 2010.04.14 02:13:53.
