data_PCOD8174264
_publ_section_title
;
Structure prediction by ZEFSAII (Michael W. Deem and Ramdas Pophale) SiO2 
 PCOD8174264
Probable space group: C M C 21
;
_chemical_formula_sum "Si O2"
_cell_formula_units_Z 56
_cell_length_a 18.493112
_cell_length_b 18.990035
_cell_length_c 8.937087
_cell_angle_alpha 90.000000
_cell_angle_beta 90.000000
_cell_angle_gamma 90.000000
_cell_volume 3138.569505
_symmetry_space_group_name_H-M "C M C 21"
_symmetry_group_IT_number 36
_symmetry_cell_setting 'orthorhombic'
loop_
_space_group_symop_operation_xyz
x,y,z
-x,-y,1/2+z
x,-y,1/2+z
-x,y,z
1/2+x,1/2+y,z
1/2-x,1/2-y,1/2+z
1/2+x,1/2-y,1/2+z
1/2-x,1/2+y,z
loop_
_atom_site_type_symbol
_atom_site_label
_atom_site_fract_x
_atom_site_fract_y
_atom_site_fract_z
Si Si1 0.919040 0.327428 0.763010
Si Si2 0.916509 0.254135 0.331272
Si Si3 0.581381 0.711294 0.998826
Si Si4 0.312727 0.741510 0.568775
Si Si5 0.417475 0.975592 0.662667
Si Si6 0.355908 0.911128 0.361962
Si Si7 0.782359 0.833837 0.365847
O O1 0.908539 0.287510 0.919986
O O2 0.857285 0.304575 0.647004
O O3 0.910884 0.411517 0.782729
O O4 0.000000 0.311131 0.698598
O O5 0.870360 0.207950 0.451000
O O6 0.890136 0.334706 0.335131
O O7 0.000000 0.250145 0.373132
O O8 0.900162 0.220398 0.171515
O O9 0.500000 0.682843 0.975893
O O10 0.635372 0.653870 0.922935
O O11 0.245993 0.770740 0.472281
O O12 0.283066 0.686773 0.690154
O O13 0.500000 0.001204 0.647993
O O14 0.390801 0.949702 0.502188
O O15 0.369542 0.040953 0.716831
O O16 0.268850 0.902032 0.382462
#
# Coordination Sequence:
#
# PCOD8174264 Si02
#       7
#     8   8   8   8   8   8   8
#     4   9  17  31  50  73 101 138 175 210 252 303
#     4  10  18  32  50  75 106 136 169 209 259 316
#     4   9  19  32  53  79 102 130 166 214 271 325
#     4  10  18  30  50  70  99 137 170 210 262 311
#     4  11  21  35  50  72 103 144 186 214 243 295
#     4  11  23  34  49  71 105 147 182 214 252 295
#     4  10  19  34  49  72 102 134 174 217 266 315
#
# _framework density 17.842524000000001
#
# number of rings (size 3 to 8) (size 9 to 14) (size 15 to 20)
#    0.000    2.000    2.857    3.429    2.000    0.571 
#    0.000    0.000    0.000    0.000    0.000    1.000 
#    0.000    0.000    0.000    0.000    0.000    0.000 
#
# Total GULP energy -347014.312053 kJ/mol
# GULP energy per Si atom -12393.368288 kJ/mol
# Density = 1.780191 g / cm^3
# Si number density = 17.842524 Si / 1000 Ang^3
#
#
#
# Elastic Constant Matrix: (Units=GPa)
#
#
# Indices 1 2 3 4 5 6 
#
# 1 115.0578 31.5966 50.4153 0.0000 0.0000 0.0000
# 2 31.5966 36.5118 14.5296 0.0000 0.0000 0.0000
# 3 50.4153 14.5296 83.1006 0.0000 0.0000 0.0000
# 4 0.0000 0.0000 0.0000 20.7045 0.0000 0.0000
# 5 0.0000 0.0000 0.0000 0.0000 37.7308 0.0000
# 6 0.0000 0.0000 0.0000 0.0000 0.0000 27.6731
#
#
#
# Elastic Compliance Matrix: (Units=1/GPa)
#
#
# Indices 1 2 3 4 5 6 
#
# 1 0.014452 -0.009692 -0.007073 0.000000 0.000000 0.000000
# 2 -0.009692 0.035936 -0.000403 0.000000 0.000000 0.000000
# 3 -0.007073 -0.000403 0.016395 0.000000 0.000000 0.000000
# 4 0.000000 0.000000 0.000000 0.048299 0.000000 0.000000
# 5 0.000000 0.000000 0.000000 0.000000 0.026504 0.000000
# 6 0.000000 0.000000 0.000000 0.000000 0.000000 0.036136
#
#
# Mechanical properties :
#
#
# Convention : Reuss Voigt Hill
#
# Bulk Modulus (GPa) = 30.81984 47.52813 39.17399
# Shear Modulus (GPa) = 22.43416 26.43025 24.43221
#
# Velocity S-wave (km/s) = 3.54975 3.85295 3.70445
# Velocity P-wave (km/s) = 5.84052 6.81829 6.34826
#
# Compressibility (1/GPa) = 0.03244664
#
# Stress axis : x y z
#
# Youngs Moduli (GPa) = 69.19393 27.82720 60.99302
#
# Poissons Ratio (x) = 0.26970 0.43142
# Poissons Ratio (y) = 0.67062 0.02460
# Poissons Ratio (z) = 0.48943 0.01122
#
# Static dielectric constant tensor:
#      x y z
#    x 3.654220 0.000000 0.000000 
#    y 0.000000 2.889660 0.000000 
#    z 0.000000 0.000000 3.526730 
# 
# 
# High freq. dielectric constant tensor:
#      x y z
#    x 1.705460 0.000000 0.000000 
#    y 0.000000 1.620530 0.000000 
#    z 0.000000 0.000000 1.708540 
# 
# From -- ./inp_files/4879.got.cif
#   From: 2010.03.12/outbox.cif.g09.slc.cpg/sg36_3_cif.got.tgz:4879.got - 2010.04.14 02:13:53.
