data_PCOD8174439
_publ_section_title
;
Structure prediction by ZEFSAII (Michael W. Deem and Ramdas Pophale) SiO2 
 PCOD8174439
Probable space group: C M C 21
;
_chemical_formula_sum "Si O2"
_cell_formula_units_Z 56
_cell_length_a 14.131262
_cell_length_b 5.204164
_cell_length_c 34.946821
_cell_angle_alpha 90.000000
_cell_angle_beta 90.000000
_cell_angle_gamma 90.000000
_cell_volume 2570.038316
_symmetry_space_group_name_H-M "C M C 21"
_symmetry_group_IT_number 36
_symmetry_cell_setting 'orthorhombic'
loop_
_space_group_symop_operation_xyz
x,y,z
-x,-y,1/2+z
x,-y,1/2+z
-x,y,z
1/2+x,1/2+y,z
1/2-x,1/2-y,1/2+z
1/2+x,1/2-y,1/2+z
1/2-x,1/2+y,z
loop_
_atom_site_type_symbol
_atom_site_label
_atom_site_fract_x
_atom_site_fract_y
_atom_site_fract_z
Si Si1 0.310661 0.259912 0.649490
Si Si2 0.110513 0.259840 0.778054
Si Si3 0.886852 0.759653 0.734219
Si Si4 0.000000 0.279217 0.551108
Si Si5 0.000000 0.778497 0.600832
Si Si6 0.309300 0.204048 0.360873
Si Si7 0.605292 0.252973 0.978140
Si Si8 0.109848 0.253229 0.942008
O O1 0.254446 0.517725 0.638687
O O2 0.336140 0.255876 0.693803
O O3 0.407204 0.243385 0.626098
O O4 0.151087 0.515177 0.758054
O O5 0.132057 0.250353 0.822662
O O6 0.000000 0.261069 0.772244
O O7 0.151071 0.007599 0.757192
O O8 0.000000 0.759925 0.728956
O O9 0.905543 0.249184 0.524520
O O10 0.000000 0.564539 0.568018
O O11 0.000000 0.063855 0.583501
O O12 0.275113 0.909967 0.362375
O O13 0.377802 0.251956 0.396553
O O14 0.500000 0.252276 0.959342
O O15 0.658712 0.505503 0.962165
O O16 0.658981 0.001744 0.961757
O O17 0.000000 0.253364 0.953070
#
# Coordination Sequence:
#
# PCOD8174439 Si02
#       8
#     8   8   8   4   4   8   8   8
#     4  12  26  43  68 100 135 180 222 265 334 398
#     4  10  22  39  62  85 119 165 215 267 314 367
#     4  10  21  41  64  90 124 163 214 274 323 375
#     4  10  20  38  70 102 119 166 207 262 330 378
#     4  12  24  44  70 100 141 168 215 278 326 394
#     4  12  25  37  53  83 125 164 203 259 322 370
#     4   8  17  32  60  95 105 144 205 244 291 376
#     4  10  18  36  60  82 113 146 202 253 289 364
#
# _framework density 21.789558
#
# number of rings (size 3 to 8) (size 9 to 14) (size 15 to 20)
#    0.429    1.143    0.714    4.714    0.000    3.429 
#    0.000    5.714    0.000   17.143    0.000    0.000 
#    0.000    0.000    0.000    0.000    0.000    0.000 
#
# Total GULP energy -347154.072719 kJ/mol
# GULP energy per Si atom -12398.359740 kJ/mol
# Density = 2.173996 g / cm^3
# Si number density = 21.789558 Si / 1000 Ang^3
#
#
#
# Elastic Constant Matrix: (Units=GPa)
#
#
# Indices 1 2 3 4 5 6 
#
# 1 55.9597 23.6727 27.8293 0.0000 0.0000 0.0000
# 2 23.6727 183.5459 48.4173 0.0000 0.0000 0.0000
# 3 27.8293 48.4173 131.3010 0.0000 0.0000 0.0000
# 4 0.0000 0.0000 0.0000 39.5239 0.0000 0.0000
# 5 0.0000 0.0000 0.0000 0.0000 1.7799 0.0000
# 6 0.0000 0.0000 0.0000 0.0000 0.0000 -14.3033
#
#
#
# Elastic Compliance Matrix: (Units=1/GPa)
#
#
# Indices 1 2 3 4 5 6 
#
# 1 0.020418 -0.001653 -0.003718 0.000000 0.000000 0.000000
# 2 -0.001653 0.006169 -0.001925 0.000000 0.000000 0.000000
# 3 -0.003718 -0.001925 0.009114 0.000000 0.000000 0.000000
# 4 0.000000 0.000000 0.000000 0.025301 0.000000 0.000000
# 5 0.000000 0.000000 0.000000 0.000000 0.561838 0.000000
# 6 0.000000 0.000000 0.000000 0.000000 0.000000 -0.069914
#
#
# Mechanical properties :
#
#
# Convention : Reuss Voigt Hill
#
# Bulk Modulus (GPa) = 47.37028 63.40503 55.38765
# Shear Modulus (GPa) = 8.70240 23.45924 16.08082
#
# Velocity S-wave (km/s) = 2.00063 3.28476 2.71957
# Velocity P-wave (km/s) = 5.20805 6.59910 5.94441
#
# Compressibility (1/GPa) = 0.02111028
#
# Stress axis : x y z
#
# Youngs Moduli (GPa) = 48.97590 162.09951 109.72301
#
# Poissons Ratio (x) = 0.26789 0.40798
# Poissons Ratio (y) = 0.08094 0.21117
# Poissons Ratio (z) = 0.18210 0.31197
#
# Static dielectric constant tensor:
#      x y z
#    x 3.623010 0.000000 0.000000 
#    y 0.000000 4.792020 0.000000 
#    z 0.000000 0.000000 3.844450 
# 
# 
# High freq. dielectric constant tensor:
#      x y z
#    x 1.843000 0.000000 0.000000 
#    y 0.000000 1.881260 0.000000 
#    z 0.000000 0.000000 1.855520 
# 
# From -- ./inp_files/17408.got.cif
#   From: 2010.03.12/outbox.cif.g09.slc.cpg/sg36_9_cif.got.tgz:17408.got - 2010.04.14 02:13:53.
