data_PCOD8174449
_publ_section_title
;
Structure prediction by ZEFSAII (Michael W. Deem and Ramdas Pophale) SiO2 
 PCOD8174449
Probable space group: C M C 21
;
_chemical_formula_sum "Si O2"
_cell_formula_units_Z 40
_cell_length_a 7.702388
_cell_length_b 25.528747
_cell_length_c 10.056895
_cell_angle_alpha 90.000000
_cell_angle_beta 90.000000
_cell_angle_gamma 90.000000
_cell_volume 1977.510541
_symmetry_space_group_name_H-M "C M C 21"
_symmetry_group_IT_number 36
_symmetry_cell_setting 'orthorhombic'
loop_
_space_group_symop_operation_xyz
x,y,z
-x,-y,1/2+z
x,-y,1/2+z
-x,y,z
1/2+x,1/2+y,z
1/2-x,1/2-y,1/2+z
1/2+x,1/2-y,1/2+z
1/2-x,1/2+y,z
loop_
_atom_site_type_symbol
_atom_site_label
_atom_site_fract_x
_atom_site_fract_y
_atom_site_fract_z
Si Si1 0.800790 0.627767 0.929260
Si Si2 0.809320 0.141380 0.391997
Si Si3 0.792151 0.793487 0.645032
Si Si4 0.000000 0.050925 0.006366
Si Si5 0.304200 0.823329 0.163827
Si Si6 0.500000 0.454354 0.809593
O O1 0.675422 0.584068 0.990131
O O2 0.722847 0.642616 0.783470
O O3 0.000000 0.606729 0.922711
O O4 0.795182 0.679956 0.017848
O O5 0.723648 0.176675 0.276908
O O6 0.699206 0.144164 0.526772
O O7 0.828601 0.081107 0.341434
O O8 0.000000 0.164398 0.426665
O O9 0.719710 0.734168 0.648441
O O10 0.000000 0.798482 0.632567
O O11 0.000000 0.028069 0.155933
O O12 0.000000 0.004867 0.900610
O O13 0.500000 0.813113 0.208142
#
# Coordination Sequence:
#
# PCOD8174449 Si02
#       6
#     8   8   8   4   8   4
#     4  11  23  41  63  93 131 168 206 269 317 378
#     4   9  19  38  57  86 119 161 208 256 310 366
#     4  10  18  38  59  85 132 173 208 255 310 375
#     4  12  24  48  70  94 124 162 220 270 331 368
#     4  10  22  33  56  95 129 168 211 250 302 385
#     4  10  24  42  74  88 116 172 210 270 325 374
#
# _framework density 20.227452
#
# number of rings (size 3 to 8) (size 9 to 14) (size 15 to 20)
#    0.600    1.200    3.000    1.200    4.200    3.200 
#    0.000    2.000    0.000    0.000    0.000    0.000 
#    0.000    0.000    0.000    0.000    0.000    0.000 
#
# Total GULP energy -247917.416424 kJ/mol
# GULP energy per Si atom -12395.870821 kJ/mol
# Density = 2.018141 g / cm^3
# Si number density = 20.227452 Si / 1000 Ang^3
#
#
#
# Elastic Constant Matrix: (Units=GPa)
#
#
# Indices 1 2 3 4 5 6 
#
# 1 57.7192 24.2895 20.2377 0.0000 0.0000 0.0000
# 2 24.2895 98.3108 48.3253 0.0000 0.0000 0.0000
# 3 20.2377 48.3253 173.4303 0.0000 0.0000 0.0000
# 4 0.0000 0.0000 0.0000 45.4914 0.0000 0.0000
# 5 0.0000 0.0000 0.0000 0.0000 21.8321 0.0000
# 6 0.0000 0.0000 0.0000 0.0000 0.0000 12.7128
#
#
#
# Elastic Compliance Matrix: (Units=1/GPa)
#
#
# Indices 1 2 3 4 5 6 
#
# 1 0.019509 -0.004288 -0.001082 0.000000 0.000000 0.000000
# 2 -0.004288 0.012729 -0.003046 0.000000 0.000000 0.000000
# 3 -0.001082 -0.003046 0.006741 0.000000 0.000000 0.000000
# 4 0.000000 0.000000 0.000000 0.021982 0.000000 0.000000
# 5 0.000000 0.000000 0.000000 0.000000 0.045804 0.000000
# 6 0.000000 0.000000 0.000000 0.000000 0.000000 0.078661
#
#
# Mechanical properties :
#
#
# Convention : Reuss Voigt Hill
#
# Bulk Modulus (GPa) = 45.15440 57.24058 51.19749
# Shear Modulus (GPa) = 23.85030 31.78111 27.81570
#
# Velocity S-wave (km/s) = 3.43754 3.96812 3.71232
# Velocity P-wave (km/s) = 6.17473 7.02528 6.61369
#
# Compressibility (1/GPa) = 0.02214624
#
# Stress axis : x y z
#
# Youngs Moduli (GPa) = 51.25798 78.56181 148.34432
#
# Poissons Ratio (x) = 0.33691 0.16045
# Poissons Ratio (y) = 0.21982 0.45191
# Poissons Ratio (z) = 0.05544 0.23933
#
# Static dielectric constant tensor:
#      x y z
#    x 3.349130 0.000000 0.000000 
#    y 0.000000 3.470610 0.000000 
#    z 0.000000 0.000000 3.749080 
# 
# 
# High freq. dielectric constant tensor:
#      x y z
#    x 1.764650 0.000000 0.000000 
#    y 0.000000 1.767420 0.000000 
#    z 0.000000 0.000000 1.810160 
# 
# From -- ./inp_files/2544.got.cif
#   From: 2010.03.12/outbox.cif.g09.slc.cpg/sg36_2_cif.got.tgz:2544.got - 2010.04.14 02:13:53.
