data_PCOD8174892
_publ_section_title
;
Structure prediction by ZEFSAII (Michael W. Deem and Ramdas Pophale) SiO2 
 PCOD8174892
Probable space group: C M C 21
;
_chemical_formula_sum "Si O2"
_cell_formula_units_Z 64
_cell_length_a 8.675414
_cell_length_b 20.308862
_cell_length_c 19.002303
_cell_angle_alpha 90.000000
_cell_angle_beta 90.000000
_cell_angle_gamma 90.000000
_cell_volume 3347.973689
_symmetry_space_group_name_H-M "C M C 21"
_symmetry_group_IT_number 36
_symmetry_cell_setting 'orthorhombic'
loop_
_space_group_symop_operation_xyz
x,y,z
-x,-y,1/2+z
x,-y,1/2+z
-x,y,z
1/2+x,1/2+y,z
1/2-x,1/2-y,1/2+z
1/2+x,1/2-y,1/2+z
1/2-x,1/2+y,z
loop_
_atom_site_type_symbol
_atom_site_label
_atom_site_fract_x
_atom_site_fract_y
_atom_site_fract_z
Si Si1 0.680186 0.109281 0.256870
Si Si2 0.676787 0.315885 0.119263
Si Si3 0.321107 0.064380 0.543018
Si Si4 0.677814 0.763114 0.410163
Si Si5 0.677920 0.305847 0.545617
Si Si6 0.178995 0.057755 0.119684
Si Si7 0.179095 0.889592 0.903697
Si Si8 0.177049 0.759019 0.266958
O O1 0.500000 0.097706 0.245255
O O2 0.773005 0.065750 0.200863
O O3 0.727056 0.086787 0.335259
O O4 0.728219 0.185403 0.245011
O O5 0.500000 0.333857 0.101910
O O6 0.785784 0.373018 0.091625
O O7 0.713588 0.247025 0.082762
O O8 0.703502 0.308652 0.202638
O O9 0.500000 0.064264 0.524401
O O10 0.227787 0.066416 0.469973
O O11 0.277989 0.999534 0.585299
O O12 0.500000 0.778298 0.424480
O O13 0.781727 0.805985 0.462926
O O14 0.717278 0.686227 0.421690
O O15 0.719531 0.784894 0.331087
O O16 0.500000 0.287523 0.557789
O O17 0.717853 0.376652 0.576681
O O18 0.000000 0.039005 0.115915
O O19 0.000000 0.899407 0.887558
O O20 0.000000 0.757317 0.291503
#
# Coordination Sequence:
#
# PCOD8174892 Si02
#       8
#     8   8   8   8   8   8   8   8
#     4  10  19  35  59  88 118 152 195 242 291 349
#     4  11  21  37  60  87 118 152 191 239 294 349
#     4  12  25  40  60  87 119 158 201 248 295 350
#     4  10  20  33  56  86 119 154 192 241 293 347
#     4  11  22  36  59  87 117 151 193 240 290 346
#     4  11  24  41  60  86 120 159 199 245 297 355
#     4  10  20  36  58  86 118 155 195 240 293 350
#     4   9  19  34  56  85 119 153 190 239 293 348
#
# _framework density 19.116039000000001
#
# number of rings (size 3 to 8) (size 9 to 14) (size 15 to 20)
#    0.000    1.500    2.500    3.375    0.000    4.000 
#    0.000    1.250    0.000    4.500    0.000    0.000 
#    0.000    0.000    0.000    0.000    0.000    0.000 
#
# Total GULP energy -396994.296195 kJ/mol
# GULP energy per Si atom -12406.071756 kJ/mol
# Density = 1.907253 g / cm^3
# Si number density = 19.116039 Si / 1000 Ang^3
#
#
#
# Elastic Constant Matrix: (Units=GPa)
#
#
# Indices 1 2 3 4 5 6 
#
# 1 58.8155 21.7096 24.9536 0.0000 0.0000 0.0000
# 2 21.7096 64.3612 35.0091 0.0000 0.0000 0.0000
# 3 24.9536 35.0091 107.3552 0.0000 0.0000 0.0000
# 4 0.0000 0.0000 0.0000 24.2306 0.0000 0.0000
# 5 0.0000 0.0000 0.0000 0.0000 37.6042 0.0000
# 6 0.0000 0.0000 0.0000 0.0000 0.0000 27.3401
#
#
#
# Elastic Compliance Matrix: (Units=1/GPa)
#
#
# Indices 1 2 3 4 5 6 
#
# 1 0.020187 -0.005175 -0.003005 0.000000 0.000000 0.000000
# 2 -0.005175 0.020214 -0.005389 0.000000 0.000000 0.000000
# 3 -0.003005 -0.005389 0.011771 0.000000 0.000000 0.000000
# 4 0.000000 0.000000 0.000000 0.041270 0.000000 0.000000
# 5 0.000000 0.000000 0.000000 0.000000 0.026593 0.000000
# 6 0.000000 0.000000 0.000000 0.000000 0.000000 0.036576
#
#
# Mechanical properties :
#
#
# Convention : Reuss Voigt Hill
#
# Bulk Modulus (GPa) = 39.94462 43.76406 41.85434
# Shear Modulus (GPa) = 26.02895 27.75896 26.89396
#
# Velocity S-wave (km/s) = 3.69403 3.81482 3.75491
# Velocity P-wave (km/s) = 6.25585 6.50748 6.38291
#
# Compressibility (1/GPa) = 0.02503466
#
# Stress axis : x y z
#
# Youngs Moduli (GPa) = 49.53613 49.47007 84.95658
#
# Poissons Ratio (x) = 0.25600 0.25527
# Poissons Ratio (y) = 0.25635 0.45784
# Poissons Ratio (z) = 0.14884 0.26660
#
# Static dielectric constant tensor:
#      x y z
#    x 3.510880 0.000000 0.000000 
#    y 0.000000 3.303200 0.000000 
#    z 0.000000 0.000000 3.648400 
# 
# 
# High freq. dielectric constant tensor:
#      x y z
#    x 1.754860 0.000000 0.000000 
#    y 0.000000 1.709330 0.000000 
#    z 0.000000 0.000000 1.758880 
# 
# From -- ./inp_files/13842.got.cif
#   From: 2010.03.12/outbox.cif.g09.slc.cpg/sg36_7_cif.got.tgz:13842.got - 2010.04.14 02:13:53.
