data_PCOD8174742
_publ_section_title
;
Structure prediction by ZEFSAII (Michael W. Deem and Ramdas Pophale) SiO2 
 PCOD8174742
Probable space group: C M C 21
;
_chemical_formula_sum "Si O2"
_cell_formula_units_Z 56
_cell_length_a 15.523521
_cell_length_b 37.138610
_cell_length_c 5.012200
_cell_angle_alpha 90.000000
_cell_angle_beta 90.000000
_cell_angle_gamma 90.000000
_cell_volume 2889.643530
_symmetry_space_group_name_H-M "C M C 21"
_symmetry_group_IT_number 36
_symmetry_cell_setting 'orthorhombic'
loop_
_space_group_symop_operation_xyz
x,y,z
-x,-y,1/2+z
x,-y,1/2+z
-x,y,z
1/2+x,1/2+y,z
1/2-x,1/2-y,1/2+z
1/2+x,1/2-y,1/2+z
1/2-x,1/2+y,z
loop_
_atom_site_type_symbol
_atom_site_label
_atom_site_fract_x
_atom_site_fract_y
_atom_site_fract_z
Si Si1 0.095613 0.023047 0.329090
Si Si2 0.099463 0.475379 0.751691
Si Si3 0.757060 0.797935 0.336307
Si Si4 0.244823 0.922006 0.810294
Si Si5 0.500000 0.642171 0.822355
Si Si6 0.304239 0.378668 0.314035
Si Si7 0.338051 0.731966 0.335590
Si Si8 0.000000 0.810163 0.817386
O O1 0.168123 0.050764 0.247558
O O2 0.000000 0.040019 0.286516
O O3 0.106849 0.011237 0.635113
O O4 0.119011 0.494469 0.472197
O O5 0.162146 0.441076 0.782279
O O6 0.000000 0.461979 0.770161
O O7 0.760263 0.839900 0.263942
O O8 0.668420 0.775330 0.280836
O O9 0.772919 0.790720 0.648082
O O10 0.826058 0.778180 0.145554
O O11 0.230473 0.889802 0.603237
O O12 0.236398 0.906386 0.105827
O O13 0.590548 0.620461 0.785148
O O14 0.500000 0.675470 0.618719
O O15 0.500000 0.655317 0.126168
O O16 0.427064 0.717198 0.239213
#
# Coordination Sequence:
#
# PCOD8174742 Si02
#       8
#     8   8   8   8   4   8   8   4
#     4  10  21  37  54  76 111 152 192 232 270 320
#     4  10  21  41  70  97 115 141 194 258 303 340
#     4  10  20  37  52  81 106 149 186 238 288 343
#     4  12  24  37  61  87 120 158 195 230 291 358
#     4  12  24  36  54  84 122 155 206 244 278 335
#     4  12  24  37  55  84 123 163 190 234 287 355
#     4  10  19  33  59  77 107 138 195 244 292 331
#     4  12  18  36  58  86 104 147 200 262 292 323
#
# _framework density 19.379553000000001
#
# number of rings (size 3 to 8) (size 9 to 14) (size 15 to 20)
#    0.000    1.143    2.857    4.286    2.000    0.000 
#    0.000    0.000    3.143    0.000    0.000    0.000 
#    0.000    0.000    0.000    0.000    0.000    0.000 
#
# Total GULP energy -346923.770831 kJ/mol
# GULP energy per Si atom -12390.134673 kJ/mol
# Density = 1.933544 g / cm^3
# Si number density = 19.379553 Si / 1000 Ang^3
#
#
#
# Elastic Constant Matrix: (Units=GPa)
#
#
# Indices 1 2 3 4 5 6 
#
# 1 98.3584 55.8070 14.7739 0.0000 0.0000 0.0000
# 2 55.8070 85.6105 6.7273 0.0000 0.0000 0.0000
# 3 14.7739 6.7273 72.9248 0.0000 0.0000 0.0000
# 4 0.0000 0.0000 0.0000 33.4941 0.0000 0.0000
# 5 0.0000 0.0000 0.0000 0.0000 22.0400 0.0000
# 6 0.0000 0.0000 0.0000 0.0000 0.0000 33.6617
#
#
#
# Elastic Compliance Matrix: (Units=1/GPa)
#
#
# Indices 1 2 3 4 5 6 
#
# 1 0.016532 -0.010590 -0.002372 0.000000 0.000000 0.000000
# 2 -0.010590 0.018550 0.000434 0.000000 0.000000 0.000000
# 3 -0.002372 0.000434 0.014153 0.000000 0.000000 0.000000
# 4 0.000000 0.000000 0.000000 0.029856 0.000000 0.000000
# 5 0.000000 0.000000 0.000000 0.000000 0.045372 0.000000
# 6 0.000000 0.000000 0.000000 0.000000 0.000000 0.029707
#
#
# Mechanical properties :
#
#
# Convention : Reuss Voigt Hill
#
# Bulk Modulus (GPa) = 41.35854 45.72336 43.54095
# Shear Modulus (GPa) = 26.69697 29.81153 28.25425
#
# Velocity S-wave (km/s) = 3.71561 3.92637 3.82244
# Velocity P-wave (km/s) = 6.30835 6.64831 6.48056
#
# Compressibility (1/GPa) = 0.02417880
#
# Stress axis : x y z
#
# Youngs Moduli (GPa) = 60.48870 53.90770 70.65495
#
# Poissons Ratio (x) = 0.57090 0.16761
# Poissons Ratio (y) = 0.64060 -0.03068
# Poissons Ratio (z) = 0.14349 -0.02341
#
# Static dielectric constant tensor:
#      x y z
#    x 3.637860 0.000000 0.000000 
#    y 0.000000 3.454560 0.000000 
#    z 0.000000 0.000000 3.664540 
# 
# 
# High freq. dielectric constant tensor:
#      x y z
#    x 1.736370 0.000000 0.000000 
#    y 0.000000 1.742440 0.000000 
#    z 0.000000 0.000000 1.778940 
# 
# From -- ./inp_files/962.got.cif
#   From: 2010.03.12/outbox.cif.g09.slc.cpg/sg36_1_cif.got.tgz:962.got - 2010.04.14 02:13:53.
