data_PCOD8174281
_publ_section_title
;
Structure prediction by ZEFSAII (Michael W. Deem and Ramdas Pophale) SiO2 
 PCOD8174281
Probable space group: C M C 21
;
_chemical_formula_sum "Si O2"
_cell_formula_units_Z 64
_cell_length_a 9.169597
_cell_length_b 23.729693
_cell_length_c 14.640975
_cell_angle_alpha 90.000000
_cell_angle_beta 90.000000
_cell_angle_gamma 90.000000
_cell_volume 3185.754958
_symmetry_space_group_name_H-M "C M C 21"
_symmetry_group_IT_number 36
_symmetry_cell_setting 'orthorhombic'
loop_
_space_group_symop_operation_xyz
x,y,z
-x,-y,1/2+z
x,-y,1/2+z
-x,y,z
1/2+x,1/2+y,z
1/2-x,1/2-y,1/2+z
1/2+x,1/2-y,1/2+z
1/2-x,1/2+y,z
loop_
_atom_site_type_symbol
_atom_site_label
_atom_site_fract_x
_atom_site_fract_y
_atom_site_fract_z
Si Si1 0.672417 0.444261 0.034740
Si Si2 0.164877 0.780349 0.430132
Si Si3 0.835647 0.651042 0.438737
Si Si4 0.166709 0.993493 0.351518
Si Si5 0.834695 0.112711 0.274398
Si Si6 0.169832 0.575628 0.712622
Si Si7 0.669232 0.694992 0.122314
Si Si8 0.169711 0.296377 0.244443
O O1 0.500000 0.442358 0.049339
O O2 0.749355 0.458440 0.130982
O O3 0.728107 0.382940 0.004638
O O4 0.713679 0.489231 0.954870
O O5 0.168610 0.716009 0.463781
O O6 0.231460 0.812118 0.519536
O O7 0.262131 0.794094 0.344222
O O8 0.000000 0.799126 0.406298
O O9 0.781330 0.645734 0.335225
O O10 0.000000 0.626874 0.448363
O O11 0.187872 0.046068 0.282564
O O12 0.000000 0.972686 0.351869
O O13 0.267244 0.944015 0.311117
O O14 0.806383 0.134903 0.171941
O O15 0.000000 0.128104 0.305845
O O16 0.198210 0.642303 0.700646
O O17 0.000000 0.560909 0.708984
O O18 0.500000 0.709759 0.110596
O O19 0.738297 0.747349 0.180086
O O20 0.000000 0.285144 0.258792
#
# Coordination Sequence:
#
# PCOD8174281 Si02
#       8
#     8   8   8   8   8   8   8   8
#     4  10  21  38  62  88 112 149 201 243 282 338
#     4  10  20  33  52  82 116 151 188 228 281 343
#     4  10  18  30  52  82 117 146 182 234 283 333
#     4   9  20  38  59  84 111 144 193 243 282 337
#     4   9  17  33  57  78 102 142 191 232 278 336
#     4  11  23  39  60  86 118 155 191 236 295 347
#     4   9  17  33  56  79 109 147 184 226 278 334
#     4  10  21  38  58  81 115 154 188 228 283 346
#
# _framework density 20.08943
#
# number of rings (size 3 to 8) (size 9 to 14) (size 15 to 20)
#    0.000    2.250    1.250    2.625    0.000    6.000 
#    2.250    1.250    0.000    0.000    0.000    0.000 
#    0.000    0.000    0.000    0.000    0.000    0.000 
#
# Total GULP energy -396666.386890 kJ/mol
# GULP energy per Si atom -12395.824590 kJ/mol
# Density = 2.004371 g / cm^3
# Si number density = 20.089430 Si / 1000 Ang^3
#
#
#
# Elastic Constant Matrix: (Units=GPa)
#
#
# Indices 1 2 3 4 5 6 
#
# 1 69.5176 16.0032 31.9441 0.0000 0.0000 0.0000
# 2 16.0032 32.2168 5.9007 0.0000 0.0000 0.0000
# 3 31.9441 5.9007 112.7374 0.0000 0.0000 0.0000
# 4 0.0000 0.0000 0.0000 27.0041 0.0000 0.0000
# 5 0.0000 0.0000 0.0000 0.0000 32.6166 0.0000
# 6 0.0000 0.0000 0.0000 0.0000 0.0000 23.2198
#
#
#
# Elastic Compliance Matrix: (Units=1/GPa)
#
#
# Indices 1 2 3 4 5 6 
#
# 1 0.018508 -0.008313 -0.004809 0.000000 0.000000 0.000000
# 2 -0.008313 0.035074 0.000520 0.000000 0.000000 0.000000
# 3 -0.004809 0.000520 0.010206 0.000000 0.000000 0.000000
# 4 0.000000 0.000000 0.000000 0.037031 0.000000 0.000000
# 5 0.000000 0.000000 0.000000 0.000000 0.030659 0.000000
# 6 0.000000 0.000000 0.000000 0.000000 0.000000 0.043067
#
#
# Mechanical properties :
#
#
# Convention : Reuss Voigt Hill
#
# Bulk Modulus (GPa) = 25.91816 35.79641 30.85729
# Shear Modulus (GPa) = 23.51710 27.27635 25.39673
#
# Velocity S-wave (km/s) = 3.42515 3.68876 3.55939
# Velocity P-wave (km/s) = 5.34524 5.99998 5.68205
#
# Compressibility (1/GPa) = 0.03858298
#
# Stress axis : x y z
#
# Youngs Moduli (GPa) = 54.02953 28.51125 97.98483
#
# Poissons Ratio (x) = 0.23701 0.47123
# Poissons Ratio (y) = 0.44914 -0.05092
# Poissons Ratio (z) = 0.25984 -0.01482
#
# Static dielectric constant tensor:
#      x y z
#    x 3.542720 0.000000 0.000000 
#    y 0.000000 3.487880 0.000000 
#    z 0.000000 0.000000 3.762600 
# 
# 
# High freq. dielectric constant tensor:
#      x y z
#    x 1.765520 0.000000 0.000000 
#    y 0.000000 1.767300 0.000000 
#    z 0.000000 0.000000 1.791960 
# 
# From -- ./inp_files/11214.got.cif
#   From: 2010.03.12/outbox.cif.g09.slc.cpg/sg36_6_cif.got.tgz:11214.got - 2010.04.14 02:13:53.
