data_PCOD8174740
_publ_section_title
;
Structure prediction by ZEFSAII (Michael W. Deem and Ramdas Pophale) SiO2 
 PCOD8174740
Probable space group: C M C 21
;
_chemical_formula_sum "Si O2"
_cell_formula_units_Z 64
_cell_length_a 9.096234
_cell_length_b 15.060659
_cell_length_c 23.801250
_cell_angle_alpha 90.000000
_cell_angle_beta 90.000000
_cell_angle_gamma 90.000000
_cell_volume 3260.658871
_symmetry_space_group_name_H-M "C M C 21"
_symmetry_group_IT_number 36
_symmetry_cell_setting 'orthorhombic'
loop_
_space_group_symop_operation_xyz
x,y,z
-x,-y,1/2+z
x,-y,1/2+z
-x,y,z
1/2+x,1/2+y,z
1/2-x,1/2-y,1/2+z
1/2+x,1/2-y,1/2+z
1/2-x,1/2+y,z
loop_
_atom_site_type_symbol
_atom_site_label
_atom_site_fract_x
_atom_site_fract_y
_atom_site_fract_z
Si Si1 0.667239 0.030494 0.500000
Si Si2 0.827724 0.621619 0.185709
Si Si3 0.832217 0.730044 0.878111
Si Si4 0.826015 0.115966 0.067129
Si Si5 0.332485 0.022587 0.877017
Si Si6 0.830730 0.779230 0.267543
Si Si7 0.673002 0.482845 0.265081
Si Si8 0.667149 0.227005 0.486588
O O1 0.500000 0.994831 0.507558
O O2 0.679246 0.132995 0.518742
O O3 0.778372 0.975807 0.538412
O O4 0.712735 0.025557 0.434510
O O5 0.755619 0.627789 0.125326
O O6 0.797359 0.716328 0.214849
O O7 0.755324 0.540931 0.219138
O O8 0.000000 0.601959 0.180181
O O9 0.809936 0.626147 0.887821
O O10 0.758411 0.759955 0.820020
O O11 0.760388 0.780197 0.930108
O O12 0.000000 0.758944 0.874852
O O13 0.000000 0.115563 0.077022
O O14 0.773452 0.196939 0.027852
O O15 0.500000 0.000618 0.859681
O O16 0.227126 0.988947 0.827190
O O17 0.000000 0.776938 0.285226
O O18 0.784117 0.880128 0.252888
O O19 0.500000 0.499536 0.260524
O O20 0.500000 0.248007 0.469244
#
# Coordination Sequence:
#
# PCOD8174740 Si02
#       8
#     8   8   8   8   8   8   8   8
#     4  10  21  39  61  86 118 159 201 239 291 359
#     4  11  24  42  64  85 114 160 204 240 293 360
#     4  10  19  33  58  90 122 155 194 244 294 345
#     4  11  24  42  61  86 120 154 198 252 299 343
#     4   9  18  34  57  86 122 159 195 236 290 356
#     4   9  21  40  60  85 119 159 196 237 294 355
#     4  10  21  38  60  89 122 153 195 248 297 344
#     4  10  22  38  59  87 119 157 197 242 296 352
#
# _framework density 19.627935000000001
#
# number of rings (size 3 to 8) (size 9 to 14) (size 15 to 20)
#    0.000    2.000    1.250    1.500    1.750    4.500 
#    0.000    2.500    0.000    0.000    0.000    0.000 
#    0.000    0.000    0.000    0.000    0.000    0.000 
#
# Total GULP energy -396924.868923 kJ/mol
# GULP energy per Si atom -12403.902154 kJ/mol
# Density = 1.958326 g / cm^3
# Si number density = 19.627935 Si / 1000 Ang^3
#
#
#
# Elastic Constant Matrix: (Units=GPa)
#
#
# Indices 1 2 3 4 5 6 
#
# 1 95.1972 36.7213 59.6639 0.0000 0.0000 0.0000
# 2 36.7213 66.1811 37.9908 0.0000 0.0000 0.0000
# 3 59.6639 37.9908 116.2401 0.0000 0.0000 0.0000
# 4 0.0000 0.0000 0.0000 10.6680 0.0000 0.0000
# 5 0.0000 0.0000 0.0000 0.0000 40.1522 0.0000
# 6 0.0000 0.0000 0.0000 0.0000 0.0000 27.2432
#
#
#
# Elastic Compliance Matrix: (Units=1/GPa)
#
#
# Indices 1 2 3 4 5 6 
#
# 1 0.016933 -0.005424 -0.006919 0.000000 0.000000 0.000000
# 2 -0.005424 0.020337 -0.003863 0.000000 0.000000 0.000000
# 3 -0.006919 -0.003863 0.013417 0.000000 0.000000 0.000000
# 4 0.000000 0.000000 0.000000 0.093739 0.000000 0.000000
# 5 0.000000 0.000000 0.000000 0.000000 0.024905 0.000000
# 6 0.000000 0.000000 0.000000 0.000000 0.000000 0.036706
#
#
# Mechanical properties :
#
#
# Convention : Reuss Voigt Hill
#
# Bulk Modulus (GPa) = 54.71694 60.70782 57.71238
# Shear Modulus (GPa) = 20.44663 25.16218 22.80441
#
# Velocity S-wave (km/s) = 3.23106 3.58433 3.41227
# Velocity P-wave (km/s) = 6.46972 6.93731 6.70759
#
# Compressibility (1/GPa) = 0.01827587
#
# Stress axis : x y z
#
# Youngs Moduli (GPa) = 59.05665 49.17173 74.53457
#
# Poissons Ratio (x) = 0.26670 0.51568
# Poissons Ratio (y) = 0.32031 0.28791
# Poissons Ratio (z) = 0.40859 0.18994
#
# Static dielectric constant tensor:
#      x y z
#    x 3.615380 0.000000 0.000000 
#    y 0.000000 3.697380 0.000000 
#    z 0.000000 0.000000 3.501550 
# 
# 
# High freq. dielectric constant tensor:
#      x y z
#    x 1.767650 0.000000 0.000000 
#    y 0.000000 1.770750 0.000000 
#    z 0.000000 0.000000 1.758560 
# 
# From -- ./inp_files/16697.got.cif
#   From: 2010.03.12/outbox.cif.g09.slc.cpg/sg36_9_cif.got.tgz:16697.got - 2010.04.14 02:13:53.
