data_PCOD8174120
_publ_section_title
;
Structure prediction by ZEFSAII (Michael W. Deem and Ramdas Pophale) SiO2 
 PCOD8174120
Probable space group: C M M 2
;
_chemical_formula_sum "Si O2"
_cell_formula_units_Z 64
_cell_length_a 33.696194
_cell_length_b 18.814844
_cell_length_c 5.053899
_cell_angle_alpha 90.000000
_cell_angle_beta 90.000000
_cell_angle_gamma 90.000000
_cell_volume 3204.114521
_symmetry_space_group_name_H-M "C M M 2"
_symmetry_group_IT_number 35
_symmetry_cell_setting 'orthorhombic'
loop_
_space_group_symop_operation_xyz
x,y,z
-x,-y,z
-x,y,z
x,-y,z
1/2+x,1/2+y,z
1/2-x,1/2-y,z
1/2-x,1/2+y,z
1/2+x,1/2-y,z
loop_
_atom_site_type_symbol
_atom_site_label
_atom_site_fract_x
_atom_site_fract_y
_atom_site_fract_z
Si Si1 0.455200 0.863314 0.882650
Si Si2 0.415078 0.081146 0.378916
Si Si3 0.716740 0.645241 0.951796
Si Si4 0.350874 0.815567 0.489066
Si Si5 0.325515 0.416845 0.458594
Si Si6 0.046242 0.197475 0.966153
Si Si7 0.902863 0.824956 0.472071
Si Si8 0.198264 0.305565 0.983409
O O1 0.500000 0.888373 0.909802
O O2 0.442386 0.874337 0.580292
O O3 0.449639 0.781997 0.962434
O O4 0.430231 0.912140 0.079951
O O5 0.370961 0.112198 0.389602
O O6 0.414401 0.000000 0.467392
O O7 0.699432 0.594679 0.725659
O O8 0.764532 0.640603 0.968772
O O9 0.707160 0.726413 0.882087
O O10 0.697644 0.622896 0.227258
O O11 0.382054 0.751431 0.492485
O O12 0.335742 0.832372 0.784864
O O13 0.315185 0.799969 0.287594
O O14 0.328580 0.500000 0.397534
O O15 0.369826 0.386242 0.485638
O O16 0.065843 0.163680 0.706878
O O17 0.000000 0.174843 0.985556
O O18 0.071483 0.167006 0.208112
#
# Coordination Sequence:
#
# PCOD8174120 Si02
#       8
#     8   8   8   8   8   8   8   8
#     4  11  22  38  58  82 112 148 194 249 303 352
#     4  12  25  38  54  79 116 156 195 241 294 353
#     4  11  22  41  63  96 122 159 197 252 299 360
#     4  12  21  39  61  90 118 159 204 257 287 358
#     4  12  25  41  64  96 130 160 201 252 309 367
#     4  11  22  38  63  95 121 152 205 260 307 358
#     4  12  21  39  66  90 123 162 199 251 310 359
#     4  11  22  38  66  91 120 154 207 246 299 350
#
# _framework density 19.974316999999999
#
# number of rings (size 3 to 8) (size 9 to 14) (size 15 to 20)
#    0.000    0.500    5.000    4.500    0.000    5.500 
#    0.000    3.750    0.000    2.250    0.000    0.000 
#    0.000    0.000    0.000    0.000    0.000    0.000 
#
# Total GULP energy -396942.042178 kJ/mol
# GULP energy per Si atom -12404.438818 kJ/mol
# Density = 1.992886 g / cm^3
# Si number density = 19.974317 Si / 1000 Ang^3
#
#
#
# Elastic Constant Matrix: (Units=GPa)
#
#
# Indices 1 2 3 4 5 6 
#
# 1 116.4713 34.1645 33.0391 0.0000 0.0000 0.0000
# 2 34.1645 63.1098 3.2925 0.0000 0.0000 0.0000
# 3 33.0391 3.2925 105.1347 0.0000 0.0000 0.0000
# 4 0.0000 0.0000 0.0000 -9.2406 0.0000 0.0000
# 5 0.0000 0.0000 0.0000 0.0000 36.7217 0.0000
# 6 0.0000 0.0000 0.0000 0.0000 0.0000 15.9499
#
#
#
# Elastic Compliance Matrix: (Units=1/GPa)
#
#
# Indices 1 2 3 4 5 6 
#
# 1 0.011278 -0.005930 -0.003358 0.000000 0.000000 0.000000
# 2 -0.005930 0.018989 0.001269 0.000000 0.000000 0.000000
# 3 -0.003358 0.001269 0.010527 0.000000 0.000000 0.000000
# 4 0.000000 0.000000 0.000000 -0.108218 0.000000 0.000000
# 5 0.000000 0.000000 0.000000 0.000000 0.027232 0.000000
# 6 0.000000 0.000000 0.000000 0.000000 0.000000 0.062696
#
#
# Mechanical properties :
#
#
# Convention : Reuss Voigt Hill
#
# Bulk Modulus (GPa) = 40.39533 47.30089 43.84811
# Shear Modulus (GPa) = 106.84712 22.96751 64.90732
#
# Velocity S-wave (km/s) = 7.32177 3.39463 5.70666
# Velocity P-wave (km/s) = 9.57838 6.25275 8.08833
#
# Compressibility (1/GPa) = 0.02475534
#
# Stress axis : x y z
#
# Youngs Moduli (GPa) = 88.66853 52.66076 94.99140
#
# Poissons Ratio (x) = 0.31228 0.31902
# Poissons Ratio (y) = 0.52581 -0.12053
# Poissons Ratio (z) = 0.29779 -0.06682
#
# Static dielectric constant tensor:
#      x y z
#    x 3.887090 0.000000 0.000000 
#    y 0.000000 3.382520 0.000000 
#    z 0.000000 0.000000 3.747940 
# 
# 
# High freq. dielectric constant tensor:
#      x y z
#    x 1.791500 0.000000 0.000000 
#    y 0.000000 1.747150 0.000000 
#    z 0.000000 0.000000 1.798940 
# 
# From -- ./inp_files/4087.got.cif
#   From: 2010.03.12/outbox.cif.g09.slc.cpg/sg35_3_cif.got.tgz:4087.got - 2010.04.14 02:02:04.
