data_PCOD8174366
_publ_section_title
;
Structure prediction by ZEFSAII (Michael W. Deem and Ramdas Pophale) SiO2 
 PCOD8174366
Probable space group: C M C 21
;
_chemical_formula_sum "Si O2"
_cell_formula_units_Z 28
_cell_length_a 10.294817
_cell_length_b 29.788231
_cell_length_c 5.090175
_cell_angle_alpha 90.000000
_cell_angle_beta 90.000000
_cell_angle_gamma 90.000000
_cell_volume 1560.975396
_symmetry_space_group_name_H-M "C M C 21"
_symmetry_group_IT_number 36
_symmetry_cell_setting 'orthorhombic'
loop_
_space_group_symop_operation_xyz
x,y,z
-x,-y,1/2+z
x,-y,1/2+z
-x,y,z
1/2+x,1/2+y,z
1/2-x,1/2-y,1/2+z
1/2+x,1/2-y,1/2+z
1/2-x,1/2+y,z
loop_
_atom_site_type_symbol
_atom_site_label
_atom_site_fract_x
_atom_site_fract_y
_atom_site_fract_z
Si Si1 0.235925 0.838939 0.862050
Si Si2 0.000000 0.712668 0.350885
Si Si3 0.500000 0.727953 0.349336
Si Si4 0.855601 0.885459 0.358473
Si Si5 0.500000 0.529541 0.939085
O O1 0.375792 0.817878 0.902376
O O2 0.231537 0.863269 0.582437
O O3 0.129285 0.800453 0.894000
O O4 0.212442 0.876920 0.080926
O O5 0.000000 0.753658 0.553944
O O6 0.000000 0.731270 0.055400
O O7 0.871646 0.939271 0.399621
O O8 0.000000 0.862946 0.367140
O O9 0.500000 0.511050 0.234178
#
# Coordination Sequence:
#
# PCOD8174366 Si02
#       5
#     8   4   4   8   4
#     4  12  21  39  54  77 112 145 189 221 272 333
#     4  12  26  33  54  82 104 148 190 236 268 307
#     4  12  20  39  52  76 108 142 192 242 276 297
#     4  10  20  35  58  80 108 147 168 213 287 315
#     4  10  18  32  56  94 114 122 174 228 268 312
#
# _framework density 17.937501999999999
#
# number of rings (size 3 to 8) (size 9 to 14) (size 15 to 20)
#    0.857    0.000    2.857    6.857    0.000    0.000 
#    0.000    0.000    0.000    0.000    0.000   20.000 
#    0.000    0.000    0.000    0.000    0.000    0.000 
#
# Total GULP energy -173627.725128 kJ/mol
# GULP energy per Si atom -12401.980366 kJ/mol
# Density = 1.789668 g / cm^3
# Si number density = 17.937502 Si / 1000 Ang^3
#
#
#
# Elastic Constant Matrix: (Units=GPa)
#
#
# Indices 1 2 3 4 5 6 
#
# 1 108.3553 31.4702 6.7748 0.0000 0.0000 0.0000
# 2 31.4702 70.5280 6.4386 0.0000 0.0000 0.0000
# 3 6.7748 6.4386 79.1132 0.0000 0.0000 0.0000
# 4 0.0000 0.0000 0.0000 46.3475 0.0000 0.0000
# 5 0.0000 0.0000 0.0000 0.0000 20.1472 0.0000
# 6 0.0000 0.0000 0.0000 0.0000 0.0000 6.1893
#
#
#
# Elastic Compliance Matrix: (Units=1/GPa)
#
#
# Indices 1 2 3 4 5 6 
#
# 1 0.010625 -0.004693 -0.000528 0.000000 0.000000 0.000000
# 2 -0.004693 0.016358 -0.000929 0.000000 0.000000 0.000000
# 3 -0.000528 -0.000929 0.012761 0.000000 0.000000 0.000000
# 4 0.000000 0.000000 0.000000 0.021576 0.000000 0.000000
# 5 0.000000 0.000000 0.000000 0.000000 0.049635 0.000000
# 6 0.000000 0.000000 0.000000 0.000000 0.000000 0.161569
#
#
# Mechanical properties :
#
#
# Convention : Reuss Voigt Hill
#
# Bulk Modulus (GPa) = 36.43880 38.59596 37.51738
# Shear Modulus (GPa) = 17.00846 28.75766 22.88306
#
# Velocity S-wave (km/s) = 3.08264 4.00836 3.57558
# Velocity P-wave (km/s) = 5.74705 6.55639 6.16502
#
# Compressibility (1/GPa) = 0.02744328
#
# Stress axis : x y z
#
# Youngs Moduli (GPa) = 94.11907 61.13389 78.36404
#
# Poissons Ratio (x) = 0.28688 0.04137
# Poissons Ratio (y) = 0.44167 0.07283
# Poissons Ratio (z) = 0.04969 0.05682
#
# Static dielectric constant tensor:
#      x y z
#    x 3.039060 0.000000 0.000000 
#    y 0.000000 3.169100 0.000000 
#    z 0.000000 0.000000 3.413850 
# 
# 
# High freq. dielectric constant tensor:
#      x y z
#    x 1.669270 0.000000 0.000000 
#    y 0.000000 1.683980 0.000000 
#    z 0.000000 0.000000 1.717470 
# 
# From -- ./inp_files/434.got.cif
#   From: 2010.03.12/outbox.cif.g09.slc.cpg/sg36_1_cif.got.tgz:434.got - 2010.04.14 02:13:53.
