data_PCOD8174535
_publ_section_title
;
Structure prediction by ZEFSAII (Michael W. Deem and Ramdas Pophale) SiO2 
 PCOD8174535
Probable space group: C M C 21
;
_chemical_formula_sum "Si O2"
_cell_formula_units_Z 48
_cell_length_a 9.671013
_cell_length_b 20.172942
_cell_length_c 10.864734
_cell_angle_alpha 90.000000
_cell_angle_beta 90.000000
_cell_angle_gamma 90.000000
_cell_volume 2119.631207
_symmetry_space_group_name_H-M "C M C 21"
_symmetry_group_IT_number 36
_symmetry_cell_setting 'orthorhombic'
loop_
_space_group_symop_operation_xyz
x,y,z
-x,-y,1/2+z
x,-y,1/2+z
-x,y,z
1/2+x,1/2+y,z
1/2-x,1/2-y,1/2+z
1/2+x,1/2-y,1/2+z
1/2-x,1/2+y,z
loop_
_atom_site_type_symbol
_atom_site_label
_atom_site_fract_x
_atom_site_fract_y
_atom_site_fract_z
Si Si1 0.656707 0.729848 0.167220
Si Si2 0.845137 0.059974 0.660396
Si Si3 0.650824 0.584403 0.232057
Si Si4 0.154863 0.559974 0.449937
Si Si5 0.650824 0.084403 0.878276
Si Si6 0.343293 0.770152 0.443113
O O1 0.500000 0.756634 0.150773
O O2 0.661508 0.650448 0.151269
O O3 0.710391 0.750000 0.305166
O O4 0.750000 0.759801 0.055166
O O5 0.750000 0.091760 0.555167
O O6 0.780502 0.082995 0.788060
O O7 0.000000 0.088460 0.651069
O O8 0.844026 0.980226 0.645708
O O9 0.500000 0.583907 0.301527
O O10 0.780504 0.582996 0.322273
O O11 0.155975 0.480226 0.464625
O O12 0.000000 0.588459 0.459266
O O13 0.500000 0.083907 0.808807
O O14 0.661509 0.150448 0.959064
O O15 0.500000 0.743366 0.459559
#
# Coordination Sequence:
#
# PCOD8174535 Si02
#       6
#     8   8   8   8   8   8
#     4  10  22  40  61  85 114 149 191 238 285 336
#     4  10  19  31  51  78 108 142 179 223 275 331
#     4   9  19  35  53  76 107 142 182 226 273 329
#     4  10  19  31  51  78 108 142 179 223 275 331
#     4   9  19  35  53  76 107 142 182 226 273 329
#     4  10  22  40  61  85 114 149 191 238 285 336
#
# _framework density 22.64545
#
# number of rings (size 3 to 8) (size 9 to 14) (size 15 to 20)
#    0.000    2.333    0.000    2.000    0.000    4.667 
#    0.000    3.333    0.000    0.000    0.000    0.000 
#    0.000    0.000    0.000    0.000    0.000    0.000 
#
# Total GULP energy -297408.628241 kJ/mol
# GULP energy per Si atom -12392.026177 kJ/mol
# Density = 2.259391 g / cm^3
# Si number density = 22.645450 Si / 1000 Ang^3
#
#
#
# Elastic Constant Matrix: (Units=GPa)
#
#
# Indices 1 2 3 4 5 6 
#
# 1 192.6216 3.8223 79.2966 0.0000 0.0000 0.0000
# 2 3.8223 34.4475 -4.9416 0.0000 0.0000 0.0000
# 3 79.2966 -4.9416 115.5183 0.0000 0.0000 0.0000
# 4 0.0000 0.0000 0.0000 10.1146 0.0000 0.0000
# 5 0.0000 0.0000 0.0000 0.0000 47.3053 0.0000
# 6 0.0000 0.0000 0.0000 0.0000 0.0000 17.7086
#
#
#
# Elastic Compliance Matrix: (Units=1/GPa)
#
#
# Indices 1 2 3 4 5 6 
#
# 1 0.007317 -0.001542 -0.005089 0.000000 0.000000 0.000000
# 2 -0.001542 0.029534 0.002322 0.000000 0.000000 0.000000
# 3 -0.005089 0.002322 0.012249 0.000000 0.000000 0.000000
# 4 0.000000 0.000000 0.000000 0.098867 0.000000 0.000000
# 5 0.000000 0.000000 0.000000 0.000000 0.021139 0.000000
# 6 0.000000 0.000000 0.000000 0.000000 0.000000 0.056470
#
#
# Mechanical properties :
#
#
# Convention : Reuss Voigt Hill
#
# Bulk Modulus (GPa) = 24.70206 55.43800 40.07003
# Shear Modulus (GPa) = 20.18678 32.65305 26.41992
#
# Velocity S-wave (km/s) = 2.98892 3.80139 3.41937
# Velocity P-wave (km/s) = 4.77947 6.61826 5.77255
#
# Compressibility (1/GPa) = 0.04048245
#
# Stress axis : x y z
#
# Youngs Moduli (GPa) = 136.66873 33.85943 81.63927
#
# Poissons Ratio (x) = 0.05221 0.41543
# Poissons Ratio (y) = 0.21073 -0.18955
# Poissons Ratio (z) = 0.69546 -0.07862
#
# Static dielectric constant tensor:
#      x y z
#    x 4.286630 0.000000 0.000000 
#    y 0.000000 3.921560 0.000000 
#    z 0.000000 0.000000 3.596950 
# 
# 
# High freq. dielectric constant tensor:
#      x y z
#    x 1.902340 0.000000 0.000000 
#    y 0.000000 1.880670 0.000000 
#    z 0.000000 0.000000 1.863850 
# 
# From -- ./inp_files/6721.got.cif
#   From: 2010.03.12/outbox.cif.g09.slc.cpg/sg36_4_cif.got.tgz:6721.got - 2010.04.14 02:13:53.
