data_PCOD8174219
_publ_section_title
;
Structure prediction by ZEFSAII (Michael W. Deem and Ramdas Pophale) SiO2 
 PCOD8174219
Probable space group: C M C 21
;
_chemical_formula_sum "Si O2"
_cell_formula_units_Z 64
_cell_length_a 9.071099
_cell_length_b 20.155856
_cell_length_c 19.808054
_cell_angle_alpha 90.000000
_cell_angle_beta 90.000000
_cell_angle_gamma 90.000000
_cell_volume 3621.620710
_symmetry_space_group_name_H-M "C M C 21"
_symmetry_group_IT_number 36
_symmetry_cell_setting 'orthorhombic'
loop_
_space_group_symop_operation_xyz
x,y,z
-x,-y,1/2+z
x,-y,1/2+z
-x,y,z
1/2+x,1/2+y,z
1/2-x,1/2-y,1/2+z
1/2+x,1/2-y,1/2+z
1/2-x,1/2+y,z
loop_
_atom_site_type_symbol
_atom_site_label
_atom_site_fract_x
_atom_site_fract_y
_atom_site_fract_z
Si Si1 0.828697 0.830037 0.970560
Si Si2 0.829158 0.313092 0.499257
Si Si3 0.828117 0.984948 0.351910
Si Si4 0.326643 0.585984 0.240293
Si Si5 0.327848 0.663227 0.860700
Si Si6 0.324478 0.526424 0.498671
Si Si7 0.172345 0.211372 0.325276
Si Si8 0.826698 0.572537 0.098672
O O1 0.763861 0.818888 0.895290
O O2 0.000000 0.842822 0.960312
O O3 0.768212 0.897016 0.005033
O O4 0.795808 0.764644 0.015922
O O5 0.732845 0.336455 0.436512
O O6 0.787629 0.357083 0.563818
O O7 0.000000 0.321786 0.478983
O O8 0.794604 0.909405 0.329821
O O9 0.765231 0.999456 0.426619
O O10 0.000000 0.000103 0.356279
O O11 0.762610 0.034549 0.295824
O O12 0.500000 0.575046 0.227636
O O13 0.293820 0.660873 0.264812
O O14 0.238659 0.573204 0.172745
O O15 0.500000 0.677762 0.863841
O O16 0.252524 0.718190 0.812560
O O17 0.500000 0.517909 0.507040
O O18 0.245297 0.487372 0.558015
O O19 0.000000 0.226221 0.331930
O O20 0.000000 0.560758 0.102375
#
# Coordination Sequence:
#
# PCOD8174219 Si02
#       8
#     8   8   8   8   8   8   8   8
#     4   8  14  28  54  79  96 124 171 219 252 293
#     4   9  18  33  51  73 103 138 173 210 258 313
#     4   9  17  31  54  82 104 130 177 227 257 299
#     4  10  20  37  58  76 100 142 187 221 256 312
#     4  10  18  29  51  81 108 129 163 217 266 306
#     4  10  17  32  57  80 102 133 178 223 259 307
#     4   9  17  32  53  77 104 134 171 213 260 314
#     4  11  23  36  50  76 113 144 172 216 272 326
#
# _framework density 17.671645999999999
#
# number of rings (size 3 to 8) (size 9 to 14) (size 15 to 20)
#    0.000    2.500    2.500    1.500    0.000    1.000 
#    0.000    5.625    0.000    6.000    0.000    0.000 
#    0.000    0.000    0.000    0.000    0.000    0.000 
#
# Total GULP energy -396658.469213 kJ/mol
# GULP energy per Si atom -12395.577163 kJ/mol
# Density = 1.763142 g / cm^3
# Si number density = 17.671646 Si / 1000 Ang^3
#
#
#
# Elastic Constant Matrix: (Units=GPa)
#
#
# Indices 1 2 3 4 5 6 
#
# 1 53.4503 44.8955 32.1354 0.0000 0.0000 0.0000
# 2 44.8955 135.7806 50.7501 0.0000 0.0000 0.0000
# 3 32.1354 50.7501 88.4658 0.0000 0.0000 0.0000
# 4 0.0000 0.0000 0.0000 26.8565 0.0000 0.0000
# 5 0.0000 0.0000 0.0000 0.0000 23.0670 0.0000
# 6 0.0000 0.0000 0.0000 0.0000 0.0000 26.3500
#
#
#
# Elastic Compliance Matrix: (Units=1/GPa)
#
#
# Indices 1 2 3 4 5 6 
#
# 1 0.028399 -0.007045 -0.006274 0.000000 0.000000 0.000000
# 2 -0.007045 0.011123 -0.003822 0.000000 0.000000 0.000000
# 3 -0.006274 -0.003822 0.015775 0.000000 0.000000 0.000000
# 4 0.000000 0.000000 0.000000 0.037235 0.000000 0.000000
# 5 0.000000 0.000000 0.000000 0.000000 0.043352 0.000000
# 6 0.000000 0.000000 0.000000 0.000000 0.000000 0.037951
#
#
# Mechanical properties :
#
#
# Convention : Reuss Voigt Hill
#
# Bulk Modulus (GPa) = 47.58564 59.25098 53.41831
# Shear Modulus (GPa) = 23.24277 25.24908 24.24593
#
# Velocity S-wave (km/s) = 3.63058 3.78404 3.70810
# Velocity P-wave (km/s) = 6.67540 7.25903 6.97332
#
# Compressibility (1/GPa) = 0.02101474
#
# Stress axis : x y z
#
# Youngs Moduli (GPa) = 35.21311 89.90753 63.38985
#
# Poissons Ratio (x) = 0.63337 0.39774
# Poissons Ratio (y) = 0.24807 0.24225
# Poissons Ratio (z) = 0.22094 0.34360
#
# Static dielectric constant tensor:
#      x y z
#    x 3.038240 0.000000 0.000000 
#    y 0.000000 3.693120 0.000000 
#    z 0.000000 0.000000 3.053220 
# 
# 
# High freq. dielectric constant tensor:
#      x y z
#    x 1.657800 0.000000 0.000000 
#    y 0.000000 1.703800 0.000000 
#    z 0.000000 0.000000 1.654240 
# 
# From -- ./inp_files/13952.got.cif
#   From: 2010.03.12/outbox.cif.g09.slc.cpg/sg36_7_cif.got.tgz:13952.got - 2010.04.14 02:13:53.
