data_PCOD8174288
_publ_section_title
;
Structure prediction by ZEFSAII (Michael W. Deem and Ramdas Pophale) SiO2 
 PCOD8174288
Probable space group: C M C 21
;
_chemical_formula_sum "Si O2"
_cell_formula_units_Z 48
_cell_length_a 23.608948
_cell_length_b 10.471165
_cell_length_c 8.698127
_cell_angle_alpha 90.000000
_cell_angle_beta 90.000000
_cell_angle_gamma 90.000000
_cell_volume 2150.291723
_symmetry_space_group_name_H-M "C M C 21"
_symmetry_group_IT_number 36
_symmetry_cell_setting 'orthorhombic'
loop_
_space_group_symop_operation_xyz
x,y,z
-x,-y,1/2+z
x,-y,1/2+z
-x,y,z
1/2+x,1/2+y,z
1/2-x,1/2-y,1/2+z
1/2+x,1/2-y,1/2+z
1/2-x,1/2+y,z
loop_
_atom_site_type_symbol
_atom_site_label
_atom_site_fract_x
_atom_site_fract_y
_atom_site_fract_z
Si Si1 0.500000 0.412070 0.378031
Si Si2 0.313669 0.437983 0.906939
Si Si3 0.881736 0.803511 0.409483
Si Si4 0.881598 0.728086 0.074597
Si Si5 0.215722 0.397553 0.439932
Si Si6 0.500000 0.675379 0.530221
Si Si7 0.296565 0.755815 0.142207
O O1 0.444952 0.347126 0.454601
O O2 0.500000 0.564039 0.403452
O O3 0.500000 0.393560 0.195331
O O4 0.342116 0.574589 0.879360
O O5 0.249058 0.469800 0.970385
O O6 0.309401 0.369901 0.743490
O O7 0.350229 0.359148 0.027964
O O8 0.882393 0.715725 0.258057
O O9 0.854096 0.718482 0.545031
O O10 0.945387 0.733996 0.009098
O O11 0.849049 0.604550 0.002477
O O12 0.244434 0.274981 0.526906
O O13 0.216922 0.373085 0.255838
#
# Coordination Sequence:
#
# PCOD8174288 Si02
#       7
#     4   8   8   8   8   4   8
#     4  10  20  28  50  74 104 143 177 201 260 311
#     4  10  19  32  50  73 103 141 173 210 256 308
#     4  10  18  31  47  73 105 141 173 204 252 310
#     4  10  20  34  52  77 111 138 175 208 258 312
#     4  10  20  34  50  72 102 142 173 216 258 306
#     4  10  20  32  50  80 106 143 169 213 256 317
#     4  10  21  32  49  71 103 139 177 215 256 311
#
# _framework density 22.322552000000002
#
# number of rings (size 3 to 8) (size 9 to 14) (size 15 to 20)
#    0.000    2.000    1.667    4.000    2.333    2.667 
#    0.000    1.667    0.000    0.000    0.000    1.167 
#    0.000   30.667    0.000    0.833    0.000    0.000 
#
# Total GULP energy -297549.149073 kJ/mol
# GULP energy per Si atom -12397.881211 kJ/mol
# Density = 2.227175 g / cm^3
# Si number density = 22.322552 Si / 1000 Ang^3
#
#
#
# Elastic Constant Matrix: (Units=GPa)
#
#
# Indices 1 2 3 4 5 6 
#
# 1 172.4971 16.9452 43.8028 0.0000 0.0000 0.0000
# 2 16.9452 23.9297 0.0874 0.0000 0.0000 0.0000
# 3 43.8028 0.0874 90.7102 0.0000 0.0000 0.0000
# 4 0.0000 0.0000 0.0000 17.0655 0.0000 0.0000
# 5 0.0000 0.0000 0.0000 0.0000 37.3726 0.0000
# 6 0.0000 0.0000 0.0000 0.0000 0.0000 28.9386
#
#
#
# Elastic Compliance Matrix: (Units=1/GPa)
#
#
# Indices 1 2 3 4 5 6 
#
# 1 0.007173 -0.005067 -0.003459 0.000000 0.000000 0.000000
# 2 -0.005067 0.045368 0.002403 0.000000 0.000000 0.000000
# 3 -0.003459 0.002403 0.012692 0.000000 0.000000 0.000000
# 4 0.000000 0.000000 0.000000 0.058598 0.000000 0.000000
# 5 0.000000 0.000000 0.000000 0.000000 0.026758 0.000000
# 6 0.000000 0.000000 0.000000 0.000000 0.000000 0.034556
#
#
# Mechanical properties :
#
#
# Convention : Reuss Voigt Hill
#
# Bulk Modulus (GPa) = 18.87222 45.42309 32.14766
# Shear Modulus (GPa) = 23.25002 31.76212 27.50607
#
# Velocity S-wave (km/s) = 3.23080 3.77619 3.51409
# Velocity P-wave (km/s) = 4.73182 6.27738 5.55858
#
# Compressibility (1/GPa) = 0.05298794
#
# Stress axis : x y z
#
# Youngs Moduli (GPa) = 139.40555 22.04180 78.78907
#
# Poissons Ratio (x) = 0.11169 0.27253
# Poissons Ratio (y) = 0.70637 -0.18934
# Poissons Ratio (z) = 0.48221 -0.05297
#
# Static dielectric constant tensor:
#      x y z
#    x 4.432040 0.000000 0.000000 
#    y 0.000000 3.490040 0.000000 
#    z 0.000000 0.000000 4.081140 
# 
# 
# High freq. dielectric constant tensor:
#      x y z
#    x 1.883860 0.000000 0.000000 
#    y 0.000000 1.835080 0.000000 
#    z 0.000000 0.000000 1.887250 
# 
# From -- ./inp_files/5140.got.cif
#   From: 2010.03.12/outbox.cif.g09.slc.cpg/sg36_3_cif.got.tgz:5140.got - 2010.04.14 02:13:53.
