data_PCOD8174290
_publ_section_title
;
Structure prediction by ZEFSAII (Michael W. Deem and Ramdas Pophale) SiO2 
 PCOD8174290
Probable space group: C M C 21
;
_chemical_formula_sum "Si O2"
_cell_formula_units_Z 64
_cell_length_a 8.988617
_cell_length_b 18.940306
_cell_length_c 21.983483
_cell_angle_alpha 90.000000
_cell_angle_beta 90.000000
_cell_angle_gamma 90.000000
_cell_volume 3742.625471
_symmetry_space_group_name_H-M "C M C 21"
_symmetry_group_IT_number 36
_symmetry_cell_setting 'orthorhombic'
loop_
_space_group_symop_operation_xyz
x,y,z
-x,-y,1/2+z
x,-y,1/2+z
-x,y,z
1/2+x,1/2+y,z
1/2-x,1/2-y,1/2+z
1/2+x,1/2-y,1/2+z
1/2-x,1/2+y,z
loop_
_atom_site_type_symbol
_atom_site_label
_atom_site_fract_x
_atom_site_fract_y
_atom_site_fract_z
Si Si1 0.335744 0.376432 0.025730
Si Si2 0.164970 0.028639 0.056780
Si Si3 0.324134 0.658354 0.393333
Si Si4 0.673049 0.101508 0.770464
Si Si5 0.325909 0.925716 0.133410
Si Si6 0.329103 0.898112 0.456260
Si Si7 0.176414 0.799181 0.363288
Si Si8 0.167771 0.480220 0.859827
O O1 0.500000 0.346618 0.041733
O O2 0.346863 0.460601 0.012151
O O3 0.227926 0.365848 0.084463
O O4 0.274041 0.340339 0.964484
O O5 0.247733 0.001355 0.118328
O O6 0.000000 0.057316 0.072954
O O7 0.257823 0.089594 0.022791
O O8 0.500000 0.669094 0.387139
O O9 0.236784 0.719772 0.358722
O O10 0.281233 0.584473 0.362361
O O11 0.500000 0.121467 0.779822
O O12 0.719972 0.099711 0.700159
O O13 0.772096 0.160682 0.802624
O O14 0.704407 0.024733 0.799156
O O15 0.500000 0.937003 0.127302
O O16 0.500000 0.875298 0.464105
O O17 0.242786 0.834797 0.423724
O O18 0.313729 0.969169 0.417643
O O19 0.000000 0.799911 0.367174
O O20 0.000000 0.450274 0.857825
#
# Coordination Sequence:
#
# PCOD8174290 Si02
#       8
#     8   8   8   8   8   8   8   8
#     4   8  17  29  46  72 100 126 157 202 244 289
#     4   9  16  27  45  73 101 124 157 200 242 287
#     4  11  20  33  50  72 102 133 166 203 248 299
#     4   9  19  35  51  73 102 133 168 205 247 298
#     4   9  16  28  49  74  99 129 165 206 247 292
#     4  10  18  31  50  73 100 129 160 198 246 295
#     4  11  23  34  49  72 102 136 168 206 252 299
#     4   9  17  29  48  71  96 124 159 200 238 283
#
# _framework density 17.100294999999999
#
# number of rings (size 3 to 8) (size 9 to 14) (size 15 to 20)
#    0.750    1.750    1.250    3.000    0.000    4.000 
#    0.000    0.000    0.000    1.500    0.000    8.750 
#    0.000    0.000    0.000    0.000    0.000    0.000 
#
# Total GULP energy -396582.093456 kJ/mol
# GULP energy per Si atom -12393.190421 kJ/mol
# Density = 1.706137 g / cm^3
# Si number density = 17.100295 Si / 1000 Ang^3
#
#
#
# Elastic Constant Matrix: (Units=GPa)
#
#
# Indices 1 2 3 4 5 6 
#
# 1 112.0723 37.6376 43.8925 0.0000 0.0000 0.0000
# 2 37.6376 65.0234 24.2081 0.0000 0.0000 0.0000
# 3 43.8925 24.2081 82.1509 0.0000 0.0000 0.0000
# 4 0.0000 0.0000 0.0000 14.2876 0.0000 0.0000
# 5 0.0000 0.0000 0.0000 0.0000 25.7301 0.0000
# 6 0.0000 0.0000 0.0000 0.0000 0.0000 24.5978
#
#
#
# Elastic Compliance Matrix: (Units=1/GPa)
#
#
# Indices 1 2 3 4 5 6 
#
# 1 0.012808 -0.005465 -0.005232 0.000000 0.000000 0.000000
# 2 -0.005465 0.019606 -0.002858 0.000000 0.000000 0.000000
# 3 -0.005232 -0.002858 0.015810 0.000000 0.000000 0.000000
# 4 0.000000 0.000000 0.000000 0.069991 0.000000 0.000000
# 5 0.000000 0.000000 0.000000 0.000000 0.038865 0.000000
# 6 0.000000 0.000000 0.000000 0.000000 0.000000 0.040654
#
#
# Mechanical properties :
#
#
# Convention : Reuss Voigt Hill
#
# Bulk Modulus (GPa) = 47.36240 52.30255 49.83248
# Shear Modulus (GPa) = 21.56261 23.15698 22.35979
#
# Velocity S-wave (km/s) = 3.55484 3.68392 3.61995
# Velocity P-wave (km/s) = 6.67878 6.98192 6.83203
#
# Compressibility (1/GPa) = 0.02111379
#
# Stress axis : x y z
#
# Youngs Moduli (GPa) = 78.07922 51.00363 63.24952
#
# Poissons Ratio (x) = 0.27875 0.33095
# Poissons Ratio (y) = 0.42673 0.18074
# Poissons Ratio (z) = 0.40854 0.14574
#
# Static dielectric constant tensor:
#      x y z
#    x 3.220330 0.000000 0.000000 
#    y 0.000000 2.879600 0.000000 
#    z 0.000000 0.000000 3.052190 
# 
# 
# High freq. dielectric constant tensor:
#      x y z
#    x 1.670930 0.000000 0.000000 
#    y 0.000000 1.625110 0.000000 
#    z 0.000000 0.000000 1.641050 
# 
# From -- ./inp_files/16719.got.cif
#   From: 2010.03.12/outbox.cif.g09.slc.cpg/sg36_9_cif.got.tgz:16719.got - 2010.04.14 02:13:53.
