data_PCOD8174094
_publ_section_title
;
Structure prediction by ZEFSAII (Michael W. Deem and Ramdas Pophale) SiO2 
 PCOD8174094
Probable space group: C M M 2
;
_chemical_formula_sum "Si O2"
_cell_formula_units_Z 48
_cell_length_a 17.224579
_cell_length_b 10.402772
_cell_length_c 14.197100
_cell_angle_alpha 90.000000
_cell_angle_beta 90.000000
_cell_angle_gamma 90.000000
_cell_volume 2543.884196
_symmetry_space_group_name_H-M "C M M 2"
_symmetry_group_IT_number 35
_symmetry_cell_setting 'orthorhombic'
loop_
_space_group_symop_operation_xyz
x,y,z
-x,-y,z
-x,y,z
x,-y,z
1/2+x,1/2+y,z
1/2-x,1/2-y,z
1/2-x,1/2+y,z
1/2+x,1/2-y,z
loop_
_atom_site_type_symbol
_atom_site_label
_atom_site_fract_x
_atom_site_fract_y
_atom_site_fract_z
Si Si1 0.592199 0.643132 0.607630
Si Si2 0.590534 0.650750 0.398930
Si Si3 0.407524 0.250090 0.799444
Si Si4 0.092625 0.500000 0.904823
Si Si5 0.091983 0.000000 0.117879
Si Si6 0.341040 0.748469 0.216952
Si Si7 0.907615 0.000000 0.905413
Si Si8 0.407861 0.000000 0.120472
O O1 0.500000 0.634114 0.607896
O O2 0.625038 0.500000 0.628128
O O3 0.618660 0.690616 0.504178
O O4 0.620406 0.740219 0.690107
O O5 0.500000 0.680548 0.384199
O O6 0.606764 0.500000 0.381101
O O7 0.639429 0.738945 0.327770
O O8 0.500000 0.247430 0.804617
O O9 0.373600 0.123448 0.849438
O O10 0.374686 0.373601 0.854492
O O11 0.000000 0.500000 0.903275
O O12 0.122315 0.500000 0.012452
O O13 0.122525 0.126362 0.167089
O O14 0.000000 0.000000 0.123697
O O15 0.122859 0.000000 0.011621
O O16 0.250000 0.750000 0.201202
O O17 0.377157 0.875799 0.173662
O O18 0.000000 0.000000 0.901639
O O19 0.500000 0.000000 0.122826
#
# Coordination Sequence:
#
# PCOD8174094 Si02
#       8
#     8   8   8   4   4   8   4   4
#     4   8  13  23  44  75 106 133 165 217 275 316
#     4   9  17  32  56  82 107 139 183 229 273 323
#     4   9  14  24  41  70 109 138 165 212 273 321
#     4   9  18  29  44  69 106 148 175 205 266 333
#     4  11  21  37  60  83 106 144 197 237 268 323
#     4  12  24  38  56  82 112 148 187 235 284 329
#     4   9  16  25  46  75 102 130 173 231 270 303
#     4  11  23  39  56  79 116 154 185 225 284 335
#
# _framework density 18.868784000000002
#
# number of rings (size 3 to 8) (size 9 to 14) (size 15 to 20)
#    0.000    2.333    1.667    4.000    0.000    2.667 
#    0.000    0.833    0.000    3.000    0.000    7.000 
#    0.000    0.000    0.000    0.000    0.000    0.000 
#
# Total GULP energy -297509.626909 kJ/mol
# GULP energy per Si atom -12396.234455 kJ/mol
# Density = 1.882584 g / cm^3
# Si number density = 18.868784 Si / 1000 Ang^3
#
#
#
# Elastic Constant Matrix: (Units=GPa)
#
#
# Indices 1 2 3 4 5 6 
#
# 1 47.9733 24.7760 29.3684 0.0000 0.0000 0.0000
# 2 24.7760 152.6746 91.7447 0.0000 0.0000 0.0000
# 3 29.3684 91.7447 189.1310 0.0000 0.0000 0.0000
# 4 0.0000 0.0000 0.0000 69.3193 0.0000 0.0000
# 5 0.0000 0.0000 0.0000 0.0000 -0.3322 0.0000
# 6 0.0000 0.0000 0.0000 0.0000 0.0000 12.8563
#
#
#
# Elastic Compliance Matrix: (Units=1/GPa)
#
#
# Indices 1 2 3 4 5 6 
#
# 1 0.023592 -0.002297 -0.002549 0.000000 0.000000 0.000000
# 2 -0.002297 0.009468 -0.004236 0.000000 0.000000 0.000000
# 3 -0.002549 -0.004236 0.007738 0.000000 0.000000 0.000000
# 4 0.000000 0.000000 0.000000 0.014426 0.000000 0.000000
# 5 0.000000 0.000000 0.000000 0.000000 -3.009888 0.000000
# 6 0.000000 0.000000 0.000000 0.000000 0.000000 0.077783
#
#
# Mechanical properties :
#
#
# Convention : Reuss Voigt Hill
#
# Bulk Modulus (GPa) = 44.18178 75.72857 59.95517
# Shear Modulus (GPa) = -1.75366 32.62797 15.43715
#
# Velocity S-wave (km/s) = -0.96510 4.16288 2.86340
# Velocity P-wave (km/s) = 4.71426 7.95786 6.54033
#
# Compressibility (1/GPa) = 0.02263376
#
# Stress axis : x y z
#
# Youngs Moduli (GPa) = 42.38790 105.61651 129.22952
#
# Poissons Ratio (x) = 0.24255 0.32945
# Poissons Ratio (y) = 0.09734 0.54745
# Poissons Ratio (z) = 0.10806 0.44742
#
# Static dielectric constant tensor:
#      x y z
#    x 2.927180 0.000000 0.000000 
#    y 0.000000 3.292860 0.000000 
#    z 0.000000 0.000000 3.985940 
# 
# 
# High freq. dielectric constant tensor:
#      x y z
#    x 1.676140 0.000000 0.000000 
#    y 0.000000 1.726830 0.000000 
#    z 0.000000 0.000000 1.757390 
# 
# From -- ./inp_files/17166.got.cif
#   From: 2010.03.12/outbox.cif.g09.slc.cpg/sg35_9_cif.got.tgz:17166.got - 2010.04.14 02:02:04.
