data_PCOD8174395
_publ_section_title
;
Structure prediction by ZEFSAII (Michael W. Deem and Ramdas Pophale) SiO2 
 PCOD8174395
Probable space group: C M C 21
;
_chemical_formula_sum "Si O2"
_cell_formula_units_Z 64
_cell_length_a 8.811350
_cell_length_b 20.622269
_cell_length_c 19.279819
_cell_angle_alpha 90.000000
_cell_angle_beta 90.000000
_cell_angle_gamma 90.000000
_cell_volume 3503.336488
_symmetry_space_group_name_H-M "C M C 21"
_symmetry_group_IT_number 36
_symmetry_cell_setting 'orthorhombic'
loop_
_space_group_symop_operation_xyz
x,y,z
-x,-y,1/2+z
x,-y,1/2+z
-x,y,z
1/2+x,1/2+y,z
1/2-x,1/2-y,1/2+z
1/2+x,1/2-y,1/2+z
1/2-x,1/2+y,z
loop_
_atom_site_type_symbol
_atom_site_label
_atom_site_fract_x
_atom_site_fract_y
_atom_site_fract_z
Si Si1 0.179645 0.366499 0.759860
Si Si2 0.320757 0.864451 0.913040
Si Si3 0.823151 0.565933 0.637574
Si Si4 0.678038 0.493663 0.264818
Si Si5 0.819476 0.690800 0.553233
Si Si6 0.678550 0.319718 0.625729
Si Si7 0.823161 0.510581 0.905133
Si Si8 0.826003 0.561922 0.051866
O O1 0.230417 0.340754 0.836224
O O2 0.237103 0.439357 0.747714
O O3 0.248894 0.319214 0.702252
O O4 0.000000 0.367806 0.752068
O O5 0.500000 0.862336 0.918605
O O6 0.266932 0.938312 0.924409
O O7 0.253234 0.819811 0.974917
O O8 0.725383 0.558419 0.707146
O O9 0.766058 0.631743 0.601606
O O10 0.789985 0.507332 0.585148
O O11 0.000000 0.569493 0.657009
O O12 0.500000 0.506236 0.263332
O O13 0.727968 0.464605 0.339147
O O14 0.755599 0.758028 0.583829
O O15 0.000000 0.692509 0.550380
O O16 0.500000 0.314620 0.634873
O O17 0.717319 0.384492 0.584038
O O18 0.000000 0.509272 0.884788
O O19 0.792488 0.557827 0.969775
O O20 0.000000 0.581801 0.065993
#
# Coordination Sequence:
#
# PCOD8174395 Si02
#       8
#     8   8   8   8   8   8   8   8
#     4  10  19  33  55  77 103 142 186 225 261 321
#     4   8  14  29  54  78  96 125 177 226 260 306
#     4  10  18  33  58  80 102 140 184 222 260 318
#     4  11  21  32  50  81 115 141 172 225 283 325
#     4   9  18  34  55  80 107 140 181 223 271 322
#     4  11  22  34  52  80 116 146 174 221 277 326
#     4   9  17  32  55  81 104 135 182 229 267 318
#     4  10  19  33  57  81 103 137 184 227 261 314
#
# _framework density 18.268298000000001
#
# number of rings (size 3 to 8) (size 9 to 14) (size 15 to 20)
#    0.000    2.250    2.500    2.625    0.000    0.500 
#    0.000    2.500    0.000   10.500    0.000    0.000 
#    0.000    0.000    0.000    0.000    0.000    0.000 
#
# Total GULP energy -396743.734789 kJ/mol
# GULP energy per Si atom -12398.241712 kJ/mol
# Density = 1.822672 g / cm^3
# Si number density = 18.268298 Si / 1000 Ang^3
#
#
#
# Elastic Constant Matrix: (Units=GPa)
#
#
# Indices 1 2 3 4 5 6 
#
# 1 58.8716 27.5060 41.0255 0.0000 0.0000 0.0000
# 2 27.5060 75.1743 51.3441 0.0000 0.0000 0.0000
# 3 41.0255 51.3441 154.3513 0.0000 0.0000 0.0000
# 4 0.0000 0.0000 0.0000 27.9570 0.0000 0.0000
# 5 0.0000 0.0000 0.0000 0.0000 23.8824 0.0000
# 6 0.0000 0.0000 0.0000 0.0000 0.0000 16.8451
#
#
#
# Elastic Compliance Matrix: (Units=1/GPa)
#
#
# Indices 1 2 3 4 5 6 
#
# 1 0.022391 -0.005342 -0.004175 0.000000 0.000000 0.000000
# 2 -0.005342 0.018487 -0.004730 0.000000 0.000000 0.000000
# 3 -0.004175 -0.004730 0.009162 0.000000 0.000000 0.000000
# 4 0.000000 0.000000 0.000000 0.035769 0.000000 0.000000
# 5 0.000000 0.000000 0.000000 0.000000 0.041872 0.000000
# 6 0.000000 0.000000 0.000000 0.000000 0.000000 0.059364
#
#
# Mechanical properties :
#
#
# Convention : Reuss Voigt Hill
#
# Bulk Modulus (GPa) = 46.40817 58.68314 52.54566
# Shear Modulus (GPa) = 22.44970 24.97167 23.71068
#
# Velocity S-wave (km/s) = 3.50935 3.70123 3.60657
# Velocity P-wave (km/s) = 6.47144 7.10339 6.79477
#
# Compressibility (1/GPa) = 0.02154793
#
# Stress axis : x y z
#
# Youngs Moduli (GPa) = 44.66105 54.09071 109.15013
#
# Poissons Ratio (x) = 0.28893 0.45565
# Poissons Ratio (y) = 0.23856 0.51628
# Poissons Ratio (z) = 0.18644 0.25585
#
# Static dielectric constant tensor:
#      x y z
#    x 3.077400 0.000000 0.000000 
#    y 0.000000 3.225420 0.000000 
#    z 0.000000 0.000000 3.811620 
# 
# 
# High freq. dielectric constant tensor:
#      x y z
#    x 1.682010 0.000000 0.000000 
#    y 0.000000 1.675630 0.000000 
#    z 0.000000 0.000000 1.729670 
# 
# From -- ./inp_files/15819.got.cif
#   From: 2010.03.12/outbox.cif.g09.slc.cpg/sg36_8_cif.got.tgz:15819.got - 2010.04.14 02:13:53.
