data_PCOD8174394
_publ_section_title
;
Structure prediction by ZEFSAII (Michael W. Deem and Ramdas Pophale) SiO2 
 PCOD8174394
Probable space group: C M C 21
;
_chemical_formula_sum "Si O2"
_cell_formula_units_Z 56
_cell_length_a 9.863590
_cell_length_b 22.584751
_cell_length_c 13.277088
_cell_angle_alpha 90.000000
_cell_angle_beta 90.000000
_cell_angle_gamma 90.000000
_cell_volume 2957.693400
_symmetry_space_group_name_H-M "C M C 21"
_symmetry_group_IT_number 36
_symmetry_cell_setting 'orthorhombic'
loop_
_space_group_symop_operation_xyz
x,y,z
-x,-y,1/2+z
x,-y,1/2+z
-x,y,z
1/2+x,1/2+y,z
1/2-x,1/2-y,1/2+z
1/2+x,1/2-y,1/2+z
1/2-x,1/2+y,z
loop_
_atom_site_type_symbol
_atom_site_label
_atom_site_fract_x
_atom_site_fract_y
_atom_site_fract_z
Si Si1 0.762988 0.040690 0.618310
Si Si2 0.849944 0.010469 0.920810
Si Si3 0.150018 0.453187 0.772677
Si Si4 0.349439 0.618663 0.796139
Si Si5 0.344677 0.844894 0.018264
Si Si6 0.837059 0.717863 0.719720
Si Si7 0.342345 0.821646 0.797251
O O1 0.848328 0.000613 0.540659
O O2 0.854988 0.075416 0.698772
O O3 0.681508 0.088344 0.553169
O O4 0.664829 0.995691 0.676618
O O5 0.750423 0.966589 0.863605
O O6 0.000000 0.996782 0.879922
O O7 0.814990 0.079038 0.894619
O O8 0.169371 0.384800 0.741037
O O9 0.000000 0.462404 0.817076
O O10 0.500000 0.647728 0.805149
O O11 0.231513 0.667698 0.790433
O O12 0.500000 0.839734 0.994581
O O13 0.302152 0.798337 0.104322
O O14 0.279696 0.827773 0.910728
O O15 0.761414 0.779070 0.739416
O O16 0.000000 0.720428 0.739433
O O17 0.500000 0.799171 0.793627
#
# Coordination Sequence:
#
# PCOD8174394 Si02
#       7
#     8   8   8   8   8   8   8
#     4  10  18  33  57  86 116 144 186 228 280 337
#     4  10  20  34  55  84 117 150 184 226 282 341
#     4  10  21  35  57  87 116 148 186 232 282 335
#     4   9  19  35  55  80 111 147 185 228 281 337
#     4   9  18  35  59  81 108 147 186 224 281 341
#     4  10  21  38  58  82 107 143 192 240 281 326
#     4  10  20  38  59  82 113 151 189 230 281 337
#
# _framework density 18.933674
#
# number of rings (size 3 to 8) (size 9 to 14) (size 15 to 20)
#    0.000    2.286    1.429    1.286    0.000    5.143 
#    2.571    1.429    0.000    0.000    0.000    0.000 
#    0.000    0.000    0.000    0.000    0.000    0.000 
#
# Total GULP energy -346964.258294 kJ/mol
# GULP energy per Si atom -12391.580653 kJ/mol
# Density = 1.889058 g / cm^3
# Si number density = 18.933674 Si / 1000 Ang^3
#
#
#
# Elastic Constant Matrix: (Units=GPa)
#
#
# Indices 1 2 3 4 5 6 
#
# 1 87.1578 67.6390 20.1591 0.0000 0.0000 0.0000
# 2 67.6390 79.2477 30.6705 0.0000 0.0000 0.0000
# 3 20.1591 30.6705 66.2336 0.0000 0.0000 0.0000
# 4 0.0000 0.0000 0.0000 29.2449 0.0000 0.0000
# 5 0.0000 0.0000 0.0000 0.0000 20.1081 0.0000
# 6 0.0000 0.0000 0.0000 0.0000 0.0000 30.9204
#
#
#
# Elastic Compliance Matrix: (Units=1/GPa)
#
#
# Indices 1 2 3 4 5 6 
#
# 1 0.034770 -0.031166 0.003849 0.000000 0.000000 0.000000
# 2 -0.031166 0.043310 -0.010570 0.000000 0.000000 0.000000
# 3 0.003849 -0.010570 0.018821 0.000000 0.000000 0.000000
# 4 0.000000 0.000000 0.000000 0.034194 0.000000 0.000000
# 5 0.000000 0.000000 0.000000 0.000000 0.049731 0.000000
# 6 0.000000 0.000000 0.000000 0.000000 0.000000 0.032341
#
#
# Mechanical properties :
#
#
# Convention : Reuss Voigt Hill
#
# Bulk Modulus (GPa) = 47.33084 52.17515 49.75300
# Shear Modulus (GPa) = 16.89288 23.66603 20.27946
#
# Velocity S-wave (km/s) = 2.99023 3.53929 3.27628
# Velocity P-wave (km/s) = 6.08067 6.65723 6.37547
#
# Compressibility (1/GPa) = 0.02112787
#
# Stress axis : x y z
#
# Youngs Moduli (GPa) = 28.76064 23.08929 53.13252
#
# Poissons Ratio (x) = 0.71961 -0.20453
# Poissons Ratio (y) = 0.89636 0.56159
# Poissons Ratio (z) = -0.11071 0.24404
#
# Static dielectric constant tensor:
#      x y z
#    x 3.396690 0.000000 0.000000 
#    y 0.000000 3.461020 0.000000 
#    z 0.000000 0.000000 3.792340 
# 
# 
# High freq. dielectric constant tensor:
#      x y z
#    x 1.731300 0.000000 0.000000 
#    y 0.000000 1.731390 0.000000 
#    z 0.000000 0.000000 1.727940 
# 
# From -- ./inp_files/10629.got.cif
#   From: 2010.03.12/outbox.cif.g09.slc.cpg/sg36_6_cif.got.tgz:10629.got - 2010.04.14 02:13:53.
