data_PCOD8174988
_publ_section_title
;
Structure prediction by ZEFSAII (Michael W. Deem and Ramdas Pophale) SiO2 
 PCOD8174988
Probable space group: C M C 21
;
_chemical_formula_sum "Si O2"
_cell_formula_units_Z 64
_cell_length_a 8.823490
_cell_length_b 30.493876
_cell_length_c 12.012500
_cell_angle_alpha 90.000000
_cell_angle_beta 90.000000
_cell_angle_gamma 90.000000
_cell_volume 3232.112199
_symmetry_space_group_name_H-M "C M C 21"
_symmetry_group_IT_number 36
_symmetry_cell_setting 'orthorhombic'
loop_
_space_group_symop_operation_xyz
x,y,z
-x,-y,1/2+z
x,-y,1/2+z
-x,y,z
1/2+x,1/2+y,z
1/2-x,1/2-y,1/2+z
1/2+x,1/2-y,1/2+z
1/2-x,1/2+y,z
loop_
_atom_site_type_symbol
_atom_site_label
_atom_site_fract_x
_atom_site_fract_y
_atom_site_fract_z
Si Si1 0.328224 0.826102 0.057350
Si Si2 0.676609 0.454287 0.266883
Si Si3 0.669040 0.073017 0.556487
Si Si4 0.320066 0.874497 0.399668
Si Si5 0.319929 0.122184 0.152821
Si Si6 0.178082 0.205257 0.769542
Si Si7 0.320078 0.803158 0.814060
Si Si8 0.677373 0.954987 0.811796
O O1 0.500000 0.807785 0.066935
O O2 0.325052 0.876599 0.091560
O O3 0.217879 0.800815 0.140432
O O4 0.262960 0.819790 0.933742
O O5 0.500000 0.447146 0.284444
O O6 0.716470 0.453210 0.135733
O O7 0.762887 0.416340 0.332554
O O8 0.725658 0.501073 0.313076
O O9 0.500000 0.054062 0.575960
O O10 0.713851 0.068709 0.428035
O O11 0.500000 0.874455 0.395431
O O12 0.259342 0.877566 0.526546
O O13 0.262499 0.829302 0.347569
O O14 0.500000 0.124123 0.155455
O O15 0.253663 0.164590 0.218583
O O16 0.267074 0.077444 0.213725
O O17 0.237387 0.253671 0.799335
O O18 0.000000 0.199813 0.787890
O O19 0.500000 0.805408 0.808501
O O20 0.500000 0.966202 0.799434
#
# Coordination Sequence:
#
# PCOD8174988 Si02
#       8
#     8   8   8   8   8   8   8   8
#     4  10  19  37  64  87 113 153 201 247 290 347
#     4  12  26  41  59  87 126 160 193 242 307 361
#     4  10  20  38  66  90 113 151 203 253 292 347
#     4  11  23  40  62  86 117 158 206 246 288 354
#     4   9  19  38  63  88 114 152 199 248 291 344
#     4  11  23  37  58  89 125 159 193 243 303 351
#     4   9  19  37  60  89 121 153 194 246 301 347
#     4  10  21  40  66  92 115 150 205 251 294 349
#
# _framework density 19.801292
#
# number of rings (size 3 to 8) (size 9 to 14) (size 15 to 20)
#    0.000    1.750    2.500    1.875    3.500    0.500 
#    0.000    1.250    0.000    3.000    0.000    0.000 
#    0.000    0.000    0.000    0.000    0.000    0.000 
#
# Total GULP energy -396853.500350 kJ/mol
# GULP energy per Si atom -12401.671886 kJ/mol
# Density = 1.975622 g / cm^3
# Si number density = 19.801292 Si / 1000 Ang^3
#
#
#
# Elastic Constant Matrix: (Units=GPa)
#
#
# Indices 1 2 3 4 5 6 
#
# 1 62.8227 32.2920 31.6216 0.0000 0.0000 0.0000
# 2 32.2920 120.8487 45.0433 0.0000 0.0000 0.0000
# 3 31.6216 45.0433 126.6146 0.0000 0.0000 0.0000
# 4 0.0000 0.0000 0.0000 33.2464 0.0000 0.0000
# 5 0.0000 0.0000 0.0000 0.0000 18.2598 0.0000
# 6 0.0000 0.0000 0.0000 0.0000 0.0000 25.7925
#
#
#
# Elastic Compliance Matrix: (Units=1/GPa)
#
#
# Indices 1 2 3 4 5 6 
#
# 1 0.019723 -0.003959 -0.003517 0.000000 0.000000 0.000000
# 2 -0.003959 0.010335 -0.002688 0.000000 0.000000 0.000000
# 3 -0.003517 -0.002688 0.009733 0.000000 0.000000 0.000000
# 4 0.000000 0.000000 0.000000 0.030078 0.000000 0.000000
# 5 0.000000 0.000000 0.000000 0.000000 0.054765 0.000000
# 6 0.000000 0.000000 0.000000 0.000000 0.000000 0.038771
#
#
# Mechanical properties :
#
#
# Convention : Reuss Voigt Hill
#
# Bulk Modulus (GPa) = 51.38257 58.68887 55.03572
# Shear Modulus (GPa) = 26.28523 28.88169 27.58346
#
# Velocity S-wave (km/s) = 3.64737 3.82327 3.73636
# Velocity P-wave (km/s) = 6.61386 7.01378 6.81676
#
# Compressibility (1/GPa) = 0.01946185
#
# Stress axis : x y z
#
# Youngs Moduli (GPa) = 50.70126 96.76278 102.74771
#
# Poissons Ratio (x) = 0.38311 0.36140
# Poissons Ratio (y) = 0.20074 0.27616
# Poissons Ratio (z) = 0.17833 0.26007
#
# Static dielectric constant tensor:
#      x y z
#    x 3.293470 0.000000 0.000000 
#    y 0.000000 3.693840 0.000000 
#    z 0.000000 0.000000 3.841850 
# 
# 
# High freq. dielectric constant tensor:
#      x y z
#    x 1.738250 0.000000 0.000000 
#    y 0.000000 1.779880 0.000000 
#    z 0.000000 0.000000 1.788010 
# 
# From -- ./inp_files/7112.got.cif
#   From: 2010.03.12/outbox.cif.g09.slc.cpg/sg36_4_cif.got.tgz:7112.got - 2010.04.14 02:13:53.
