data_PCOD8174783
_publ_section_title
;
Structure prediction by ZEFSAII (Michael W. Deem and Ramdas Pophale) SiO2 
 PCOD8174783
Probable space group: C M C 21
;
_chemical_formula_sum "Si O2"
_cell_formula_units_Z 64
_cell_length_a 8.782764
_cell_length_b 15.541831
_cell_length_c 23.832614
_cell_angle_alpha 90.000000
_cell_angle_beta 90.000000
_cell_angle_gamma 90.000000
_cell_volume 3253.157383
_symmetry_space_group_name_H-M "C M C 21"
_symmetry_group_IT_number 36
_symmetry_cell_setting 'orthorhombic'
loop_
_space_group_symop_operation_xyz
x,y,z
-x,-y,1/2+z
x,-y,1/2+z
-x,y,z
1/2+x,1/2+y,z
1/2-x,1/2-y,1/2+z
1/2+x,1/2-y,1/2+z
1/2-x,1/2+y,z
loop_
_atom_site_type_symbol
_atom_site_label
_atom_site_fract_x
_atom_site_fract_y
_atom_site_fract_z
Si Si1 0.819451 0.127410 0.819040
Si Si2 0.323248 0.461651 0.752941
Si Si3 0.318452 0.379061 0.446119
Si Si4 0.824403 0.966686 0.133887
Si Si5 0.180493 0.528096 0.517961
Si Si6 0.322538 0.212623 0.644301
Si Si7 0.179506 0.288899 0.748072
Si Si8 0.823022 0.278371 0.017915
O O1 0.758686 0.125601 0.882544
O O2 0.760241 0.213929 0.789138
O O3 0.000000 0.127234 0.818186
O O4 0.757524 0.044582 0.785578
O O5 0.500000 0.448089 0.767514
O O6 0.298899 0.470173 0.686176
O O7 0.227401 0.380022 0.774772
O O8 0.500000 0.381770 0.450039
O O9 0.254906 0.466098 0.472689
O O10 0.250644 0.294902 0.478045
O O11 0.727730 0.999840 0.080870
O O12 0.773360 0.873175 0.154685
O O13 0.000000 0.963608 0.115894
O O14 0.242223 0.625523 0.506529
O O15 0.000000 0.523146 0.513473
O O16 0.500000 0.191672 0.652364
O O17 0.265320 0.282660 0.688518
O O18 0.291761 0.249287 0.582071
O O19 0.000000 0.283720 0.738861
O O20 0.000000 0.282487 0.004776
#
# Coordination Sequence:
#
# PCOD8174783 Si02
#       8
#     8   8   8   8   8   8   8   8
#     4   9  20  40  60  80 114 152 194 240 286 344
#     4  10  21  38  57  82 115 152 189 240 296 342
#     4  10  20  38  63  83 106 155 202 232 280 352
#     4  10  19  35  59  83 117 157 193 235 292 354
#     4  10  21  37  55  84 121 150 186 243 294 340
#     4  10  19  34  56  84 120 154 187 238 295 345
#     4  11  22  37  57  86 115 152 197 238 287 352
#     4   8  18  35  55  80 112 148 184 224 284 345
#
# _framework density 19.673193999999999
#
# number of rings (size 3 to 8) (size 9 to 14) (size 15 to 20)
#    0.000    2.250    1.250    2.250    1.750    2.000 
#    0.000    6.250    0.000    0.000    0.000    0.000 
#    0.000    0.000    0.000    0.000    0.000    0.000 
#
# Total GULP energy -396800.974259 kJ/mol
# GULP energy per Si atom -12400.030446 kJ/mol
# Density = 1.962842 g / cm^3
# Si number density = 19.673194 Si / 1000 Ang^3
#
#
#
# Elastic Constant Matrix: (Units=GPa)
#
#
# Indices 1 2 3 4 5 6 
#
# 1 33.3298 26.6880 33.1860 0.0000 0.0000 0.0000
# 2 26.6880 142.5921 79.3588 0.0000 0.0000 0.0000
# 3 33.1860 79.3588 132.1885 0.0000 0.0000 0.0000
# 4 0.0000 0.0000 0.0000 27.3171 0.0000 0.0000
# 5 0.0000 0.0000 0.0000 0.0000 20.7367 0.0000
# 6 0.0000 0.0000 0.0000 0.0000 0.0000 31.5585
#
#
#
# Elastic Compliance Matrix: (Units=1/GPa)
#
#
# Indices 1 2 3 4 5 6 
#
# 1 0.040789 -0.002906 -0.008495 0.000000 0.000000 0.000000
# 2 -0.002906 0.010739 -0.005718 0.000000 0.000000 0.000000
# 3 -0.008495 -0.005718 0.013130 0.000000 0.000000 0.000000
# 4 0.000000 0.000000 0.000000 0.036607 0.000000 0.000000
# 5 0.000000 0.000000 0.000000 0.000000 0.048224 0.000000
# 6 0.000000 0.000000 0.000000 0.000000 0.000000 0.031687
#
#
# Mechanical properties :
#
#
# Convention : Reuss Voigt Hill
#
# Bulk Modulus (GPa) = 32.87309 65.17511 49.02410
# Shear Modulus (GPa) = 22.16763 27.18097 24.67430
#
# Velocity S-wave (km/s) = 3.36042 3.72105 3.54532
# Velocity P-wave (km/s) = 5.63936 7.18766 6.46006
#
# Compressibility (1/GPa) = 0.03042002
#
# Stress axis : x y z
#
# Youngs Moduli (GPa) = 24.51647 93.11868 76.16013
#
# Poissons Ratio (x) = 0.27061 0.64701
# Poissons Ratio (y) = 0.07125 0.43545
# Poissons Ratio (z) = 0.20828 0.53241
#
# Static dielectric constant tensor:
#      x y z
#    x 3.300350 0.000000 0.000000 
#    y 0.000000 3.735610 0.000000 
#    z 0.000000 0.000000 3.665280 
# 
# 
# High freq. dielectric constant tensor:
#      x y z
#    x 1.742070 0.000000 0.000000 
#    y 0.000000 1.774220 0.000000 
#    z 0.000000 0.000000 1.763200 
# 
# From -- ./inp_files/16543.got.cif
#   From: 2010.03.12/outbox.cif.g09.slc.cpg/sg36_9_cif.got.tgz:16543.got - 2010.04.14 02:13:53.
