data_PCOD8174049
_publ_section_title
;
Structure prediction by ZEFSAII (Michael W. Deem and Ramdas Pophale) SiO2 
 PCOD8174049
Probable space group: C M M 2
;
_chemical_formula_sum "Si O2"
_cell_formula_units_Z 40
_cell_length_a 25.542350
_cell_length_b 8.323387
_cell_length_c 9.072682
_cell_angle_alpha 90.000000
_cell_angle_beta 90.000000
_cell_angle_gamma 90.000000
_cell_volume 1928.841886
_symmetry_space_group_name_H-M "C M M 2"
_symmetry_group_IT_number 35
_symmetry_cell_setting 'orthorhombic'
loop_
_space_group_symop_operation_xyz
x,y,z
-x,-y,z
-x,y,z
x,-y,z
1/2+x,1/2+y,z
1/2-x,1/2-y,z
1/2-x,1/2+y,z
1/2+x,1/2-y,z
loop_
_atom_site_type_symbol
_atom_site_label
_atom_site_fract_x
_atom_site_fract_y
_atom_site_fract_z
Si Si1 0.000000 0.813100 0.202300
Si Si2 0.398055 0.686537 0.040726
Si Si3 0.000000 0.688015 0.526593
Si Si4 0.901556 0.313956 0.721601
Si Si5 0.305579 0.186534 0.220104
Si Si6 0.192126 0.187566 0.537019
O O1 0.051870 0.739731 0.126575
O O2 0.000000 0.783559 0.375125
O O3 0.000000 0.000000 0.167185
O O4 0.389553 0.500000 0.077787
O O5 0.347436 0.785250 0.092209
O O6 0.405760 0.707985 0.867427
O O7 0.948730 0.740310 0.616048
O O8 0.000000 0.500000 0.490636
O O9 0.906685 0.500000 0.764419
O O10 0.846857 0.284136 0.641403
O O11 0.250000 0.250000 0.161167
O O12 0.322787 0.280561 0.367222
O O13 0.300827 0.000000 0.259994
O O14 0.250000 0.250000 0.571900
O O15 0.187656 0.000000 0.571595
#
# Coordination Sequence:
#
# PCOD8174049 Si02
#       6
#     4   8   4   8   8   8
#     4  10  23  40  62  88 118 154 197 242 291 348
#     4  11  23  40  60  88 121 157 197 243 295 351
#     4  10  23  40  62  88 118 154 197 242 291 348
#     4  11  23  40  60  88 121 157 197 243 295 351
#     4  11  22  39  62  89 119 156 198 245 293 348
#     4  11  22  39  62  89 119 156 198 245 293 348
#
# _framework density 20.737829999999999
#
# number of rings (size 3 to 8) (size 9 to 14) (size 15 to 20)
#    0.000    1.200    0.000    7.800    0.000    7.200 
#    0.000    4.000    0.000    0.000    0.000    0.000 
#    0.000    0.000    0.000    0.000    0.000    0.000 
#
# Total GULP energy -248158.006972 kJ/mol
# GULP energy per Si atom -12407.900349 kJ/mol
# Density = 2.069063 g / cm^3
# Si number density = 20.737830 Si / 1000 Ang^3
#
#
#
# Elastic Constant Matrix: (Units=GPa)
#
#
# Indices 1 2 3 4 5 6 
#
# 1 137.9106 25.5926 73.6625 0.0000 0.0000 0.0000
# 2 25.5926 62.4142 2.6852 0.0000 0.0000 0.0000
# 3 73.6625 2.6852 113.4984 0.0000 0.0000 0.0000
# 4 0.0000 0.0000 0.0000 35.9742 0.0000 0.0000
# 5 0.0000 0.0000 0.0000 0.0000 22.1645 0.0000
# 6 0.0000 0.0000 0.0000 0.0000 0.0000 27.5517
#
#
#
# Elastic Compliance Matrix: (Units=1/GPa)
#
#
# Indices 1 2 3 4 5 6 
#
# 1 0.012349 -0.004724 -0.007903 0.000000 0.000000 0.000000
# 2 -0.004724 0.017845 0.002643 0.000000 0.000000 0.000000
# 3 -0.007903 0.002643 0.013877 0.000000 0.000000 0.000000
# 4 0.000000 0.000000 0.000000 0.027798 0.000000 0.000000
# 5 0.000000 0.000000 0.000000 0.000000 0.045117 0.000000
# 6 0.000000 0.000000 0.000000 0.000000 0.000000 0.036295
#
#
# Mechanical properties :
#
#
# Convention : Reuss Voigt Hill
#
# Bulk Modulus (GPa) = 41.48454 57.52264 49.50359
# Shear Modulus (GPa) = 27.58126 31.26360 29.42243
#
# Velocity S-wave (km/s) = 3.65087 3.88695 3.77076
# Velocity P-wave (km/s) = 6.14976 6.92407 6.54837
#
# Compressibility (1/GPa) = 0.02410536
#
# Stress axis : x y z
#
# Youngs Moduli (GPa) = 80.97942 56.03761 72.06037
#
# Poissons Ratio (x) = 0.26470 0.56948
# Poissons Ratio (y) = 0.38251 -0.19049
# Poissons Ratio (z) = 0.63997 -0.14814
#
# Static dielectric constant tensor:
#      x y z
#    x 3.979540 0.000000 0.000000 
#    y 0.000000 3.652230 0.000000 
#    z 0.000000 0.000000 3.574750 
# 
# 
# High freq. dielectric constant tensor:
#      x y z
#    x 1.828290 0.000000 0.000000 
#    y 0.000000 1.815460 0.000000 
#    z 0.000000 0.000000 1.809780 
# 
# From -- ./inp_files/10059.got.cif
#   From: 2010.03.12/outbox.cif.g09.slc.cpg/sg35_6_cif.got.tgz:10059.got - 2010.04.14 02:02:04.
