data_PCOD8174609
_publ_section_title
;
Structure prediction by ZEFSAII (Michael W. Deem and Ramdas Pophale) SiO2 
 PCOD8174609
Probable space group: C M C 21
;
_chemical_formula_sum "Si O2"
_cell_formula_units_Z 64
_cell_length_a 9.094527
_cell_length_b 20.421050
_cell_length_c 19.100330
_cell_angle_alpha 90.000000
_cell_angle_beta 90.000000
_cell_angle_gamma 90.000000
_cell_volume 3547.309288
_symmetry_space_group_name_H-M "C M C 21"
_symmetry_group_IT_number 36
_symmetry_cell_setting 'orthorhombic'
loop_
_space_group_symop_operation_xyz
x,y,z
-x,-y,1/2+z
x,-y,1/2+z
-x,y,z
1/2+x,1/2+y,z
1/2-x,1/2-y,1/2+z
1/2+x,1/2-y,1/2+z
1/2-x,1/2+y,z
loop_
_atom_site_type_symbol
_atom_site_label
_atom_site_fract_x
_atom_site_fract_y
_atom_site_fract_z
Si Si1 0.169452 0.688974 0.912340
Si Si2 0.832377 0.998521 0.055265
Si Si3 0.330432 0.874610 0.709002
Si Si4 0.670766 0.051522 0.838764
Si Si5 0.670636 0.810472 0.851458
Si Si6 0.172586 0.990743 0.211063
Si Si7 0.329371 0.131168 0.052992
Si Si8 0.670802 0.432572 0.915013
O O1 0.198119 0.618017 0.879881
O O2 0.272078 0.739347 0.872033
O O3 0.000000 0.710533 0.903640
O O4 0.216072 0.685299 0.994784
O O5 0.786666 0.970999 0.131452
O O6 0.000000 0.022070 0.057736
O O7 0.742458 0.062275 0.034203
O O8 0.807597 0.941706 0.998435
O O9 0.500000 0.898459 0.709918
O O10 0.303033 0.819821 0.768102
O O11 0.290279 0.845171 0.632052
O O12 0.226030 0.935401 0.726679
O O13 0.500000 0.033721 0.833266
O O14 0.739984 0.059119 0.761198
O O15 0.752907 0.991982 0.875614
O O16 0.500000 0.816156 0.870340
O O17 0.756838 0.864010 0.896113
O O18 0.000000 0.986089 0.226376
O O19 0.500000 0.117490 0.043962
O O20 0.500000 0.431551 0.894051
#
# Coordination Sequence:
#
# PCOD8174609 Si02
#       8
#     8   8   8   8   8   8   8   8
#     4  10  22  38  56  79 110 147 186 227 277 330
#     4   9  19  33  52  82 113 141 180 227 276 327
#     4   9  18  33  54  79 107 139 180 227 275 327
#     4  11  21  35  55  82 112 143 183 227 273 328
#     4  11  23  37  55  81 113 146 185 228 273 332
#     4  10  19  32  53  82 112 144 181 226 278 326
#     4   9  17  33  56  79 104 140 181 225 275 327
#     4  11  21  35  57  82 111 144 180 227 277 325
#
# _framework density 18.041843
#
# number of rings (size 3 to 8) (size 9 to 14) (size 15 to 20)
#    0.000    2.000    2.500    1.500    0.000    3.000 
#    0.000    1.250    0.000    6.000    0.000    0.000 
#    0.000    0.000    0.000    0.000    0.000    0.000 
#
# Total GULP energy -396761.791530 kJ/mol
# GULP energy per Si atom -12398.805985 kJ/mol
# Density = 1.800078 g / cm^3
# Si number density = 18.041843 Si / 1000 Ang^3
#
#
#
# Elastic Constant Matrix: (Units=GPa)
#
#
# Indices 1 2 3 4 5 6 
#
# 1 92.2715 40.7840 52.7620 0.0000 0.0000 0.0000
# 2 40.7840 61.6632 43.7822 0.0000 0.0000 0.0000
# 3 52.7620 43.7822 128.1963 0.0000 0.0000 0.0000
# 4 0.0000 0.0000 0.0000 25.1601 0.0000 0.0000
# 5 0.0000 0.0000 0.0000 0.0000 27.0949 0.0000
# 6 0.0000 0.0000 0.0000 0.0000 0.0000 30.9578
#
#
#
# Elastic Compliance Matrix: (Units=1/GPa)
#
#
# Indices 1 2 3 4 5 6 
#
# 1 0.016818 -0.008196 -0.004122 0.000000 0.000000 0.000000
# 2 -0.008196 0.025403 -0.005302 0.000000 0.000000 0.000000
# 3 -0.004122 -0.005302 0.011308 0.000000 0.000000 0.000000
# 4 0.000000 0.000000 0.000000 0.039745 0.000000 0.000000
# 5 0.000000 0.000000 0.000000 0.000000 0.036907 0.000000
# 6 0.000000 0.000000 0.000000 0.000000 0.000000 0.032302
#
#
# Mechanical properties :
#
#
# Convention : Reuss Voigt Hill
#
# Bulk Modulus (GPa) = 54.68488 61.86526 58.27507
# Shear Modulus (GPa) = 24.53137 26.29609 25.41373
#
# Velocity S-wave (km/s) = 3.69140 3.82187 3.75720
# Velocity P-wave (km/s) = 6.96738 7.33757 7.15487
#
# Compressibility (1/GPa) = 0.01828659
#
# Stress axis : x y z
#
# Youngs Moduli (GPa) = 59.46187 39.36573 88.43194
#
# Poissons Ratio (x) = 0.32264 0.36456
# Poissons Ratio (y) = 0.48735 0.46890
# Poissons Ratio (z) = 0.24513 0.20873
#
# Static dielectric constant tensor:
#      x y z
#    x 3.436060 0.000000 0.000000 
#    y 0.000000 3.000510 0.000000 
#    z 0.000000 0.000000 3.964990 
# 
# 
# High freq. dielectric constant tensor:
#      x y z
#    x 1.707460 0.000000 0.000000 
#    y 0.000000 1.658920 0.000000 
#    z 0.000000 0.000000 1.721500 
# 
# From -- ./inp_files/15621.got.cif
#   From: 2010.03.12/outbox.cif.g09.slc.cpg/sg36_8_cif.got.tgz:15621.got - 2010.04.14 02:13:53.
