data_PCOD8174625
_publ_section_title
;
Structure prediction by ZEFSAII (Michael W. Deem and Ramdas Pophale) SiO2 
 PCOD8174625
Probable space group: C M C 21
;
_chemical_formula_sum "Si O2"
_cell_formula_units_Z 64
_cell_length_a 9.066168
_cell_length_b 20.315452
_cell_length_c 19.067125
_cell_angle_alpha 90.000000
_cell_angle_beta 90.000000
_cell_angle_gamma 90.000000
_cell_volume 3511.846020
_symmetry_space_group_name_H-M "C M C 21"
_symmetry_group_IT_number 36
_symmetry_cell_setting 'orthorhombic'
loop_
_space_group_symop_operation_xyz
x,y,z
-x,-y,1/2+z
x,-y,1/2+z
-x,y,z
1/2+x,1/2+y,z
1/2-x,1/2-y,1/2+z
1/2+x,1/2-y,1/2+z
1/2-x,1/2+y,z
loop_
_atom_site_type_symbol
_atom_site_label
_atom_site_fract_x
_atom_site_fract_y
_atom_site_fract_z
Si Si1 0.326991 0.890930 0.917850
Si Si2 0.670912 0.569970 0.283084
Si Si3 0.828457 0.192992 0.192015
Si Si4 0.673776 0.739025 0.917347
Si Si5 0.669879 0.388125 0.058131
Si Si6 0.671812 0.182000 0.786069
Si Si7 0.170424 0.933412 0.209626
Si Si8 0.172208 0.736201 0.058818
O O1 0.500000 0.901755 0.918546
O O2 0.258675 0.935027 0.856050
O O3 0.282374 0.815045 0.904446
O O4 0.265061 0.914738 0.992930
O O5 0.500000 0.577498 0.302276
O O6 0.726905 0.632836 0.239621
O O7 0.702075 0.506630 0.235799
O O8 0.794201 0.260273 0.231815
O O9 0.734227 0.191580 0.121280
O O10 0.000000 0.185741 0.172904
O O11 0.500000 0.729790 0.922291
O O12 0.736702 0.693940 0.856196
O O13 0.746153 0.713221 0.988677
O O14 0.500000 0.395863 0.036814
O O15 0.709605 0.430373 0.127042
O O16 0.708199 0.312364 0.074897
O O17 0.500000 0.178197 0.804914
O O18 0.723935 0.113952 0.753012
O O19 0.000000 0.912490 0.221080
O O20 0.000000 0.723118 0.050144
#
# Coordination Sequence:
#
# PCOD8174625 Si02
#       8
#     8   8   8   8   8   8   8   8
#     4  10  20  33  54  82 110 142 184 231 278 326
#     4  10  21  38  58  80 112 151 189 226 271 332
#     4  10  20  34  54  81 110 143 182 225 275 329
#     4  10  20  34  54  81 113 146 185 231 278 332
#     4   9  18  33  54  79 107 140 184 229 273 331
#     4  11  21  34  56  83 112 143 181 229 278 327
#     4  10  21  38  58  82 111 148 189 227 273 331
#     4  10  19  32  54  82 111 143 182 232 282 328
#
# _framework density 18.224034
#
# number of rings (size 3 to 8) (size 9 to 14) (size 15 to 20)
#    0.000    2.000    2.500    1.500    0.000    3.500 
#    0.000    1.250    0.000    6.000    0.000    0.000 
#    0.000    0.000    0.000    0.000    0.000    0.000 
#
# Total GULP energy -396948.857224 kJ/mol
# GULP energy per Si atom -12404.651788 kJ/mol
# Density = 1.818256 g / cm^3
# Si number density = 18.224034 Si / 1000 Ang^3
#
#
#
# Elastic Constant Matrix: (Units=GPa)
#
#
# Indices 1 2 3 4 5 6 
#
# 1 79.4857 29.9310 66.2182 0.0000 0.0000 0.0000
# 2 29.9310 50.4398 36.1448 0.0000 0.0000 0.0000
# 3 66.2182 36.1448 147.4578 0.0000 0.0000 0.0000
# 4 0.0000 0.0000 0.0000 27.6690 0.0000 0.0000
# 5 0.0000 0.0000 0.0000 0.0000 38.4913 0.0000
# 6 0.0000 0.0000 0.0000 0.0000 0.0000 23.8202
#
#
#
# Elastic Compliance Matrix: (Units=1/GPa)
#
#
# Indices 1 2 3 4 5 6 
#
# 1 0.022106 -0.007284 -0.008142 0.000000 0.000000 0.000000
# 2 -0.007284 0.026450 -0.003213 0.000000 0.000000 0.000000
# 3 -0.008142 -0.003213 0.011225 0.000000 0.000000 0.000000
# 4 0.000000 0.000000 0.000000 0.036141 0.000000 0.000000
# 5 0.000000 0.000000 0.000000 0.000000 0.025980 0.000000
# 6 0.000000 0.000000 0.000000 0.000000 0.000000 0.041981
#
#
# Mechanical properties :
#
#
# Convention : Reuss Voigt Hill
#
# Bulk Modulus (GPa) = 44.43358 60.21904 52.32631
# Shear Modulus (GPa) = 23.96221 27.66873 25.81547
#
# Velocity S-wave (km/s) = 3.63005 3.90071 3.76781
# Velocity P-wave (km/s) = 6.48108 7.30772 6.90678
#
# Compressibility (1/GPa) = 0.02250550
#
# Stress axis : x y z
#
# Youngs Moduli (GPa) = 45.23571 37.80754 89.08440
#
# Poissons Ratio (x) = 0.27537 0.72532
# Poissons Ratio (y) = 0.32948 0.28619
# Poissons Ratio (z) = 0.36830 0.12146
#
# Static dielectric constant tensor:
#      x y z
#    x 3.322130 0.000000 0.000000 
#    y 0.000000 3.103580 0.000000 
#    z 0.000000 0.000000 3.457510 
# 
# 
# High freq. dielectric constant tensor:
#      x y z
#    x 1.710390 0.000000 0.000000 
#    y 0.000000 1.675070 0.000000 
#    z 0.000000 0.000000 1.719430 
# 
# From -- ./inp_files/13803.got.cif
#   From: 2010.03.12/outbox.cif.g09.slc.cpg/sg36_7_cif.got.tgz:13803.got - 2010.04.14 02:13:53.
