data_PCOD8174023
_publ_section_title
;
Structure prediction by ZEFSAII (Michael W. Deem and Ramdas Pophale) SiO2 
 PCOD8174023
Probable space group: C M M 2
;
_chemical_formula_sum "Si O2"
_cell_formula_units_Z 48
_cell_length_a 17.905814
_cell_length_b 10.224482
_cell_length_c 14.005268
_cell_angle_alpha 90.000000
_cell_angle_beta 90.000000
_cell_angle_gamma 90.000000
_cell_volume 2564.051874
_symmetry_space_group_name_H-M "C M M 2"
_symmetry_group_IT_number 35
_symmetry_cell_setting 'orthorhombic'
loop_
_space_group_symop_operation_xyz
x,y,z
-x,-y,z
-x,y,z
x,-y,z
1/2+x,1/2+y,z
1/2-x,1/2-y,z
1/2-x,1/2+y,z
1/2+x,1/2-y,z
loop_
_atom_site_type_symbol
_atom_site_label
_atom_site_fract_x
_atom_site_fract_y
_atom_site_fract_z
Si Si1 0.410876 0.746132 0.459570
Si Si2 0.682141 0.153385 0.840257
Si Si3 0.916311 0.500000 0.366043
Si Si4 0.089013 0.000000 0.345134
Si Si5 0.415692 0.000000 0.142001
Si Si6 0.338592 0.760927 0.046316
Si Si7 0.914058 0.649183 0.656479
Si Si8 0.410660 0.500000 0.124725
O O1 0.500000 0.742922 0.451751
O O2 0.375833 0.870634 0.404949
O O3 0.377694 0.621939 0.404135
O O4 0.386709 0.754598 0.571085
O O5 0.750000 0.250000 0.821717
O O6 0.626780 0.181723 0.754110
O O7 0.706419 0.000000 0.845160
O O8 0.642175 0.195279 0.938470
O O9 0.919374 0.500000 0.254068
O O10 0.000000 0.500000 0.409186
O O11 0.116562 0.000000 0.235273
O O12 0.000000 0.000000 0.345380
O O13 0.371372 0.129177 0.114439
O O14 0.500000 0.000000 0.099135
O O15 0.250000 0.750000 0.061434
O O16 0.378255 0.624999 0.070178
O O17 0.899770 0.500000 0.623228
O O18 0.000000 0.673735 0.678553
O O19 0.500000 0.500000 0.118058
#
# Coordination Sequence:
#
# PCOD8174023 Si02
#       8
#     8   8   4   4   4   8   8   4
#     4   9  15  28  49  78 112 146 178 221 283 344
#     4  10  22  40  62  82 110 153 195 231 283 354
#     4   9  16  27  50  79 108 140 183 231 276 331
#     4   9  18  31  50  79 116 150 181 225 288 345
#     4  11  21  35  58  91 114 142 199 255 282 325
#     4  11  23  40  60  82 115 160 197 232 294 361
#     4   9  17  32  57  88 113 140 185 240 286 325
#     4  11  23  39  60  89 122 154 193 249 300 335
#
# _framework density 18.720369999999999
#
# number of rings (size 3 to 8) (size 9 to 14) (size 15 to 20)
#    0.000    2.167    1.667    2.000    3.500    4.000 
#    1.500    0.000    0.000    6.000    0.000    0.000 
#    0.000    0.000    0.000    0.000    0.000    0.000 
#
# Total GULP energy -297487.999320 kJ/mol
# GULP energy per Si atom -12395.333305 kJ/mol
# Density = 1.867776 g / cm^3
# Si number density = 18.720370 Si / 1000 Ang^3
#
#
#
# Elastic Constant Matrix: (Units=GPa)
#
#
# Indices 1 2 3 4 5 6 
#
# 1 54.0933 37.2034 39.5628 0.0000 0.0000 0.0000
# 2 37.2034 164.3732 74.2344 0.0000 0.0000 0.0000
# 3 39.5628 74.2344 130.5400 0.0000 0.0000 0.0000
# 4 0.0000 0.0000 0.0000 36.9018 0.0000 0.0000
# 5 0.0000 0.0000 0.0000 0.0000 -11.8358 0.0000
# 6 0.0000 0.0000 0.0000 0.0000 0.0000 21.2168
#
#
#
# Elastic Compliance Matrix: (Units=1/GPa)
#
#
# Indices 1 2 3 4 5 6 
#
# 1 0.024794 -0.002985 -0.005817 0.000000 0.000000 0.000000
# 2 -0.002985 0.008545 -0.003955 0.000000 0.000000 0.000000
# 3 -0.005817 -0.003955 0.011673 0.000000 0.000000 0.000000
# 4 0.000000 0.000000 0.000000 0.027099 0.000000 0.000000
# 5 0.000000 0.000000 0.000000 0.000000 -0.084490 0.000000
# 6 0.000000 0.000000 0.000000 0.000000 0.000000 0.047132
#
#
# Mechanical properties :
#
#
# Convention : Reuss Voigt Hill
#
# Bulk Modulus (GPa) = 51.28600 72.33420 61.81010
# Shear Modulus (GPa) = 74.88832 22.45696 48.67264
#
# Velocity S-wave (km/s) = 6.33171 3.46728 5.10453
# Velocity P-wave (km/s) = 8.99496 7.39950 8.23595
#
# Compressibility (1/GPa) = 0.01949850
#
# Stress axis : x y z
#
# Youngs Moduli (GPa) = 40.33281 117.02210 85.67136
#
# Poissons Ratio (x) = 0.34927 0.49835
# Poissons Ratio (y) = 0.12038 0.33883
# Poissons Ratio (z) = 0.23461 0.46282
#
# Static dielectric constant tensor:
#      x y z
#    x 3.179150 0.000000 0.000000 
#    y 0.000000 3.663080 0.000000 
#    z 0.000000 0.000000 3.631070 
# 
# 
# High freq. dielectric constant tensor:
#      x y z
#    x 1.686920 0.000000 0.000000 
#    y 0.000000 1.738140 0.000000 
#    z 0.000000 0.000000 1.744530 
# 
# From -- ./inp_files/15321.got.cif
#   From: 2010.03.12/outbox.cif.g09.slc.cpg/sg35_8_cif.got.tgz:15321.got - 2010.04.14 02:02:04.
