data_PCOD8174837
_publ_section_title
;
Structure prediction by ZEFSAII (Michael W. Deem and Ramdas Pophale) SiO2 
 PCOD8174837
Probable space group: C M C 21
;
_chemical_formula_sum "Si O2"
_cell_formula_units_Z 52
_cell_length_a 7.796984
_cell_length_b 26.781457
_cell_length_c 12.187910
_cell_angle_alpha 90.000000
_cell_angle_beta 90.000000
_cell_angle_gamma 90.000000
_cell_volume 2545.013451
_symmetry_space_group_name_H-M "C M C 21"
_symmetry_group_IT_number 36
_symmetry_cell_setting 'orthorhombic'
loop_
_space_group_symop_operation_xyz
x,y,z
-x,-y,1/2+z
x,-y,1/2+z
-x,y,z
1/2+x,1/2+y,z
1/2-x,1/2-y,1/2+z
1/2+x,1/2-y,1/2+z
1/2-x,1/2+y,z
loop_
_atom_site_type_symbol
_atom_site_label
_atom_site_fract_x
_atom_site_fract_y
_atom_site_fract_z
Si Si1 0.000000 0.519694 0.095610
Si Si2 0.809660 0.072867 0.188572
Si Si3 0.693075 0.230201 0.134224
Si Si4 0.815107 0.146927 0.986237
Si Si5 0.000000 0.595716 0.893678
Si Si6 0.198070 0.164316 0.325648
Si Si7 0.500000 0.910977 0.145826
Si Si8 0.200711 0.838752 0.078320
O O1 0.831444 0.530378 0.169433
O O2 0.000000 0.460749 0.070775
O O3 0.000000 0.550963 0.982442
O O4 0.753385 0.107550 0.291165
O O5 0.000000 0.049188 0.207761
O O6 0.811863 0.107508 0.083217
O O7 0.500000 0.227762 0.091209
O O8 0.702471 0.205442 0.254265
O O9 0.799152 0.201470 0.040683
O O10 0.748800 0.288018 0.143004
O O11 0.664714 0.132167 0.903089
O O12 0.000000 0.144978 0.924809
O O13 0.000000 0.572202 0.773076
O O14 0.244610 0.171488 0.451568
O O15 0.000000 0.173445 0.299674
O O16 0.325129 0.881457 0.122240
O O17 0.000000 0.854213 0.093161
#
# Coordination Sequence:
#
# PCOD8174837 Si02
#       8
#     4   8   8   8   4   8   4   8
#     4  10  22  40  64  88 116 154 202 258 298 366
#     4   8  16  32  59  91 114 142 196 251 297 346
#     4  10  19  34  59  91 122 160 208 250 286 348
#     4   9  17  33  60  90 121 154 193 247 296 349
#     4  10  22  42  60  92 124 148 204 257 305 358
#     4   9  19  36  60  87 120 163 198 246 301 355
#     4  12  28  42  62  86 120 166 196 253 315 356
#     4  10  25  43  55  83 128 162 202 244 298 363
#
# _framework density 20.432112
#
# number of rings (size 3 to 8) (size 9 to 14) (size 15 to 20)
#    0.000    2.462    0.769    1.385    6.462    3.692 
#    0.000    1.538    0.000    0.000    0.000    0.000 
#    0.000    0.000    0.000    0.000    0.000    0.000 
#
# Total GULP energy -322299.724689 kJ/mol
# GULP energy per Si atom -12396.143257 kJ/mol
# Density = 2.038561 g / cm^3
# Si number density = 20.432112 Si / 1000 Ang^3
#
#
#
# Elastic Constant Matrix: (Units=GPa)
#
#
# Indices 1 2 3 4 5 6 
#
# 1 130.7669 66.2208 28.1957 0.0000 0.0000 0.0000
# 2 66.2208 125.2652 33.5732 0.0000 0.0000 0.0000
# 3 28.1957 33.5732 76.8757 0.0000 0.0000 0.0000
# 4 0.0000 0.0000 0.0000 19.9431 0.0000 0.0000
# 5 0.0000 0.0000 0.0000 0.0000 18.3240 0.0000
# 6 0.0000 0.0000 0.0000 0.0000 0.0000 27.9140
#
#
#
# Elastic Compliance Matrix: (Units=1/GPa)
#
#
# Indices 1 2 3 4 5 6 
#
# 1 0.010621 -0.005177 -0.001635 0.000000 0.000000 0.000000
# 2 -0.005177 0.011564 -0.003152 0.000000 0.000000 0.000000
# 3 -0.001635 -0.003152 0.014984 0.000000 0.000000 0.000000
# 4 0.000000 0.000000 0.000000 0.050143 0.000000 0.000000
# 5 0.000000 0.000000 0.000000 0.000000 0.054573 0.000000
# 6 0.000000 0.000000 0.000000 0.000000 0.000000 0.035824
#
#
# Mechanical properties :
#
#
# Convention : Reuss Voigt Hill
#
# Bulk Modulus (GPa) = 57.99386 65.43190 61.71288
# Shear Modulus (GPa) = 24.58404 26.89743 25.74074
#
# Velocity S-wave (km/s) = 3.47249 3.63220 3.55324
# Velocity P-wave (km/s) = 6.67255 7.04869 6.86320
#
# Compressibility (1/GPa) = 0.01724320
#
# Stress axis : x y z
#
# Youngs Moduli (GPa) = 94.15160 86.47214 66.73768
#
# Poissons Ratio (x) = 0.44764 0.10910
# Poissons Ratio (y) = 0.48739 0.21034
# Poissons Ratio (z) = 0.15391 0.27254
#
# Static dielectric constant tensor:
#      x y z
#    x 4.135100 0.000000 0.000000 
#    y 0.000000 3.535720 0.000000 
#    z 0.000000 0.000000 3.527660 
# 
# 
# High freq. dielectric constant tensor:
#      x y z
#    x 1.812810 0.000000 0.000000 
#    y 0.000000 1.777290 0.000000 
#    z 0.000000 0.000000 1.777380 
# 
# From -- ./inp_files/6935.got.cif
#   From: 2010.03.12/outbox.cif.g09.slc.cpg/sg36_4_cif.got.tgz:6935.got - 2010.04.14 02:13:53.
