data_PCOD8174212
_publ_section_title
;
Structure prediction by ZEFSAII (Michael W. Deem and Ramdas Pophale) SiO2 
 PCOD8174212
Probable space group: C M C 21
;
_chemical_formula_sum "Si O2"
_cell_formula_units_Z 64
_cell_length_a 13.631799
_cell_length_b 17.400383
_cell_length_c 15.284054
_cell_angle_alpha 90.000000
_cell_angle_beta 90.000000
_cell_angle_gamma 90.000000
_cell_volume 3625.355043
_symmetry_space_group_name_H-M "C M C 21"
_symmetry_group_IT_number 36
_symmetry_cell_setting 'orthorhombic'
loop_
_space_group_symop_operation_xyz
x,y,z
-x,-y,1/2+z
x,-y,1/2+z
-x,y,z
1/2+x,1/2+y,z
1/2-x,1/2-y,1/2+z
1/2+x,1/2-y,1/2+z
1/2-x,1/2+y,z
loop_
_atom_site_type_symbol
_atom_site_label
_atom_site_fract_x
_atom_site_fract_y
_atom_site_fract_z
Si Si1 0.390823 0.514865 0.006810
Si Si2 0.887048 0.719582 0.423804
Si Si3 0.253533 0.009370 0.775268
Si Si4 0.614683 0.069626 0.629223
Si Si5 0.610277 0.623686 0.843841
Si Si6 0.705910 0.936522 0.947370
Si Si7 0.885032 0.899942 0.687098
Si Si8 0.113879 0.740715 0.619869
O O1 0.500000 0.479494 0.005684
O O2 0.365808 0.549651 0.100927
O O3 0.381339 0.583782 0.938031
O O4 0.316920 0.445394 0.983683
O O5 0.865796 0.785743 0.352857
O O6 0.814050 0.648321 0.408889
O O7 0.866288 0.756538 0.518169
O O8 0.000000 0.690799 0.418229
O O9 0.330344 0.013493 0.696228
O O10 0.188578 0.087063 0.777485
O O11 0.310722 0.996157 0.867124
O O12 0.178763 0.937721 0.764145
O O13 0.500000 0.062545 0.647909
O O14 0.633184 0.045186 0.528326
O O15 0.655257 0.156580 0.645863
O O16 0.500000 0.613013 0.806312
O O17 0.843316 0.812993 0.673998
O O18 0.000000 0.900276 0.712394
O O19 0.000000 0.739317 0.639557
#
# Coordination Sequence:
#
# PCOD8174212 Si02
#       8
#     8   8   8   8   8   8   8   8
#     4   9  16  29  51  76 104 132 160 204 262 311
#     4   9  16  30  53  76  99 136 182 217 244 290
#     4  11  22  32  52  79 108 135 166 209 273 318
#     4  10  21  37  53  73 101 135 180 220 253 303
#     4   9  17  31  51  78 105 130 166 213 256 301
#     4  10  20  34  51  77 105 136 175 213 257 305
#     4  10  17  30  52  79 105 130 164 208 263 317
#     4   8  15  29  52  74  95 130 174 216 249 291
#
# _framework density 17.653441999999998
#
# number of rings (size 3 to 8) (size 9 to 14) (size 15 to 20)
#    0.000    2.500    2.500    1.500    0.000    2.500 
#    0.000    0.000    0.000    0.750    0.000    8.750 
#    0.000    0.000    0.000    0.000    0.000    0.000 
#
# Total GULP energy -396588.703784 kJ/mol
# GULP energy per Si atom -12393.396993 kJ/mol
# Density = 1.761326 g / cm^3
# Si number density = 17.653442 Si / 1000 Ang^3
#
#
#
# Elastic Constant Matrix: (Units=GPa)
#
#
# Indices 1 2 3 4 5 6 
#
# 1 73.3211 46.0445 28.2791 0.0000 0.0000 0.0000
# 2 46.0445 85.6648 24.0738 0.0000 0.0000 0.0000
# 3 28.2791 24.0738 66.2155 0.0000 0.0000 0.0000
# 4 0.0000 0.0000 0.0000 19.8463 0.0000 0.0000
# 5 0.0000 0.0000 0.0000 0.0000 19.7522 0.0000
# 6 0.0000 0.0000 0.0000 0.0000 0.0000 26.8043
#
#
#
# Elastic Compliance Matrix: (Units=1/GPa)
#
#
# Indices 1 2 3 4 5 6 
#
# 1 0.022414 -0.010422 -0.005783 0.000000 0.000000 0.000000
# 2 -0.010422 0.017848 -0.002038 0.000000 0.000000 0.000000
# 3 -0.005783 -0.002038 0.018313 0.000000 0.000000 0.000000
# 4 0.000000 0.000000 0.000000 0.050387 0.000000 0.000000
# 5 0.000000 0.000000 0.000000 0.000000 0.050627 0.000000
# 6 0.000000 0.000000 0.000000 0.000000 0.000000 0.037307
#
#
# Mechanical properties :
#
#
# Convention : Reuss Voigt Hill
#
# Bulk Modulus (GPa) = 45.27293 46.88847 46.08070
# Shear Modulus (GPa) = 20.76866 21.73415 21.25140
#
# Velocity S-wave (km/s) = 3.43368 3.51259 3.47336
# Velocity P-wave (km/s) = 6.43594 6.56272 6.49964
#
# Compressibility (1/GPa) = 0.02208826
#
# Stress axis : x y z
#
# Youngs Moduli (GPa) = 44.61437 56.02858 54.60583
#
# Poissons Ratio (x) = 0.58395 0.31581
# Poissons Ratio (y) = 0.46499 0.11128
# Poissons Ratio (z) = 0.25802 0.11418
#
# Static dielectric constant tensor:
#      x y z
#    x 3.165030 0.000000 0.000000 
#    y 0.000000 3.406420 0.000000 
#    z 0.000000 0.000000 3.112320 
# 
# 
# High freq. dielectric constant tensor:
#      x y z
#    x 1.664080 0.000000 0.000000 
#    y 0.000000 1.672900 0.000000 
#    z 0.000000 0.000000 1.670010 
# 
# From -- ./inp_files/11782.got.cif
#   From: 2010.03.12/outbox.cif.g09.slc.cpg/sg36_6_cif.got.tgz:11782.got - 2010.04.14 02:13:53.
