data_PCOD8174344
_publ_section_title
;
Structure prediction by ZEFSAII (Michael W. Deem and Ramdas Pophale) SiO2 
 PCOD8174344
Probable space group: C M C 21
;
_chemical_formula_sum "Si O2"
_cell_formula_units_Z 64
_cell_length_a 9.381510
_cell_length_b 20.579623
_cell_length_c 19.083078
_cell_angle_alpha 90.000000
_cell_angle_beta 90.000000
_cell_angle_gamma 90.000000
_cell_volume 3684.330539
_symmetry_space_group_name_H-M "C M C 21"
_symmetry_group_IT_number 36
_symmetry_cell_setting 'orthorhombic'
loop_
_space_group_symop_operation_xyz
x,y,z
-x,-y,1/2+z
x,-y,1/2+z
-x,y,z
1/2+x,1/2+y,z
1/2-x,1/2-y,1/2+z
1/2+x,1/2-y,1/2+z
1/2-x,1/2+y,z
loop_
_atom_site_type_symbol
_atom_site_label
_atom_site_fract_x
_atom_site_fract_y
_atom_site_fract_z
Si Si1 0.161524 0.989755 0.998560
Si Si2 0.833094 0.514525 0.364962
Si Si3 0.831760 0.939607 0.735709
Si Si4 0.331610 0.818483 0.214860
Si Si5 0.663417 0.434046 0.148259
Si Si6 0.835437 0.859584 0.501116
Si Si7 0.830767 0.815891 0.649760
Si Si8 0.834933 0.363862 0.365613
O O1 0.271879 0.965073 0.940390
O O2 0.189345 0.064725 0.017641
O O3 0.000000 0.981554 0.970655
O O4 0.187854 0.946183 0.066381
O O5 0.753045 0.558129 0.308202
O O6 0.798252 0.438996 0.350769
O O7 0.000000 0.529420 0.362569
O O8 0.774479 0.876438 0.694938
O O9 0.000000 0.936061 0.750829
O O10 0.790678 0.002086 0.690213
O O11 0.500000 0.825777 0.205992
O O12 0.261440 0.874752 0.169814
O O13 0.274630 0.750124 0.185143
O O14 0.289329 0.823610 0.296754
O O15 0.500000 0.416518 0.164532
O O16 0.777265 0.820723 0.569174
O O17 0.750836 0.836623 0.432197
O O18 0.000000 0.844045 0.486873
O O19 0.000000 0.818972 0.649157
O O20 0.000000 0.354924 0.383299
#
# Coordination Sequence:
#
# PCOD8174344 Si02
#       8
#     8   8   8   8   8   8   8   8
#     4   9  17  31  51  76 102 130 169 217 260 300
#     4  10  19  31  48  76 108 134 168 212 258 309
#     4  10  18  32  54  77 100 131 171 213 255 299
#     4  10  20  35  53  74 106 141 171 205 254 314
#     4  10  19  32  53  78 103 129 168 217 256 298
#     4   9  16  30  53  76  95 124 171 216 250 293
#     4   9  18  34  55  77 101 135 176 212 253 306
#     4   9  18  31  47  72 103 134 166 202 252 309
#
# _framework density 17.370863
#
# number of rings (size 3 to 8) (size 9 to 14) (size 15 to 20)
#    0.000    2.500    2.500    0.375    0.000    1.500 
#    0.000    3.125    0.000    4.500    0.000    0.000 
#    0.000    0.000    0.000    0.000    0.000    0.000 
#
# Total GULP energy -396822.646227 kJ/mol
# GULP energy per Si atom -12400.707695 kJ/mol
# Density = 1.733133 g / cm^3
# Si number density = 17.370863 Si / 1000 Ang^3
#
#
#
# Elastic Constant Matrix: (Units=GPa)
#
#
# Indices 1 2 3 4 5 6 
#
# 1 52.6949 37.1647 54.0068 0.0000 0.0000 0.0000
# 2 37.1647 101.0500 68.7234 0.0000 0.0000 0.0000
# 3 54.0068 68.7234 144.5725 0.0000 0.0000 0.0000
# 4 0.0000 0.0000 0.0000 26.1832 0.0000 0.0000
# 5 0.0000 0.0000 0.0000 0.0000 28.8972 0.0000
# 6 0.0000 0.0000 0.0000 0.0000 0.0000 18.1491
#
#
#
# Elastic Compliance Matrix: (Units=1/GPa)
#
#
# Indices 1 2 3 4 5 6 
#
# 1 0.032692 -0.005494 -0.009601 0.000000 0.000000 0.000000
# 2 -0.005494 0.015547 -0.005338 0.000000 0.000000 0.000000
# 3 -0.009601 -0.005338 0.013041 0.000000 0.000000 0.000000
# 4 0.000000 0.000000 0.000000 0.038192 0.000000 0.000000
# 5 0.000000 0.000000 0.000000 0.000000 0.034605 0.000000
# 6 0.000000 0.000000 0.000000 0.000000 0.000000 0.055099
#
#
# Mechanical properties :
#
#
# Convention : Reuss Voigt Hill
#
# Bulk Modulus (GPa) = 48.98599 68.67858 58.83228
# Shear Modulus (GPa) = 21.11063 23.87406 22.49234
#
# Velocity S-wave (km/s) = 3.48988 3.71128 3.60228
# Velocity P-wave (km/s) = 6.67086 7.61494 7.15848
#
# Compressibility (1/GPa) = 0.02041400
#
# Stress axis : x y z
#
# Youngs Moduli (GPa) = 30.58864 64.32073 76.68204
#
# Poissons Ratio (x) = 0.35339 0.73621
# Poissons Ratio (y) = 0.16806 0.40933
# Poissons Ratio (z) = 0.29367 0.34334
#
# Static dielectric constant tensor:
#      x y z
#    x 3.074050 0.000000 0.000000 
#    y 0.000000 3.112590 0.000000 
#    z 0.000000 0.000000 3.372120 
# 
# 
# High freq. dielectric constant tensor:
#      x y z
#    x 1.655190 0.000000 0.000000 
#    y 0.000000 1.644650 0.000000 
#    z 0.000000 0.000000 1.684790 
# 
# From -- ./inp_files/13934.got.cif
#   From: 2010.03.12/outbox.cif.g09.slc.cpg/sg36_7_cif.got.tgz:13934.got - 2010.04.14 02:13:53.
