data_PCOD8174223
_publ_section_title
;
Structure prediction by ZEFSAII (Michael W. Deem and Ramdas Pophale) SiO2 
 PCOD8174223
Probable space group: C M C 21
;
_chemical_formula_sum "Si O2"
_cell_formula_units_Z 64
_cell_length_a 17.405766
_cell_length_b 16.776862
_cell_length_c 11.854621
_cell_angle_alpha 90.000000
_cell_angle_beta 90.000000
_cell_angle_gamma 90.000000
_cell_volume 3461.716887
_symmetry_space_group_name_H-M "C M C 21"
_symmetry_group_IT_number 36
_symmetry_cell_setting 'orthorhombic'
loop_
_space_group_symop_operation_xyz
x,y,z
-x,-y,1/2+z
x,-y,1/2+z
-x,y,z
1/2+x,1/2+y,z
1/2-x,1/2-y,1/2+z
1/2+x,1/2-y,1/2+z
1/2-x,1/2+y,z
loop_
_atom_site_type_symbol
_atom_site_label
_atom_site_fract_x
_atom_site_fract_y
_atom_site_fract_z
Si Si1 0.290693 0.527526 0.518280
Si Si2 0.340921 0.278622 0.444555
Si Si3 0.910740 0.688090 0.833776
Si Si4 0.088412 0.910632 0.597157
Si Si5 0.655716 0.645356 0.330251
Si Si6 0.304877 0.162729 0.624651
Si Si7 0.193783 0.626540 0.002802
Si Si8 0.697375 0.210623 0.225656
O O1 0.360042 0.489409 0.589028
O O2 0.336703 0.573871 0.419459
O O3 0.236203 0.579947 0.597573
O O4 0.233453 0.458106 0.478433
O O5 0.395257 0.347983 0.495443
O O6 0.350617 0.198550 0.518124
O O7 0.252514 0.308108 0.450836
O O8 0.362487 0.252399 0.314695
O O9 0.889130 0.777257 0.876281
O O10 0.865966 0.656936 0.724274
O O11 0.885815 0.629289 0.934571
O O12 0.000000 0.680143 0.809101
O O13 0.108591 0.873828 0.717465
O O14 0.000000 0.935550 0.592344
O O15 0.743325 0.664905 0.304799
O O16 0.235330 0.220336 0.654067
O O17 0.169351 0.645286 0.133439
#
# Coordination Sequence:
#
# PCOD8174223 Si02
#       8
#     8   8   8   8   8   8   8   8
#     4  11  23  35  58  90 121 156 199 243 303 369
#     4  10  17  36  58  84 109 150 204 243 276 341
#     4  11  22  38  62  85 112 152 199 248 299 353
#     4  11  24  38  55  87 130 163 190 242 310 370
#     4  11  19  36  60  84 117 153 198 247 294 355
#     4  10  19  33  59  85 108 145 202 247 279 342
#     4  10  20  35  55  86 117 150 192 246 296 357
#     4  10  17  35  59  85 109 149 206 250 280 335
#
# _framework density 18.487936000000001
#
# number of rings (size 3 to 8) (size 9 to 14) (size 15 to 20)
#    0.000    1.500    8.750    1.125    1.750    1.000 
#    0.000    1.250    0.000    0.000    0.000    0.000 
#    0.000    0.000    0.000    0.000    0.000    0.000 
#
# Total GULP energy -396439.861529 kJ/mol
# GULP energy per Si atom -12388.745673 kJ/mol
# Density = 1.844586 g / cm^3
# Si number density = 18.487936 Si / 1000 Ang^3
#
#
#
# Elastic Constant Matrix: (Units=GPa)
#
#
# Indices 1 2 3 4 5 6 
#
# 1 81.7110 50.0946 31.4137 0.0000 0.0000 0.0000
# 2 50.0946 80.5304 30.1970 0.0000 0.0000 0.0000
# 3 31.4137 30.1970 78.8003 0.0000 0.0000 0.0000
# 4 0.0000 0.0000 0.0000 24.5636 0.0000 0.0000
# 5 0.0000 0.0000 0.0000 0.0000 14.7925 0.0000
# 6 0.0000 0.0000 0.0000 0.0000 0.0000 15.2300
#
#
#
# Elastic Compliance Matrix: (Units=1/GPa)
#
#
# Indices 1 2 3 4 5 6 
#
# 1 0.020753 -0.011453 -0.003884 0.000000 0.000000 0.000000
# 2 -0.011453 0.020822 -0.003413 0.000000 0.000000 0.000000
# 3 -0.003884 -0.003413 0.015547 0.000000 0.000000 0.000000
# 4 0.000000 0.000000 0.000000 0.040711 0.000000 0.000000
# 5 0.000000 0.000000 0.000000 0.000000 0.067602 0.000000
# 6 0.000000 0.000000 0.000000 0.000000 0.000000 0.065660
#
#
# Mechanical properties :
#
#
# Convention : Reuss Voigt Hill
#
# Bulk Modulus (GPa) = 50.96740 51.60581 51.28661
# Shear Modulus (GPa) = 18.17280 19.53964 18.85622
#
# Velocity S-wave (km/s) = 3.13861 3.25451 3.19708
# Velocity P-wave (km/s) = 6.38453 6.48816 6.43656
#
# Compressibility (1/GPa) = 0.01962038
#
# Stress axis : x y z
#
# Youngs Moduli (GPa) = 48.18548 48.02577 64.32174
#
# Poissons Ratio (x) = 0.55005 0.24984
# Poissons Ratio (y) = 0.55188 0.21956
# Poissons Ratio (z) = 0.18717 0.16393
#
# Static dielectric constant tensor:
#      x y z
#    x 3.090410 0.000000 0.000000 
#    y 0.000000 3.560760 0.000000 
#    z 0.000000 0.000000 3.644730 
# 
# 
# High freq. dielectric constant tensor:
#      x y z
#    x 1.675510 0.000000 0.000000 
#    y 0.000000 1.713110 0.000000 
#    z 0.000000 0.000000 1.726500 
# 
# From -- ./inp_files/9060.got.cif
#   From: 2010.03.12/outbox.cif.g09.slc.cpg/sg36_5_cif.got.tgz:9060.got - 2010.04.14 02:13:53.
