data_PCOD8174723
_publ_section_title
;
Structure prediction by ZEFSAII (Michael W. Deem and Ramdas Pophale) SiO2 
 PCOD8174723
Probable space group: C M C 21
;
_chemical_formula_sum "Si O2"
_cell_formula_units_Z 64
_cell_length_a 8.982325
_cell_length_b 22.577674
_cell_length_c 16.101808
_cell_angle_alpha 90.000000
_cell_angle_beta 90.000000
_cell_angle_gamma 90.000000
_cell_volume 3265.446753
_symmetry_space_group_name_H-M "C M C 21"
_symmetry_group_IT_number 36
_symmetry_cell_setting 'orthorhombic'
loop_
_space_group_symop_operation_xyz
x,y,z
-x,-y,1/2+z
x,-y,1/2+z
-x,y,z
1/2+x,1/2+y,z
1/2-x,1/2-y,1/2+z
1/2+x,1/2-y,1/2+z
1/2-x,1/2+y,z
loop_
_atom_site_type_symbol
_atom_site_label
_atom_site_fract_x
_atom_site_fract_y
_atom_site_fract_z
Si Si1 0.330441 0.414307 0.031450
Si Si2 0.334335 0.370133 0.619435
Si Si3 0.669640 0.687701 0.409443
Si Si4 0.174887 0.716094 0.240853
Si Si5 0.825675 0.536505 0.013122
Si Si6 0.165887 0.788594 0.462416
Si Si7 0.323879 0.115717 0.859219
Si Si8 0.174986 0.849422 0.200925
O O1 0.500000 0.436744 0.042358
O O2 0.284277 0.373685 0.109656
O O3 0.315214 0.377924 0.945822
O O4 0.220350 0.468752 0.020472
O O5 0.500000 0.387523 0.650276
O O6 0.247479 0.338355 0.692397
O O7 0.251763 0.428989 0.588722
O O8 0.344433 0.324735 0.545278
O O9 0.500000 0.701266 0.384116
O O10 0.780474 0.702714 0.334903
O O11 0.728592 0.732148 0.481319
O O12 0.230288 0.780996 0.209872
O O13 0.000000 0.711375 0.228940
O O14 0.780350 0.562124 0.922056
O O15 0.000000 0.543068 0.026384
O O16 0.245236 0.824606 0.389222
O O17 0.000000 0.770925 0.431958
O O18 0.500000 0.124513 0.856264
O O19 0.259665 0.106956 0.766258
O O20 0.000000 0.853549 0.218683
#
# Coordination Sequence:
#
# PCOD8174723 Si02
#       8
#     8   8   8   8   8   8   8   8
#     4  10  23  42  61  85 118 161 204 247 298 354
#     4  10  21  37  60  87 116 153 196 241 294 355
#     4  11  22  37  58  85 120 158 197 242 297 357
#     4  11  22  37  59  90 125 156 192 242 301 359
#     4  10  22  41  62  86 116 154 202 250 297 350
#     4  10  19  33  56  86 117 151 190 237 293 350
#     4  10  20  35  59  88 117 152 194 243 295 352
#     4  10  21  38  61  89 121 155 195 244 301 359
#
# _framework density 19.599156000000001
#
# number of rings (size 3 to 8) (size 9 to 14) (size 15 to 20)
#    0.000    1.750    1.250    3.000    0.000    6.000 
#    2.250    0.000    0.000    0.000    0.000    0.000 
#    0.000    0.000    0.000    0.000    0.000    0.000 
#
# Total GULP energy -396731.720613 kJ/mol
# GULP energy per Si atom -12397.866269 kJ/mol
# Density = 1.955455 g / cm^3
# Si number density = 19.599156 Si / 1000 Ang^3
#
#
#
# Elastic Constant Matrix: (Units=GPa)
#
#
# Indices 1 2 3 4 5 6 
#
# 1 89.3864 46.3496 32.0970 0.0000 0.0000 0.0000
# 2 46.3496 103.8605 36.8301 0.0000 0.0000 0.0000
# 3 32.0970 36.8301 71.4746 0.0000 0.0000 0.0000
# 4 0.0000 0.0000 0.0000 23.3671 0.0000 0.0000
# 5 0.0000 0.0000 0.0000 0.0000 33.3740 0.0000
# 6 0.0000 0.0000 0.0000 0.0000 0.0000 36.1644
#
#
#
# Elastic Compliance Matrix: (Units=1/GPa)
#
#
# Indices 1 2 3 4 5 6 
#
# 1 0.015503 -0.005445 -0.004156 0.000000 0.000000 0.000000
# 2 -0.005445 0.013693 -0.004611 0.000000 0.000000 0.000000
# 3 -0.004156 -0.004611 0.018233 0.000000 0.000000 0.000000
# 4 0.000000 0.000000 0.000000 0.042795 0.000000 0.000000
# 5 0.000000 0.000000 0.000000 0.000000 0.029963 0.000000
# 6 0.000000 0.000000 0.000000 0.000000 0.000000 0.027652
#
#
# Mechanical properties :
#
#
# Convention : Reuss Voigt Hill
#
# Bulk Modulus (GPa) = 52.61552 55.03055 53.82303
# Shear Modulus (GPa) = 27.38241 28.54408 27.96324
#
# Velocity S-wave (km/s) = 3.74186 3.82041 3.78134
# Velocity P-wave (km/s) = 6.75076 6.89925 6.82541
#
# Compressibility (1/GPa) = 0.01900580
#
# Stress axis : x y z
#
# Youngs Moduli (GPa) = 64.50328 73.02920 54.84423
#
# Poissons Ratio (x) = 0.39762 0.22795
# Poissons Ratio (y) = 0.35120 0.25288
# Poissons Ratio (z) = 0.26810 0.33673
#
# Static dielectric constant tensor:
#      x y z
#    x 3.989650 0.000000 0.000000 
#    y 0.000000 3.534300 0.000000 
#    z 0.000000 0.000000 3.776480 
# 
# 
# High freq. dielectric constant tensor:
#      x y z
#    x 1.773120 0.000000 0.000000 
#    y 0.000000 1.751190 0.000000 
#    z 0.000000 0.000000 1.763070 
# 
# From -- ./inp_files/13944.got.cif
#   From: 2010.03.12/outbox.cif.g09.slc.cpg/sg36_7_cif.got.tgz:13944.got - 2010.04.14 02:13:53.
