data_PCOD8174705
_publ_section_title
;
Structure prediction by ZEFSAII (Michael W. Deem and Ramdas Pophale) SiO2 
 PCOD8174705
Probable space group: C M C 21
;
_chemical_formula_sum "Si O2"
_cell_formula_units_Z 64
_cell_length_a 9.112721
_cell_length_b 24.716236
_cell_length_c 14.247896
_cell_angle_alpha 90.000000
_cell_angle_beta 90.000000
_cell_angle_gamma 90.000000
_cell_volume 3209.084432
_symmetry_space_group_name_H-M "C M C 21"
_symmetry_group_IT_number 36
_symmetry_cell_setting 'orthorhombic'
loop_
_space_group_symop_operation_xyz
x,y,z
-x,-y,1/2+z
x,-y,1/2+z
-x,y,z
1/2+x,1/2+y,z
1/2-x,1/2-y,1/2+z
1/2+x,1/2-y,1/2+z
1/2-x,1/2+y,z
loop_
_atom_site_type_symbol
_atom_site_label
_atom_site_fract_x
_atom_site_fract_y
_atom_site_fract_z
Si Si1 0.324257 0.162272 0.066440
Si Si2 0.165819 0.082591 0.789090
Si Si3 0.174951 0.052421 0.107604
Si Si4 0.335618 0.567548 0.571832
Si Si5 0.827161 0.806342 0.383749
Si Si6 0.338034 0.881887 0.917951
Si Si7 0.836710 0.520779 0.288166
Si Si8 0.326564 0.798082 0.769723
O O1 0.500000 0.158238 0.061036
O O2 0.254168 0.102260 0.055597
O O3 0.269494 0.190188 0.163937
O O4 0.262476 0.198995 0.981225
O O5 0.176518 0.087468 0.677827
O O6 0.218376 0.137942 0.835111
O O7 0.000000 0.068411 0.820192
O O8 0.272547 0.035737 0.825075
O O9 0.230438 0.050100 0.214343
O O10 0.000000 0.060911 0.106379
O O11 0.219749 0.994728 0.060967
O O12 0.500000 0.569811 0.534175
O O13 0.248301 0.612957 0.514707
O O14 0.779569 0.760395 0.309027
O O15 0.000000 0.802564 0.405705
O O16 0.500000 0.859489 0.941568
O O17 0.345870 0.942150 0.878571
O O18 0.260879 0.841942 0.843002
O O19 0.000000 0.512615 0.244653
O O20 0.500000 0.805393 0.766153
#
# Coordination Sequence:
#
# PCOD8174705 Si02
#       8
#     8   8   8   8   8   8   8   8
#     4  11  22  39  62  88 118 152 193 246 298 352
#     4   9  20  38  56  80 116 154 194 238 292 351
#     4  10  20  36  57  84 118 156 196 239 292 351
#     4   9  20  35  53  82 118 155 194 239 287 345
#     4  10  22  41  64  86 113 156 201 244 295 350
#     4  10  20  35  55  83 115 155 195 233 293 353
#     4  10  19  33  55  83 116 153 191 238 294 345
#     4   9  20  41  62  82 116 157 194 237 293 351
#
# _framework density 19.943383000000001
#
# number of rings (size 3 to 8) (size 9 to 14) (size 15 to 20)
#    0.000    2.250    1.250    1.875    1.750    5.000 
#    0.000    3.125    0.000    0.000    0.000    0.000 
#    0.000    0.000    0.000    0.000    0.000    0.000 
#
# Total GULP energy -396687.139837 kJ/mol
# GULP energy per Si atom -12396.473120 kJ/mol
# Density = 1.989799 g / cm^3
# Si number density = 19.943383 Si / 1000 Ang^3
#
#
#
# Elastic Constant Matrix: (Units=GPa)
#
#
# Indices 1 2 3 4 5 6 
#
# 1 65.4670 31.1056 28.6127 0.0000 0.0000 0.0000
# 2 31.1056 98.1867 42.7682 0.0000 0.0000 0.0000
# 3 28.6127 42.7682 76.4000 0.0000 0.0000 0.0000
# 4 0.0000 0.0000 0.0000 29.5734 0.0000 0.0000
# 5 0.0000 0.0000 0.0000 0.0000 31.5609 0.0000
# 6 0.0000 0.0000 0.0000 0.0000 0.0000 20.9742
#
#
#
# Elastic Compliance Matrix: (Units=1/GPa)
#
#
# Indices 1 2 3 4 5 6 
#
# 1 0.019348 -0.003932 -0.005045 0.000000 0.000000 0.000000
# 2 -0.003932 0.014268 -0.006515 0.000000 0.000000 0.000000
# 3 -0.005045 -0.006515 0.018625 0.000000 0.000000 0.000000
# 4 0.000000 0.000000 0.000000 0.033814 0.000000 0.000000
# 5 0.000000 0.000000 0.000000 0.000000 0.031685 0.000000
# 6 0.000000 0.000000 0.000000 0.000000 0.000000 0.047678
#
#
# Mechanical properties :
#
#
# Convention : Reuss Voigt Hill
#
# Bulk Modulus (GPa) = 47.04065 49.44742 48.24403
# Shear Modulus (GPa) = 24.57164 25.59285 25.08224
#
# Velocity S-wave (km/s) = 3.51389 3.58617 3.55022
# Velocity P-wave (km/s) = 6.33258 6.48037 6.40690
#
# Compressibility (1/GPa) = 0.02125821
#
# Stress axis : x y z
#
# Youngs Moduli (GPa) = 51.68491 70.08728 53.69076
#
# Poissons Ratio (x) = 0.27558 0.27087
# Poissons Ratio (y) = 0.20322 0.34977
# Poissons Ratio (z) = 0.26075 0.45658
#
# Static dielectric constant tensor:
#      x y z
#    x 3.581130 0.000000 0.000000 
#    y 0.000000 3.636340 0.000000 
#    z 0.000000 0.000000 3.559280 
# 
# 
# High freq. dielectric constant tensor:
#      x y z
#    x 1.761310 0.000000 0.000000 
#    y 0.000000 1.773340 0.000000 
#    z 0.000000 0.000000 1.777490 
# 
# From -- ./inp_files/10946.got.cif
#   From: 2010.03.12/outbox.cif.g09.slc.cpg/sg36_6_cif.got.tgz:10946.got - 2010.04.14 02:13:53.
