data_PCOD8174453
_publ_section_title
;
Structure prediction by ZEFSAII (Michael W. Deem and Ramdas Pophale) SiO2 
 PCOD8174453
Probable space group: C M C 21
;
_chemical_formula_sum "Si O2"
_cell_formula_units_Z 64
_cell_length_a 17.901210
_cell_length_b 10.909314
_cell_length_c 15.882452
_cell_angle_alpha 90.000000
_cell_angle_beta 90.000000
_cell_angle_gamma 90.000000
_cell_volume 3101.682794
_symmetry_space_group_name_H-M "C M C 21"
_symmetry_group_IT_number 36
_symmetry_cell_setting 'orthorhombic'
loop_
_space_group_symop_operation_xyz
x,y,z
-x,-y,1/2+z
x,-y,1/2+z
-x,y,z
1/2+x,1/2+y,z
1/2-x,1/2-y,1/2+z
1/2+x,1/2-y,1/2+z
1/2-x,1/2+y,z
loop_
_atom_site_type_symbol
_atom_site_label
_atom_site_fract_x
_atom_site_fract_y
_atom_site_fract_z
Si Si1 0.916847 0.792428 0.514930
Si Si2 0.584993 0.058187 0.817146
Si Si3 0.635646 0.452605 0.040306
Si Si4 0.304023 0.297748 0.181978
Si Si5 0.144098 0.384359 0.146820
Si Si6 0.667433 0.262437 0.910140
Si Si7 0.329456 0.189415 0.356639
Si Si8 0.289117 0.086107 0.055976
O O1 0.882582 0.738376 0.600840
O O2 0.865324 0.762783 0.434616
O O3 0.000000 0.741655 0.498218
O O4 0.923673 0.937805 0.534355
O O5 0.500000 0.037493 0.847334
O O6 0.586400 0.067158 0.716187
O O7 0.614256 0.192363 0.845120
O O8 0.635078 0.945828 0.850846
O O9 0.621003 0.366044 0.959543
O O10 0.634221 0.372989 0.127025
O O11 0.716575 0.510595 0.033316
O O12 0.226318 0.372912 0.190351
O O13 0.342484 0.268723 0.271626
O O14 0.280148 0.171677 0.137311
O O15 0.145734 0.487926 0.074124
O O16 0.740057 0.323539 0.866897
O O17 0.693296 0.160947 0.974512
#
# Coordination Sequence:
#
# PCOD8174453 Si02
#       8
#     8   8   8   8   8   8   8   8
#     4  12  25  43  63  90 134 177 214 268 333 400
#     4  12  26  42  64  99 136 168 218 278 335 391
#     4  10  21  39  63  93 127 162 218 261 320 391
#     4  10  20  37  69  97 121 161 219 280 312 381
#     4  11  21  41  66  91 129 168 218 265 335 389
#     4  11  22  39  69  95 126 168 216 269 323 389
#     4  12  23  42  67  99 127 170 224 271 328 391
#     4  10  18  39  65  96 118 160 215 276 312 376
#
# _framework density 20.633959000000001
#
# number of rings (size 3 to 8) (size 9 to 14) (size 15 to 20)
#    0.000    1.000    5.000    3.750    0.000    0.500 
#    2.250    1.875    0.000    0.000    0.000    0.000 
#    0.000    0.000    0.000    0.000    0.000    0.000 
#
# Total GULP energy -396721.303046 kJ/mol
# GULP energy per Si atom -12397.540720 kJ/mol
# Density = 2.058700 g / cm^3
# Si number density = 20.633959 Si / 1000 Ang^3
#
#
#
# Elastic Constant Matrix: (Units=GPa)
#
#
# Indices 1 2 3 4 5 6 
#
# 1 83.9291 24.3277 26.0686 0.0000 0.0000 0.0000
# 2 24.3277 109.6633 31.8268 0.0000 0.0000 0.0000
# 3 26.0686 31.8268 74.9696 0.0000 0.0000 0.0000
# 4 0.0000 0.0000 0.0000 24.9026 0.0000 0.0000
# 5 0.0000 0.0000 0.0000 0.0000 19.7114 0.0000
# 6 0.0000 0.0000 0.0000 0.0000 0.0000 18.1692
#
#
#
# Elastic Compliance Matrix: (Units=1/GPa)
#
#
# Indices 1 2 3 4 5 6 
#
# 1 0.013692 -0.001888 -0.003959 0.000000 0.000000 0.000000
# 2 -0.001888 0.010661 -0.003869 0.000000 0.000000 0.000000
# 3 -0.003959 -0.003869 0.016358 0.000000 0.000000 0.000000
# 4 0.000000 0.000000 0.000000 0.040157 0.000000 0.000000
# 5 0.000000 0.000000 0.000000 0.000000 0.050732 0.000000
# 6 0.000000 0.000000 0.000000 0.000000 0.000000 0.055038
#
#
# Mechanical properties :
#
#
# Convention : Reuss Voigt Hill
#
# Bulk Modulus (GPa) = 46.99908 48.11204 47.55556
# Shear Modulus (GPa) = 23.45618 24.97922 24.21770
#
# Velocity S-wave (km/s) = 3.37527 3.48312 3.42962
# Velocity P-wave (km/s) = 6.16578 6.28838 6.22739
#
# Compressibility (1/GPa) = 0.02127701
#
# Stress axis : x y z
#
# Youngs Moduli (GPa) = 73.03562 93.80295 61.13194
#
# Poissons Ratio (x) = 0.17713 0.24204
# Poissons Ratio (y) = 0.13792 0.23653
# Poissons Ratio (z) = 0.28917 0.36294
#
# Static dielectric constant tensor:
#      x y z
#    x 3.480960 0.000000 0.000000 
#    y 0.000000 4.429440 0.000000 
#    z 0.000000 0.000000 3.966930 
# 
# 
# High freq. dielectric constant tensor:
#      x y z
#    x 1.773760 0.000000 0.000000 
#    y 0.000000 1.820780 0.000000 
#    z 0.000000 0.000000 1.812580 
# 
# From -- ./inp_files/12626.got.cif
#   From: 2010.03.12/outbox.cif.g09.slc.cpg/sg36_7_cif.got.tgz:12626.got - 2010.04.14 02:13:53.
