data_PCOD8174261
_publ_section_title
;
Structure prediction by ZEFSAII (Michael W. Deem and Ramdas Pophale) SiO2 
 PCOD8174261
Probable space group: C M C 21
;
_chemical_formula_sum "Si O2"
_cell_formula_units_Z 64
_cell_length_a 9.679551
_cell_length_b 22.641339
_cell_length_c 16.188273
_cell_angle_alpha 90.000000
_cell_angle_beta 90.000000
_cell_angle_gamma 90.000000
_cell_volume 3547.789462
_symmetry_space_group_name_H-M "C M C 21"
_symmetry_group_IT_number 36
_symmetry_cell_setting 'orthorhombic'
loop_
_space_group_symop_operation_xyz
x,y,z
-x,-y,1/2+z
x,-y,1/2+z
-x,y,z
1/2+x,1/2+y,z
1/2-x,1/2-y,1/2+z
1/2+x,1/2-y,1/2+z
1/2-x,1/2+y,z
loop_
_atom_site_type_symbol
_atom_site_label
_atom_site_fract_x
_atom_site_fract_y
_atom_site_fract_z
Si Si1 0.349017 0.208140 0.493540
Si Si2 0.663387 0.486321 0.849545
Si Si3 0.336990 0.671186 0.058120
Si Si4 0.664475 0.458353 0.520461
Si Si5 0.663084 0.646459 0.372321
Si Si6 0.664455 0.539266 0.675242
Si Si7 0.163875 0.774738 0.724818
Si Si8 0.652681 0.153142 0.670978
O O1 0.500000 0.200315 0.450702
O O2 0.304593 0.277587 0.490559
O O3 0.234114 0.165563 0.456682
O O4 0.363267 0.189783 0.587696
O O5 0.500000 0.490860 0.851398
O O6 0.712150 0.418805 0.848585
O O7 0.716902 0.514653 0.763826
O O8 0.723388 0.517073 0.932883
O O9 0.500000 0.663325 0.068301
O O10 0.274803 0.607901 0.030715
O O11 0.271653 0.691409 0.145609
O O12 0.500000 0.458629 0.517696
O O13 0.712954 0.497594 0.599196
O O14 0.500000 0.649140 0.385487
O O15 0.720934 0.691671 0.304580
O O16 0.500000 0.547427 0.673874
O O17 0.734674 0.602475 0.664258
O O18 0.203832 0.705122 0.733473
O O19 0.000000 0.781052 0.720819
O O20 0.500000 0.127910 0.695446
#
# Coordination Sequence:
#
# PCOD8174261 Si02
#       8
#     8   8   8   8   8   8   8   8
#     4   9  18  31  48  70  94 122 157 195 234 282
#     4   9  18  29  43  69  98 121 152 194 236 281
#     4   8  14  27  46  65  88 122 159 189 225 277
#     4   9  16  27  45  69  97 125 152 189 237 282
#     4  10  18  30  49  70  94 122 154 195 240 281
#     4  10  19  31  50  74  97 123 158 199 239 280
#     4   8  15  28  46  65  85 118 160 192 222 274
#     4   9  18  33  49  66  93 127 160 191 231 285
#
# _framework density 18.039401000000002
#
# number of rings (size 3 to 8) (size 9 to 14) (size 15 to 20)
#    0.000    3.000    0.000    3.000    0.000    5.500 
#    0.000    2.500    0.000    2.250    0.000    0.000 
#    0.000    0.000    0.000    0.000    0.000    0.000 
#
# Total GULP energy -396503.373977 kJ/mol
# GULP energy per Si atom -12390.730437 kJ/mol
# Density = 1.799834 g / cm^3
# Si number density = 18.039401 Si / 1000 Ang^3
#
#
#
# Elastic Constant Matrix: (Units=GPa)
#
#
# Indices 1 2 3 4 5 6 
#
# 1 25.0901 32.7320 15.0956 0.0000 0.0000 0.0000
# 2 32.7320 141.8996 41.8671 0.0000 0.0000 0.0000
# 3 15.0956 41.8671 87.0967 0.0000 0.0000 0.0000
# 4 0.0000 0.0000 0.0000 31.1220 0.0000 0.0000
# 5 0.0000 0.0000 0.0000 0.0000 13.8025 0.0000
# 6 0.0000 0.0000 0.0000 0.0000 0.0000 20.6211
#
#
#
# Elastic Compliance Matrix: (Units=1/GPa)
#
#
# Indices 1 2 3 4 5 6 
#
# 1 0.058329 -0.012203 -0.004244 0.000000 0.000000 0.000000
# 2 -0.012203 0.010765 -0.003060 0.000000 0.000000 0.000000
# 3 -0.004244 -0.003060 0.013688 0.000000 0.000000 0.000000
# 4 0.000000 0.000000 0.000000 0.032132 0.000000 0.000000
# 5 0.000000 0.000000 0.000000 0.000000 0.072451 0.000000
# 6 0.000000 0.000000 0.000000 0.000000 0.000000 0.048494
#
#
# Mechanical properties :
#
#
# Convention : Reuss Voigt Hill
#
# Bulk Modulus (GPa) = 22.84704 48.16396 35.50550
# Shear Modulus (GPa) = 17.27359 24.06859 20.67109
#
# Velocity S-wave (km/s) = 3.09778 3.65666 3.38877
# Velocity P-wave (km/s) = 5.04852 6.67724 5.91917
#
# Compressibility (1/GPa) = 0.04376935
#
# Stress axis : x y z
#
# Youngs Moduli (GPa) = 17.14417 92.89589 73.05787
#
# Poissons Ratio (x) = 1.13357 0.31004
# Poissons Ratio (y) = 0.20920 0.22353
# Poissons Ratio (z) = 0.07276 0.28423
#
# Static dielectric constant tensor:
#      x y z
#    x 2.751990 0.000000 0.000000 
#    y 0.000000 3.598510 0.000000 
#    z 0.000000 0.000000 3.494120 
# 
# 
# High freq. dielectric constant tensor:
#      x y z
#    x 1.635640 0.000000 0.000000 
#    y 0.000000 1.714920 0.000000 
#    z 0.000000 0.000000 1.697430 
# 
# From -- ./inp_files/14485.got.cif
#   From: 2010.03.12/outbox.cif.g09.slc.cpg/sg36_8_cif.got.tgz:14485.got - 2010.04.14 02:13:53.
