data_PCOD8174761
_publ_section_title
;
Structure prediction by ZEFSAII (Michael W. Deem and Ramdas Pophale) SiO2 
 PCOD8174761
Probable space group: C M C 21
;
_chemical_formula_sum "Si O2"
_cell_formula_units_Z 56
_cell_length_a 18.456327
_cell_length_b 19.564928
_cell_length_c 8.334727
_cell_angle_alpha 90.000000
_cell_angle_beta 90.000000
_cell_angle_gamma 90.000000
_cell_volume 3009.642489
_symmetry_space_group_name_H-M "C M C 21"
_symmetry_group_IT_number 36
_symmetry_cell_setting 'orthorhombic'
loop_
_space_group_symop_operation_xyz
x,y,z
-x,-y,1/2+z
x,-y,1/2+z
-x,y,z
1/2+x,1/2+y,z
1/2-x,1/2-y,1/2+z
1/2+x,1/2-y,1/2+z
1/2-x,1/2+y,z
loop_
_atom_site_type_symbol
_atom_site_label
_atom_site_fract_x
_atom_site_fract_y
_atom_site_fract_z
Si Si1 0.804948 0.321748 0.295570
Si Si2 0.218792 0.015937 0.621061
Si Si3 0.419287 0.277663 0.364166
Si Si4 0.298713 0.082713 0.337649
Si Si5 0.917821 0.640829 0.548316
Si Si6 0.699970 0.220350 0.145853
Si Si7 0.170366 0.093544 0.891995
O O1 0.874185 0.359468 0.216566
O O2 0.769445 0.269798 0.166185
O O3 0.823004 0.283232 0.460513
O O4 0.750385 0.379760 0.351452
O O5 0.247299 0.072275 0.493811
O O6 0.155760 0.049386 0.731536
O O7 0.287125 0.983934 0.724422
O O8 0.174160 0.954040 0.545706
O O9 0.500000 0.290950 0.300535
O O10 0.418725 0.220322 0.500233
O O11 0.370928 0.254698 0.216945
O O12 0.387587 0.348367 0.433536
O O13 0.379918 0.093604 0.410375
O O14 0.278783 0.149325 0.232601
O O15 0.000000 0.613621 0.572713
#
# Coordination Sequence:
#
# PCOD8174761 Si02
#       7
#     8   8   8   8   8   8   8
#     4  11  19  34  54  84 107 141 184 235 275 322
#     4  10  20  32  56  80 108 137 185 226 265 309
#     4   9  20  37  55  79 112 145 176 225 280 327
#     4  10  19  35  53  80 108 140 180 227 266 321
#     4  10  21  37  56  78 112 145 179 228 283 327
#     4  10  20  31  58  81 109 140 184 231 278 321
#     4  10  19  34  55  82 105 144 182 228 263 319
#
# _framework density 18.606860000000001
#
# number of rings (size 3 to 8) (size 9 to 14) (size 15 to 20)
#    0.000    2.000    2.857    2.571    2.000    0.571 
#    0.000    1.429    0.000    0.000    0.000    0.000 
#    0.000    0.000    0.000    0.000    0.000    0.000 
#
# Total GULP energy -346925.410977 kJ/mol
# GULP energy per Si atom -12390.193249 kJ/mol
# Density = 1.856451 g / cm^3
# Si number density = 18.606860 Si / 1000 Ang^3
#
#
#
# Elastic Constant Matrix: (Units=GPa)
#
#
# Indices 1 2 3 4 5 6 
#
# 1 64.2973 12.2558 13.2353 0.0000 0.0000 0.0000
# 2 12.2558 61.7678 1.3569 0.0000 0.0000 0.0000
# 3 13.2353 1.3569 65.3358 0.0000 0.0000 0.0000
# 4 0.0000 0.0000 0.0000 32.6784 0.0000 0.0000
# 5 0.0000 0.0000 0.0000 0.0000 16.1129 0.0000
# 6 0.0000 0.0000 0.0000 0.0000 0.0000 20.2252
#
#
#
# Elastic Compliance Matrix: (Units=1/GPa)
#
#
# Indices 1 2 3 4 5 6 
#
# 1 0.016866 -0.003273 -0.003349 0.000000 0.000000 0.000000
# 2 -0.003273 0.016832 0.000313 0.000000 0.000000 0.000000
# 3 -0.003349 0.000313 0.015977 0.000000 0.000000 0.000000
# 4 0.000000 0.000000 0.000000 0.030601 0.000000 0.000000
# 5 0.000000 0.000000 0.000000 0.000000 0.062062 0.000000
# 6 0.000000 0.000000 0.000000 0.000000 0.000000 0.049443
#
#
# Mechanical properties :
#
#
# Convention : Reuss Voigt Hill
#
# Bulk Modulus (GPa) = 26.98383 27.23300 27.10841
# Shear Modulus (GPa) = 23.06790 24.77349 23.92070
#
# Velocity S-wave (km/s) = 3.52483 3.65282 3.58939
# Velocity P-wave (km/s) = 5.57669 5.69724 5.63729
#
# Compressibility (1/GPa) = 0.03705924
#
# Stress axis : x y z
#
# Youngs Moduli (GPa) = 59.29118 59.41002 62.58851
#
# Poissons Ratio (x) = 0.19444 0.20958
# Poissons Ratio (y) = 0.19406 -0.01962
# Poissons Ratio (z) = 0.19854 -0.01862
#
# Static dielectric constant tensor:
#      x y z
#    x 3.260660 0.000000 0.000000 
#    y 0.000000 3.684530 0.000000 
#    z 0.000000 0.000000 3.891000 
# 
# 
# High freq. dielectric constant tensor:
#      x y z
#    x 1.681310 0.000000 0.000000 
#    y 0.000000 1.732080 0.000000 
#    z 0.000000 0.000000 1.729820 
# 
# From -- ./inp_files/4868.got.cif
#   From: 2010.03.12/outbox.cif.g09.slc.cpg/sg36_3_cif.got.tgz:4868.got - 2010.04.14 02:13:53.
