data_PCOD8174332
_publ_section_title
;
Structure prediction by ZEFSAII (Michael W. Deem and Ramdas Pophale) SiO2 
 PCOD8174332
Probable space group: C M C 21
;
_chemical_formula_sum "Si O2"
_cell_formula_units_Z 56
_cell_length_a 22.717631
_cell_length_b 9.899971
_cell_length_c 13.508324
_cell_angle_alpha 90.000000
_cell_angle_beta 90.000000
_cell_angle_gamma 90.000000
_cell_volume 3038.074589
_symmetry_space_group_name_H-M "C M C 21"
_symmetry_group_IT_number 36
_symmetry_cell_setting 'orthorhombic'
loop_
_space_group_symop_operation_xyz
x,y,z
-x,-y,1/2+z
x,-y,1/2+z
-x,y,z
1/2+x,1/2+y,z
1/2-x,1/2-y,1/2+z
1/2+x,1/2-y,1/2+z
1/2-x,1/2+y,z
loop_
_atom_site_type_symbol
_atom_site_label
_atom_site_fract_x
_atom_site_fract_y
_atom_site_fract_z
Si Si1 0.656086 0.401506 0.973510
Si Si2 0.850886 0.593946 0.191681
Si Si3 0.750000 0.000000 0.829976
Si Si4 0.649114 0.593946 0.691681
Si Si5 0.431503 0.090608 0.813673
Si Si6 0.656086 0.098494 0.973510
Si Si7 0.568497 0.409392 0.813673
O O1 0.713204 0.404523 0.903335
O O2 0.640177 0.250000 0.998144
O O3 0.599793 0.461802 0.914754
O O4 0.665452 0.465727 0.082306
O O5 0.793539 0.585845 0.261258
O O6 0.871641 0.750000 0.192263
O O7 0.904155 0.497652 0.225490
O O8 0.834548 0.534273 0.082306
O O9 0.793539 0.085845 0.761258
O O10 0.713203 0.095477 0.903335
O O11 0.595845 0.497652 0.725490
O O12 0.500000 0.059382 0.822212
O O13 0.400207 0.038198 0.914754
O O14 0.418996 0.250000 0.794541
O O15 0.500000 0.440618 0.822212
#
# Coordination Sequence:
#
# PCOD8174332 Si02
#       7
#     8   8   8   8   8   8   8
#     4   9  18  32  50  73 101 134 168 201 246 303
#     4  10  20  33  53  79 102 130 170 212 249 289
#     4  10  18  32  50  74 106 136 162 202 250 300
#     4  10  20  33  53  79 102 130 170 212 249 289
#     4   9  19  36  54  72 100 137 170 203 251 306
#     4   9  18  32  50  73 101 134 168 201 246 303
#     4   9  19  36  54  72 100 137 170 203 251 306
#
# _framework density 18.432727
#
# number of rings (size 3 to 8) (size 9 to 14) (size 15 to 20)
#    0.000    2.571    0.000    1.714    0.000    2.857 
#    0.000   10.000    0.000    0.000    0.000    0.000 
#    0.000    0.000    0.000    0.000    0.000    0.000 
#
# Total GULP energy -346905.112117 kJ/mol
# GULP energy per Si atom -12389.468290 kJ/mol
# Density = 1.839077 g / cm^3
# Si number density = 18.432727 Si / 1000 Ang^3
#
#
#
# Elastic Constant Matrix: (Units=GPa)
#
#
# Indices 1 2 3 4 5 6 
#
# 1 139.4012 32.5194 72.3801 0.0000 0.0000 0.0000
# 2 32.5194 58.1159 36.8059 0.0000 0.0000 0.0000
# 3 72.3801 36.8059 168.7867 0.0000 0.0000 0.0000
# 4 0.0000 0.0000 0.0000 23.1324 0.0000 0.0000
# 5 0.0000 0.0000 0.0000 0.0000 14.7664 0.0000
# 6 0.0000 0.0000 0.0000 0.0000 0.0000 27.5810
#
#
#
# Elastic Compliance Matrix: (Units=1/GPa)
#
#
# Indices 1 2 3 4 5 6 
#
# 1 0.009730 -0.003251 -0.003464 0.000000 0.000000 0.000000
# 2 -0.003251 0.021050 -0.003196 0.000000 0.000000 0.000000
# 3 -0.003464 -0.003196 0.008107 0.000000 0.000000 0.000000
# 4 0.000000 0.000000 0.000000 0.043229 0.000000 0.000000
# 5 0.000000 0.000000 0.000000 0.000000 0.067722 0.000000
# 6 0.000000 0.000000 0.000000 0.000000 0.000000 0.036257
#
#
# Mechanical properties :
#
#
# Convention : Reuss Voigt Hill
#
# Bulk Modulus (GPa) = 52.44997 72.19051 62.32024
# Shear Modulus (GPa) = 23.55462 28.06917 25.81190
#
# Velocity S-wave (km/s) = 3.57861 3.90653 3.74616
# Velocity P-wave (km/s) = 6.75217 7.71993 7.25221
#
# Compressibility (1/GPa) = 0.01906579
#
# Stress axis : x y z
#
# Youngs Moduli (GPa) = 102.77087 47.50515 123.35169
#
# Poissons Ratio (x) = 0.15445 0.42725
# Poissons Ratio (y) = 0.33412 0.39424
# Poissons Ratio (z) = 0.35597 0.15183
#
# Static dielectric constant tensor:
#      x y z
#    x 3.335540 0.000000 0.000000 
#    y 0.000000 3.134440 0.000000 
#    z 0.000000 0.000000 3.882870 
# 
# 
# High freq. dielectric constant tensor:
#      x y z
#    x 1.711580 0.000000 0.000000 
#    y 0.000000 1.691270 0.000000 
#    z 0.000000 0.000000 1.730120 
# 
# From -- ./inp_files/9230.got.cif
#   From: 2010.03.12/outbox.cif.g09.slc.cpg/sg36_5_cif.got.tgz:9230.got - 2010.04.14 02:13:53.
