data_PCOD8174215
_publ_section_title
;
Structure prediction by ZEFSAII (Michael W. Deem and Ramdas Pophale) SiO2 
 PCOD8174215
Probable space group: C M C 21
;
_chemical_formula_sum "Si O2"
_cell_formula_units_Z 64
_cell_length_a 8.774114
_cell_length_b 20.759168
_cell_length_c 19.397089
_cell_angle_alpha 90.000000
_cell_angle_beta 90.000000
_cell_angle_gamma 90.000000
_cell_volume 3533.049928
_symmetry_space_group_name_H-M "C M C 21"
_symmetry_group_IT_number 36
_symmetry_cell_setting 'orthorhombic'
loop_
_space_group_symop_operation_xyz
x,y,z
-x,-y,1/2+z
x,-y,1/2+z
-x,y,z
1/2+x,1/2+y,z
1/2-x,1/2-y,1/2+z
1/2+x,1/2-y,1/2+z
1/2-x,1/2+y,z
loop_
_atom_site_type_symbol
_atom_site_label
_atom_site_fract_x
_atom_site_fract_y
_atom_site_fract_z
Si Si1 0.820991 0.255967 0.690540
Si Si2 0.675546 0.199074 0.898574
Si Si3 0.319368 0.068080 0.828057
Si Si4 0.175280 0.246437 0.540581
Si Si5 0.318963 0.940832 0.902784
Si Si6 0.180091 0.317226 0.825123
Si Si7 0.319626 0.389872 0.190933
Si Si8 0.320811 0.889015 0.047238
O O1 0.777043 0.279227 0.613510
O O2 0.752897 0.304874 0.747721
O O3 0.759451 0.183238 0.702090
O O4 0.000000 0.253921 0.701564
O O5 0.500000 0.210923 0.877900
O O6 0.734881 0.131261 0.869589
O O7 0.778947 0.255641 0.870162
O O8 0.695972 0.200009 0.981534
O O9 0.500000 0.065282 0.821667
O O10 0.249906 0.066335 0.751417
O O11 0.255758 0.007178 0.870953
O O12 0.277211 0.183844 0.526764
O O13 0.000000 0.222462 0.545489
O O14 0.500000 0.938765 0.897948
O O15 0.248385 0.881873 0.857780
O O16 0.270287 0.934076 0.982893
O O17 0.000000 0.324446 0.824044
O O18 0.500000 0.395116 0.193158
O O19 0.262731 0.414182 0.116138
O O20 0.500000 0.892484 0.060129
#
# Coordination Sequence:
#
# PCOD8174215 Si02
#       8
#     8   8   8   8   8   8   8   8
#     4   8  15  27  47  71  96 123 162 210 253 299
#     4  10  19  30  49  74 103 133 167 214 257 297
#     4  10  20  35  51  75 108 140 173 211 256 307
#     4   9  17  30  46  72 103 131 165 209 260 308
#     4   9  19  33  51  76 106 137 172 212 254 307
#     4  10  17  31  52  73  98 130 172 215 254 305
#     4  10  19  33  52  76 102 133 173 217 258 307
#     4  10  18  31  52  77 102 133 170 212 258 308
#
# _framework density 18.114659
#
# number of rings (size 3 to 8) (size 9 to 14) (size 15 to 20)
#    0.000    2.500    2.500    1.500    0.000    0.000 
#    0.000    3.125    0.000    6.000    0.000    3.500 
#    0.000    0.000    0.000    0.000    0.000    0.000 
#
# Total GULP energy -396638.695812 kJ/mol
# GULP energy per Si atom -12394.959244 kJ/mol
# Density = 1.807343 g / cm^3
# Si number density = 18.114659 Si / 1000 Ang^3
#
#
#
# Elastic Constant Matrix: (Units=GPa)
#
#
# Indices 1 2 3 4 5 6 
#
# 1 26.9775 15.7674 24.0764 0.0000 0.0000 0.0000
# 2 15.7674 102.3975 72.3297 0.0000 0.0000 0.0000
# 3 24.0764 72.3297 167.8634 0.0000 0.0000 0.0000
# 4 0.0000 0.0000 0.0000 32.3804 0.0000 0.0000
# 5 0.0000 0.0000 0.0000 0.0000 23.5601 0.0000
# 6 0.0000 0.0000 0.0000 0.0000 0.0000 16.4356
#
#
#
# Elastic Compliance Matrix: (Units=1/GPa)
#
#
# Indices 1 2 3 4 5 6 
#
# 1 0.043260 -0.003275 -0.004793 0.000000 0.000000 0.000000
# 2 -0.003275 0.014287 -0.005686 0.000000 0.000000 0.000000
# 3 -0.004793 -0.005686 0.009095 0.000000 0.000000 0.000000
# 4 0.000000 0.000000 0.000000 0.030883 0.000000 0.000000
# 5 0.000000 0.000000 0.000000 0.000000 0.042445 0.000000
# 6 0.000000 0.000000 0.000000 0.000000 0.000000 0.060843
#
#
# Mechanical properties :
#
#
# Convention : Reuss Voigt Hill
#
# Bulk Modulus (GPa) = 25.55467 57.95394 41.75430
# Shear Modulus (GPa) = 20.71536 26.81286 23.76411
#
# Velocity S-wave (km/s) = 3.38534 3.85148 3.62591
# Velocity P-wave (km/s) = 5.42388 7.20006 6.37414
#
# Compressibility (1/GPa) = 0.03913180
#
# Stress axis : x y z
#
# Youngs Moduli (GPa) = 23.11589 69.99525 109.95293
#
# Poissons Ratio (x) = 0.22927 0.52705
# Poissons Ratio (y) = 0.07571 0.62521
# Poissons Ratio (z) = 0.11080 0.39800
#
# Static dielectric constant tensor:
#      x y z
#    x 3.063230 0.000000 0.000000 
#    y 0.000000 3.298130 0.000000 
#    z 0.000000 0.000000 3.806320 
# 
# 
# High freq. dielectric constant tensor:
#      x y z
#    x 1.675160 0.000000 0.000000 
#    y 0.000000 1.667060 0.000000 
#    z 0.000000 0.000000 1.724300 
# 
# From -- ./inp_files/15611.got.cif
#   From: 2010.03.12/outbox.cif.g09.slc.cpg/sg36_8_cif.got.tgz:15611.got - 2010.04.14 02:13:53.
