data_PCOD8174732
_publ_section_title
;
Structure prediction by ZEFSAII (Michael W. Deem and Ramdas Pophale) SiO2 
 PCOD8174732
Probable space group: C M C 21
;
_chemical_formula_sum "Si O2"
_cell_formula_units_Z 64
_cell_length_a 8.950105
_cell_length_b 23.438580
_cell_length_c 14.204748
_cell_angle_alpha 90.000000
_cell_angle_beta 90.000000
_cell_angle_gamma 90.000000
_cell_volume 2979.840104
_symmetry_space_group_name_H-M "C M C 21"
_symmetry_group_IT_number 36
_symmetry_cell_setting 'orthorhombic'
loop_
_space_group_symop_operation_xyz
x,y,z
-x,-y,1/2+z
x,-y,1/2+z
-x,y,z
1/2+x,1/2+y,z
1/2-x,1/2-y,1/2+z
1/2+x,1/2-y,1/2+z
1/2-x,1/2+y,z
loop_
_atom_site_type_symbol
_atom_site_label
_atom_site_fract_x
_atom_site_fract_y
_atom_site_fract_z
Si Si1 0.672462 0.453360 0.958130
Si Si2 0.173570 0.909896 0.760529
Si Si3 0.832468 0.603457 0.726193
Si Si4 0.824335 0.271884 0.532354
Si Si5 0.674540 0.205971 0.246698
Si Si6 0.675975 0.010974 0.120154
Si Si7 0.669031 0.844163 0.032226
Si Si8 0.675104 0.318439 0.362170
O O1 0.500000 0.461193 0.983721
O O2 0.699861 0.455246 0.845564
O O3 0.763080 0.502589 0.013580
O O4 0.724248 0.391539 0.990260
O O5 0.239888 0.848405 0.789622
O O6 0.000000 0.902327 0.738739
O O7 0.254424 0.932868 0.666835
O O8 0.777512 0.543514 0.683014
O O9 0.830765 0.651274 0.644975
O O10 0.719874 0.623859 0.807180
O O11 0.000000 0.597293 0.767217
O O12 0.780705 0.289394 0.637454
O O13 0.733974 0.216046 0.500871
O O14 0.767267 0.319964 0.459831
O O15 0.000000 0.260940 0.522600
O O16 0.500000 0.194988 0.258796
O O17 0.722746 0.263187 0.301105
O O18 0.500000 0.018407 0.113322
O O19 0.500000 0.850987 0.992777
O O20 0.500000 0.320051 0.383073
#
# Coordination Sequence:
#
# PCOD8174732 Si02
#       8
#     8   8   8   8   8   8   8   8
#     4  10  21  38  62  92 122 158 203 251 304 360
#     4  11  24  41  63  91 122 160 203 251 306 360
#     4   9  19  36  58  84 113 148 192 241 294 349
#     4  11  22  37  56  84 121 161 200 243 300 361
#     4  10  23  41  60  86 123 163 201 244 300 362
#     4  10  22  41  65  91 119 157 201 251 303 357
#     4  10  19  33  57  87 118 154 198 247 295 350
#     4  11  22  37  59  89 120 157 200 244 298 361
#
# _framework density 21.477661999999999
#
# number of rings (size 3 to 8) (size 9 to 14) (size 15 to 20)
#    0.000    1.750    1.250    3.750    0.000    8.500 
#    2.250    0.000    0.000    0.000    0.000    0.000 
#    0.000    0.000    0.000    0.000    0.000    0.000 
#
# Total GULP energy -396868.180680 kJ/mol
# GULP energy per Si atom -12402.130646 kJ/mol
# Density = 2.142878 g / cm^3
# Si number density = 21.477662 Si / 1000 Ang^3
#
#
#
# Elastic Constant Matrix: (Units=GPa)
#
#
# Indices 1 2 3 4 5 6 
#
# 1 84.2879 14.0727 30.2198 0.0000 0.0000 0.0000
# 2 14.0727 32.0626 -7.9493 0.0000 0.0000 0.0000
# 3 30.2198 -7.9493 72.8061 0.0000 0.0000 0.0000
# 4 0.0000 0.0000 0.0000 25.3591 0.0000 0.0000
# 5 0.0000 0.0000 0.0000 0.0000 34.7331 0.0000
# 6 0.0000 0.0000 0.0000 0.0000 0.0000 32.5910
#
#
#
# Elastic Compliance Matrix: (Units=1/GPa)
#
#
# Indices 1 2 3 4 5 6 
#
# 1 0.016111 -0.008972 -0.007667 0.000000 0.000000 0.000000
# 2 -0.008972 0.037053 0.007770 0.000000 0.000000 0.000000
# 3 -0.007667 0.007770 0.017766 0.000000 0.000000 0.000000
# 4 0.000000 0.000000 0.000000 0.039434 0.000000 0.000000
# 5 0.000000 0.000000 0.000000 0.000000 0.028791 0.000000
# 6 0.000000 0.000000 0.000000 0.000000 0.000000 0.030683
#
#
# Mechanical properties :
#
#
# Convention : Reuss Voigt Hill
#
# Bulk Modulus (GPa) = 18.79995 29.09366 23.94680
# Shear Modulus (GPa) = 24.35381 28.72420 26.53900
#
# Velocity S-wave (km/s) = 3.37102 3.66101 3.51900
# Velocity P-wave (km/s) = 4.89121 5.60768 5.26166
#
# Compressibility (1/GPa) = 0.05319163
#
# Stress axis : x y z
#
# Youngs Moduli (GPa) = 62.06999 26.98810 56.28818
#
# Poissons Ratio (x) = 0.24214 0.43155
# Poissons Ratio (y) = 0.55690 -0.43734
# Poissons Ratio (z) = 0.47588 -0.20969
#
# Static dielectric constant tensor:
#      x y z
#    x 3.766190 0.000000 0.000000 
#    y 0.000000 3.614810 0.000000 
#    z 0.000000 0.000000 3.986980 
# 
# 
# High freq. dielectric constant tensor:
#      x y z
#    x 1.846060 0.000000 0.000000 
#    y 0.000000 1.824910 0.000000 
#    z 0.000000 0.000000 1.846880 
# 
# From -- ./inp_files/11025.got.cif
#   From: 2010.03.12/outbox.cif.g09.slc.cpg/sg36_6_cif.got.tgz:11025.got - 2010.04.14 02:13:53.
