data_PCOD8174548
_publ_section_title
;
Structure prediction by ZEFSAII (Michael W. Deem and Ramdas Pophale) SiO2 
 PCOD8174548
Probable space group: C M C 21
;
_chemical_formula_sum "Si O2"
_cell_formula_units_Z 64
_cell_length_a 9.313394
_cell_length_b 15.483320
_cell_length_c 23.781925
_cell_angle_alpha 90.000000
_cell_angle_beta 90.000000
_cell_angle_gamma 90.000000
_cell_volume 3429.407322
_symmetry_space_group_name_H-M "C M C 21"
_symmetry_group_IT_number 36
_symmetry_cell_setting 'orthorhombic'
loop_
_space_group_symop_operation_xyz
x,y,z
-x,-y,1/2+z
x,-y,1/2+z
-x,y,z
1/2+x,1/2+y,z
1/2-x,1/2-y,1/2+z
1/2+x,1/2-y,1/2+z
1/2-x,1/2+y,z
loop_
_atom_site_type_symbol
_atom_site_label
_atom_site_fract_x
_atom_site_fract_y
_atom_site_fract_z
Si Si1 0.664463 0.286190 0.924890
Si Si2 0.331285 0.516225 0.410079
Si Si3 0.331281 0.359053 0.488599
Si Si4 0.665229 0.022997 0.678515
Si Si5 0.164740 0.208438 0.298488
Si Si6 0.831739 0.288729 0.184813
Si Si7 0.170334 0.126389 0.116959
Si Si8 0.164593 0.462497 0.801599
O O1 0.500000 0.275112 0.943407
O O2 0.711109 0.386984 0.930417
O O3 0.759965 0.227392 0.964847
O O4 0.688044 0.253399 0.860820
O O5 0.500000 0.512533 0.397587
O O6 0.283558 0.445920 0.456153
O O7 0.249547 0.492395 0.352620
O O8 0.500000 0.344815 0.483884
O O9 0.281043 0.370599 0.552487
O O10 0.500000 0.008152 0.660466
O O11 0.723655 0.118741 0.662828
O O12 0.764455 0.957339 0.645740
O O13 0.679262 0.019011 0.745785
O O14 0.203210 0.278955 0.251256
O O15 0.269901 0.129818 0.287145
O O16 0.000000 0.175860 0.292369
O O17 0.765073 0.210970 0.148061
O O18 0.000000 0.286652 0.175423
O O19 0.000000 0.120053 0.123197
O O20 0.000000 0.451504 0.820122
#
# Coordination Sequence:
#
# PCOD8174548 Si02
#       8
#     8   8   8   8   8   8   8   8
#     4   9  19  34  55  80 106 143 182 216 267 330
#     4   9  20  38  55  76 111 149 179 216 274 333
#     4  10  22  38  57  81 109 144 187 231 268 316
#     4  10  21  35  54  82 112 142 180 229 275 321
#     4   9  17  33  57  79 110 150 182 213 270 339
#     4   9  18  34  56  79 107 145 181 217 271 333
#     4  10  21  39  59  78 107 148 189 224 268 328
#     4  10  19  31  53  83 114 139 176 230 273 314
#
# _framework density 18.662116999999999
#
# number of rings (size 3 to 8) (size 9 to 14) (size 15 to 20)
#    0.000    2.500    1.250    1.125    1.750    4.500 
#    0.000    1.250    0.000    0.000    0.000    0.000 
#    0.000    0.000    0.000    0.000    0.000    0.000 
#
# Total GULP energy -396720.459575 kJ/mol
# GULP energy per Si atom -12397.514362 kJ/mol
# Density = 1.861964 g / cm^3
# Si number density = 18.662117 Si / 1000 Ang^3
#
#
#
# Elastic Constant Matrix: (Units=GPa)
#
#
# Indices 1 2 3 4 5 6 
#
# 1 44.5074 33.3687 36.2193 0.0000 0.0000 0.0000
# 2 33.3687 123.7082 62.4924 0.0000 0.0000 0.0000
# 3 36.2193 62.4924 111.4315 0.0000 0.0000 0.0000
# 4 0.0000 0.0000 0.0000 22.3694 0.0000 0.0000
# 5 0.0000 0.0000 0.0000 0.0000 24.7540 0.0000
# 6 0.0000 0.0000 0.0000 0.0000 0.0000 26.0765
#
#
#
# Elastic Compliance Matrix: (Units=1/GPa)
#
#
# Indices 1 2 3 4 5 6 
#
# 1 0.032455 -0.004779 -0.007869 0.000000 0.000000 0.000000
# 2 -0.004779 0.011983 -0.005167 0.000000 0.000000 0.000000
# 3 -0.007869 -0.005167 0.014429 0.000000 0.000000 0.000000
# 4 0.000000 0.000000 0.000000 0.044704 0.000000 0.000000
# 5 0.000000 0.000000 0.000000 0.000000 0.040398 0.000000
# 6 0.000000 0.000000 0.000000 0.000000 0.000000 0.038349
#
#
# Mechanical properties :
#
#
# Convention : Reuss Voigt Hill
#
# Bulk Modulus (GPa) = 43.03395 60.42310 51.72853
# Shear Modulus (GPa) = 22.15412 24.47777 23.31595
#
# Velocity S-wave (km/s) = 3.44919 3.62557 3.53848
# Velocity P-wave (km/s) = 6.24277 7.06923 6.66882
#
# Compressibility (1/GPa) = 0.02323747
#
# Stress axis : x y z
#
# Youngs Moduli (GPa) = 30.81214 83.45398 69.30392
#
# Poissons Ratio (x) = 0.39886 0.54533
# Poissons Ratio (y) = 0.14726 0.35806
# Poissons Ratio (z) = 0.24245 0.43117
#
# Static dielectric constant tensor:
#      x y z
#    x 3.257030 0.000000 0.000000 
#    y 0.000000 3.538630 0.000000 
#    z 0.000000 0.000000 3.538960 
# 
# 
# High freq. dielectric constant tensor:
#      x y z
#    x 1.705370 0.000000 0.000000 
#    y 0.000000 1.727540 0.000000 
#    z 0.000000 0.000000 1.724070 
# 
# From -- ./inp_files/16670.got.cif
#   From: 2010.03.12/outbox.cif.g09.slc.cpg/sg36_9_cif.got.tgz:16670.got - 2010.04.14 02:13:53.
