data_PCOD8174593
_publ_section_title
;
Structure prediction by ZEFSAII (Michael W. Deem and Ramdas Pophale) SiO2 
 PCOD8174593
Probable space group: C M C 21
;
_chemical_formula_sum "Si O2"
_cell_formula_units_Z 64
_cell_length_a 8.879141
_cell_length_b 14.475936
_cell_length_c 27.083622
_cell_angle_alpha 90.000000
_cell_angle_beta 90.000000
_cell_angle_gamma 90.000000
_cell_volume 3481.162935
_symmetry_space_group_name_H-M "C M C 21"
_symmetry_group_IT_number 36
_symmetry_cell_setting 'orthorhombic'
loop_
_space_group_symop_operation_xyz
x,y,z
-x,-y,1/2+z
x,-y,1/2+z
-x,y,z
1/2+x,1/2+y,z
1/2-x,1/2-y,1/2+z
1/2+x,1/2-y,1/2+z
1/2-x,1/2+y,z
loop_
_atom_site_type_symbol
_atom_site_label
_atom_site_fract_x
_atom_site_fract_y
_atom_site_fract_z
Si Si1 0.821798 0.125953 0.045020
Si Si2 0.322913 0.780552 0.117912
Si Si3 0.675716 0.675730 0.302312
Si Si4 0.823065 0.125873 0.192278
Si Si5 0.170914 0.147774 0.833493
Si Si6 0.676826 0.974539 0.861204
Si Si7 0.179390 0.511229 0.620051
Si Si8 0.329418 0.584775 0.936385
O O1 0.771960 0.223981 0.068821
O O2 0.000000 0.112771 0.051084
O O3 0.741638 0.040921 0.072048
O O4 0.769421 0.125815 0.987899
O O5 0.500000 0.792393 0.118553
O O6 0.270449 0.720482 0.165253
O O7 0.254468 0.883840 0.119082
O O8 0.500000 0.667045 0.313325
O O9 0.718848 0.633469 0.249516
O O10 0.725047 0.781886 0.303783
O O11 0.769966 0.626730 0.345576
O O12 0.736534 0.038044 0.169931
O O13 0.000000 0.110951 0.183592
O O14 0.239813 0.045812 0.823556
O O15 0.177158 0.163794 0.893415
O O16 0.000000 0.152693 0.813695
O O17 0.500000 0.983957 0.856220
O O18 0.727822 0.997812 0.917694
O O19 0.000000 0.509264 0.619096
O O20 0.500000 0.548642 0.942747
#
# Coordination Sequence:
#
# PCOD8174593 Si02
#       8
#     8   8   8   8   8   8   8   8
#     4   9  17  35  57  74 104 145 176 209 264 321
#     4   8  16  33  54  75 101 134 169 208 259 318
#     4  11  21  35  56  81 107 141 185 229 275 325
#     4   9  20  37  55  74 102 141 178 213 265 325
#     4   9  19  36  54  77 108 140 181 225 269 318
#     4  10  20  35  54  76 107 145 181 223 271 319
#     4  10  19  32  52  81 109 133 172 222 261 310
#     4   8  17  35  56  76 106 143 180 223 268 316
#
# _framework density 18.38466
#
# number of rings (size 3 to 8) (size 9 to 14) (size 15 to 20)
#    0.750    2.000    0.000    2.625    0.000    2.500 
#    2.250    6.250    0.000    0.000    0.000    0.000 
#    0.000    0.000    0.000    0.000    0.000    0.000 
#
# Total GULP energy -396545.221073 kJ/mol
# GULP energy per Si atom -12392.038159 kJ/mol
# Density = 1.834282 g / cm^3
# Si number density = 18.384660 Si / 1000 Ang^3
#
#
#
# Elastic Constant Matrix: (Units=GPa)
#
#
# Indices 1 2 3 4 5 6 
#
# 1 69.9852 24.8591 29.6151 0.0000 0.0000 0.0000
# 2 24.8591 99.2305 10.5099 0.0000 0.0000 0.0000
# 3 29.6151 10.5099 54.1324 0.0000 0.0000 0.0000
# 4 0.0000 0.0000 0.0000 19.1716 0.0000 0.0000
# 5 0.0000 0.0000 0.0000 0.0000 21.1547 0.0000
# 6 0.0000 0.0000 0.0000 0.0000 0.0000 28.4031
#
#
#
# Elastic Compliance Matrix: (Units=1/GPa)
#
#
# Indices 1 2 3 4 5 6 
#
# 1 0.019990 -0.003930 -0.010173 0.000000 0.000000 0.000000
# 2 -0.003930 0.011062 0.000003 0.000000 0.000000 0.000000
# 3 -0.010173 0.000003 0.024038 0.000000 0.000000 0.000000
# 4 0.000000 0.000000 0.000000 0.052160 0.000000 0.000000
# 5 0.000000 0.000000 0.000000 0.000000 0.047271 0.000000
# 6 0.000000 0.000000 0.000000 0.000000 0.000000 0.035207
#
#
# Mechanical properties :
#
#
# Convention : Reuss Voigt Hill
#
# Bulk Modulus (GPa) = 37.19094 39.25734 38.22414
# Shear Modulus (GPa) = 22.03686 24.30349 23.17017
#
# Velocity S-wave (km/s) = 3.46592 3.63980 3.55392
# Velocity P-wave (km/s) = 6.02412 6.25011 6.13815
#
# Compressibility (1/GPa) = 0.02688827
#
# Stress axis : x y z
#
# Youngs Moduli (GPa) = 50.02604 90.40043 41.60041
#
# Poissons Ratio (x) = 0.35530 0.42320
# Poissons Ratio (y) = 0.19662 -0.00011
# Poissons Ratio (z) = 0.50891 -0.00023
#
# Static dielectric constant tensor:
#      x y z
#    x 3.190250 0.000000 0.000000 
#    y 0.000000 3.370240 0.000000 
#    z 0.000000 0.000000 3.360130 
# 
# 
# High freq. dielectric constant tensor:
#      x y z
#    x 1.703800 0.000000 0.000000 
#    y 0.000000 1.703720 0.000000 
#    z 0.000000 0.000000 1.702980 
# 
# From -- ./inp_files/17336.got.cif
#   From: 2010.03.12/outbox.cif.g09.slc.cpg/sg36_9_cif.got.tgz:17336.got - 2010.04.14 02:13:53.
