data_PCOD8174444
_publ_section_title
;
Structure prediction by ZEFSAII (Michael W. Deem and Ramdas Pophale) SiO2 
 PCOD8174444
Probable space group: C M C 21
;
_chemical_formula_sum "Si O2"
_cell_formula_units_Z 52
_cell_length_a 7.723767
_cell_length_b 26.772983
_cell_length_c 12.168523
_cell_angle_alpha 90.000000
_cell_angle_beta 90.000000
_cell_angle_gamma 90.000000
_cell_volume 2516.307973
_symmetry_space_group_name_H-M "C M C 21"
_symmetry_group_IT_number 36
_symmetry_cell_setting 'orthorhombic'
loop_
_space_group_symop_operation_xyz
x,y,z
-x,-y,1/2+z
x,-y,1/2+z
-x,y,z
1/2+x,1/2+y,z
1/2-x,1/2-y,1/2+z
1/2+x,1/2-y,1/2+z
1/2-x,1/2+y,z
loop_
_atom_site_type_symbol
_atom_site_label
_atom_site_fract_x
_atom_site_fract_y
_atom_site_fract_z
Si Si1 0.000000 0.521739 0.115891
Si Si2 0.805978 0.077193 0.213014
Si Si3 0.702285 0.230284 0.163160
Si Si4 0.810514 0.150259 0.008543
Si Si5 0.000000 0.596563 0.912821
Si Si6 0.296277 0.162838 0.361753
Si Si7 0.500000 0.912285 0.164213
Si Si8 0.194973 0.839312 0.103669
O O1 0.170598 0.533195 0.188521
O O2 0.000000 0.462737 0.091925
O O3 0.000000 0.551730 0.000985
O O4 0.751956 0.106945 0.322361
O O5 0.000000 0.054854 0.225580
O O6 0.793906 0.115507 0.113823
O O7 0.500000 0.219628 0.153121
O O8 0.771459 0.204057 0.274330
O O9 0.746800 0.288818 0.168873
O O10 0.786355 0.206575 0.053134
O O11 0.667263 0.132597 0.921836
O O12 0.000000 0.145936 0.952498
O O13 0.000000 0.572772 0.792328
O O14 0.500000 0.166688 0.381644
O O15 0.198217 0.173078 0.474658
O O16 0.327590 0.882347 0.134806
O O17 0.000000 0.855798 0.135708
#
# Coordination Sequence:
#
# PCOD8174444 Si02
#       8
#     4   8   8   8   4   8   4   8
#     4  10  22  42  66  90 120 160 212 262 302 372
#     4   9  17  33  61  96 121 148 201 260 307 357
#     4   9  19  36  60  90 124 164 213 254 292 362
#     4   9  17  32  61  93 122 153 197 253 301 357
#     4  10  22  42  62  92 124 154 204 259 315 360
#     4  10  18  36  64  91 123 165 204 254 311 363
#     4  12  28  44  62  88 124 170 202 257 319 368
#     4  11  25  43  57  85 130 166 206 251 307 372
#
# _framework density 20.665195000000001
#
# number of rings (size 3 to 8) (size 9 to 14) (size 15 to 20)
#    0.000    2.154    2.308    0.462    1.077    4.308 
#    0.000    1.538    0.000    0.000    0.000    0.000 
#    0.000    0.000    0.000    0.000    0.000    0.000 
#
# Total GULP energy -322385.524079 kJ/mol
# GULP energy per Si atom -12399.443234 kJ/mol
# Density = 2.061816 g / cm^3
# Si number density = 20.665195 Si / 1000 Ang^3
#
#
#
# Elastic Constant Matrix: (Units=GPa)
#
#
# Indices 1 2 3 4 5 6 
#
# 1 130.9443 59.9220 21.7864 0.0000 0.0000 0.0000
# 2 59.9220 126.2876 31.6727 0.0000 0.0000 0.0000
# 3 21.7864 31.6727 80.5992 0.0000 0.0000 0.0000
# 4 0.0000 0.0000 0.0000 21.4472 0.0000 0.0000
# 5 0.0000 0.0000 0.0000 0.0000 20.5190 0.0000
# 6 0.0000 0.0000 0.0000 0.0000 0.0000 26.1908
#
#
#
# Elastic Compliance Matrix: (Units=1/GPa)
#
#
# Indices 1 2 3 4 5 6 
#
# 1 0.009815 -0.004428 -0.000913 0.000000 0.000000 0.000000
# 2 -0.004428 0.010782 -0.003040 0.000000 0.000000 0.000000
# 3 -0.000913 -0.003040 0.013848 0.000000 0.000000 0.000000
# 4 0.000000 0.000000 0.000000 0.046626 0.000000 0.000000
# 5 0.000000 0.000000 0.000000 0.000000 0.048735 0.000000
# 6 0.000000 0.000000 0.000000 0.000000 0.000000 0.038181
#
#
# Mechanical properties :
#
#
# Convention : Reuss Voigt Hill
#
# Bulk Modulus (GPa) = 56.55052 62.73259 59.64155
# Shear Modulus (GPa) = 26.22674 28.59473 27.41073
#
# Velocity S-wave (km/s) = 3.56634 3.72387 3.64596
# Velocity P-wave (km/s) = 6.66205 6.99372 6.82990
#
# Compressibility (1/GPa) = 0.01768330
#
# Stress axis : x y z
#
# Youngs Moduli (GPa) = 101.88340 92.74730 72.21028
#
# Poissons Ratio (x) = 0.41070 0.06592
# Poissons Ratio (y) = 0.45116 0.21952
# Poissons Ratio (z) = 0.09301 0.28195
#
# Static dielectric constant tensor:
#      x y z
#    x 3.926740 0.000000 0.000000 
#    y 0.000000 3.517250 0.000000 
#    z 0.000000 0.000000 3.604390 
# 
# 
# High freq. dielectric constant tensor:
#      x y z
#    x 1.821300 0.000000 0.000000 
#    y 0.000000 1.785160 0.000000 
#    z 0.000000 0.000000 1.791670 
# 
# From -- ./inp_files/6934.got.cif
#   From: 2010.03.12/outbox.cif.g09.slc.cpg/sg36_4_cif.got.tgz:6934.got - 2010.04.14 02:13:53.
