data_PCOD8174115
_publ_section_title
;
Structure prediction by ZEFSAII (Michael W. Deem and Ramdas Pophale) SiO2 
 PCOD8174115
Probable space group: C M M 2
;
_chemical_formula_sum "Si O2"
_cell_formula_units_Z 48
_cell_length_a 14.957508
_cell_length_b 8.708714
_cell_length_c 18.979103
_cell_angle_alpha 90.000000
_cell_angle_beta 90.000000
_cell_angle_gamma 90.000000
_cell_volume 2472.230470
_symmetry_space_group_name_H-M "C M M 2"
_symmetry_group_IT_number 35
_symmetry_cell_setting 'orthorhombic'
loop_
_space_group_symop_operation_xyz
x,y,z
-x,-y,z
-x,y,z
x,-y,z
1/2+x,1/2+y,z
1/2-x,1/2-y,z
1/2-x,1/2+y,z
1/2+x,1/2-y,z
loop_
_atom_site_type_symbol
_atom_site_label
_atom_site_fract_x
_atom_site_fract_y
_atom_site_fract_z
Si Si1 0.394802 0.824600 0.203790
Si Si2 0.500000 0.682112 0.445587
Si Si3 0.000000 0.320236 0.968920
Si Si4 0.650804 0.320728 0.707772
Si Si5 0.500000 0.683608 0.603609
Si Si6 0.840023 0.182292 0.349186
Si Si7 0.343160 0.681232 0.057742
Si Si8 0.500000 0.321860 0.819467
O O1 0.500000 0.813122 0.211658
O O2 0.350724 0.752839 0.272208
O O3 0.363262 0.727833 0.137487
O O4 0.362791 0.000000 0.194703
O O5 0.500000 0.500000 0.450128
O O6 0.500000 0.750406 0.524410
O O7 0.415000 0.742013 0.402629
O O8 0.000000 0.500000 0.984379
O O9 0.000000 0.288400 0.886241
O O10 0.913978 0.246692 0.003758
O O11 0.666148 0.500000 0.699482
O O12 0.750000 0.250000 0.711659
O O13 0.591217 0.258206 0.641881
O O14 0.590894 0.284416 0.776601
O O15 0.500000 0.500000 0.606683
O O16 0.750000 0.250000 0.382338
O O17 0.839112 0.000000 0.343013
O O18 0.341946 0.500000 0.052277
O O19 0.250000 0.750000 0.032482
O O20 0.500000 0.500000 0.842231
#
# Coordination Sequence:
#
# PCOD8174115 Si02
#       8
#     8   4   4   8   4   8   8   4
#     4  11  22  38  61  85 113 148 193 247 296 348
#     4   9  19  35  56  79 112 152 192 233 282 348
#     4  12  25  42  62  89 122 156 195 240 290 348
#     4   9  18  34  60  87 115 148 189 232 278 336
#     4   8  16  34  56  82 114 153 189 226 280 342
#     4  11  22  37  56  81 111 149 196 242 293 349
#     4  12  25  42  64  88 118 155 196 244 295 351
#     4   9  20  39  58  82 116 157 192 227 280 342
#
# _framework density 19.415665000000001
#
# number of rings (size 3 to 8) (size 9 to 14) (size 15 to 20)
#    0.000    1.667    1.667    4.750    0.000    2.667 
#    0.000    2.917    0.000    3.000    0.000    0.000 
#    0.000    0.000    0.000    0.000    0.000    0.000 
#
# Total GULP energy -297594.983873 kJ/mol
# GULP energy per Si atom -12399.790995 kJ/mol
# Density = 1.937147 g / cm^3
# Si number density = 19.415665 Si / 1000 Ang^3
#
#
#
# Elastic Constant Matrix: (Units=GPa)
#
#
# Indices 1 2 3 4 5 6 
#
# 1 170.6985 50.1185 67.7046 0.0000 0.0000 0.0000
# 2 50.1185 105.0046 37.2155 0.0000 0.0000 0.0000
# 3 67.7046 37.2155 130.3100 0.0000 0.0000 0.0000
# 4 0.0000 0.0000 0.0000 32.2231 0.0000 0.0000
# 5 0.0000 0.0000 0.0000 0.0000 41.9718 0.0000
# 6 0.0000 0.0000 0.0000 0.0000 0.0000 35.2381
#
#
#
# Elastic Compliance Matrix: (Units=1/GPa)
#
#
# Indices 1 2 3 4 5 6 
#
# 1 0.007969 -0.002599 -0.003398 0.000000 0.000000 0.000000
# 2 -0.002599 0.011444 -0.001918 0.000000 0.000000 0.000000
# 3 -0.003398 -0.001918 0.009987 0.000000 0.000000 0.000000
# 4 0.000000 0.000000 0.000000 0.031034 0.000000 0.000000
# 5 0.000000 0.000000 0.000000 0.000000 0.023826 0.000000
# 6 0.000000 0.000000 0.000000 0.000000 0.000000 0.028378
#
#
# Mechanical properties :
#
#
# Convention : Reuss Voigt Hill
#
# Bulk Modulus (GPa) = 73.69323 79.56560 76.62942
# Shear Modulus (GPa) = 37.59633 38.61824 38.10729
#
# Velocity S-wave (km/s) = 4.40522 4.46469 4.43505
# Velocity P-wave (km/s) = 7.99453 8.22478 8.11047
#
# Compressibility (1/GPa) = 0.01356977
#
# Stress axis : x y z
#
# Youngs Moduli (GPa) = 125.48119 87.38418 100.12728
#
# Poissons Ratio (x) = 0.22714 0.34026
# Poissons Ratio (y) = 0.32617 0.19201
# Poissons Ratio (z) = 0.42641 0.16758
#
# Static dielectric constant tensor:
#      x y z
#    x 3.871980 0.000000 0.000000 
#    y 0.000000 3.440980 0.000000 
#    z 0.000000 0.000000 3.625900 
# 
# 
# High freq. dielectric constant tensor:
#      x y z
#    x 1.774860 0.000000 0.000000 
#    y 0.000000 1.746600 0.000000 
#    z 0.000000 0.000000 1.755320 
# 
# From -- ./inp_files/18842.got.cif
#   From: 2010.03.12/outbox.cif.g09.slc.cpg/sg35_10_cif.got.tgz:18842.got - 2010.04.14 02:02:04.
