data_PCOD8174963
_publ_section_title
;
Structure prediction by ZEFSAII (Michael W. Deem and Ramdas Pophale) SiO2 
 PCOD8174963
Probable space group: C M C 21
;
_chemical_formula_sum "Si O2"
_cell_formula_units_Z 64
_cell_length_a 8.988695
_cell_length_b 27.279573
_cell_length_c 12.968602
_cell_angle_alpha 90.000000
_cell_angle_beta 90.000000
_cell_angle_gamma 90.000000
_cell_volume 3180.001865
_symmetry_space_group_name_H-M "C M C 21"
_symmetry_group_IT_number 36
_symmetry_cell_setting 'orthorhombic'
loop_
_space_group_symop_operation_xyz
x,y,z
-x,-y,1/2+z
x,-y,1/2+z
-x,y,z
1/2+x,1/2+y,z
1/2-x,1/2-y,1/2+z
1/2+x,1/2-y,1/2+z
1/2-x,1/2+y,z
loop_
_atom_site_type_symbol
_atom_site_label
_atom_site_fract_x
_atom_site_fract_y
_atom_site_fract_z
Si Si1 0.674095 0.592257 0.439480
Si Si2 0.677345 0.127903 0.045190
Si Si3 0.333624 0.236954 0.095162
Si Si4 0.675343 0.194129 0.468810
Si Si5 0.166972 0.228220 0.814442
Si Si6 0.324984 0.560170 0.211734
Si Si7 0.822304 0.119787 0.832357
Si Si8 0.823645 0.952419 0.153389
O O1 0.500000 0.601484 0.451557
O O2 0.753224 0.644022 0.434842
O O3 0.711501 0.564151 0.333624
O O4 0.734692 0.562728 0.539451
O O5 0.500000 0.122976 0.041778
O O6 0.727458 0.184907 0.053320
O O7 0.737022 0.100401 0.146296
O O8 0.750021 0.104771 0.942139
O O9 0.500000 0.246672 0.053028
O O10 0.333493 0.235495 0.217897
O O11 0.229418 0.285154 0.078263
O O12 0.500000 0.188204 0.460578
O O13 0.745926 0.238713 0.400721
O O14 0.237533 0.174147 0.801501
O O15 0.000000 0.217726 0.852055
O O16 0.500000 0.567089 0.191453
O O17 0.266900 0.507010 0.176464
O O18 0.762085 0.084049 0.742028
O O19 0.000000 0.115260 0.841571
O O20 0.000000 0.950816 0.155576
#
# Coordination Sequence:
#
# PCOD8174963 Si02
#       8
#     8   8   8   8   8   8   8   8
#     4  10  21  39  61  89 122 153 196 248 300 356
#     4  11  23  38  58  88 127 163 195 242 302 357
#     4  10  20  36  57  81 115 158 198 236 283 341
#     4  11  21  35  56  85 118 155 194 232 285 345
#     4   9  18  33  55  82 113 152 193 234 285 337
#     4  10  22  39  64  92 115 152 203 253 298 351
#     4  10  19  36  62  88 118 154 200 250 294 349
#     4   9  20  38  65  93 114 149 201 255 301 346
#
# _framework density 20.125775000000001
#
# number of rings (size 3 to 8) (size 9 to 14) (size 15 to 20)
#    0.000    2.000    1.250    2.250    1.750    4.000 
#    0.000    5.000    0.000    0.000    0.000    0.000 
#    0.000    0.000    0.000    0.000    0.000    0.000 
#
# Total GULP energy -396616.942239 kJ/mol
# GULP energy per Si atom -12394.279445 kJ/mol
# Density = 2.007997 g / cm^3
# Si number density = 20.125775 Si / 1000 Ang^3
#
#
#
# Elastic Constant Matrix: (Units=GPa)
#
#
# Indices 1 2 3 4 5 6 
#
# 1 42.2172 37.7992 40.5800 0.0000 0.0000 0.0000
# 2 37.7992 133.7059 51.3406 0.0000 0.0000 0.0000
# 3 40.5800 51.3406 118.8097 0.0000 0.0000 0.0000
# 4 0.0000 0.0000 0.0000 37.6580 0.0000 0.0000
# 5 0.0000 0.0000 0.0000 0.0000 21.3576 0.0000
# 6 0.0000 0.0000 0.0000 0.0000 0.0000 27.1409
#
#
#
# Elastic Compliance Matrix: (Units=1/GPa)
#
#
# Indices 1 2 3 4 5 6 
#
# 1 0.040527 -0.007364 -0.010660 0.000000 0.000000 0.000000
# 2 -0.007364 0.010305 -0.001938 0.000000 0.000000 0.000000
# 3 -0.010660 -0.001938 0.012895 0.000000 0.000000 0.000000
# 4 0.000000 0.000000 0.000000 0.026555 0.000000 0.000000
# 5 0.000000 0.000000 0.000000 0.000000 0.046822 0.000000
# 6 0.000000 0.000000 0.000000 0.000000 0.000000 0.036845
#
#
# Mechanical properties :
#
#
# Convention : Reuss Voigt Hill
#
# Bulk Modulus (GPa) = 42.01056 61.57472 51.79264
# Shear Modulus (GPa) = 22.54216 28.23216 25.38716
#
# Velocity S-wave (km/s) = 3.35037 3.74944 3.55551
# Velocity P-wave (km/s) = 5.99049 7.02893 6.53038
#
# Compressibility (1/GPa) = 0.02380354
#
# Stress axis : x y z
#
# Youngs Moduli (GPa) = 24.67496 97.04020 77.54814
#
# Poissons Ratio (x) = 0.71459 0.82667
# Poissons Ratio (y) = 0.18170 0.15028
# Poissons Ratio (z) = 0.26304 0.18805
#
# Static dielectric constant tensor:
#      x y z
#    x 3.354020 0.000000 0.000000 
#    y 0.000000 3.773040 0.000000 
#    z 0.000000 0.000000 3.805820 
# 
# 
# High freq. dielectric constant tensor:
#      x y z
#    x 1.749850 0.000000 0.000000 
#    y 0.000000 1.791580 0.000000 
#    z 0.000000 0.000000 1.800790 
# 
# From -- ./inp_files/7058.got.cif
#   From: 2010.03.12/outbox.cif.g09.slc.cpg/sg36_4_cif.got.tgz:7058.got - 2010.04.14 02:13:53.
