data_PCOD8174635
_publ_section_title
;
Structure prediction by ZEFSAII (Michael W. Deem and Ramdas Pophale) SiO2 
 PCOD8174635
Probable space group: C M C 21
;
_chemical_formula_sum "Si O2"
_cell_formula_units_Z 64
_cell_length_a 8.883100
_cell_length_b 20.446720
_cell_length_c 19.064033
_cell_angle_alpha 90.000000
_cell_angle_beta 90.000000
_cell_angle_gamma 90.000000
_cell_volume 3462.605241
_symmetry_space_group_name_H-M "C M C 21"
_symmetry_group_IT_number 36
_symmetry_cell_setting 'orthorhombic'
loop_
_space_group_symop_operation_xyz
x,y,z
-x,-y,1/2+z
x,-y,1/2+z
-x,y,z
1/2+x,1/2+y,z
1/2-x,1/2-y,1/2+z
1/2+x,1/2-y,1/2+z
1/2-x,1/2+y,z
loop_
_atom_site_type_symbol
_atom_site_label
_atom_site_fract_x
_atom_site_fract_y
_atom_site_fract_z
Si Si1 0.674540 0.362346 0.468050
Si Si2 0.673034 0.626075 0.811554
Si Si3 0.174106 0.510153 0.309667
Si Si4 0.826438 0.435450 0.106988
Si Si5 0.177042 0.056099 0.179899
Si Si6 0.828348 0.497721 0.465857
Si Si7 0.673943 0.687630 0.667506
Si Si8 0.176808 0.323299 0.601537
O O1 0.500000 0.353675 0.485203
O O2 0.712270 0.342540 0.387479
O O3 0.718159 0.437671 0.481457
O O4 0.766923 0.316013 0.521136
O O5 0.500000 0.601493 0.811647
O O6 0.778842 0.564709 0.795720
O O7 0.700819 0.679776 0.751106
O O8 0.267844 0.559633 0.260617
O O9 0.207778 0.529457 0.390248
O O10 0.000000 0.517632 0.290379
O O11 0.726806 0.485998 0.150600
O O12 0.773474 0.362526 0.123242
O O13 0.000000 0.444614 0.128639
O O14 0.803296 0.446768 0.023980
O O15 0.248754 0.113440 0.135151
O O16 0.000000 0.063026 0.176218
O O17 0.000000 0.470992 0.466998
O O18 0.500000 0.675751 0.648137
O O19 0.725659 0.760009 0.645854
O O20 0.000000 0.333709 0.602134
#
# Coordination Sequence:
#
# PCOD8174635 Si02
#       8
#     8   8   8   8   8   8   8   8
#     4  10  19  32  55  83 110 144 185 234 285 336
#     4   9  18  34  55  81 111 144 186 231 282 340
#     4  10  19  33  55  84 113 147 185 231 285 333
#     4  11  21  35  58  86 113 144 183 230 278 334
#     4  12  23  36  56  83 113 146 186 235 283 331
#     4   9  19  34  54  82 116 147 184 230 280 336
#     4  10  22  39  58  81 113 151 188 232 283 337
#     4  11  23  39  57  80 113 153 193 233 282 337
#
# _framework density 18.483193
#
# number of rings (size 3 to 8) (size 9 to 14) (size 15 to 20)
#    0.000    1.750    2.500    2.625    0.000    2.500 
#    0.000    1.250    0.000    6.000    0.000    0.000 
#    0.000    0.000    0.000    0.000    0.000    0.000 
#
# Total GULP energy -396858.180784 kJ/mol
# GULP energy per Si atom -12401.818150 kJ/mol
# Density = 1.844112 g / cm^3
# Si number density = 18.483193 Si / 1000 Ang^3
#
#
#
# Elastic Constant Matrix: (Units=GPa)
#
#
# Indices 1 2 3 4 5 6 
#
# 1 89.8468 36.7155 48.9601 0.0000 0.0000 0.0000
# 2 36.7155 63.0959 45.8388 0.0000 0.0000 0.0000
# 3 48.9601 45.8388 138.5606 0.0000 0.0000 0.0000
# 4 0.0000 0.0000 0.0000 28.8775 0.0000 0.0000
# 5 0.0000 0.0000 0.0000 0.0000 31.1437 0.0000
# 6 0.0000 0.0000 0.0000 0.0000 0.0000 24.8440
#
#
#
# Elastic Compliance Matrix: (Units=1/GPa)
#
#
# Indices 1 2 3 4 5 6 
#
# 1 0.015683 -0.006714 -0.003321 0.000000 0.000000 0.000000
# 2 -0.006714 0.023737 -0.005481 0.000000 0.000000 0.000000
# 3 -0.003321 -0.005481 0.010203 0.000000 0.000000 0.000000
# 4 0.000000 0.000000 0.000000 0.034629 0.000000 0.000000
# 5 0.000000 0.000000 0.000000 0.000000 0.032109 0.000000
# 6 0.000000 0.000000 0.000000 0.000000 0.000000 0.040251
#
#
# Mechanical properties :
#
#
# Convention : Reuss Voigt Hill
#
# Bulk Modulus (GPa) = 53.78009 61.61467 57.69738
# Shear Modulus (GPa) = 25.79443 27.63897 26.71670
#
# Velocity S-wave (km/s) = 3.73977 3.87118 3.80604
# Velocity P-wave (km/s) = 6.91432 7.30680 7.11326
#
# Compressibility (1/GPa) = 0.01859424
#
# Stress axis : x y z
#
# Youngs Moduli (GPa) = 63.76340 42.12820 98.00614
#
# Poissons Ratio (x) = 0.28283 0.32543
# Poissons Ratio (y) = 0.42808 0.53712
# Poissons Ratio (z) = 0.21173 0.23088
#
# Static dielectric constant tensor:
#      x y z
#    x 3.483750 0.000000 0.000000 
#    y 0.000000 3.059720 0.000000 
#    z 0.000000 0.000000 3.850770 
# 
# 
# High freq. dielectric constant tensor:
#      x y z
#    x 1.725990 0.000000 0.000000 
#    y 0.000000 1.674120 0.000000 
#    z 0.000000 0.000000 1.739290 
# 
# From -- ./inp_files/13918.got.cif
#   From: 2010.03.12/outbox.cif.g09.slc.cpg/sg36_7_cif.got.tgz:13918.got - 2010.04.14 02:13:53.
