data_PCOD8174867
_publ_section_title
;
Structure prediction by ZEFSAII (Michael W. Deem and Ramdas Pophale) SiO2 
 PCOD8174867
Probable space group: C M C 21
;
_chemical_formula_sum "Si O2"
_cell_formula_units_Z 64
_cell_length_a 8.670009
_cell_length_b 15.488831
_cell_length_c 24.177066
_cell_angle_alpha 90.000000
_cell_angle_beta 90.000000
_cell_angle_gamma 90.000000
_cell_volume 3246.697193
_symmetry_space_group_name_H-M "C M C 21"
_symmetry_group_IT_number 36
_symmetry_cell_setting 'orthorhombic'
loop_
_space_group_symop_operation_xyz
x,y,z
-x,-y,1/2+z
x,-y,1/2+z
-x,y,z
1/2+x,1/2+y,z
1/2-x,1/2-y,1/2+z
1/2+x,1/2-y,1/2+z
1/2-x,1/2+y,z
loop_
_atom_site_type_symbol
_atom_site_label
_atom_site_fract_x
_atom_site_fract_y
_atom_site_fract_z
Si Si1 0.182938 0.716259 0.603960
Si Si2 0.182427 0.120815 0.303047
Si Si3 0.683204 0.627071 0.179419
Si Si4 0.818271 0.037247 0.873171
Si Si5 0.320966 0.270690 0.374496
Si Si6 0.672812 0.523867 0.486279
Si Si7 0.184519 0.032810 0.607342
Si Si8 0.325461 0.724826 0.485770
O O1 0.241173 0.788281 0.647245
O O2 0.247420 0.624926 0.625536
O O3 0.247848 0.743596 0.544500
O O4 0.000000 0.712060 0.600277
O O5 0.252141 0.128906 0.241378
O O6 0.224068 0.204368 0.338496
O O7 0.000000 0.114905 0.299255
O O8 0.250962 0.033561 0.330840
O O9 0.500000 0.625530 0.180098
O O10 0.742558 0.540008 0.149547
O O11 0.785537 0.133321 0.850895
O O12 0.743855 0.024268 0.934789
O O13 0.000000 0.019789 0.879126
O O14 0.500000 0.247133 0.369741
O O15 0.272075 0.272119 0.438502
O O16 0.500000 0.488050 0.491564
O O17 0.751497 0.508228 0.546166
O O18 0.675169 0.624354 0.471503
O O19 0.000000 0.042234 0.605091
O O20 0.500000 0.760407 0.486525
#
# Coordination Sequence:
#
# PCOD8174867 Si02
#       8
#     8   8   8   8   8   8   8   8
#     4  10  20  35  55  85 117 144 181 236 290 328
#     4  10  20  40  60  76 108 153 197 229 268 339
#     4   9  20  36  59  82 105 151 199 229 268 337
#     4   9  18  32  54  80 106 143 182 221 271 333
#     4  11  22  34  55  88 115 140 180 237 293 327
#     4   8  14  28  53  78 102 136 177 218 260 316
#     4   9  18  34  56  81 109 145 190 226 267 334
#     4  10  19  35  58  82 112 152 188 222 273 342
#
# _framework density 19.712339
#
# number of rings (size 3 to 8) (size 9 to 14) (size 15 to 20)
#    0.000    2.500    1.250    1.875    1.750    1.000 
#    0.000    5.625    0.000    0.000    0.000    0.000 
#    0.000    0.000    0.000    0.000    0.000    0.000 
#
# Total GULP energy -396680.603789 kJ/mol
# GULP energy per Si atom -12396.268868 kJ/mol
# Density = 1.966747 g / cm^3
# Si number density = 19.712339 Si / 1000 Ang^3
#
#
#
# Elastic Constant Matrix: (Units=GPa)
#
#
# Indices 1 2 3 4 5 6 
#
# 1 26.3644 11.7986 11.1690 0.0000 0.0000 0.0000
# 2 11.7986 128.3542 78.0517 0.0000 0.0000 0.0000
# 3 11.1690 78.0517 141.4223 0.0000 0.0000 0.0000
# 4 0.0000 0.0000 0.0000 27.2268 0.0000 0.0000
# 5 0.0000 0.0000 0.0000 0.0000 19.0993 0.0000
# 6 0.0000 0.0000 0.0000 0.0000 0.0000 25.2420
#
#
#
# Elastic Compliance Matrix: (Units=1/GPa)
#
#
# Indices 1 2 3 4 5 6 
#
# 1 0.039825 -0.002631 -0.001693 0.000000 0.000000 0.000000
# 2 -0.002631 0.011900 -0.006360 0.000000 0.000000 0.000000
# 3 -0.001693 -0.006360 0.010715 0.000000 0.000000 0.000000
# 4 0.000000 0.000000 0.000000 0.036729 0.000000 0.000000
# 5 0.000000 0.000000 0.000000 0.000000 0.052358 0.000000
# 6 0.000000 0.000000 0.000000 0.000000 0.000000 0.039617
#
#
# Mechanical properties :
#
#
# Convention : Reuss Voigt Hill
#
# Bulk Modulus (GPa) = 24.34791 55.35330 39.85061
# Shear Modulus (GPa) = 22.10414 27.32172 24.71293
#
# Velocity S-wave (km/s) = 3.35227 3.72697 3.54457
# Velocity P-wave (km/s) = 5.23087 6.83095 6.08375
#
# Compressibility (1/GPa) = 0.04107129
#
# Stress axis : x y z
#
# Youngs Moduli (GPa) = 25.11003 84.03124 93.32822
#
# Poissons Ratio (x) = 0.22111 0.15801
# Poissons Ratio (y) = 0.06607 0.59357
# Poissons Ratio (z) = 0.04251 0.53444
#
# Static dielectric constant tensor:
#      x y z
#    x 3.196650 0.000000 0.000000 
#    y 0.000000 3.621300 0.000000 
#    z 0.000000 0.000000 3.842440 
# 
# 
# High freq. dielectric constant tensor:
#      x y z
#    x 1.726620 0.000000 0.000000 
#    y 0.000000 1.773250 0.000000 
#    z 0.000000 0.000000 1.772390 
# 
# From -- ./inp_files/16667.got.cif
#   From: 2010.03.12/outbox.cif.g09.slc.cpg/sg36_9_cif.got.tgz:16667.got - 2010.04.14 02:13:53.
