data_PCOD8174831
_publ_section_title
;
Structure prediction by ZEFSAII (Michael W. Deem and Ramdas Pophale) SiO2 
 PCOD8174831
Probable space group: C M C 21
;
_chemical_formula_sum "Si O2"
_cell_formula_units_Z 48
_cell_length_a 7.594537
_cell_length_b 21.157001
_cell_length_c 16.356951
_cell_angle_alpha 90.000000
_cell_angle_beta 90.000000
_cell_angle_gamma 90.000000
_cell_volume 2628.196070
_symmetry_space_group_name_H-M "C M C 21"
_symmetry_group_IT_number 36
_symmetry_cell_setting 'orthorhombic'
loop_
_space_group_symop_operation_xyz
x,y,z
-x,-y,1/2+z
x,-y,1/2+z
-x,y,z
1/2+x,1/2+y,z
1/2-x,1/2-y,1/2+z
1/2+x,1/2-y,1/2+z
1/2-x,1/2+y,z
loop_
_atom_site_type_symbol
_atom_site_label
_atom_site_fract_x
_atom_site_fract_y
_atom_site_fract_z
Si Si1 0.202009 0.553665 0.766680
Si Si2 0.500000 0.259879 0.639233
Si Si3 0.696397 0.743521 0.863761
Si Si4 0.195604 0.820617 0.188023
Si Si5 0.500000 0.390529 0.560589
Si Si6 0.500000 0.324450 0.814892
Si Si7 0.799197 0.383494 0.438851
Si Si8 0.000000 0.954849 0.735334
O O1 0.238164 0.607806 0.699774
O O2 0.248492 0.579241 0.856438
O O3 0.323371 0.494244 0.747758
O O4 0.000000 0.531756 0.760949
O O5 0.673289 0.216325 0.627055
O O6 0.500000 0.314998 0.572962
O O7 0.500000 0.288536 0.729307
O O8 0.500000 0.765561 0.889103
O O9 0.694009 0.713725 0.774452
O O10 0.825858 0.803934 0.865430
O O11 0.767007 0.691005 0.926456
O O12 0.000000 0.820566 0.149286
O O13 0.674045 0.409667 0.510236
O O14 0.500000 0.428011 0.644372
O O15 0.500000 0.399379 0.802544
O O16 0.000000 0.395289 0.465439
#
# Coordination Sequence:
#
# PCOD8174831 Si02
#       8
#     8   4   8   8   4   4   8   4
#     4  10  19  34  59  84 105 142 203 247 263 312
#     4   9  18  31  47  75 111 134 163 215 278 330
#     4   9  15  27  52  80 100 125 169 222 272 314
#     4   9  15  27  52  80  99 125 173 229 266 299
#     4  11  23  35  51  81 122 150 170 224 301 362
#     4   9  18  31  47  77 110 134 164 218 280 324
#     4  10  19  34  59  84 104 138 191 241 279 329
#     4  11  23  35  51  83 121 152 183 229 291 342
#
# _framework density 18.263477000000002
#
# number of rings (size 3 to 8) (size 9 to 14) (size 15 to 20)
#    0.000    2.333    3.333    0.500    0.000    2.000 
#    0.000    3.333    0.000    4.000    0.000    0.000 
#    0.000    0.000    0.000    0.000    0.000    0.000 
#
# Total GULP energy -297563.986766 kJ/mol
# GULP energy per Si atom -12398.499449 kJ/mol
# Density = 1.822191 g / cm^3
# Si number density = 18.263477 Si / 1000 Ang^3
#
#
#
# Elastic Constant Matrix: (Units=GPa)
#
#
# Indices 1 2 3 4 5 6 
#
# 1 159.7222 66.0071 40.0023 0.0000 0.0000 0.0000
# 2 66.0071 114.8545 27.9674 0.0000 0.0000 0.0000
# 3 40.0023 27.9674 46.8422 0.0000 0.0000 0.0000
# 4 0.0000 0.0000 0.0000 17.0652 0.0000 0.0000
# 5 0.0000 0.0000 0.0000 0.0000 18.9635 0.0000
# 6 0.0000 0.0000 0.0000 0.0000 0.0000 33.0890
#
#
#
# Elastic Compliance Matrix: (Units=1/GPa)
#
#
# Indices 1 2 3 4 5 6 
#
# 1 0.009304 -0.003993 -0.005561 0.000000 0.000000 0.000000
# 2 -0.003993 0.011901 -0.003696 0.000000 0.000000 0.000000
# 3 -0.005561 -0.003696 0.028304 0.000000 0.000000 0.000000
# 4 0.000000 0.000000 0.000000 0.058599 0.000000 0.000000
# 5 0.000000 0.000000 0.000000 0.000000 0.052733 0.000000
# 6 0.000000 0.000000 0.000000 0.000000 0.000000 0.030222
#
#
# Mechanical properties :
#
#
# Convention : Reuss Voigt Hill
#
# Bulk Modulus (GPa) = 43.46098 65.48582 54.47340
# Shear Modulus (GPa) = 22.19931 26.31969 24.25950
#
# Velocity S-wave (km/s) = 3.49019 3.80031 3.64855
# Velocity P-wave (km/s) = 6.33168 7.42903 6.90220
#
# Compressibility (1/GPa) = 0.02300914
#
# Stress axis : x y z
#
# Youngs Moduli (GPa) = 107.48393 84.02478 35.33033
#
# Poissons Ratio (x) = 0.33548 0.19648
# Poissons Ratio (y) = 0.42915 0.13058
# Poissons Ratio (z) = 0.59776 0.31056
#
# Static dielectric constant tensor:
#      x y z
#    x 3.697480 0.000000 0.000000 
#    y 0.000000 3.235050 0.000000 
#    z 0.000000 0.000000 3.006470 
# 
# 
# High freq. dielectric constant tensor:
#      x y z
#    x 1.730220 0.000000 0.000000 
#    y 0.000000 1.685520 0.000000 
#    z 0.000000 0.000000 1.668650 
# 
# From -- ./inp_files/10496.got.cif
#   From: 2010.03.12/outbox.cif.g09.slc.cpg/sg36_6_cif.got.tgz:10496.got - 2010.04.14 02:13:53.
