data_PCOD8174968
_publ_section_title
;
Structure prediction by ZEFSAII (Michael W. Deem and Ramdas Pophale) SiO2 
 PCOD8174968
Probable space group: C M C 21
;
_chemical_formula_sum "Si O2"
_cell_formula_units_Z 64
_cell_length_a 8.545917
_cell_length_b 15.307956
_cell_length_c 23.618589
_cell_angle_alpha 90.000000
_cell_angle_beta 90.000000
_cell_angle_gamma 90.000000
_cell_volume 3089.796128
_symmetry_space_group_name_H-M "C M C 21"
_symmetry_group_IT_number 36
_symmetry_cell_setting 'orthorhombic'
loop_
_space_group_symop_operation_xyz
x,y,z
-x,-y,1/2+z
x,-y,1/2+z
-x,y,z
1/2+x,1/2+y,z
1/2-x,1/2-y,1/2+z
1/2+x,1/2-y,1/2+z
1/2-x,1/2+y,z
loop_
_atom_site_type_symbol
_atom_site_label
_atom_site_fract_x
_atom_site_fract_y
_atom_site_fract_z
Si Si1 0.320135 0.326102 0.994090
Si Si2 0.817991 0.091278 0.613094
Si Si3 0.680365 0.352484 0.505405
Si Si4 0.184822 0.841066 0.233067
Si Si5 0.681637 0.991835 0.936112
Si Si6 0.315403 0.493484 0.314301
Si Si7 0.314668 0.854020 0.742447
Si Si8 0.181610 0.594573 0.117005
O O1 0.500000 0.303227 0.983629
O O2 0.275519 0.405816 0.953786
O O3 0.288026 0.347639 0.059551
O O4 0.219352 0.241020 0.977525
O O5 0.759832 0.142544 0.668733
O O6 0.000000 0.063040 0.617410
O O7 0.711373 0.006795 0.605360
O O8 0.500000 0.375200 0.495585
O O9 0.782680 0.428321 0.477557
O O10 0.721658 0.348250 0.571984
O O11 0.251440 0.916427 0.273970
O O12 0.240654 0.745585 0.253384
O O13 0.000000 0.844336 0.234364
O O14 0.500000 0.969518 0.939108
O O15 0.729724 0.019222 0.873390
O O16 0.500000 0.485663 0.323320
O O17 0.275077 0.587013 0.287627
O O18 0.500000 0.865937 0.750183
O O19 0.260858 0.881212 0.679680
O O20 0.000000 0.617646 0.109440
#
# Coordination Sequence:
#
# PCOD8174968 Si02
#       8
#     8   8   8   8   8   8   8   8
#     4  11  23  41  67  97 128 164 208 259 317 382
#     4  10  19  36  63  92 126 165 202 250 315 380
#     4  12  25  42  65  94 129 169 211 259 315 377
#     4   9  19  37  62  89 122 163 203 245 306 373
#     4  12  26  45  66  90 124 165 214 269 319 375
#     4  11  23  41  64  89 120 162 212 263 315 374
#     4  10  21  39  62  91 125 164 206 256 313 373
#     4  11  21  35  61  94 130 166 206 257 314 374
#
# _framework density 20.713339999999999
#
# number of rings (size 3 to 8) (size 9 to 14) (size 15 to 20)
#    0.000    1.250    2.500    4.125    0.000    4.000 
#    0.000    5.625    0.000    0.000    0.000    0.000 
#    0.000    0.000    0.000    0.000    0.000    0.000 
#
# Total GULP energy -396973.719947 kJ/mol
# GULP energy per Si atom -12405.428748 kJ/mol
# Density = 2.066620 g / cm^3
# Si number density = 20.713340 Si / 1000 Ang^3
#
#
#
# Elastic Constant Matrix: (Units=GPa)
#
#
# Indices 1 2 3 4 5 6 
#
# 1 52.8674 14.8559 25.0603 0.0000 0.0000 0.0000
# 2 14.8559 111.5804 13.2529 0.0000 0.0000 0.0000
# 3 25.0603 13.2529 84.2935 0.0000 0.0000 0.0000
# 4 0.0000 0.0000 0.0000 15.0178 0.0000 0.0000
# 5 0.0000 0.0000 0.0000 0.0000 30.5000 0.0000
# 6 0.0000 0.0000 0.0000 0.0000 0.0000 33.4975
#
#
#
# Elastic Compliance Matrix: (Units=1/GPa)
#
#
# Indices 1 2 3 4 5 6 
#
# 1 0.022559 -0.002249 -0.006353 0.000000 0.000000 0.000000
# 2 -0.002249 0.009357 -0.000803 0.000000 0.000000 0.000000
# 3 -0.006353 -0.000803 0.013878 0.000000 0.000000 0.000000
# 4 0.000000 0.000000 0.000000 0.066588 0.000000 0.000000
# 5 0.000000 0.000000 0.000000 0.000000 0.032787 0.000000
# 6 0.000000 0.000000 0.000000 0.000000 0.000000 0.029853
#
#
# Mechanical properties :
#
#
# Convention : Reuss Voigt Hill
#
# Bulk Modulus (GPa) = 37.05789 39.45329 38.25559
# Shear Modulus (GPa) = 24.65178 28.84121 26.74650
#
# Velocity S-wave (km/s) = 3.45358 3.73553 3.59732
# Velocity P-wave (km/s) = 5.81658 6.13956 5.98026
#
# Compressibility (1/GPa) = 0.02698481
#
# Stress axis : x y z
#
# Youngs Moduli (GPa) = 44.32882 106.87316 72.05523
#
# Poissons Ratio (x) = 0.24035 0.45777
# Poissons Ratio (y) = 0.09969 0.05783
# Poissons Ratio (z) = 0.28162 0.08577
#
# Static dielectric constant tensor:
#      x y z
#    x 3.580010 0.000000 0.000000 
#    y 0.000000 3.876830 0.000000 
#    z 0.000000 0.000000 3.851150 
# 
# 
# High freq. dielectric constant tensor:
#      x y z
#    x 1.797710 0.000000 0.000000 
#    y 0.000000 1.821660 0.000000 
#    z 0.000000 0.000000 1.810650 
# 
# From -- ./inp_files/16587.got.cif
#   From: 2010.03.12/outbox.cif.g09.slc.cpg/sg36_9_cif.got.tgz:16587.got - 2010.04.14 02:13:53.
