data_PCOD8174355
_publ_section_title
;
Structure prediction by ZEFSAII (Michael W. Deem and Ramdas Pophale) SiO2 
 PCOD8174355
Probable space group: C M C 21
;
_chemical_formula_sum "Si O2"
_cell_formula_units_Z 64
_cell_length_a 9.290856
_cell_length_b 23.023983
_cell_length_c 16.325731
_cell_angle_alpha 90.000000
_cell_angle_beta 90.000000
_cell_angle_gamma 90.000000
_cell_volume 3492.278106
_symmetry_space_group_name_H-M "C M C 21"
_symmetry_group_IT_number 36
_symmetry_cell_setting 'orthorhombic'
loop_
_space_group_symop_operation_xyz
x,y,z
-x,-y,1/2+z
x,-y,1/2+z
-x,y,z
1/2+x,1/2+y,z
1/2-x,1/2-y,1/2+z
1/2+x,1/2-y,1/2+z
1/2-x,1/2+y,z
loop_
_atom_site_type_symbol
_atom_site_label
_atom_site_fract_x
_atom_site_fract_y
_atom_site_fract_z
Si Si1 0.328157 0.713613 0.843700
Si Si2 0.830984 0.594163 0.145838
Si Si3 0.663953 0.939831 0.923677
Si Si4 0.830530 0.638910 0.971659
Si Si5 0.833894 0.340649 0.804736
Si Si6 0.658548 0.541800 0.885077
Si Si7 0.331749 0.964731 0.109700
Si Si8 0.842689 0.113369 0.725853
O O1 0.500000 0.711369 0.859391
O O2 0.251686 0.692163 0.927622
O O3 0.267162 0.777010 0.820201
O O4 0.284588 0.672719 0.767202
O O5 0.763962 0.624807 0.227206
O O6 0.766750 0.528801 0.131279
O O7 0.000000 0.585355 0.157298
O O8 0.800238 0.637293 0.069252
O O9 0.500000 0.959901 0.907925
O O10 0.686919 0.874879 0.889993
O O11 0.772842 0.978872 0.871817
O O12 0.706350 0.946552 0.017746
O O13 0.770446 0.578037 0.939132
O O14 0.000000 0.643011 0.952664
O O15 0.000000 0.331366 0.783027
O O16 0.500000 0.539271 0.927267
O O17 0.640091 0.566153 0.795594
O O18 0.500000 0.964682 0.126244
O O19 0.267076 0.911534 0.160497
O O20 0.000000 0.124151 0.685302
#
# Coordination Sequence:
#
# PCOD8174355 Si02
#       8
#     8   8   8   8   8   8   8   8
#     4   9  19  37  55  74 103 140 186 223 259 321
#     4   9  17  31  52  80 106 133 172 218 265 318
#     4  10  19  33  54  79 107 141 177 218 265 317
#     4  10  18  32  55  80 106 135 176 225 265 312
#     4   9  18  34  56  76 103 146 185 217 262 318
#     4  10  19  32  52  78 108 140 173 212 267 324
#     4  10  19  32  51  80 110 132 169 219 267 320
#     4   9  19  33  49  73 101 135 176 214 258 312
#
# _framework density 18.326145
#
# number of rings (size 3 to 8) (size 9 to 14) (size 15 to 20)
#    0.000    2.500    1.250    2.250    0.000    4.000 
#    2.250    0.625    0.000    3.000    0.000    0.000 
#    0.000    0.000    0.000    0.000    0.000    0.000 
#
# Total GULP energy -396574.267680 kJ/mol
# GULP energy per Si atom -12392.945865 kJ/mol
# Density = 1.828443 g / cm^3
# Si number density = 18.326145 Si / 1000 Ang^3
#
#
#
# Elastic Constant Matrix: (Units=GPa)
#
#
# Indices 1 2 3 4 5 6 
#
# 1 46.9826 36.8963 26.3448 0.0000 0.0000 0.0000
# 2 36.8963 143.2091 71.3817 0.0000 0.0000 0.0000
# 3 26.3448 71.3817 91.4643 0.0000 0.0000 0.0000
# 4 0.0000 0.0000 0.0000 21.3134 0.0000 0.0000
# 5 0.0000 0.0000 0.0000 0.0000 23.1860 0.0000
# 6 0.0000 0.0000 0.0000 0.0000 0.0000 21.4894
#
#
#
# Elastic Compliance Matrix: (Units=1/GPa)
#
#
# Indices 1 2 3 4 5 6 
#
# 1 0.027514 -0.005137 -0.003916 0.000000 0.000000 0.000000
# 2 -0.005137 0.012388 -0.008188 0.000000 0.000000 0.000000
# 3 -0.003916 -0.008188 0.018451 0.000000 0.000000 0.000000
# 4 0.000000 0.000000 0.000000 0.046919 0.000000 0.000000
# 5 0.000000 0.000000 0.000000 0.000000 0.043129 0.000000
# 6 0.000000 0.000000 0.000000 0.000000 0.000000 0.046535
#
#
# Mechanical properties :
#
#
# Convention : Reuss Voigt Hill
#
# Bulk Modulus (GPa) = 41.89119 61.21130 51.55124
# Shear Modulus (GPa) = 21.06368 22.99998 22.03183
#
# Velocity S-wave (km/s) = 3.39393 3.54649 3.47105
# Velocity P-wave (km/s) = 6.18600 7.08828 6.65246
#
# Compressibility (1/GPa) = 0.02387137
#
# Stress axis : x y z
#
# Youngs Moduli (GPa) = 36.34454 80.72636 54.19631
#
# Poissons Ratio (x) = 0.41468 0.21224
# Poissons Ratio (y) = 0.18670 0.44376
# Poissons Ratio (z) = 0.14233 0.66099
#
# Static dielectric constant tensor:
#      x y z
#    x 3.257090 0.000000 0.000000 
#    y 0.000000 3.507080 0.000000 
#    z 0.000000 0.000000 3.467800 
# 
# 
# High freq. dielectric constant tensor:
#      x y z
#    x 1.684250 0.000000 0.000000 
#    y 0.000000 1.705260 0.000000 
#    z 0.000000 0.000000 1.706230 
# 
# From -- ./inp_files/10913.got.cif
#   From: 2010.03.12/outbox.cif.g09.slc.cpg/sg36_6_cif.got.tgz:10913.got - 2010.04.14 02:13:53.
