data_PCOD8174946
_publ_section_title
;
Structure prediction by ZEFSAII (Michael W. Deem and Ramdas Pophale) SiO2 
 PCOD8174946
Probable space group: C M C 21
;
_chemical_formula_sum "Si O2"
_cell_formula_units_Z 64
_cell_length_a 8.947111
_cell_length_b 28.455614
_cell_length_c 12.575856
_cell_angle_alpha 90.000000
_cell_angle_beta 90.000000
_cell_angle_gamma 90.000000
_cell_volume 3201.756812
_symmetry_space_group_name_H-M "C M C 21"
_symmetry_group_IT_number 36
_symmetry_cell_setting 'orthorhombic'
loop_
_space_group_symop_operation_xyz
x,y,z
-x,-y,1/2+z
x,-y,1/2+z
-x,y,z
1/2+x,1/2+y,z
1/2-x,1/2-y,1/2+z
1/2+x,1/2-y,1/2+z
1/2-x,1/2+y,z
loop_
_atom_site_type_symbol
_atom_site_label
_atom_site_fract_x
_atom_site_fract_y
_atom_site_fract_z
Si Si1 0.824175 0.225295 0.229190
Si Si2 0.677528 0.030929 0.517428
Si Si3 0.834425 0.313616 0.920125
Si Si4 0.174361 0.571219 0.955942
Si Si5 0.175769 0.408179 0.216319
Si Si6 0.164287 0.586804 0.318196
Si Si7 0.173564 0.125351 0.128433
Si Si8 0.177347 0.816924 0.136883
O O1 0.748428 0.224112 0.345516
O O2 0.788536 0.178639 0.161071
O O3 0.752323 0.268258 0.168111
O O4 0.000000 0.232593 0.244300
O O5 0.500000 0.035181 0.512553
O O6 0.734728 0.055485 0.626024
O O7 0.742124 0.057251 0.412847
O O8 0.730357 0.977068 0.510864
O O9 0.857054 0.360217 0.853829
O O10 0.000000 0.294877 0.955168
O O11 0.728014 0.326695 0.017268
O O12 0.212331 0.569594 0.830814
O O13 0.000000 0.578542 0.973449
O O14 0.255418 0.614820 0.013217
O O15 0.263694 0.359188 0.209916
O O16 0.000000 0.397994 0.201436
O O17 0.264810 0.587022 0.212805
O O18 0.000000 0.565640 0.289380
O O19 0.000000 0.116981 0.120244
O O20 0.000000 0.813350 0.145807
#
# Coordination Sequence:
#
# PCOD8174946 Si02
#       8
#     8   8   8   8   8   8   8   8
#     4  10  22  40  61  86 118 160 207 256 309 366
#     4   9  18  35  61  91 116 150 200 252 299 352
#     4  10  19  36  60  87 116 151 195 251 309 359
#     4  10  22  37  62  91 120 162 206 250 300 361
#     4  10  21  40  61  88 124 158 202 256 308 358
#     4   9  17  33  61  86 110 147 195 248 294 349
#     4  10  22  39  58  84 122 158 194 246 306 362
#     4  12  24  38  60  89 122 162 205 249 303 369
#
# _framework density 19.989025000000002
#
# number of rings (size 3 to 8) (size 9 to 14) (size 15 to 20)
#    0.000    2.000    1.250    2.250    1.750    3.500 
#    0.000    3.750    0.000    0.000    0.000    0.000 
#    0.000    0.000    0.000    0.000    0.000    0.000 
#
# Total GULP energy -396774.814840 kJ/mol
# GULP energy per Si atom -12399.212964 kJ/mol
# Density = 1.994353 g / cm^3
# Si number density = 19.989025 Si / 1000 Ang^3
#
#
#
# Elastic Constant Matrix: (Units=GPa)
#
#
# Indices 1 2 3 4 5 6 
#
# 1 74.4357 59.8272 34.6168 0.0000 0.0000 0.0000
# 2 59.8272 85.6095 54.7913 0.0000 0.0000 0.0000
# 3 34.6168 54.7913 102.8397 0.0000 0.0000 0.0000
# 4 0.0000 0.0000 0.0000 19.3972 0.0000 0.0000
# 5 0.0000 0.0000 0.0000 0.0000 25.2725 0.0000
# 6 0.0000 0.0000 0.0000 0.0000 0.0000 22.2833
#
#
#
# Elastic Compliance Matrix: (Units=1/GPa)
#
#
# Indices 1 2 3 4 5 6 
#
# 1 0.030838 -0.022621 0.001672 0.000000 0.000000 0.000000
# 2 -0.022621 0.034318 -0.010670 0.000000 0.000000 0.000000
# 3 0.001672 -0.010670 0.014846 0.000000 0.000000 0.000000
# 4 0.000000 0.000000 0.000000 0.051554 0.000000 0.000000
# 5 0.000000 0.000000 0.000000 0.000000 0.039569 0.000000
# 6 0.000000 0.000000 0.000000 0.000000 0.000000 0.044877
#
#
# Mechanical properties :
#
#
# Convention : Reuss Voigt Hill
#
# Bulk Modulus (GPa) = 59.65078 62.37287 61.01182
# Shear Modulus (GPa) = 17.55446 20.96724 19.26085
#
# Velocity S-wave (km/s) = 2.96667 3.24224 3.10751
# Velocity P-wave (km/s) = 6.45301 6.72960 6.59276
#
# Compressibility (1/GPa) = 0.01676424
#
# Stress axis : x y z
#
# Youngs Moduli (GPa) = 32.42705 29.13917 67.35885
#
# Poissons Ratio (x) = 0.65915 -0.11259
# Poissons Ratio (y) = 0.73353 0.71870
# Poissons Ratio (z) = -0.05420 0.31091
#
# Static dielectric constant tensor:
#      x y z
#    x 3.682950 0.000000 0.000000 
#    y 0.000000 3.585210 0.000000 
#    z 0.000000 0.000000 3.757750 
# 
# 
# High freq. dielectric constant tensor:
#      x y z
#    x 1.762760 0.000000 0.000000 
#    y 0.000000 1.773920 0.000000 
#    z 0.000000 0.000000 1.787320 
# 
# From -- ./inp_files/7077.got.cif
#   From: 2010.03.12/outbox.cif.g09.slc.cpg/sg36_4_cif.got.tgz:7077.got - 2010.04.14 02:13:53.
