data_PCOD8174660
_publ_section_title
;
Structure prediction by ZEFSAII (Michael W. Deem and Ramdas Pophale) SiO2 
 PCOD8174660
Probable space group: C M C 21
;
_chemical_formula_sum "Si O2"
_cell_formula_units_Z 64
_cell_length_a 9.066044
_cell_length_b 14.570112
_cell_length_c 27.236056
_cell_angle_alpha 90.000000
_cell_angle_beta 90.000000
_cell_angle_gamma 90.000000
_cell_volume 3597.699875
_symmetry_space_group_name_H-M "C M C 21"
_symmetry_group_IT_number 36
_symmetry_cell_setting 'orthorhombic'
loop_
_space_group_symop_operation_xyz
x,y,z
-x,-y,1/2+z
x,-y,1/2+z
-x,y,z
1/2+x,1/2+y,z
1/2-x,1/2-y,1/2+z
1/2+x,1/2-y,1/2+z
1/2-x,1/2+y,z
loop_
_atom_site_type_symbol
_atom_site_label
_atom_site_fract_x
_atom_site_fract_y
_atom_site_fract_z
Si Si1 0.673238 0.759477 0.898700
Si Si2 0.326527 0.112468 0.579813
Si Si3 0.174907 0.409728 0.971157
Si Si4 0.672415 0.473026 0.647848
Si Si5 0.834326 0.350085 0.324875
Si Si6 0.172843 0.876507 0.227047
Si Si7 0.173566 0.762589 0.657976
Si Si8 0.333442 0.096673 0.928616
O O1 0.500000 0.760236 0.888433
O O2 0.733919 0.849851 0.925682
O O3 0.758488 0.743304 0.846896
O O4 0.717893 0.678969 0.937432
O O5 0.500000 0.094937 0.580745
O O6 0.265704 0.122626 0.524232
O O7 0.253740 0.021842 0.602817
O O8 0.285347 0.205926 0.608642
O O9 0.227389 0.512589 0.960305
O O10 0.000000 0.402060 0.970735
O O11 0.500000 0.474066 0.636099
O O12 0.708841 0.530807 0.696945
O O13 0.728436 0.367918 0.653279
O O14 0.740490 0.391615 0.280639
O O15 0.836006 0.424595 0.369462
O O16 0.000000 0.326921 0.307021
O O17 0.244111 0.785810 0.203129
O O18 0.000000 0.859231 0.231110
O O19 0.000000 0.759163 0.668675
O O20 0.500000 0.123582 0.945095
#
# Coordination Sequence:
#
# PCOD8174660 Si02
#       8
#     8   8   8   8   8   8   8   8
#     4   9  17  31  51  73  99 129 168 211 243 284
#     4   9  18  32  53  76 100 133 170 204 242 296
#     4   9  17  32  52  74 101 135 170 203 244 293
#     4   9  19  35  52  74 104 131 161 207 255 298
#     4   9  18  34  53  71 100 136 164 201 251 298
#     4  10  19  33  53  75 100 129 165 208 249 293
#     4   9  18  34  53  74 102 133 164 202 252 304
#     4   8  17  33  49  67  98 134 164 200 244 290
#
# _framework density 17.789142999999999
#
# number of rings (size 3 to 8) (size 9 to 14) (size 15 to 20)
#    0.750    2.250    0.000    0.750    0.000    2.000 
#    2.250    4.375    0.000    0.000    0.000    0.000 
#    0.000    0.000    0.000    0.000    0.000    0.000 
#
# Total GULP energy -396478.930580 kJ/mol
# GULP energy per Si atom -12389.966581 kJ/mol
# Density = 1.774865 g / cm^3
# Si number density = 17.789143 Si / 1000 Ang^3
#
#
#
# Elastic Constant Matrix: (Units=GPa)
#
#
# Indices 1 2 3 4 5 6 
#
# 1 47.0603 20.6272 18.4346 0.0000 0.0000 0.0000
# 2 20.6272 87.9375 14.3058 0.0000 0.0000 0.0000
# 3 18.4346 14.3058 63.2734 0.0000 0.0000 0.0000
# 4 0.0000 0.0000 0.0000 21.7412 0.0000 0.0000
# 5 0.0000 0.0000 0.0000 0.0000 23.8545 0.0000
# 6 0.0000 0.0000 0.0000 0.0000 0.0000 21.7460
#
#
#
# Elastic Compliance Matrix: (Units=1/GPa)
#
#
# Indices 1 2 3 4 5 6 
#
# 1 0.025980 -0.005048 -0.006428 0.000000 0.000000 0.000000
# 2 -0.005048 0.012787 -0.001420 0.000000 0.000000 0.000000
# 3 -0.006428 -0.001420 0.017998 0.000000 0.000000 0.000000
# 4 0.000000 0.000000 0.000000 0.045996 0.000000 0.000000
# 5 0.000000 0.000000 0.000000 0.000000 0.041921 0.000000
# 6 0.000000 0.000000 0.000000 0.000000 0.000000 0.045986
#
#
# Mechanical properties :
#
#
# Convention : Reuss Voigt Hill
#
# Bulk Modulus (GPa) = 32.28682 33.88960 33.08821
# Shear Modulus (GPa) = 22.04739 23.12858 22.58798
#
# Velocity S-wave (km/s) = 3.52429 3.60967 3.56724
# Velocity P-wave (km/s) = 5.89491 6.03863 5.96720
#
# Compressibility (1/GPa) = 0.03097240
#
# Stress axis : x y z
#
# Youngs Moduli (GPa) = 38.49106 78.20477 55.56088
#
# Poissons Ratio (x) = 0.39481 0.35714
# Poissons Ratio (y) = 0.19432 0.07891
# Poissons Ratio (z) = 0.24741 0.11107
#
# Static dielectric constant tensor:
#      x y z
#    x 3.166230 0.000000 0.000000 
#    y 0.000000 3.243710 0.000000 
#    z 0.000000 0.000000 3.284950 
# 
# 
# High freq. dielectric constant tensor:
#      x y z
#    x 1.679260 0.000000 0.000000 
#    y 0.000000 1.674330 0.000000 
#    z 0.000000 0.000000 1.682910 
# 
# From -- ./inp_files/17329.got.cif
#   From: 2010.03.12/outbox.cif.g09.slc.cpg/sg36_9_cif.got.tgz:17329.got - 2010.04.14 02:13:53.
