data_PCOD8174631
_publ_section_title
;
Structure prediction by ZEFSAII (Michael W. Deem and Ramdas Pophale) SiO2 
 PCOD8174631
Probable space group: C M C 21
;
_chemical_formula_sum "Si O2"
_cell_formula_units_Z 64
_cell_length_a 9.230907
_cell_length_b 22.737678
_cell_length_c 15.920504
_cell_angle_alpha 90.000000
_cell_angle_beta 90.000000
_cell_angle_gamma 90.000000
_cell_volume 3341.544889
_symmetry_space_group_name_H-M "C M C 21"
_symmetry_group_IT_number 36
_symmetry_cell_setting 'orthorhombic'
loop_
_space_group_symop_operation_xyz
x,y,z
-x,-y,1/2+z
x,-y,1/2+z
-x,y,z
1/2+x,1/2+y,z
1/2-x,1/2-y,1/2+z
1/2+x,1/2-y,1/2+z
1/2-x,1/2+y,z
loop_
_atom_site_type_symbol
_atom_site_label
_atom_site_fract_x
_atom_site_fract_y
_atom_site_fract_z
Si Si1 0.839145 0.379980 0.116370
Si Si2 0.167632 0.789344 0.012755
Si Si3 0.167434 0.902596 0.679392
Si Si4 0.334457 0.370936 0.861487
Si Si5 0.833552 0.066757 0.920851
Si Si6 0.160418 0.537790 0.458535
Si Si7 0.833928 0.034661 0.729312
Si Si8 0.671284 0.846294 0.522875
O O1 0.755482 0.322211 0.085625
O O2 0.757796 0.412384 0.191108
O O3 0.000000 0.361371 0.146376
O O4 0.849790 0.425317 0.041694
O O5 0.212761 0.721889 0.018718
O O6 0.000000 0.798769 0.033413
O O7 0.202888 0.813734 0.918501
O O8 0.187672 0.860681 0.761839
O O9 0.266887 0.876143 0.606879
O O10 0.000000 0.901769 0.650468
O O11 0.216431 0.969507 0.701211
O O12 0.500000 0.391238 0.878502
O O13 0.230531 0.424343 0.884652
O O14 0.811306 0.042667 0.827971
O O15 0.000000 0.075764 0.945178
O O16 0.761193 0.017777 0.981040
O O17 0.747004 0.126676 0.939983
O O18 0.000000 0.517472 0.429579
O O19 0.000000 0.044216 0.703531
O O20 0.500000 0.856612 0.519690
#
# Coordination Sequence:
#
# PCOD8174631 Si02
#       8
#     8   8   8   8   8   8   8   8
#     4  10  21  35  56  86 114 145 187 233 284 339
#     4   9  20  40  62  80 112 154 195 239 285 341
#     4  10  20  37  61  88 116 150 196 241 288 351
#     4   9  17  35  61  85 109 148 196 237 280 341
#     4  11  22  38  58  81 114 155 193 234 284 346
#     4  10  19  32  54  86 118 145 179 231 291 342
#     4  10  21  37  57  85 117 148 189 234 286 348
#     4  11  24  40  57  85 120 155 195 241 296 344
#
# _framework density 19.152818
#
# number of rings (size 3 to 8) (size 9 to 14) (size 15 to 20)
#    0.000    2.000    1.250    2.250    0.000    6.500 
#    2.250    0.000    0.000    0.000    0.000    0.000 
#    0.000    0.000    0.000    0.000    0.000    0.000 
#
# Total GULP energy -396719.721411 kJ/mol
# GULP energy per Si atom -12397.491294 kJ/mol
# Density = 1.910923 g / cm^3
# Si number density = 19.152818 Si / 1000 Ang^3
#
#
#
# Elastic Constant Matrix: (Units=GPa)
#
#
# Indices 1 2 3 4 5 6 
#
# 1 108.9594 72.0446 37.2392 0.0000 0.0000 0.0000
# 2 72.0446 137.6810 41.5309 0.0000 0.0000 0.0000
# 3 37.2392 41.5309 60.7055 0.0000 0.0000 0.0000
# 4 0.0000 0.0000 0.0000 26.5341 0.0000 0.0000
# 5 0.0000 0.0000 0.0000 0.0000 30.2074 0.0000
# 6 0.0000 0.0000 0.0000 0.0000 0.0000 29.9480
#
#
#
# Elastic Compliance Matrix: (Units=1/GPa)
#
#
# Indices 1 2 3 4 5 6 
#
# 1 0.015090 -0.006431 -0.004857 0.000000 0.000000 0.000000
# 2 -0.006431 0.011893 -0.004191 0.000000 0.000000 0.000000
# 3 -0.004857 -0.004191 0.022320 0.000000 0.000000 0.000000
# 4 0.000000 0.000000 0.000000 0.037687 0.000000 0.000000
# 5 0.000000 0.000000 0.000000 0.000000 0.033104 0.000000
# 6 0.000000 0.000000 0.000000 0.000000 0.000000 0.033391
#
#
# Mechanical properties :
#
#
# Convention : Reuss Voigt Hill
#
# Bulk Modulus (GPa) = 54.51403 67.66393 61.08898
# Shear Modulus (GPa) = 26.23866 27.77331 27.00599
#
# Velocity S-wave (km/s) = 3.70532 3.81214 3.75911
# Velocity P-wave (km/s) = 6.84327 7.40146 7.12783
#
# Compressibility (1/GPa) = 0.01834390
#
# Stress axis : x y z
#
# Youngs Moduli (GPa) = 66.26908 84.08612 44.80326
#
# Poissons Ratio (x) = 0.54076 0.21761
# Poissons Ratio (y) = 0.42618 0.18777
# Poissons Ratio (z) = 0.32188 0.35241
#
# Static dielectric constant tensor:
#      x y z
#    x 3.788950 0.000000 0.000000 
#    y 0.000000 3.528780 0.000000 
#    z 0.000000 0.000000 3.515710 
# 
# 
# High freq. dielectric constant tensor:
#      x y z
#    x 1.751450 0.000000 0.000000 
#    y 0.000000 1.735180 0.000000 
#    z 0.000000 0.000000 1.741100 
# 
# From -- ./inp_files/10929.got.cif
#   From: 2010.03.12/outbox.cif.g09.slc.cpg/sg36_6_cif.got.tgz:10929.got - 2010.04.14 02:13:53.
