data_PCOD8174745
_publ_section_title
;
Structure prediction by ZEFSAII (Michael W. Deem and Ramdas Pophale) SiO2 
 PCOD8174745
Probable space group: C M C 21
;
_chemical_formula_sum "Si O2"
_cell_formula_units_Z 64
_cell_length_a 8.793769
_cell_length_b 15.538135
_cell_length_c 23.631318
_cell_angle_alpha 90.000000
_cell_angle_beta 90.000000
_cell_angle_gamma 90.000000
_cell_volume 3228.954222
_symmetry_space_group_name_H-M "C M C 21"
_symmetry_group_IT_number 36
_symmetry_cell_setting 'orthorhombic'
loop_
_space_group_symop_operation_xyz
x,y,z
-x,-y,1/2+z
x,-y,1/2+z
-x,y,z
1/2+x,1/2+y,z
1/2-x,1/2-y,1/2+z
1/2+x,1/2-y,1/2+z
1/2-x,1/2+y,z
loop_
_atom_site_type_symbol
_atom_site_label
_atom_site_fract_x
_atom_site_fract_y
_atom_site_fract_z
Si Si1 0.177809 0.780439 0.205830
Si Si2 0.819442 0.625466 0.406408
Si Si3 0.176821 0.534864 0.835654
Si Si4 0.674968 0.532777 0.105478
Si Si5 0.679455 0.715632 0.833840
Si Si6 0.674471 0.276328 0.597779
Si Si7 0.675883 0.958731 0.206950
Si Si8 0.321795 0.373604 0.028615
O O1 0.228678 0.759817 0.269952
O O2 0.275488 0.721999 0.163498
O O3 0.215876 0.879081 0.191685
O O4 0.000000 0.763535 0.195998
O O5 0.755116 0.541048 0.374525
O O6 0.756236 0.710727 0.375172
O O7 0.767299 0.625766 0.470366
O O8 0.000000 0.625810 0.403170
O O9 0.254449 0.624193 0.852809
O O10 0.208138 0.508726 0.770496
O O11 0.000000 0.547029 0.847155
O O12 0.500000 0.518721 0.122921
O O13 0.695779 0.625809 0.075573
O O14 0.778513 0.531897 0.162064
O O15 0.729556 0.458563 0.062588
O O16 0.500000 0.707633 0.837412
O O17 0.500000 0.246377 0.592007
O O18 0.780366 0.212513 0.562528
O O19 0.500000 0.932305 0.200005
O O20 0.500000 0.374040 0.016416
#
# Coordination Sequence:
#
# PCOD8174745 Si02
#       8
#     8   8   8   8   8   8   8   8
#     4  10  19  34  58  87 123 158 192 240 295 353
#     4  10  22  41  62  84 116 159 199 241 291 351
#     4   9  20  37  58  87 121 153 193 244 290 343
#     4  10  23  40  58  84 120 155 193 245 302 353
#     4   9  20  37  59  85 118 157 194 236 295 350
#     4  11  23  39  60  88 118 156 197 244 301 354
#     4  10  19  33  59  89 121 157 196 240 294 352
#     4  11  24  43  62  84 117 157 200 250 296 350
#
# _framework density 19.820658000000002
#
# number of rings (size 3 to 8) (size 9 to 14) (size 15 to 20)
#    0.000    2.000    1.250    1.500    1.750    4.500 
#    0.000    3.750    0.000    0.000    0.000    0.000 
#    0.000    0.000    0.000    0.000    0.000    0.000 
#
# Total GULP energy -396852.790218 kJ/mol
# GULP energy per Si atom -12401.649694 kJ/mol
# Density = 1.977555 g / cm^3
# Si number density = 19.820658 Si / 1000 Ang^3
#
#
#
# Elastic Constant Matrix: (Units=GPa)
#
#
# Indices 1 2 3 4 5 6 
#
# 1 26.8572 22.4432 15.1009 0.0000 0.0000 0.0000
# 2 22.4432 137.6657 66.6623 0.0000 0.0000 0.0000
# 3 15.1009 66.6623 108.3169 0.0000 0.0000 0.0000
# 4 0.0000 0.0000 0.0000 20.9651 0.0000 0.0000
# 5 0.0000 0.0000 0.0000 0.0000 32.5918 0.0000
# 6 0.0000 0.0000 0.0000 0.0000 0.0000 28.9804
#
#
#
# Elastic Compliance Matrix: (Units=1/GPa)
#
#
# Indices 1 2 3 4 5 6 
#
# 1 0.043549 -0.005926 -0.002425 0.000000 0.000000 0.000000
# 2 -0.005926 0.011154 -0.006039 0.000000 0.000000 0.000000
# 3 -0.002425 -0.006039 0.013287 0.000000 0.000000 0.000000
# 4 0.000000 0.000000 0.000000 0.047698 0.000000 0.000000
# 5 0.000000 0.000000 0.000000 0.000000 0.030683 0.000000
# 6 0.000000 0.000000 0.000000 0.000000 0.000000 0.034506
#
#
# Mechanical properties :
#
#
# Convention : Reuss Voigt Hill
#
# Bulk Modulus (GPa) = 25.50222 53.47252 39.48737
# Shear Modulus (GPa) = 22.44925 27.74968 25.09947
#
# Velocity S-wave (km/s) = 3.36909 3.74577 3.56241
# Velocity P-wave (km/s) = 5.29422 6.76346 6.07344
#
# Compressibility (1/GPa) = 0.03921228
#
# Stress axis : x y z
#
# Youngs Moduli (GPa) = 22.96265 89.65351 75.26430
#
# Poissons Ratio (x) = 0.53125 0.18248
# Poissons Ratio (y) = 0.13607 0.45448
# Poissons Ratio (z) = 0.05567 0.54137
#
# Static dielectric constant tensor:
#      x y z
#    x 3.482900 0.000000 0.000000 
#    y 0.000000 3.706410 0.000000 
#    z 0.000000 0.000000 3.617290 
# 
# 
# High freq. dielectric constant tensor:
#      x y z
#    x 1.767350 0.000000 0.000000 
#    y 0.000000 1.777400 0.000000 
#    z 0.000000 0.000000 1.768290 
# 
# From -- ./inp_files/16669.got.cif
#   From: 2010.03.12/outbox.cif.g09.slc.cpg/sg36_9_cif.got.tgz:16669.got - 2010.04.14 02:13:53.
