data_PCOD8174847
_publ_section_title
;
Structure prediction by ZEFSAII (Michael W. Deem and Ramdas Pophale) SiO2 
 PCOD8174847
Probable space group: C M C 21
;
_chemical_formula_sum "Si O2"
_cell_formula_units_Z 64
_cell_length_a 8.888700
_cell_length_b 14.150576
_cell_length_c 28.225358
_cell_angle_alpha 90.000000
_cell_angle_beta 90.000000
_cell_angle_gamma 90.000000
_cell_volume 3550.191877
_symmetry_space_group_name_H-M "C M C 21"
_symmetry_group_IT_number 36
_symmetry_cell_setting 'orthorhombic'
loop_
_space_group_symop_operation_xyz
x,y,z
-x,-y,1/2+z
x,-y,1/2+z
-x,y,z
1/2+x,1/2+y,z
1/2-x,1/2-y,1/2+z
1/2+x,1/2-y,1/2+z
1/2-x,1/2+y,z
loop_
_atom_site_type_symbol
_atom_site_label
_atom_site_fract_x
_atom_site_fract_y
_atom_site_fract_z
Si Si1 0.322808 0.994643 0.780090
Si Si2 0.175140 0.995282 0.380403
Si Si3 0.679313 0.640198 0.206878
Si Si4 0.322742 0.649785 0.957349
Si Si5 0.323305 0.850980 0.207446
Si Si6 0.170770 0.848754 0.957214
Si Si7 0.677607 0.995272 0.634491
Si Si8 0.324775 0.495427 0.534159
O O1 0.500000 0.977426 0.775405
O O2 0.276480 0.998868 0.834301
O O3 0.274472 0.092494 0.754719
O O4 0.238833 0.908815 0.754414
O O5 0.234158 0.905038 0.410426
O O6 0.000000 0.985214 0.366714
O O7 0.202503 0.090152 0.410464
O O8 0.500000 0.636588 0.206530
O O9 0.746416 0.746530 0.207476
O O10 0.741005 0.592909 0.159107
O O11 0.500000 0.640744 0.957197
O O12 0.276049 0.757959 0.957232
O O13 0.266536 0.595601 0.004554
O O14 0.500000 0.839539 0.206176
O O15 0.270033 0.909060 0.161138
O O16 0.000000 0.812746 0.957464
O O17 0.203771 0.910455 0.003664
O O18 0.500000 0.980266 0.639125
O O19 0.723877 0.002911 0.580334
O O20 0.500000 0.485826 0.547774
#
# Coordination Sequence:
#
# PCOD8174847 Si02
#       8
#     8   8   8   8   8   8   8   8
#     4  10  20  35  53  77 105 132 168 215 254 295
#     4   9  19  36  53  73 103 139 171 205 254 310
#     4  10  19  35  56  75 100 137 171 204 252 308
#     4   9  19  35  54  75 103 135 172 213 253 300
#     4   8  18  35  52  71 100 133 165 202 250 300
#     4   9  19  35  54  75 103 135 172 213 253 300
#     4  10  20  35  53  77 105 132 168 215 254 295
#     4   9  19  36  53  73 103 139 171 205 254 310
#
# _framework density 18.027196
#
# number of rings (size 3 to 8) (size 9 to 14) (size 15 to 20)
#    0.000    2.750    0.000    3.375    0.000    4.000 
#    0.000   17.500    0.000    0.000    0.000    0.000 
#    0.000    0.000    0.000    0.000    0.000    0.000 
#
# Total GULP energy -396753.304449 kJ/mol
# GULP energy per Si atom -12398.540764 kJ/mol
# Density = 1.798616 g / cm^3
# Si number density = 18.027196 Si / 1000 Ang^3
#
#
#
# Elastic Constant Matrix: (Units=GPa)
#
#
# Indices 1 2 3 4 5 6 
#
# 1 52.6103 29.1153 37.3046 0.0000 0.0000 0.0000
# 2 29.1153 133.4913 52.9058 0.0000 0.0000 0.0000
# 3 37.3046 52.9058 137.9572 0.0000 0.0000 0.0000
# 4 0.0000 0.0000 0.0000 11.7286 0.0000 0.0000
# 5 0.0000 0.0000 0.0000 0.0000 32.7120 0.0000
# 6 0.0000 0.0000 0.0000 0.0000 0.0000 29.7251
#
#
#
# Elastic Compliance Matrix: (Units=1/GPa)
#
#
# Indices 1 2 3 4 5 6 
#
# 1 0.024639 -0.003223 -0.005427 0.000000 0.000000 0.000000
# 2 -0.003223 0.009255 -0.002678 0.000000 0.000000 0.000000
# 3 -0.005427 -0.002678 0.009743 0.000000 0.000000 0.000000
# 4 0.000000 0.000000 0.000000 0.085262 0.000000 0.000000
# 5 0.000000 0.000000 0.000000 0.000000 0.030570 0.000000
# 6 0.000000 0.000000 0.000000 0.000000 0.000000 0.033642
#
#
# Mechanical properties :
#
#
# Convention : Reuss Voigt Hill
#
# Bulk Modulus (GPa) = 47.65901 62.52335 55.09118
# Shear Modulus (GPa) = 22.44564 28.48201 25.46382
#
# Velocity S-wave (km/s) = 3.53242 3.97917 3.76243
# Velocity P-wave (km/s) = 6.56750 7.47461 7.03569
#
# Compressibility (1/GPa) = 0.02098239
#
# Stress axis : x y z
#
# Youngs Moduli (GPa) = 40.58547 108.04468 102.63874
#
# Poissons Ratio (x) = 0.34827 0.55697
# Poissons Ratio (y) = 0.13082 0.27484
# Poissons Ratio (z) = 0.22024 0.28932
#
# Static dielectric constant tensor:
#      x y z
#    x 3.145680 0.000000 0.000000 
#    y 0.000000 3.493940 0.000000 
#    z 0.000000 0.000000 3.330360 
# 
# 
# High freq. dielectric constant tensor:
#      x y z
#    x 1.687870 0.000000 0.000000 
#    y 0.000000 1.702080 0.000000 
#    z 0.000000 0.000000 1.702590 
# 
# From -- ./inp_files/17347.got.cif
#   From: 2010.03.12/outbox.cif.g09.slc.cpg/sg36_9_cif.got.tgz:17347.got - 2010.04.14 02:13:53.
