data_PCOD8174563
_publ_section_title
;
Structure prediction by ZEFSAII (Michael W. Deem and Ramdas Pophale) SiO2 
 PCOD8174563
Probable space group: C M C 21
;
_chemical_formula_sum "Si O2"
_cell_formula_units_Z 64
_cell_length_a 9.426449
_cell_length_b 26.996761
_cell_length_c 14.133778
_cell_angle_alpha 90.000000
_cell_angle_beta 90.000000
_cell_angle_gamma 90.000000
_cell_volume 3596.814576
_symmetry_space_group_name_H-M "C M C 21"
_symmetry_group_IT_number 36
_symmetry_cell_setting 'orthorhombic'
loop_
_space_group_symop_operation_xyz
x,y,z
-x,-y,1/2+z
x,-y,1/2+z
-x,y,z
1/2+x,1/2+y,z
1/2-x,1/2-y,1/2+z
1/2+x,1/2-y,1/2+z
1/2-x,1/2+y,z
loop_
_atom_site_type_symbol
_atom_site_label
_atom_site_fract_x
_atom_site_fract_y
_atom_site_fract_z
Si Si1 0.164136 0.814759 0.393750
Si Si2 0.666649 0.131613 0.627375
Si Si3 0.333061 0.324075 0.607637
Si Si4 0.159093 0.491646 0.827519
Si Si5 0.836414 0.603820 0.224410
Si Si6 0.837352 0.603674 0.427173
Si Si7 0.164575 0.731540 0.732626
Si Si8 0.334835 0.415604 0.288815
O O1 0.216130 0.809911 0.501891
O O2 0.249835 0.775694 0.329818
O O3 0.193329 0.870865 0.361167
O O4 0.000000 0.800646 0.383499
O O5 0.500000 0.118462 0.632204
O O6 0.734303 0.125288 0.521985
O O7 0.697136 0.187252 0.660012
O O8 0.750094 0.092994 0.692262
O O9 0.500000 0.333282 0.608671
O O10 0.258572 0.374955 0.639898
O O11 0.285619 0.281075 0.679576
O O12 0.179248 0.456159 0.734228
O O13 0.178424 0.456357 0.920166
O O14 0.275706 0.534283 0.834869
O O15 0.000000 0.514522 0.826354
O O16 0.783489 0.626918 0.326721
O O17 0.000000 0.617719 0.204907
O O18 0.000000 0.618721 0.435471
O O19 0.000000 0.733556 0.759380
O O20 0.500000 0.421902 0.266219
#
# Coordination Sequence:
#
# PCOD8174563 Si02
#       8
#     8   8   8   8   8   8   8   8
#     4   9  20  37  53  73 105 141 172 206 255 314
#     4   9  16  31  53  73  97 131 168 211 252 296
#     4  10  20  35  53  77 107 138 170 210 262 311
#     4   8  16  33  51  71  99 131 170 211 251 297
#     4   8  17  33  51  73 100 130 168 209 248 299
#     4   7  14  30  51  73  96 123 165 208 245 292
#     4   9  19  33  52  77 101 130 173 215 253 299
#     4  10  19  32  50  73 103 136 170 206 252 310
#
# _framework density 17.793521999999999
#
# number of rings (size 3 to 8) (size 9 to 14) (size 15 to 20)
#    0.750    2.500    0.000    0.375    0.000    3.000 
#    2.250    3.750    0.000    3.000    0.000    0.000 
#    0.000    0.000    0.000    0.000    0.000    0.000 
#
# Total GULP energy -396453.352830 kJ/mol
# GULP energy per Si atom -12389.167276 kJ/mol
# Density = 1.775302 g / cm^3
# Si number density = 17.793522 Si / 1000 Ang^3
#
#
#
# Elastic Constant Matrix: (Units=GPa)
#
#
# Indices 1 2 3 4 5 6 
#
# 1 55.9209 29.2770 36.8189 0.0000 0.0000 0.0000
# 2 29.2770 54.6163 25.0921 0.0000 0.0000 0.0000
# 3 36.8189 25.0921 105.3603 0.0000 0.0000 0.0000
# 4 0.0000 0.0000 0.0000 16.7996 0.0000 0.0000
# 5 0.0000 0.0000 0.0000 0.0000 24.2788 0.0000
# 6 0.0000 0.0000 0.0000 0.0000 0.0000 20.2316
#
#
#
# Elastic Compliance Matrix: (Units=1/GPa)
#
#
# Indices 1 2 3 4 5 6 
#
# 1 0.029064 -0.012254 -0.007238 0.000000 0.000000 0.000000
# 2 -0.012254 0.025726 -0.001844 0.000000 0.000000 0.000000
# 3 -0.007238 -0.001844 0.012460 0.000000 0.000000 0.000000
# 4 0.000000 0.000000 0.000000 0.059525 0.000000 0.000000
# 5 0.000000 0.000000 0.000000 0.000000 0.041188 0.000000
# 6 0.000000 0.000000 0.000000 0.000000 0.000000 0.049428
#
#
# Mechanical properties :
#
#
# Convention : Reuss Voigt Hill
#
# Bulk Modulus (GPa) = 40.69020 44.25260 42.47140
# Shear Modulus (GPa) = 18.63893 20.57595 19.60744
#
# Velocity S-wave (km/s) = 3.24004 3.40424 3.32315
# Velocity P-wave (km/s) = 6.07575 6.35420 6.21653
#
# Compressibility (1/GPa) = 0.02457594
#
# Stress axis : x y z
#
# Youngs Moduli (GPa) = 34.40729 38.87162 80.25744
#
# Poissons Ratio (x) = 0.47634 0.58091
# Poissons Ratio (y) = 0.42163 0.14803
# Poissons Ratio (z) = 0.24904 0.07170
#
# Static dielectric constant tensor:
#      x y z
#    x 3.069840 0.000000 0.000000 
#    y 0.000000 3.110340 0.000000 
#    z 0.000000 0.000000 3.384620 
# 
# 
# High freq. dielectric constant tensor:
#      x y z
#    x 1.669920 0.000000 0.000000 
#    y 0.000000 1.675740 0.000000 
#    z 0.000000 0.000000 1.683180 
# 
# From -- ./inp_files/11174.got.cif
#   From: 2010.03.12/outbox.cif.g09.slc.cpg/sg36_6_cif.got.tgz:11174.got - 2010.04.14 02:13:53.
