data_PCOD8174485
_publ_section_title
;
Structure prediction by ZEFSAII (Michael W. Deem and Ramdas Pophale) SiO2 
 PCOD8174485
Probable space group: C M C 21
;
_chemical_formula_sum "Si O2"
_cell_formula_units_Z 32
_cell_length_a 17.543139
_cell_length_b 20.135495
_cell_length_c 5.168436
_cell_angle_alpha 90.000000
_cell_angle_beta 90.000000
_cell_angle_gamma 90.000000
_cell_volume 1825.697235
_symmetry_space_group_name_H-M "C M C 21"
_symmetry_group_IT_number 36
_symmetry_cell_setting 'orthorhombic'
loop_
_space_group_symop_operation_xyz
x,y,z
-x,-y,1/2+z
x,-y,1/2+z
-x,y,z
1/2+x,1/2+y,z
1/2-x,1/2-y,1/2+z
1/2+x,1/2-y,1/2+z
1/2-x,1/2+y,z
loop_
_atom_site_type_symbol
_atom_site_label
_atom_site_fract_x
_atom_site_fract_y
_atom_site_fract_z
Si Si1 0.911048 0.789754 0.244320
Si Si2 0.671700 0.174317 0.028290
Si Si3 0.911670 0.541856 0.942820
Si Si4 0.174278 0.803879 0.755960
O O1 0.891546 0.711123 0.208477
O O2 0.885075 0.814699 0.523690
O O3 0.000000 0.802059 0.212612
O O4 0.865941 0.830799 0.018714
O O5 0.638009 0.107720 0.908363
O O6 0.747350 0.157710 0.195293
O O7 0.694400 0.224873 0.793359
O O8 0.890465 0.507981 0.213238
O O9 0.000000 0.562021 0.929428
#
# Coordination Sequence:
#
# PCOD8174485 Si02
#       4
#     8   8   8   8
#     4  10  19  30  47  74 102 131 161 202 264 319
#     4  10  20  35  51  73 105 138 173 220 261 306
#     4  10  23  36  50  74 105 146 184 207 239 303
#     4  10  20  31  50  75  98 137 170 213 270 312
#
# _framework density 17.527552
#
# number of rings (size 3 to 8) (size 9 to 14) (size 15 to 20)
#    1.500    0.500    2.500    1.500    3.500    0.000 
#    0.000    0.000    0.000    0.000    0.000    0.000 
#    0.000   20.000    0.000    0.000    0.000    0.000 
#
# Total GULP energy -198291.913225 kJ/mol
# GULP energy per Si atom -12393.244577 kJ/mol
# Density = 1.748766 g / cm^3
# Si number density = 17.527552 Si / 1000 Ang^3
#
#
#
# Elastic Constant Matrix: (Units=GPa)
#
#
# Indices 1 2 3 4 5 6 
#
# 1 88.3549 15.1527 27.8431 0.0000 0.0000 0.0000
# 2 15.1527 44.8673 2.7652 0.0000 0.0000 0.0000
# 3 27.8431 2.7652 102.5689 0.0000 0.0000 0.0000
# 4 0.0000 0.0000 0.0000 14.7197 0.0000 0.0000
# 5 0.0000 0.0000 0.0000 0.0000 26.1900 0.0000
# 6 0.0000 0.0000 0.0000 0.0000 0.0000 29.1232
#
#
#
# Elastic Compliance Matrix: (Units=1/GPa)
#
#
# Indices 1 2 3 4 5 6 
#
# 1 0.013129 -0.004221 -0.003450 0.000000 0.000000 0.000000
# 2 -0.004221 0.023682 0.000507 0.000000 0.000000 0.000000
# 3 -0.003450 0.000507 0.010672 0.000000 0.000000 0.000000
# 4 0.000000 0.000000 0.000000 0.067936 0.000000 0.000000
# 5 0.000000 0.000000 0.000000 0.000000 0.038182 0.000000
# 6 0.000000 0.000000 0.000000 0.000000 0.000000 0.034337
#
#
# Mechanical properties :
#
#
# Convention : Reuss Voigt Hill
#
# Bulk Modulus (GPa) = 30.16073 36.36814 33.26444
# Shear Modulus (GPa) = 23.43898 26.67525 25.05712
#
# Velocity S-wave (km/s) = 3.66083 3.90539 3.78509
# Velocity P-wave (km/s) = 5.92570 6.41329 6.17431
#
# Compressibility (1/GPa) = 0.03315569
#
# Stress axis : x y z
#
# Youngs Moduli (GPa) = 76.16604 42.22554 93.69924
#
# Poissons Ratio (x) = 0.17825 0.32328
# Poissons Ratio (y) = 0.32153 -0.04755
# Poissons Ratio (z) = 0.26279 -0.02143
#
# Static dielectric constant tensor:
#      x y z
#    x 3.127200 0.000000 0.000000 
#    y 0.000000 2.643990 0.000000 
#    z 0.000000 0.000000 3.311720 
# 
# 
# High freq. dielectric constant tensor:
#      x y z
#    x 1.682050 0.000000 0.000000 
#    y 0.000000 1.606300 0.000000 
#    z 0.000000 0.000000 1.692720 
# 
# From -- ./inp_files/42.got.cif
#   From: 2010.03.12/outbox.cif.g09.slc.cpg/sg36_1_cif.got.tgz:42.got - 2010.04.14 02:13:53.
