data_PCOD8174337
_publ_section_title
;
Structure prediction by ZEFSAII (Michael W. Deem and Ramdas Pophale) SiO2 
 PCOD8174337
Probable space group: C M C 21
;
_chemical_formula_sum "Si O2"
_cell_formula_units_Z 64
_cell_length_a 8.935348
_cell_length_b 20.311684
_cell_length_c 19.919956
_cell_angle_alpha 90.000000
_cell_angle_beta 90.000000
_cell_angle_gamma 90.000000
_cell_volume 3615.311957
_symmetry_space_group_name_H-M "C M C 21"
_symmetry_group_IT_number 36
_symmetry_cell_setting 'orthorhombic'
loop_
_space_group_symop_operation_xyz
x,y,z
-x,-y,1/2+z
x,-y,1/2+z
-x,y,z
1/2+x,1/2+y,z
1/2-x,1/2-y,1/2+z
1/2+x,1/2-y,1/2+z
1/2-x,1/2+y,z
loop_
_atom_site_type_symbol
_atom_site_label
_atom_site_fract_x
_atom_site_fract_y
_atom_site_fract_z
Si Si1 0.676618 0.203421 0.743040
Si Si2 0.176512 0.908676 0.167844
Si Si3 0.677818 0.690863 0.428065
Si Si4 0.322961 0.170079 0.891917
Si Si5 0.177452 0.073046 0.516838
Si Si6 0.177901 0.525531 0.915977
Si Si7 0.176638 0.013145 0.277090
Si Si8 0.824337 0.158022 0.282458
O O1 0.500000 0.195754 0.734092
O O2 0.755353 0.162405 0.684445
O O3 0.732485 0.175639 0.814939
O O4 0.730438 0.280117 0.737174
O O5 0.000000 0.902261 0.170963
O O6 0.235304 0.963173 0.220500
O O7 0.228473 0.930378 0.093967
O O8 0.500000 0.690128 0.428241
O O9 0.735188 0.766866 0.435448
O O10 0.735354 0.643191 0.487293
O O11 0.741875 0.662517 0.357841
O O12 0.500000 0.171946 0.890113
O O13 0.267482 0.101512 0.923713
O O14 0.000000 0.065563 0.508316
O O15 0.255001 0.013055 0.478686
O O16 0.238221 0.497691 0.846219
O O17 0.000000 0.519509 0.916191
O O18 0.216112 0.087103 0.250874
O O19 0.000000 0.005606 0.290181
O O20 0.000000 0.166929 0.290170
#
# Coordination Sequence:
#
# PCOD8174337 Si02
#       8
#     8   8   8   8   8   8   8   8
#     4   9  16  30  51  72  95 125 164 206 245 292
#     4  10  21  33  49  75 105 135 167 204 254 307
#     4   8  13  26  49  70  89 122 168 202 230 287
#     4   8  15  27  47  74  96 118 160 210 247 287
#     4  10  20  35  52  71 100 139 173 203 246 306
#     4  11  20  31  50  77 102 125 164 215 259 296
#     4  10  18  32  52  74 101 133 169 205 247 304
#     4   8  14  26  50  75  90 121 169 203 234 287
#
# _framework density 17.702483999999998
#
# number of rings (size 3 to 8) (size 9 to 14) (size 15 to 20)
#    0.000    2.750    2.500    1.875    0.000    0.500 
#    0.000    1.875    0.000    1.500    0.000    0.000 
#    0.000    0.000    0.000    0.000    0.000    0.000 
#
# Total GULP energy -396539.036027 kJ/mol
# GULP energy per Si atom -12391.844876 kJ/mol
# Density = 1.766219 g / cm^3
# Si number density = 17.702484 Si / 1000 Ang^3
#
#
#
# Elastic Constant Matrix: (Units=GPa)
#
#
# Indices 1 2 3 4 5 6 
#
# 1 18.8549 19.4975 18.0892 0.0000 0.0000 0.0000
# 2 19.4975 140.4929 46.4400 0.0000 0.0000 0.0000
# 3 18.0892 46.4400 82.8750 0.0000 0.0000 0.0000
# 4 0.0000 0.0000 0.0000 28.5171 0.0000 0.0000
# 5 0.0000 0.0000 0.0000 0.0000 16.8838 0.0000
# 6 0.0000 0.0000 0.0000 0.0000 0.0000 20.7380
#
#
#
# Elastic Compliance Matrix: (Units=1/GPa)
#
#
# Indices 1 2 3 4 5 6 
#
# 1 0.070716 -0.005783 -0.012195 0.000000 0.000000 0.000000
# 2 -0.005783 0.009209 -0.003898 0.000000 0.000000 0.000000
# 3 -0.012195 -0.003898 0.016912 0.000000 0.000000 0.000000
# 4 0.000000 0.000000 0.000000 0.035067 0.000000 0.000000
# 5 0.000000 0.000000 0.000000 0.000000 0.059228 0.000000
# 6 0.000000 0.000000 0.000000 0.000000 0.000000 0.048221
#
#
# Mechanical properties :
#
#
# Convention : Reuss Voigt Hill
#
# Bulk Modulus (GPa) = 18.83737 45.58625 32.21181
# Shear Modulus (GPa) = 16.62234 23.77417 20.19826
#
# Velocity S-wave (km/s) = 3.06761 3.66865 3.38151
# Velocity P-wave (km/s) = 4.81779 6.61457 5.78635
#
# Compressibility (1/GPa) = 0.05308598
#
# Stress axis : x y z
#
# Youngs Moduli (GPa) = 14.14105 108.59116 59.12812
#
# Poissons Ratio (x) = 0.62798 0.72105
# Poissons Ratio (y) = 0.08178 0.23048
# Poissons Ratio (z) = 0.17245 0.42329
#
# Static dielectric constant tensor:
#      x y z
#    x 2.885060 0.000000 0.000000 
#    y 0.000000 3.922730 0.000000 
#    z 0.000000 0.000000 3.145910 
# 
# 
# High freq. dielectric constant tensor:
#      x y z
#    x 1.643880 0.000000 0.000000 
#    y 0.000000 1.707280 0.000000 
#    z 0.000000 0.000000 1.655610 
# 
# From -- ./inp_files/15805.got.cif
#   From: 2010.03.12/outbox.cif.g09.slc.cpg/sg36_8_cif.got.tgz:15805.got - 2010.04.14 02:13:53.
