data_PCOD8174148
_publ_section_title
;
Structure prediction by ZEFSAII (Michael W. Deem and Ramdas Pophale) SiO2 
 PCOD8174148
Probable space group: C M M 2
;
_chemical_formula_sum "Si O2"
_cell_formula_units_Z 32
_cell_length_a 15.035292
_cell_length_b 9.854211
_cell_length_c 10.356677
_cell_angle_alpha 90.000000
_cell_angle_beta 90.000000
_cell_angle_gamma 90.000000
_cell_volume 1534.454998
_symmetry_space_group_name_H-M "C M M 2"
_symmetry_group_IT_number 35
_symmetry_cell_setting 'orthorhombic'
loop_
_space_group_symop_operation_xyz
x,y,z
-x,-y,z
-x,y,z
x,-y,z
1/2+x,1/2+y,z
1/2-x,1/2-y,z
1/2-x,1/2+y,z
1/2+x,1/2-y,z
loop_
_atom_site_type_symbol
_atom_site_label
_atom_site_fract_x
_atom_site_fract_y
_atom_site_fract_z
Si Si1 0.500000 0.250487 0.032411
Si Si2 0.165952 0.663139 0.191685
Si Si3 0.500000 0.500000 0.837145
Si Si4 0.500000 0.000000 0.854107
Si Si5 0.847842 0.000000 0.620033
Si Si6 0.398142 0.239054 0.465604
Si Si7 0.644164 0.000000 0.649307
O O1 0.585406 0.240461 0.123379
O O2 0.500000 0.377022 0.936497
O O3 0.500000 0.127927 0.939829
O O4 0.172068 0.500000 0.161444
O O5 0.250000 0.750000 0.142340
O O6 0.157224 0.684116 0.344731
O O7 0.414801 0.500000 0.741619
O O8 0.593743 0.000000 0.783085
O O9 0.858061 0.875387 0.523191
O O10 0.748986 0.000000 0.678057
O O11 0.500000 0.261719 0.424819
O O12 0.390541 0.131156 0.577439
#
# Coordination Sequence:
#
# PCOD8174148 Si02
#       7
#     4   8   2   2   4   8   4
#     4  12  28  48  75  95 145 195 248 292 341 419
#     4  12  27  48  75 109 142 182 238 298 362 430
#     4  12  28  48  70 104 146 190 254 292 344 408
#     4  12  24  44  72 102 128 196 246 284 346 422
#     4  12  26  47  69 108 145 183 227 296 354 421
#     4  12  23  44  73 105 144 181 224 291 364 428
#     4  12  24  41  75 102 137 183 235 286 360 415
#
# _framework density 20.854309000000001
#
# number of rings (size 3 to 8) (size 9 to 14) (size 15 to 20)
#    0.000    0.000    6.250    3.750    3.500    2.000 
#    0.000    0.000    0.000    0.000    0.000    0.000 
#    0.000    0.000    0.000    0.000    0.000    0.000 
#
# Total GULP energy -198360.437943 kJ/mol
# GULP energy per Si atom -12397.527371 kJ/mol
# Density = 2.080684 g / cm^3
# Si number density = 20.854309 Si / 1000 Ang^3
#
#
#
# Elastic Constant Matrix: (Units=GPa)
#
#
# Indices 1 2 3 4 5 6 
#
# 1 162.4536 16.0088 27.2712 0.0000 0.0000 0.0000
# 2 16.0088 121.9345 25.9938 0.0000 0.0000 0.0000
# 3 27.2712 25.9938 86.7956 0.0000 0.0000 0.0000
# 4 0.0000 0.0000 0.0000 46.3566 0.0000 0.0000
# 5 0.0000 0.0000 0.0000 0.0000 -143.0056 0.0000
# 6 0.0000 0.0000 0.0000 0.0000 0.0000 26.4455
#
#
#
# Elastic Compliance Matrix: (Units=1/GPa)
#
#
# Indices 1 2 3 4 5 6 
#
# 1 0.006521 -0.000448 -0.001915 0.000000 0.000000 0.000000
# 2 -0.000448 0.008791 -0.002492 0.000000 0.000000 0.000000
# 3 -0.001915 -0.002492 0.012869 0.000000 0.000000 0.000000
# 4 0.000000 0.000000 0.000000 0.021572 0.000000 0.000000
# 5 0.000000 0.000000 0.000000 0.000000 -0.006993 0.000000
# 6 0.000000 0.000000 0.000000 0.000000 0.000000 0.037814
#
#
# Mechanical properties :
#
#
# Convention : Reuss Voigt Hill
#
# Bulk Modulus (GPa) = 54.13600 56.63682 55.38641
# Shear Modulus (GPa) = 51.84494 6.08664 28.96579
#
# Velocity S-wave (km/s) = 4.99144 1.71026 3.73092
# Velocity P-wave (km/s) = 7.69642 5.57829 6.72131
#
# Compressibility (1/GPa) = 0.01847200
#
# Stress axis : x y z
#
# Youngs Moduli (GPa) = 153.34636 113.75019 77.70443
#
# Poissons Ratio (x) = 0.05096 0.14879
# Poissons Ratio (y) = 0.06870 0.19364
# Poissons Ratio (z) = 0.29363 0.28347
#
# Static dielectric constant tensor:
#      x y z
#    x 4.464330 0.000000 0.000000 
#    y 0.000000 3.891520 0.000000 
#    z 0.000000 0.000000 3.857280 
# 
# 
# High freq. dielectric constant tensor:
#      x y z
#    x 1.835440 0.000000 0.000000 
#    y 0.000000 1.835310 0.000000 
#    z 0.000000 0.000000 1.820930 
# 
# From -- ./inp_files/10938.got.cif
#   From: 2010.03.12/outbox.cif.g09.slc.cpg/sg35_6_cif.got.tgz:10938.got - 2010.04.14 02:02:04.
