data_PCOD8174501
_publ_section_title
;
Structure prediction by ZEFSAII (Michael W. Deem and Ramdas Pophale) SiO2 
 PCOD8174501
Probable space group: C M C 21
;
_chemical_formula_sum "Si O2"
_cell_formula_units_Z 56
_cell_length_a 15.183351
_cell_length_b 36.794870
_cell_length_c 5.149483
_cell_angle_alpha 90.000000
_cell_angle_beta 90.000000
_cell_angle_gamma 90.000000
_cell_volume 2876.858713
_symmetry_space_group_name_H-M "C M C 21"
_symmetry_group_IT_number 36
_symmetry_cell_setting 'orthorhombic'
loop_
_space_group_symop_operation_xyz
x,y,z
-x,-y,1/2+z
x,-y,1/2+z
-x,y,z
1/2+x,1/2+y,z
1/2-x,1/2-y,1/2+z
1/2+x,1/2-y,1/2+z
1/2-x,1/2+y,z
loop_
_atom_site_type_symbol
_atom_site_label
_atom_site_fract_x
_atom_site_fract_y
_atom_site_fract_z
Si Si1 0.399786 0.023585 0.589090
Si Si2 0.292529 0.904509 0.023730
Si Si3 0.879535 0.157931 0.021040
Si Si4 0.846957 0.279395 0.544857
Si Si5 0.406320 0.386021 0.010784
Si Si6 0.317279 0.859137 0.534160
Si Si7 0.640320 0.262645 0.545198
O O1 0.500000 0.038419 0.568857
O O2 0.330224 0.055496 0.553712
O O3 0.382377 0.993606 0.369802
O O4 0.185171 0.908967 0.008948
O O5 0.337359 0.886945 0.768684
O O6 0.324357 0.880032 0.263010
O O7 0.899518 0.144106 0.733482
O O8 0.777944 0.156544 0.088650
O O9 0.924963 0.133261 0.237115
O O10 0.912865 0.199388 0.037939
O O11 0.875222 0.322263 0.534874
O O12 0.743117 0.272111 0.536167
O O13 0.889294 0.259582 0.297742
O O14 0.888028 0.262086 0.802606
O O15 0.500000 0.408242 0.057325
#
# Coordination Sequence:
#
# PCOD8174501 Si02
#       7
#     8   8   8   8   8   8   8
#     4  10  21  38  61  88 112 132 158 193 240 300
#     4  10  19  33  53  77 107 136 165 204 248 297
#     4   9  17  28  42  65  96 130 175 225 264 298
#     4   9  15  23  37  61  92 123 162 211 255 302
#     4  10  19  31  48  71 100 136 177 217 253 290
#     4   9  17  28  45  72 102 132 168 208 253 306
#     4   9  15  23  37  58  88 125 165 214 264 297
#
# _framework density 19.465675999999998
#
# number of rings (size 3 to 8) (size 9 to 14) (size 15 to 20)
#    0.000    2.571    0.000    3.000    0.000    6.857 
#    0.000    0.000    0.000    0.857    0.000   20.000 
#    0.000    0.000    0.000    0.000    0.000    0.000 
#
# Total GULP energy -346908.112983 kJ/mol
# GULP energy per Si atom -12389.575464 kJ/mol
# Density = 1.942137 g / cm^3
# Si number density = 19.465676 Si / 1000 Ang^3
#
#
#
# Elastic Constant Matrix: (Units=GPa)
#
#
# Indices 1 2 3 4 5 6 
#
# 1 65.7508 42.8076 8.6087 0.0000 0.0000 0.0000
# 2 42.8076 89.8398 14.6512 0.0000 0.0000 0.0000
# 3 8.6087 14.6512 104.7688 0.0000 0.0000 0.0000
# 4 0.0000 0.0000 0.0000 22.1748 0.0000 0.0000
# 5 0.0000 0.0000 0.0000 0.0000 11.8912 0.0000
# 6 0.0000 0.0000 0.0000 0.0000 0.0000 20.4689
#
#
#
# Elastic Compliance Matrix: (Units=1/GPa)
#
#
# Indices 1 2 3 4 5 6 
#
# 1 0.022062 -0.010455 -0.000351 0.000000 0.000000 0.000000
# 2 -0.010455 0.016345 -0.001427 0.000000 0.000000 0.000000
# 3 -0.000351 -0.001427 0.009773 0.000000 0.000000 0.000000
# 4 0.000000 0.000000 0.000000 0.045096 0.000000 0.000000
# 5 0.000000 0.000000 0.000000 0.000000 0.084096 0.000000
# 6 0.000000 0.000000 0.000000 0.000000 0.000000 0.048855
#
#
# Mechanical properties :
#
#
# Convention : Reuss Voigt Hill
#
# Bulk Modulus (GPa) = 42.16678 43.61047 42.88863
# Shear Modulus (GPa) = 19.33517 23.85978 21.59747
#
# Velocity S-wave (km/s) = 3.15508 3.50485 3.33455
# Velocity P-wave (km/s) = 5.91454 6.23146 6.07507
#
# Compressibility (1/GPa) = 0.02371535
#
# Stress axis : x y z
#
# Youngs Moduli (GPa) = 45.32761 61.17994 102.32105
#
# Poissons Ratio (x) = 0.63963 0.03589
# Poissons Ratio (y) = 0.47390 0.14598
# Poissons Ratio (z) = 0.01590 0.08729
#
# Static dielectric constant tensor:
#      x y z
#    x 3.241970 0.000000 0.000000 
#    y 0.000000 3.336020 0.000000 
#    z 0.000000 0.000000 3.759210 
# 
# 
# High freq. dielectric constant tensor:
#      x y z
#    x 1.736970 0.000000 0.000000 
#    y 0.000000 1.727380 0.000000 
#    z 0.000000 0.000000 1.779120 
# 
# From -- ./inp_files/926.got.cif
#   From: 2010.03.12/outbox.cif.g09.slc.cpg/sg36_1_cif.got.tgz:926.got - 2010.04.14 02:13:53.
