data_PCOD8174407
_publ_section_title
;
Structure prediction by ZEFSAII (Michael W. Deem and Ramdas Pophale) SiO2 
 PCOD8174407
Probable space group: C M C 21
;
_chemical_formula_sum "Si O2"
_cell_formula_units_Z 48
_cell_length_a 14.719511
_cell_length_b 19.830469
_cell_length_c 8.842478
_cell_angle_alpha 90.000000
_cell_angle_beta 90.000000
_cell_angle_gamma 90.000000
_cell_volume 2581.073406
_symmetry_space_group_name_H-M "C M C 21"
_symmetry_group_IT_number 36
_symmetry_cell_setting 'orthorhombic'
loop_
_space_group_symop_operation_xyz
x,y,z
-x,-y,1/2+z
x,-y,1/2+z
-x,y,z
1/2+x,1/2+y,z
1/2-x,1/2-y,1/2+z
1/2+x,1/2-y,1/2+z
1/2-x,1/2+y,z
loop_
_atom_site_type_symbol
_atom_site_label
_atom_site_fract_x
_atom_site_fract_y
_atom_site_fract_z
Si Si1 0.183338 0.078822 0.753560
Si Si2 0.000000 0.788713 0.569894
Si Si3 0.304857 0.825057 0.766080
Si Si4 0.187162 0.936320 0.906870
Si Si5 0.500000 0.348501 0.205087
Si Si6 0.700288 0.305689 0.463480
Si Si7 0.000000 0.698616 0.329441
Si Si8 0.500000 0.638894 0.373775
O O1 0.217177 0.067396 0.582434
O O2 0.080801 0.102166 0.742687
O O3 0.236053 0.138169 0.843848
O O4 0.193036 0.012682 0.853874
O O5 0.904417 0.822243 0.511327
O O6 0.000000 0.708678 0.515442
O O7 0.000000 0.801340 0.749727
O O8 0.260655 0.894647 0.814085
O O9 0.286998 0.766995 0.887861
O O10 0.267953 0.802946 0.604336
O O11 0.413337 0.838134 0.759068
O O12 0.087854 0.908708 0.864548
O O13 0.500000 0.279660 0.297762
O O14 0.500000 0.322514 0.032670
#
# Coordination Sequence:
#
# PCOD8174407 Si02
#       8
#     8   4   8   8   4   8   4   4
#     4  11  21  38  56  86 119 156 188 245 295 360
#     4  10  18  34  55  83 115 155 186 229 291 344
#     4  11  22  37  57  88 113 161 196 243 286 344
#     4  11  23  35  58  86 122 154 196 237 298 353
#     4  10  19  37  54  86 123 156 185 228 301 362
#     4  11  21  36  60  81 121 150 200 240 294 350
#     4  10  22  37  59  79 123 159 193 239 285 341
#     4  10  21  32  52  90 121 154 186 232 289 361
#
# _framework density 18.596914000000002
#
# number of rings (size 3 to 8) (size 9 to 14) (size 15 to 20)
#    0.000    1.333    5.000    2.500    2.333    0.000 
#    0.000    0.000    0.000    4.000    0.000    0.000 
#    0.000    0.000    0.000    0.000    0.000    0.000 
#
# Total GULP energy -297375.492729 kJ/mol
# GULP energy per Si atom -12390.645530 kJ/mol
# Density = 1.855459 g / cm^3
# Si number density = 18.596914 Si / 1000 Ang^3
#
#
#
# Elastic Constant Matrix: (Units=GPa)
#
#
# Indices 1 2 3 4 5 6 
#
# 1 99.9127 25.3558 32.0359 0.0000 0.0000 0.0000
# 2 25.3558 59.5431 16.1190 0.0000 0.0000 0.0000
# 3 32.0359 16.1190 114.7827 0.0000 0.0000 0.0000
# 4 0.0000 0.0000 0.0000 35.3849 0.0000 0.0000
# 5 0.0000 0.0000 0.0000 0.0000 20.0136 0.0000
# 6 0.0000 0.0000 0.0000 0.0000 0.0000 7.4295
#
#
#
# Elastic Compliance Matrix: (Units=1/GPa)
#
#
# Indices 1 2 3 4 5 6 
#
# 1 0.011994 -0.004367 -0.002734 0.000000 0.000000 0.000000
# 2 -0.004367 0.019048 -0.001456 0.000000 0.000000 0.000000
# 3 -0.002734 -0.001456 0.009680 0.000000 0.000000 0.000000
# 4 0.000000 0.000000 0.000000 0.028261 0.000000 0.000000
# 5 0.000000 0.000000 0.000000 0.000000 0.049966 0.000000
# 6 0.000000 0.000000 0.000000 0.000000 0.000000 0.134598
#
#
# Mechanical properties :
#
#
# Convention : Reuss Voigt Hill
#
# Bulk Modulus (GPa) = 42.36044 46.80665 44.58355
# Shear Modulus (GPa) = 17.95137 25.94747 21.94942
#
# Velocity S-wave (km/s) = 3.11028 3.73937 3.43924
# Velocity P-wave (km/s) = 5.97713 6.62325 6.30847
#
# Compressibility (1/GPa) = 0.02360693
#
# Stress axis : x y z
#
# Youngs Moduli (GPa) = 83.37688 52.49768 103.30902
#
# Poissons Ratio (x) = 0.22927 0.28246
# Poissons Ratio (y) = 0.36413 0.15043
# Poissons Ratio (z) = 0.22797 0.07644
#
# Static dielectric constant tensor:
#      x y z
#    x 3.807760 0.000000 0.000000 
#    y 0.000000 3.183360 0.000000 
#    z 0.000000 0.000000 3.857890 
# 
# 
# High freq. dielectric constant tensor:
#      x y z
#    x 1.704580 0.000000 0.000000 
#    y 0.000000 1.697140 0.000000 
#    z 0.000000 0.000000 1.744460 
# 
# From -- ./inp_files/4030.got.cif
#   From: 2010.03.12/outbox.cif.g09.slc.cpg/sg36_3_cif.got.tgz:4030.got - 2010.04.14 02:13:53.
