data_PCOD8174085
_publ_section_title
;
Structure prediction by ZEFSAII (Michael W. Deem and Ramdas Pophale) SiO2 
 PCOD8174085
Probable space group: C M M 2
;
_chemical_formula_sum "Si O2"
_cell_formula_units_Z 40
_cell_length_a 26.065364
_cell_length_b 8.810347
_cell_length_c 9.416140
_cell_angle_alpha 90.000000
_cell_angle_beta 90.000000
_cell_angle_gamma 90.000000
_cell_volume 2162.368543
_symmetry_space_group_name_H-M "C M M 2"
_symmetry_group_IT_number 35
_symmetry_cell_setting 'orthorhombic'
loop_
_space_group_symop_operation_xyz
x,y,z
-x,-y,z
-x,y,z
x,-y,z
1/2+x,1/2+y,z
1/2-x,1/2-y,z
1/2-x,1/2+y,z
1/2+x,1/2-y,z
loop_
_atom_site_type_symbol
_atom_site_label
_atom_site_fract_x
_atom_site_fract_y
_atom_site_fract_z
Si Si1 0.701463 0.165552 0.045890
Si Si2 0.500000 0.818518 0.548281
Si Si3 0.699352 0.830169 0.709464
Si Si4 0.500000 0.820639 0.225122
Si Si5 0.907832 0.180785 0.722079
Si Si6 0.590502 0.817953 0.026617
O O1 0.750000 0.250000 0.114567
O O2 0.646260 0.239661 0.082288
O O3 0.703397 0.000000 0.114163
O O4 0.706480 0.158971 0.877233
O O5 0.500000 0.762665 0.385327
O O6 0.449003 0.750052 0.615461
O O7 0.500000 0.000000 0.563673
O O8 0.750000 0.750000 0.643489
O O9 0.648517 0.734695 0.672138
O O10 0.694150 0.000000 0.645731
O O11 0.550113 0.760917 0.142797
O O12 0.500000 0.000000 0.220675
O O13 0.910072 0.000000 0.719802
O O14 0.922704 0.240560 0.877632
O O15 0.590778 0.000000 0.003167
#
# Coordination Sequence:
#
# PCOD8174085 Si02
#       6
#     8   4   8   4   8   8
#     4   8  14  23  40  67  99 127 154 190 237 287
#     4  11  22  37  54  72  96 133 176 219 264 310
#     4   9  16  28  47  74 105 136 167 207 253 299
#     4   9  19  35  56  74  92 125 170 215 262 308
#     4  11  21  33  51  78 107 137 171 210 254 306
#     4   9  17  32  53  77 100 127 166 212 254 300
#
# _framework density 18.498235000000001
#
# number of rings (size 3 to 8) (size 9 to 14) (size 15 to 20)
#    0.000    2.600    0.000    4.500    0.000    5.600 
#    0.000    2.000    0.000    1.200    0.000    2.800 
#    0.000    0.000    0.000    0.000    0.000    0.000 
#
# Total GULP energy -247884.614435 kJ/mol
# GULP energy per Si atom -12394.230722 kJ/mol
# Density = 1.845613 g / cm^3
# Si number density = 18.498235 Si / 1000 Ang^3
#
#
#
# Elastic Constant Matrix: (Units=GPa)
#
#
# Indices 1 2 3 4 5 6 
#
# 1 187.0617 57.5123 77.6863 0.0000 0.0000 0.0000
# 2 57.5123 102.9886 38.6219 0.0000 0.0000 0.0000
# 3 77.6863 38.6219 83.6053 0.0000 0.0000 0.0000
# 4 0.0000 0.0000 0.0000 9.5902 0.0000 0.0000
# 5 0.0000 0.0000 0.0000 0.0000 0.1290 0.0000
# 6 0.0000 0.0000 0.0000 0.0000 0.0000 34.9816
#
#
#
# Elastic Compliance Matrix: (Units=1/GPa)
#
#
# Indices 1 2 3 4 5 6 
#
# 1 0.009142 -0.002322 -0.007422 0.000000 0.000000 0.000000
# 2 -0.002322 0.012334 -0.003540 0.000000 0.000000 0.000000
# 3 -0.007422 -0.003540 0.020493 0.000000 0.000000 0.000000
# 4 0.000000 0.000000 0.000000 0.104274 0.000000 0.000000
# 5 0.000000 0.000000 0.000000 0.000000 7.754660 0.000000
# 6 0.000000 0.000000 0.000000 0.000000 0.000000 0.028586
#
#
# Mechanical properties :
#
#
# Convention : Reuss Voigt Hill
#
# Bulk Modulus (GPa) = 64.93287 80.14407 72.53847
# Shear Modulus (GPa) = 0.62805 22.26249 11.44527
#
# Velocity S-wave (km/s) = 0.58331 3.47290 2.49011
# Velocity P-wave (km/s) = 5.96926 7.71367 6.89684
#
# Compressibility (1/GPa) = 0.01540052
#
# Stress axis : x y z
#
# Youngs Moduli (GPa) = 109.38332 81.07624 48.79639
#
# Poissons Ratio (x) = 0.18825 0.36218
# Poissons Ratio (y) = 0.25397 0.17276
# Poissons Ratio (z) = 0.81188 0.28704
#
# Static dielectric constant tensor:
#      x y z
#    x 3.831610 0.000000 0.000000 
#    y 0.000000 3.459850 0.000000 
#    z 0.000000 0.000000 3.013640 
# 
# 
# High freq. dielectric constant tensor:
#      x y z
#    x 1.744120 0.000000 0.000000 
#    y 0.000000 1.710200 0.000000 
#    z 0.000000 0.000000 1.659640 
# 
# From -- ./inp_files/10070.got.cif
#   From: 2010.03.12/outbox.cif.g09.slc.cpg/sg35_6_cif.got.tgz:10070.got - 2010.04.14 02:02:04.
