data_PCOD8174346
_publ_section_title
;
Structure prediction by ZEFSAII (Michael W. Deem and Ramdas Pophale) SiO2 
 PCOD8174346
Probable space group: C M C 21
;
_chemical_formula_sum "Si O2"
_cell_formula_units_Z 64
_cell_length_a 8.869672
_cell_length_b 20.077608
_cell_length_c 19.898679
_cell_angle_alpha 90.000000
_cell_angle_beta 90.000000
_cell_angle_gamma 90.000000
_cell_volume 3543.592524
_symmetry_space_group_name_H-M "C M C 21"
_symmetry_group_IT_number 36
_symmetry_cell_setting 'orthorhombic'
loop_
_space_group_symop_operation_xyz
x,y,z
-x,-y,1/2+z
x,-y,1/2+z
-x,y,z
1/2+x,1/2+y,z
1/2-x,1/2-y,1/2+z
1/2+x,1/2-y,1/2+z
1/2-x,1/2+y,z
loop_
_atom_site_type_symbol
_atom_site_label
_atom_site_fract_x
_atom_site_fract_y
_atom_site_fract_z
Si Si1 0.822923 0.333682 0.967190
Si Si2 0.172004 0.053997 0.694956
Si Si3 0.324079 0.050363 0.371455
Si Si4 0.178092 0.666848 0.618175
Si Si5 0.323342 0.408919 0.734196
Si Si6 0.826138 0.918434 0.349481
Si Si7 0.321048 0.774146 0.715011
Si Si8 0.679171 0.729475 0.860685
O O1 0.785257 0.406383 0.937219
O O2 0.752621 0.276241 0.919218
O O3 0.000000 0.322514 0.969784
O O4 0.758206 0.328134 0.042220
O O5 0.282077 0.093507 0.645513
O O6 0.199330 0.080559 0.769879
O O7 0.000000 0.067755 0.673501
O O8 0.210152 0.975506 0.691071
O O9 0.500000 0.053022 0.353764
O O10 0.234947 0.081987 0.309630
O O11 0.273311 0.974710 0.385925
O O12 0.259562 0.723622 0.660121
O O13 0.000000 0.677200 0.621837
O O14 0.500000 0.394429 0.737516
O O15 0.239334 0.347908 0.698066
O O16 0.772069 0.846475 0.375999
O O17 0.000000 0.932568 0.366861
O O18 0.500000 0.773473 0.711989
O O19 0.258750 0.753102 0.788359
O O20 0.500000 0.734784 0.857768
#
# Coordination Sequence:
#
# PCOD8174346 Si02
#       8
#     8   8   8   8   8   8   8   8
#     4   9  19  35  54  77 107 147 183 218 272 330
#     4   9  18  34  53  76 108 141 176 219 271 324
#     4  10  18  32  54  78 106 141 177 217 269 327
#     4  11  22  35  54  80 112 147 186 226 268 325
#     4  10  20  34  54  82 110 135 175 230 275 318
#     4   9  17  31  53  79 105 133 172 225 270 313
#     4  11  20  35  58  81 108 145 183 224 276 327
#     4   9  16  32  56  77 102 141 182 217 265 326
#
# _framework density 18.060766999999998
#
# number of rings (size 3 to 8) (size 9 to 14) (size 15 to 20)
#    0.000    2.250    2.500    2.250    0.000    2.500 
#    0.000    3.750    0.000    4.500    0.000    0.000 
#    0.000    0.000    0.000    0.000    0.000    0.000 
#
# Total GULP energy -396782.210728 kJ/mol
# GULP energy per Si atom -12399.444085 kJ/mol
# Density = 1.801966 g / cm^3
# Si number density = 18.060767 Si / 1000 Ang^3
#
#
#
# Elastic Constant Matrix: (Units=GPa)
#
#
# Indices 1 2 3 4 5 6 
#
# 1 60.8634 43.7148 37.7778 0.0000 0.0000 0.0000
# 2 43.7148 152.0916 75.7714 0.0000 0.0000 0.0000
# 3 37.7778 75.7714 110.7800 0.0000 0.0000 0.0000
# 4 0.0000 0.0000 0.0000 23.8479 0.0000 0.0000
# 5 0.0000 0.0000 0.0000 0.0000 19.9048 0.0000
# 6 0.0000 0.0000 0.0000 0.0000 0.0000 33.5312
#
#
#
# Elastic Compliance Matrix: (Units=1/GPa)
#
#
# Indices 1 2 3 4 5 6 
#
# 1 0.022325 -0.003980 -0.004891 0.000000 0.000000 0.000000
# 2 -0.003980 0.010683 -0.005950 0.000000 0.000000 0.000000
# 3 -0.004891 -0.005950 0.014764 0.000000 0.000000 0.000000
# 4 0.000000 0.000000 0.000000 0.041932 0.000000 0.000000
# 5 0.000000 0.000000 0.000000 0.000000 0.050239 0.000000
# 6 0.000000 0.000000 0.000000 0.000000 0.000000 0.029823
#
#
# Mechanical properties :
#
#
# Convention : Reuss Voigt Hill
#
# Bulk Modulus (GPa) = 55.15492 70.91810 63.03651
# Shear Modulus (GPa) = 24.33667 26.55485 25.44576
#
# Velocity S-wave (km/s) = 3.67480 3.83862 3.75760
# Velocity P-wave (km/s) = 6.97211 7.68103 7.33514
#
# Compressibility (1/GPa) = 0.01813075
#
# Stress axis : x y z
#
# Youngs Moduli (GPa) = 44.79367 93.60577 67.73110
#
# Poissons Ratio (x) = 0.37256 0.33126
# Poissons Ratio (y) = 0.17828 0.40298
# Poissons Ratio (z) = 0.21908 0.55693
#
# Static dielectric constant tensor:
#      x y z
#    x 3.177590 0.000000 0.000000 
#    y 0.000000 3.667530 0.000000 
#    z 0.000000 0.000000 3.266070 
# 
# 
# High freq. dielectric constant tensor:
#      x y z
#    x 1.682810 0.000000 0.000000 
#    y 0.000000 1.717780 0.000000 
#    z 0.000000 0.000000 1.670450 
# 
# From -- ./inp_files/13882.got.cif
#   From: 2010.03.12/outbox.cif.g09.slc.cpg/sg36_7_cif.got.tgz:13882.got - 2010.04.14 02:13:53.
