data_PCOD8174339
_publ_section_title
;
Structure prediction by ZEFSAII (Michael W. Deem and Ramdas Pophale) SiO2 
 PCOD8174339
Probable space group: C M C 21
;
_chemical_formula_sum "Si O2"
_cell_formula_units_Z 48
_cell_length_a 16.398818
_cell_length_b 9.140819
_cell_length_c 16.894096
_cell_angle_alpha 90.000000
_cell_angle_beta 90.000000
_cell_angle_gamma 90.000000
_cell_volume 2532.401797
_symmetry_space_group_name_H-M "C M C 21"
_symmetry_group_IT_number 36
_symmetry_cell_setting 'orthorhombic'
loop_
_space_group_symop_operation_xyz
x,y,z
-x,-y,1/2+z
x,-y,1/2+z
-x,y,z
1/2+x,1/2+y,z
1/2-x,1/2-y,1/2+z
1/2+x,1/2-y,1/2+z
1/2-x,1/2+y,z
loop_
_atom_site_type_symbol
_atom_site_label
_atom_site_fract_x
_atom_site_fract_y
_atom_site_fract_z
Si Si1 0.343321 0.640265 0.511140
Si Si2 0.903126 0.656258 0.150910
Si Si3 0.903584 0.337530 0.826703
Si Si4 0.337912 0.082803 0.553092
Si Si5 0.406510 0.893922 0.419698
Si Si6 0.907000 0.165230 0.976434
O O1 0.376016 0.716981 0.590658
O O2 0.255304 0.570070 0.525518
O O3 0.347298 0.755388 0.437570
O O4 0.400606 0.507529 0.485688
O O5 0.874122 0.705246 0.238667
O O6 0.855306 0.502273 0.135034
O O7 0.000000 0.632043 0.146459
O O8 0.878350 0.508058 0.844454
O O9 0.868372 0.224024 0.892655
O O10 0.000000 0.328032 0.830407
O O11 0.361579 0.254682 0.550761
O O12 0.400125 0.003781 0.493322
O O13 0.500000 0.838829 0.412198
O O14 0.000000 0.211135 0.980466
#
# Coordination Sequence:
#
# PCOD8174339 Si02
#       6
#     8   8   8   8   8   8
#     4  11  20  31  51  80 106 129 162 211 259 299
#     4  10  19  36  55  72  98 140 177 206 247 305
#     4   8  17  33  55  75  97 131 177 215 246 295
#     4  10  19  32  50  73 100 132 167 203 244 303
#     4   9  17  34  55  74  95 133 176 206 241 304
#     4  10  18  32  52  76  99 127 165 211 254 296
#
# _framework density 18.954338
#
# number of rings (size 3 to 8) (size 9 to 14) (size 15 to 20)
#    0.000    2.333    0.000    7.000    0.000    0.000 
#    0.000    8.333    0.000    4.000    0.000    0.000 
#    0.000    0.000    0.000    0.000    0.000    0.000 
#
# Total GULP energy -297313.974897 kJ/mol
# GULP energy per Si atom -12388.082287 kJ/mol
# Density = 1.891120 g / cm^3
# Si number density = 18.954338 Si / 1000 Ang^3
#
#
#
# Elastic Constant Matrix: (Units=GPa)
#
#
# Indices 1 2 3 4 5 6 
#
# 1 64.2943 16.7897 20.7506 0.0000 0.0000 0.0000
# 2 16.7897 123.2828 58.5169 0.0000 0.0000 0.0000
# 3 20.7506 58.5169 105.0274 0.0000 0.0000 0.0000
# 4 0.0000 0.0000 0.0000 26.0834 0.0000 0.0000
# 5 0.0000 0.0000 0.0000 0.0000 11.9806 0.0000
# 6 0.0000 0.0000 0.0000 0.0000 0.0000 27.4478
#
#
#
# Elastic Compliance Matrix: (Units=1/GPa)
#
#
# Indices 1 2 3 4 5 6 
#
# 1 0.016696 -0.000963 -0.002762 0.000000 0.000000 0.000000
# 2 -0.000963 0.011083 -0.005985 0.000000 0.000000 0.000000
# 3 -0.002762 -0.005985 0.013402 0.000000 0.000000 0.000000
# 4 0.000000 0.000000 0.000000 0.038339 0.000000 0.000000
# 5 0.000000 0.000000 0.000000 0.000000 0.083468 0.000000
# 6 0.000000 0.000000 0.000000 0.000000 0.000000 0.036433
#
#
# Mechanical properties :
#
#
# Convention : Reuss Voigt Hill
#
# Bulk Modulus (GPa) = 45.95306 53.85767 49.90536
# Shear Modulus (GPa) = 22.11463 26.20553 24.16008
#
# Velocity S-wave (km/s) = 3.41945 3.72231 3.57409
# Velocity P-wave (km/s) = 6.31561 6.85203 6.58928
#
# Compressibility (1/GPa) = 0.02176134
#
# Stress axis : x y z
#
# Youngs Moduli (GPa) = 59.89306 90.22547 74.61747
#
# Poissons Ratio (x) = 0.08686 0.20612
# Poissons Ratio (y) = 0.05766 0.44658
# Poissons Ratio (z) = 0.16545 0.54000
#
# Static dielectric constant tensor:
#      x y z
#    x 3.250140 0.000000 0.000000 
#    y 0.000000 3.622810 0.000000 
#    z 0.000000 0.000000 3.693960 
# 
# 
# High freq. dielectric constant tensor:
#      x y z
#    x 1.726510 0.000000 0.000000 
#    y 0.000000 1.737730 0.000000 
#    z 0.000000 0.000000 1.709750 
# 
# From -- ./inp_files/12492.got.cif
#   From: 2010.03.12/outbox.cif.g09.slc.cpg/sg36_7_cif.got.tgz:12492.got - 2010.04.14 02:13:53.
