data_PCOD8174604
_publ_section_title
;
Structure prediction by ZEFSAII (Michael W. Deem and Ramdas Pophale) SiO2 
 PCOD8174604
Probable space group: C M C 21
;
_chemical_formula_sum "Si O2"
_cell_formula_units_Z 64
_cell_length_a 9.041600
_cell_length_b 20.093983
_cell_length_c 19.612224
_cell_angle_alpha 90.000000
_cell_angle_beta 90.000000
_cell_angle_gamma 90.000000
_cell_volume 3563.183309
_symmetry_space_group_name_H-M "C M C 21"
_symmetry_group_IT_number 36
_symmetry_cell_setting 'orthorhombic'
loop_
_space_group_symop_operation_xyz
x,y,z
-x,-y,1/2+z
x,-y,1/2+z
-x,y,z
1/2+x,1/2+y,z
1/2-x,1/2-y,1/2+z
1/2+x,1/2-y,1/2+z
1/2-x,1/2+y,z
loop_
_atom_site_type_symbol
_atom_site_label
_atom_site_fract_x
_atom_site_fract_y
_atom_site_fract_z
Si Si1 0.674338 0.929903 0.600060
Si Si2 0.172506 0.207651 0.320083
Si Si3 0.324518 0.185989 0.006273
Si Si4 0.826149 0.029145 0.501708
Si Si5 0.674442 0.907732 0.754360
Si Si6 0.173664 0.014167 0.850284
Si Si7 0.824361 0.173872 0.471436
Si Si8 0.327549 0.853490 0.356823
O O1 0.500000 0.934562 0.589403
O O2 0.735620 0.861297 0.566331
O O3 0.719022 0.931028 0.678781
O O4 0.746510 0.992785 0.563618
O O5 0.267067 0.167658 0.264145
O O6 0.228325 0.182370 0.393688
O O7 0.202247 0.286794 0.312715
O O8 0.000000 0.191909 0.309651
O O9 0.500000 0.187769 0.005500
O O10 0.266979 0.262327 0.015342
O O11 0.270195 0.157861 0.933744
O O12 0.764210 0.104958 0.502298
O O13 0.000000 0.026897 0.514994
O O14 0.786310 0.995445 0.429669
O O15 0.500000 0.909435 0.765220
O O16 0.751705 0.955796 0.807884
O O17 0.236075 0.085266 0.825129
O O18 0.000000 0.010767 0.837135
O O19 0.000000 0.171927 0.470593
O O20 0.500000 0.872123 0.355577
#
# Coordination Sequence:
#
# PCOD8174604 Si02
#       8
#     8   8   8   8   8   8   8   8
#     4  10  21  36  53  76 107 142 180 220 267 326
#     4   9  17  33  55  79 107 139 175 219 269 324
#     4   8  14  28  52  76  99 131 169 211 259 316
#     4  10  19  32  53  80 107 136 176 224 269 319
#     4  11  23  36  52  76 110 150 187 224 269 325
#     4  11  21  34  54  80 111 143 182 230 271 319
#     4   8  14  28  51  78 103 128 168 215 260 313
#     4   9  17  31  56  83 106 137 175 217 274 326
#
# _framework density 17.961466999999999
#
# number of rings (size 3 to 8) (size 9 to 14) (size 15 to 20)
#    0.000    2.500    2.500    2.250    0.000    2.000 
#    0.000    1.250    0.000    2.250    0.000    0.000 
#    0.000    0.000    0.000    0.000    0.000    0.000 
#
# Total GULP energy -396684.468213 kJ/mol
# GULP energy per Si atom -12396.389632 kJ/mol
# Density = 1.792059 g / cm^3
# Si number density = 17.961467 Si / 1000 Ang^3
#
#
#
# Elastic Constant Matrix: (Units=GPa)
#
#
# Indices 1 2 3 4 5 6 
#
# 1 45.2668 29.8050 26.4037 0.0000 0.0000 0.0000
# 2 29.8050 117.3933 17.2643 0.0000 0.0000 0.0000
# 3 26.4037 17.2643 46.3697 0.0000 0.0000 0.0000
# 4 0.0000 0.0000 0.0000 23.5846 0.0000 0.0000
# 5 0.0000 0.0000 0.0000 0.0000 20.3770 0.0000
# 6 0.0000 0.0000 0.0000 0.0000 0.0000 29.9566
#
#
#
# Elastic Compliance Matrix: (Units=1/GPa)
#
#
# Indices 1 2 3 4 5 6 
#
# 1 0.037542 -0.006758 -0.018861 0.000000 0.000000 0.000000
# 2 -0.006758 0.010228 0.000040 0.000000 0.000000 0.000000
# 3 -0.018861 0.000040 0.032291 0.000000 0.000000 0.000000
# 4 0.000000 0.000000 0.000000 0.042401 0.000000 0.000000
# 5 0.000000 0.000000 0.000000 0.000000 0.049075 0.000000
# 6 0.000000 0.000000 0.000000 0.000000 0.000000 0.033382
#
#
# Mechanical properties :
#
#
# Convention : Reuss Voigt Hill
#
# Bulk Modulus (GPa) = 34.59833 39.55287 37.07560
# Shear Modulus (GPa) = 18.81742 23.82076 21.31909
#
# Velocity S-wave (km/s) = 3.24026 3.64567 3.44893
# Velocity P-wave (km/s) = 5.77091 6.30793 6.04539
#
# Compressibility (1/GPa) = 0.02890313
#
# Stress axis : x y z
#
# Youngs Moduli (GPa) = 26.63655 97.76833 30.96856
#
# Poissons Ratio (x) = 0.66070 0.58410
# Poissons Ratio (y) = 0.18001 -0.00123
# Poissons Ratio (z) = 0.50240 -0.00390
#
# Static dielectric constant tensor:
#      x y z
#    x 3.017150 0.000000 0.000000 
#    y 0.000000 3.746070 0.000000 
#    z 0.000000 0.000000 3.132410 
# 
# 
# High freq. dielectric constant tensor:
#      x y z
#    x 1.669030 0.000000 0.000000 
#    y 0.000000 1.715460 0.000000 
#    z 0.000000 0.000000 1.664980 
# 
# From -- ./inp_files/15810.got.cif
#   From: 2010.03.12/outbox.cif.g09.slc.cpg/sg36_8_cif.got.tgz:15810.got - 2010.04.14 02:13:53.
