data_PCOD8174266
_publ_section_title
;
Structure prediction by ZEFSAII (Michael W. Deem and Ramdas Pophale) SiO2 
 PCOD8174266
Probable space group: C M C 21
;
_chemical_formula_sum "Si O2"
_cell_formula_units_Z 64
_cell_length_a 9.269957
_cell_length_b 20.677233
_cell_length_c 19.271534
_cell_angle_alpha 90.000000
_cell_angle_beta 90.000000
_cell_angle_gamma 90.000000
_cell_volume 3693.910994
_symmetry_space_group_name_H-M "C M C 21"
_symmetry_group_IT_number 36
_symmetry_cell_setting 'orthorhombic'
loop_
_space_group_symop_operation_xyz
x,y,z
-x,-y,1/2+z
x,-y,1/2+z
-x,y,z
1/2+x,1/2+y,z
1/2-x,1/2-y,1/2+z
1/2+x,1/2-y,1/2+z
1/2-x,1/2+y,z
loop_
_atom_site_type_symbol
_atom_site_label
_atom_site_fract_x
_atom_site_fract_y
_atom_site_fract_z
Si Si1 0.829225 0.255989 0.690540
Si Si2 0.668330 0.193417 0.899233
Si Si3 0.330004 0.063799 0.822597
Si Si4 0.168932 0.253966 0.541121
Si Si5 0.329516 0.939031 0.908119
Si Si6 0.170452 0.310779 0.830535
Si Si7 0.331613 0.390239 0.194519
Si Si8 0.168713 0.890850 0.035542
O O1 0.766722 0.278116 0.615270
O O2 0.779036 0.306157 0.749841
O O3 0.775749 0.183106 0.707033
O O4 0.000000 0.253824 0.687521
O O5 0.500000 0.206175 0.885445
O O6 0.718993 0.126005 0.867091
O O7 0.758110 0.251645 0.869135
O O8 0.702912 0.193394 0.981915
O O9 0.500000 0.062314 0.809938
O O10 0.254262 0.063556 0.747460
O O11 0.278569 0.002090 0.866402
O O12 0.227874 0.182224 0.522587
O O13 0.000000 0.243825 0.551402
O O14 0.500000 0.939051 0.919942
O O15 0.276877 0.878221 0.862167
O O16 0.254469 0.937932 0.983436
O O17 0.000000 0.303067 0.837709
O O18 0.500000 0.396520 0.211187
O O19 0.299657 0.411481 0.115168
O O20 0.000000 0.896807 0.018684
#
# Coordination Sequence:
#
# PCOD8174266 Si02
#       8
#     8   8   8   8   8   8   8   8
#     4   8  14  26  46  71  94 117 156 207 247 281
#     4  10  18  30  50  72  96 126 163 204 244 288
#     4  10  21  34  47  72 108 138 164 198 246 303
#     4   8  14  26  46  71  94 117 156 207 247 281
#     4  10  21  34  47  72 108 138 164 198 246 303
#     4  10  18  30  50  72  96 126 163 204 244 288
#     4   9  17  31  52  75  96 124 167 211 248 292
#     4   9  17  31  52  75  96 124 167 211 248 292
#
# _framework density 17.325810000000001
#
# number of rings (size 3 to 8) (size 9 to 14) (size 15 to 20)
#    0.000    2.750    2.500    1.500    0.000    1.000 
#    0.000    1.250    0.000    5.250    0.000    0.000 
#    0.000    0.000    0.000    0.000    0.000    0.000 
#
# Total GULP energy -396598.863161 kJ/mol
# GULP energy per Si atom -12393.714474 kJ/mol
# Density = 1.728638 g / cm^3
# Si number density = 17.325810 Si / 1000 Ang^3
#
#
#
# Elastic Constant Matrix: (Units=GPa)
#
#
# Indices 1 2 3 4 5 6 
#
# 1 25.6834 25.5135 35.2623 0.0000 0.0000 0.0000
# 2 25.5135 93.2432 59.4162 0.0000 0.0000 0.0000
# 3 35.2623 59.4162 142.0801 0.0000 0.0000 0.0000
# 4 0.0000 0.0000 0.0000 28.6708 0.0000 0.0000
# 5 0.0000 0.0000 0.0000 0.0000 27.4150 0.0000
# 6 0.0000 0.0000 0.0000 0.0000 0.0000 18.0665
#
#
#
# Elastic Compliance Matrix: (Units=1/GPa)
#
#
# Indices 1 2 3 4 5 6 
#
# 1 0.065631 -0.010332 -0.011968 0.000000 0.000000 0.000000
# 2 -0.010332 0.016247 -0.004230 0.000000 0.000000 0.000000
# 3 -0.011968 -0.004230 0.011778 0.000000 0.000000 0.000000
# 4 0.000000 0.000000 0.000000 0.034879 0.000000 0.000000
# 5 0.000000 0.000000 0.000000 0.000000 0.036476 0.000000
# 6 0.000000 0.000000 0.000000 0.000000 0.000000 0.055351
#
#
# Mechanical properties :
#
#
# Convention : Reuss Voigt Hill
#
# Bulk Modulus (GPa) = 24.63329 55.71007 40.17168
# Shear Modulus (GPa) = 17.42442 24.21808 20.82125
#
# Velocity S-wave (km/s) = 3.17470 3.74278 3.47038
# Velocity P-wave (km/s) = 5.26183 7.13457 6.26853
#
# Compressibility (1/GPa) = 0.04059548
#
# Stress axis : x y z
#
# Youngs Moduli (GPa) = 15.23679 61.54898 84.90711
#
# Poissons Ratio (x) = 0.63591 1.01616
# Poissons Ratio (y) = 0.15742 0.35917
# Poissons Ratio (z) = 0.18235 0.26036
#
# Static dielectric constant tensor:
#      x y z
#    x 2.904380 0.000000 0.000000 
#    y 0.000000 3.125680 0.000000 
#    z 0.000000 0.000000 4.466270 
# 
# 
# High freq. dielectric constant tensor:
#      x y z
#    x 1.638390 0.000000 0.000000 
#    y 0.000000 1.640270 0.000000 
#    z 0.000000 0.000000 1.689140 
# 
# From -- ./inp_files/15612.got.cif
#   From: 2010.03.12/outbox.cif.g09.slc.cpg/sg36_8_cif.got.tgz:15612.got - 2010.04.14 02:13:53.
