data_PCOD8174857
_publ_section_title
;
Structure prediction by ZEFSAII (Michael W. Deem and Ramdas Pophale) SiO2 
 PCOD8174857
Probable space group: C M C 21
;
_chemical_formula_sum "Si O2"
_cell_formula_units_Z 64
_cell_length_a 8.988515
_cell_length_b 20.591524
_cell_length_c 18.922039
_cell_angle_alpha 90.000000
_cell_angle_beta 90.000000
_cell_angle_gamma 90.000000
_cell_volume 3502.227640
_symmetry_space_group_name_H-M "C M C 21"
_symmetry_group_IT_number 36
_symmetry_cell_setting 'orthorhombic'
loop_
_space_group_symop_operation_xyz
x,y,z
-x,-y,1/2+z
x,-y,1/2+z
-x,y,z
1/2+x,1/2+y,z
1/2-x,1/2-y,1/2+z
1/2+x,1/2-y,1/2+z
1/2-x,1/2+y,z
loop_
_atom_site_type_symbol
_atom_site_label
_atom_site_fract_x
_atom_site_fract_y
_atom_site_fract_z
Si Si1 0.324939 0.440654 0.288360
Si Si2 0.330543 0.993657 0.003902
Si Si3 0.327116 0.634103 0.152511
Si Si4 0.671891 0.998808 0.164077
Si Si5 0.672418 0.692761 0.301234
Si Si6 0.675142 0.687687 0.872155
Si Si7 0.175157 0.062983 0.378085
Si Si8 0.676541 0.857926 0.508795
O O1 0.500000 0.443483 0.273869
O O2 0.238188 0.442754 0.214074
O O3 0.277823 0.376009 0.329035
O O4 0.266771 0.501947 0.333139
O O5 0.500000 0.988414 0.979430
O O6 0.236476 0.943563 0.957349
O O7 0.274868 0.067781 0.994020
O O8 0.309438 0.972470 0.084757
O O9 0.500000 0.624447 0.134520
O O10 0.261974 0.564991 0.176032
O O11 0.305342 0.683676 0.217392
O O12 0.243361 0.663552 0.084416
O O13 0.500000 0.012838 0.181159
O O14 0.500000 0.706652 0.318927
O O15 0.773804 0.751562 0.326285
O O16 0.730641 0.629243 0.342641
O O17 0.500000 0.690603 0.885644
O O18 0.757108 0.687762 0.947836
O O19 0.000000 0.061568 0.381663
O O20 0.500000 0.850204 0.512541
#
# Coordination Sequence:
#
# PCOD8174857 Si02
#       8
#     8   8   8   8   8   8   8   8
#     4  10  20  36  56  82 111 141 185 231 277 332
#     4   9  19  33  51  82 115 143 180 228 279 329
#     4  10  19  35  58  82 112 150 189 231 280 334
#     4  10  20  33  53  84 116 146 185 233 284 332
#     4  10  22  39  57  81 114 150 186 229 282 334
#     4  11  23  38  58  84 114 150 191 233 280 337
#     4  10  19  35  57  81 109 142 182 228 277 330
#     4  10  20  35  56  84 115 146 186 233 281 336
#
# _framework density 18.274083000000001
#
# number of rings (size 3 to 8) (size 9 to 14) (size 15 to 20)
#    0.000    2.000    2.500    2.250    0.000    5.500 
#    0.000    1.250    0.000    3.000    0.000    0.000 
#    0.000    0.000    0.000    0.000    0.000    0.000 
#
# Total GULP energy -396895.405937 kJ/mol
# GULP energy per Si atom -12402.981436 kJ/mol
# Density = 1.823249 g / cm^3
# Si number density = 18.274083 Si / 1000 Ang^3
#
#
#
# Elastic Constant Matrix: (Units=GPa)
#
#
# Indices 1 2 3 4 5 6 
#
# 1 75.0323 42.3748 53.6985 0.0000 0.0000 0.0000
# 2 42.3748 92.7947 53.0726 0.0000 0.0000 0.0000
# 3 53.6985 53.0726 122.5697 0.0000 0.0000 0.0000
# 4 0.0000 0.0000 0.0000 26.7306 0.0000 0.0000
# 5 0.0000 0.0000 0.0000 0.0000 36.5129 0.0000
# 6 0.0000 0.0000 0.0000 0.0000 0.0000 29.1009
#
#
#
# Elastic Compliance Matrix: (Units=1/GPa)
#
#
# Indices 1 2 3 4 5 6 
#
# 1 0.021613 -0.005920 -0.006905 0.000000 0.000000 0.000000
# 2 -0.005920 0.015945 -0.004311 0.000000 0.000000 0.000000
# 3 -0.006905 -0.004311 0.013050 0.000000 0.000000 0.000000
# 4 0.000000 0.000000 0.000000 0.037410 0.000000 0.000000
# 5 0.000000 0.000000 0.000000 0.000000 0.027388 0.000000
# 6 0.000000 0.000000 0.000000 0.000000 0.000000 0.034363
#
#
# Mechanical properties :
#
#
# Convention : Reuss Voigt Hill
#
# Bulk Modulus (GPa) = 61.21304 65.40982 63.31143
# Shear Modulus (GPa) = 26.38695 27.88561 27.13628
#
# Velocity S-wave (km/s) = 3.80406 3.91060 3.85770
# Velocity P-wave (km/s) = 7.27079 7.50079 7.38669
#
# Compressibility (1/GPa) = 0.01633639
#
# Stress axis : x y z
#
# Youngs Moduli (GPa) = 46.26847 62.71419 76.62602
#
# Poissons Ratio (x) = 0.37128 0.52913
# Poissons Ratio (y) = 0.27392 0.33031
# Poissons Ratio (z) = 0.31950 0.27034
#
# Static dielectric constant tensor:
#      x y z
#    x 3.323530 0.000000 0.000000 
#    y 0.000000 3.146510 0.000000 
#    z 0.000000 0.000000 3.486410 
# 
# 
# High freq. dielectric constant tensor:
#      x y z
#    x 1.713410 0.000000 0.000000 
#    y 0.000000 1.677410 0.000000 
#    z 0.000000 0.000000 1.721170 
# 
# From -- ./inp_files/13886.got.cif
#   From: 2010.03.12/outbox.cif.g09.slc.cpg/sg36_7_cif.got.tgz:13886.got - 2010.04.14 02:13:53.
