data_PCOD8174961
_publ_section_title
;
Structure prediction by ZEFSAII (Michael W. Deem and Ramdas Pophale) SiO2 
 PCOD8174961
Probable space group: C M C 21
;
_chemical_formula_sum "Si O2"
_cell_formula_units_Z 64
_cell_length_a 9.013753
_cell_length_b 32.125459
_cell_length_c 10.852160
_cell_angle_alpha 90.000000
_cell_angle_beta 90.000000
_cell_angle_gamma 90.000000
_cell_volume 3142.470307
_symmetry_space_group_name_H-M "C M C 21"
_symmetry_group_IT_number 36
_symmetry_cell_setting 'orthorhombic'
loop_
_space_group_symop_operation_xyz
x,y,z
-x,-y,1/2+z
x,-y,1/2+z
-x,y,z
1/2+x,1/2+y,z
1/2-x,1/2-y,1/2+z
1/2+x,1/2-y,1/2+z
1/2-x,1/2+y,z
loop_
_atom_site_type_symbol
_atom_site_label
_atom_site_fract_x
_atom_site_fract_y
_atom_site_fract_z
Si Si1 0.335388 0.071801 0.366500
Si Si2 0.325142 0.865714 0.069973
Si Si3 0.832799 0.082719 0.018289
Si Si4 0.166170 0.643855 0.166965
Si Si5 0.832050 0.077709 0.733114
Si Si6 0.675472 0.279382 0.019269
Si Si7 0.675094 0.273383 0.737955
Si Si8 0.325675 0.487094 0.702360
O O1 0.500000 0.054212 0.386855
O O2 0.276736 0.094482 0.488589
O O3 0.336447 0.107464 0.264701
O O4 0.233652 0.032939 0.329816
O O5 0.500000 0.856168 0.067575
O O6 0.269059 0.881839 0.202651
O O7 0.239248 0.825657 0.022799
O O8 0.734880 0.123987 0.043061
O O9 0.772322 0.042008 0.090155
O O10 0.000000 0.092365 0.063447
O O11 0.826858 0.071307 0.877690
O O12 0.269879 0.680031 0.218069
O O13 0.000000 0.660996 0.140428
O O14 0.000000 0.086346 0.687796
O O15 0.766624 0.034054 0.679484
O O16 0.500000 0.280406 0.039698
O O17 0.746970 0.254840 0.134025
O O18 0.711745 0.260530 0.881633
O O19 0.500000 0.270603 0.715746
O O20 0.500000 0.489995 0.717890
#
# Coordination Sequence:
#
# PCOD8174961 Si02
#       8
#     8   8   8   8   8   8   8   8
#     4   9  19  35  57  84 114 148 190 240 292 348
#     4  11  23  40  61  87 121 160 199 249 306 364
#     4   9  19  36  54  81 118 153 197 251 304 360
#     4  10  19  36  62  87 114 151 194 241 295 357
#     4  10  22  37  56  84 119 158 202 254 308 363
#     4  11  25  44  68  97 128 165 211 259 315 381
#     4  11  24  42  67  98 128 163 206 257 315 378
#     4   9  19  34  57  84 112 152 199 249 299 353
#
# _framework density 20.366143000000001
#
# number of rings (size 3 to 8) (size 9 to 14) (size 15 to 20)
#    0.000    2.000    1.250    1.500    1.750    5.000 
#    0.000    0.000    0.000    0.000    0.000    0.000 
#    0.000    0.000    0.000    0.000    0.000    0.000 
#
# Total GULP energy -396608.111231 kJ/mol
# GULP energy per Si atom -12394.003476 kJ/mol
# Density = 2.031979 g / cm^3
# Si number density = 20.366143 Si / 1000 Ang^3
#
#
#
# Elastic Constant Matrix: (Units=GPa)
#
#
# Indices 1 2 3 4 5 6 
#
# 1 90.4475 47.0110 48.0517 0.0000 0.0000 0.0000
# 2 47.0110 76.6835 44.2096 0.0000 0.0000 0.0000
# 3 48.0517 44.2096 94.2559 0.0000 0.0000 0.0000
# 4 0.0000 0.0000 0.0000 24.8694 0.0000 0.0000
# 5 0.0000 0.0000 0.0000 0.0000 30.7571 0.0000
# 6 0.0000 0.0000 0.0000 0.0000 0.0000 32.2991
#
#
#
# Elastic Compliance Matrix: (Units=1/GPa)
#
#
# Indices 1 2 3 4 5 6 
#
# 1 0.018101 -0.007918 -0.005514 0.000000 0.000000 0.000000
# 2 -0.007918 0.021337 -0.005971 0.000000 0.000000 0.000000
# 3 -0.005514 -0.005971 0.016221 0.000000 0.000000 0.000000
# 4 0.000000 0.000000 0.000000 0.040210 0.000000 0.000000
# 5 0.000000 0.000000 0.000000 0.000000 0.032513 0.000000
# 6 0.000000 0.000000 0.000000 0.000000 0.000000 0.030961
#
#
# Mechanical properties :
#
#
# Convention : Reuss Voigt Hill
#
# Bulk Modulus (GPa) = 59.33741 59.99239 59.66490
# Shear Modulus (GPa) = 24.53774 25.72609 25.13191
#
# Velocity S-wave (km/s) = 3.47483 3.55798 3.51665
# Velocity P-wave (km/s) = 6.73037 6.81174 6.77118
#
# Compressibility (1/GPa) = 0.01685277
#
# Stress axis : x y z
#
# Youngs Moduli (GPa) = 55.24562 46.86619 61.64712
#
# Poissons Ratio (x) = 0.37108 0.33993
# Poissons Ratio (y) = 0.43743 0.36813
# Poissons Ratio (z) = 0.30463 0.27986
#
# Static dielectric constant tensor:
#      x y z
#    x 3.851090 0.000000 0.000000 
#    y 0.000000 3.674630 0.000000 
#    z 0.000000 0.000000 3.833300 
# 
# 
# High freq. dielectric constant tensor:
#      x y z
#    x 1.794330 0.000000 0.000000 
#    y 0.000000 1.791880 0.000000 
#    z 0.000000 0.000000 1.798020 
# 
# From -- ./inp_files/7201.got.cif
#   From: 2010.03.12/outbox.cif.g09.slc.cpg/sg36_4_cif.got.tgz:7201.got - 2010.04.14 02:13:53.
