data_PCOD8174674
_publ_section_title
;
Structure prediction by ZEFSAII (Michael W. Deem and Ramdas Pophale) SiO2 
 PCOD8174674
Probable space group: C M C 21
;
_chemical_formula_sum "Si O2"
_cell_formula_units_Z 48
_cell_length_a 9.113391
_cell_length_b 15.241355
_cell_length_c 18.903978
_cell_angle_alpha 90.000000
_cell_angle_beta 90.000000
_cell_angle_gamma 90.000000
_cell_volume 2625.770625
_symmetry_space_group_name_H-M "C M C 21"
_symmetry_group_IT_number 36
_symmetry_cell_setting 'orthorhombic'
loop_
_space_group_symop_operation_xyz
x,y,z
-x,-y,1/2+z
x,-y,1/2+z
-x,y,z
1/2+x,1/2+y,z
1/2-x,1/2-y,1/2+z
1/2+x,1/2-y,1/2+z
1/2-x,1/2+y,z
loop_
_atom_site_type_symbol
_atom_site_label
_atom_site_fract_x
_atom_site_fract_y
_atom_site_fract_z
Si Si1 0.829283 0.897500 0.129060
Si Si2 0.167657 0.903463 0.614594
Si Si3 0.327467 0.408024 0.776803
Si Si4 0.173881 0.747125 0.869669
Si Si5 0.326015 0.087122 0.774136
Si Si6 0.673438 0.241421 0.028260
O O1 0.734300 0.881339 0.198737
O O2 0.776418 0.827522 0.071024
O O3 0.000000 0.886152 0.149183
O O4 0.801546 0.994417 0.097910
O O5 0.207359 0.882685 0.695885
O O6 0.268907 0.846695 0.564006
O O7 0.000000 0.878734 0.598838
O O8 0.500000 0.425821 0.786334
O O9 0.266218 0.330696 0.826313
O O10 0.242062 0.495427 0.798873
O O11 0.224626 0.658004 0.832001
O O12 0.000000 0.752996 0.870337
O O13 0.237962 0.749071 0.949039
O O14 0.500000 0.078686 0.768756
O O15 0.500000 0.234205 0.025833
#
# Coordination Sequence:
#
# PCOD8174674 Si02
#       6
#     8   8   8   8   8   8
#     4   9  19  35  53  73  99 132 168 203 243 296
#     4   9  18  33  52  75 100 127 163 207 251 290
#     4   9  18  35  56  74  97 132 170 204 243 296
#     4   9  19  34  51  73 103 136 164 198 250 300
#     4  10  19  33  54  77 100 127 164 210 252 289
#     4  10  20  34  52  74 101 134 169 202 241 295
#
# _framework density 18.280348
#
# number of rings (size 3 to 8) (size 9 to 14) (size 15 to 20)
#    0.000    2.667    0.000    2.500    0.000    6.000 
#    0.000    5.833    0.000    0.000    0.000    0.000 
#    0.000    0.000    0.000    0.000    0.000    0.000 
#
# Total GULP energy -297628.380826 kJ/mol
# GULP energy per Si atom -12401.182534 kJ/mol
# Density = 1.823874 g / cm^3
# Si number density = 18.280348 Si / 1000 Ang^3
#
#
#
# Elastic Constant Matrix: (Units=GPa)
#
#
# Indices 1 2 3 4 5 6 
#
# 1 37.5868 38.0043 33.3516 0.0000 0.0000 0.0000
# 2 38.0043 139.0541 91.7700 0.0000 0.0000 0.0000
# 3 33.3516 91.7700 130.4682 0.0000 0.0000 0.0000
# 4 0.0000 0.0000 0.0000 17.6868 0.0000 0.0000
# 5 0.0000 0.0000 0.0000 0.0000 22.5797 0.0000
# 6 0.0000 0.0000 0.0000 0.0000 0.0000 26.3604
#
#
#
# Elastic Compliance Matrix: (Units=1/GPa)
#
#
# Indices 1 2 3 4 5 6 
#
# 1 0.038137 -0.007445 -0.004512 0.000000 0.000000 0.000000
# 2 -0.007445 0.014876 -0.008560 0.000000 0.000000 0.000000
# 3 -0.004512 -0.008560 0.014839 0.000000 0.000000 0.000000
# 4 0.000000 0.000000 0.000000 0.056539 0.000000 0.000000
# 5 0.000000 0.000000 0.000000 0.000000 0.044288 0.000000
# 6 0.000000 0.000000 0.000000 0.000000 0.000000 0.037936
#
#
# Mechanical properties :
#
#
# Convention : Reuss Voigt Hill
#
# Bulk Modulus (GPa) = 37.29011 70.37342 53.83177
# Shear Modulus (GPa) = 19.48652 22.92426 21.20539
#
# Velocity S-wave (km/s) = 3.26848 3.54508 3.40959
# Velocity P-wave (km/s) = 5.88959 7.43889 6.70911
#
# Compressibility (1/GPa) = 0.02681676
#
# Stress axis : x y z
#
# Youngs Moduli (GPa) = 26.22153 67.22423 67.38917
#
# Poissons Ratio (x) = 0.50050 0.30406
# Poissons Ratio (y) = 0.19523 0.57686
# Poissons Ratio (z) = 0.11831 0.57545
#
# Static dielectric constant tensor:
#      x y z
#    x 3.130880 0.000000 0.000000 
#    y 0.000000 3.492700 0.000000 
#    z 0.000000 0.000000 3.506520 
# 
# 
# High freq. dielectric constant tensor:
#      x y z
#    x 1.687430 0.000000 0.000000 
#    y 0.000000 1.721580 0.000000 
#    z 0.000000 0.000000 1.705650 
# 
# From -- ./inp_files/10397.got.cif
#   From: 2010.03.12/outbox.cif.g09.slc.cpg/sg36_6_cif.got.tgz:10397.got - 2010.04.14 02:13:53.
