data_PCOD8174799
_publ_section_title
;
Structure prediction by ZEFSAII (Michael W. Deem and Ramdas Pophale) SiO2 
 PCOD8174799
Probable space group: C M C 21
;
_chemical_formula_sum "Si O2"
_cell_formula_units_Z 48
_cell_length_a 8.958432
_cell_length_b 20.132016
_cell_length_c 14.008849
_cell_angle_alpha 90.000000
_cell_angle_beta 90.000000
_cell_angle_gamma 90.000000
_cell_volume 2526.514078
_symmetry_space_group_name_H-M "C M C 21"
_symmetry_group_IT_number 36
_symmetry_cell_setting 'orthorhombic'
loop_
_space_group_symop_operation_xyz
x,y,z
-x,-y,1/2+z
x,-y,1/2+z
-x,y,z
1/2+x,1/2+y,z
1/2-x,1/2-y,1/2+z
1/2+x,1/2-y,1/2+z
1/2-x,1/2+y,z
loop_
_atom_site_type_symbol
_atom_site_label
_atom_site_fract_x
_atom_site_fract_y
_atom_site_fract_z
Si Si1 0.677260 0.945026 0.125000
Si Si2 0.826667 0.384690 0.321764
Si Si3 0.329440 0.182015 0.521879
Si Si4 0.677521 0.757292 0.829143
Si Si5 0.170648 0.806312 0.650513
Si Si6 0.825791 0.419028 0.534192
O O1 0.500000 0.943548 0.116615
O O2 0.724807 0.933115 0.235297
O O3 0.745512 0.886638 0.057833
O O4 0.737789 0.015055 0.085826
O O5 0.735776 0.316929 0.316607
O O6 0.796757 0.423581 0.420613
O O7 0.000000 0.365629 0.310580
O O8 0.500000 0.167947 0.495571
O O9 0.254223 0.211882 0.426762
O O10 0.315847 0.232894 0.608578
O O11 0.500000 0.754343 0.829550
O O12 0.733520 0.806987 0.746941
O O13 0.235274 0.857256 0.574231
O O14 0.000000 0.825038 0.672726
O O15 0.000000 0.408734 0.556429
#
# Coordination Sequence:
#
# PCOD8174799 Si02
#       6
#     8   8   8   8   8   8
#     4   9  18  35  57  82 113 150 190 232 281 338
#     4  10  19  34  57  83 113 152 191 233 289 342
#     4   9  18  33  56  82 108 144 186 229 278 330
#     4  11  21  34  57  88 114 146 192 238 280 334
#     4  11  21  37  58  82 114 150 185 230 287 338
#     4  10  21  35  57  87 114 146 192 240 281 336
#
# _framework density 18.998508000000001
#
# number of rings (size 3 to 8) (size 9 to 14) (size 15 to 20)
#    0.000    2.000    3.333    1.000    0.000    1.333 
#    0.000    5.833    0.000    2.000    0.000    0.000 
#    0.000    0.000    0.000    0.000    0.000    0.000 
#
# Total GULP energy -297566.321047 kJ/mol
# GULP energy per Si atom -12398.596710 kJ/mol
# Density = 1.895527 g / cm^3
# Si number density = 18.998508 Si / 1000 Ang^3
#
#
#
# Elastic Constant Matrix: (Units=GPa)
#
#
# Indices 1 2 3 4 5 6 
#
# 1 50.8600 25.2950 32.3315 0.0000 0.0000 0.0000
# 2 25.2950 88.8977 32.3221 0.0000 0.0000 0.0000
# 3 32.3315 32.3221 129.4755 0.0000 0.0000 0.0000
# 4 0.0000 0.0000 0.0000 37.0034 0.0000 0.0000
# 5 0.0000 0.0000 0.0000 0.0000 21.5136 0.0000
# 6 0.0000 0.0000 0.0000 0.0000 0.0000 23.0935
#
#
#
# Elastic Compliance Matrix: (Units=1/GPa)
#
#
# Indices 1 2 3 4 5 6 
#
# 1 0.025565 -0.005448 -0.005024 0.000000 0.000000 0.000000
# 2 -0.005448 0.013533 -0.002018 0.000000 0.000000 0.000000
# 3 -0.005024 -0.002018 0.009482 0.000000 0.000000 0.000000
# 4 0.000000 0.000000 0.000000 0.027025 0.000000 0.000000
# 5 0.000000 0.000000 0.000000 0.000000 0.046482 0.000000
# 6 0.000000 0.000000 0.000000 0.000000 0.000000 0.043302
#
#
# Mechanical properties :
#
#
# Convention : Reuss Voigt Hill
#
# Bulk Modulus (GPa) = 42.37227 49.90335 46.13781
# Shear Modulus (GPa) = 25.22272 28.27439 26.74856
#
# Velocity S-wave (km/s) = 3.64760 3.86196 3.75631
# Velocity P-wave (km/s) = 6.33177 6.79782 6.56893
#
# Compressibility (1/GPa) = 0.02360034
#
# Stress axis : x y z
#
# Youngs Moduli (GPa) = 39.11627 73.89531 105.46581
#
# Poissons Ratio (x) = 0.40255 0.52985
# Poissons Ratio (y) = 0.21309 0.21282
# Poissons Ratio (z) = 0.19652 0.14912
#
# Static dielectric constant tensor:
#      x y z
#    x 3.177270 0.000000 0.000000 
#    y 0.000000 3.529590 0.000000 
#    z 0.000000 0.000000 3.783050 
# 
# 
# High freq. dielectric constant tensor:
#      x y z
#    x 1.702120 0.000000 0.000000 
#    y 0.000000 1.733370 0.000000 
#    z 0.000000 0.000000 1.757770 
# 
# From -- ./inp_files/10336.got.cif
#   From: 2010.03.12/outbox.cif.g09.slc.cpg/sg36_6_cif.got.tgz:10336.got - 2010.04.14 02:13:53.
