data_PCOD8174691
_publ_section_title
;
Structure prediction by ZEFSAII (Michael W. Deem and Ramdas Pophale) SiO2 
 PCOD8174691
Probable space group: C M C 21
;
_chemical_formula_sum "Si O2"
_cell_formula_units_Z 64
_cell_length_a 8.752320
_cell_length_b 20.533810
_cell_length_c 19.474157
_cell_angle_alpha 90.000000
_cell_angle_beta 90.000000
_cell_angle_gamma 90.000000
_cell_volume 3499.865816
_symmetry_space_group_name_H-M "C M C 21"
_symmetry_group_IT_number 36
_symmetry_cell_setting 'orthorhombic'
loop_
_space_group_symop_operation_xyz
x,y,z
-x,-y,1/2+z
x,-y,1/2+z
-x,y,z
1/2+x,1/2+y,z
1/2-x,1/2-y,1/2+z
1/2+x,1/2-y,1/2+z
1/2-x,1/2+y,z
loop_
_atom_site_type_symbol
_atom_site_label
_atom_site_fract_x
_atom_site_fract_y
_atom_site_fract_z
Si Si1 0.679050 0.701209 0.209360
Si Si2 0.319061 0.888043 0.067992
Si Si3 0.179247 0.756604 0.565185
Si Si4 0.819252 0.554849 0.708120
Si Si5 0.181005 0.758952 0.416941
Si Si6 0.180263 0.177153 0.780806
Si Si7 0.680312 0.110692 0.415141
Si Si8 0.179659 0.931952 0.780575
O O1 0.500000 0.715980 0.221738
O O2 0.715399 0.694466 0.127672
O O3 0.780065 0.760721 0.235006
O O4 0.732408 0.635650 0.246197
O O5 0.500000 0.885284 0.072698
O O6 0.251974 0.815339 0.079961
O O7 0.258230 0.933764 0.129861
O O8 0.271316 0.913393 0.991914
O O9 0.241889 0.783419 0.491778
O O10 0.000000 0.746976 0.555761
O O11 0.768804 0.613809 0.756497
O O12 0.749938 0.488463 0.735155
O O13 0.000000 0.549813 0.710366
O O14 0.241029 0.807252 0.357962
O O15 0.237687 0.684912 0.404331
O O16 0.000000 0.758218 0.413656
O O17 0.000000 0.163909 0.777912
O O18 0.500000 0.104744 0.404698
O O19 0.761820 0.065074 0.358975
O O20 0.000000 0.940205 0.780063
#
# Coordination Sequence:
#
# PCOD8174691 Si02
#       8
#     8   8   8   8   8   8   8   8
#     4  10  19  33  55  78 105 139 177 216 262 318
#     4   8  15  29  55  81 100 131 183 226 259 318
#     4   8  13  27  51  78 103 133 176 217 257 315
#     4  11  22  38  57  77 106 148 186 223 271 322
#     4   8  15  27  50  80 107 136 172 216 264 314
#     4  11  20  32  53  82 111 135 171 222 271 321
#     4   9  16  32  56  80 103 138 182 220 264 325
#     4  11  23  36  51  80 115 146 181 226 270 319
#
# _framework density 18.286415999999999
#
# number of rings (size 3 to 8) (size 9 to 14) (size 15 to 20)
#    0.000    2.500    2.500    2.625    0.000    0.500 
#    0.000    2.500    0.000    3.000    0.000    0.000 
#    0.000    0.000    0.000    0.000    0.000    0.000 
#
# Total GULP energy -396569.622223 kJ/mol
# GULP energy per Si atom -12392.800694 kJ/mol
# Density = 1.824479 g / cm^3
# Si number density = 18.286416 Si / 1000 Ang^3
#
#
#
# Elastic Constant Matrix: (Units=GPa)
#
#
# Indices 1 2 3 4 5 6 
#
# 1 38.1426 21.9980 25.3877 0.0000 0.0000 0.0000
# 2 21.9980 58.2096 36.3483 0.0000 0.0000 0.0000
# 3 25.3877 36.3483 150.9437 0.0000 0.0000 0.0000
# 4 0.0000 0.0000 0.0000 24.3452 0.0000 0.0000
# 5 0.0000 0.0000 0.0000 0.0000 20.6314 0.0000
# 6 0.0000 0.0000 0.0000 0.0000 0.0000 23.2943
#
#
#
# Elastic Compliance Matrix: (Units=1/GPa)
#
#
# Indices 1 2 3 4 5 6 
#
# 1 0.034757 -0.011163 -0.003158 0.000000 0.000000 0.000000
# 2 -0.011163 0.023805 -0.003855 0.000000 0.000000 0.000000
# 3 -0.003158 -0.003855 0.008084 0.000000 0.000000 0.000000
# 4 0.000000 0.000000 0.000000 0.041076 0.000000 0.000000
# 5 0.000000 0.000000 0.000000 0.000000 0.048470 0.000000
# 6 0.000000 0.000000 0.000000 0.000000 0.000000 0.042929
#
#
# Mechanical properties :
#
#
# Convention : Reuss Voigt Hill
#
# Bulk Modulus (GPa) = 33.00870 46.08489 39.54679
# Shear Modulus (GPa) = 20.36065 24.55832 22.45948
#
# Velocity S-wave (km/s) = 3.34043 3.66865 3.50838
# Velocity P-wave (km/s) = 5.74178 6.57280 6.17130
#
# Compressibility (1/GPa) = 0.03029505
#
# Stress axis : x y z
#
# Youngs Moduli (GPa) = 28.77083 42.00770 123.69543
#
# Poissons Ratio (x) = 0.46895 0.39060
# Poissons Ratio (y) = 0.32118 0.47683
# Poissons Ratio (z) = 0.09085 0.16193
#
# Static dielectric constant tensor:
#      x y z
#    x 3.032740 0.000000 0.000000 
#    y 0.000000 3.231680 0.000000 
#    z 0.000000 0.000000 4.100400 
# 
# 
# High freq. dielectric constant tensor:
#      x y z
#    x 1.676630 0.000000 0.000000 
#    y 0.000000 1.675880 0.000000 
#    z 0.000000 0.000000 1.734060 
# 
# From -- ./inp_files/15714.got.cif
#   From: 2010.03.12/outbox.cif.g09.slc.cpg/sg36_8_cif.got.tgz:15714.got - 2010.04.14 02:13:53.
