data_PCOD8174275
_publ_section_title
;
Structure prediction by ZEFSAII (Michael W. Deem and Ramdas Pophale) SiO2 
 PCOD8174275
Probable space group: C M C 21
;
_chemical_formula_sum "Si O2"
_cell_formula_units_Z 64
_cell_length_a 8.898403
_cell_length_b 25.020738
_cell_length_c 14.626893
_cell_angle_alpha 90.000000
_cell_angle_beta 90.000000
_cell_angle_gamma 90.000000
_cell_volume 3256.598889
_symmetry_space_group_name_H-M "C M C 21"
_symmetry_group_IT_number 36
_symmetry_cell_setting 'orthorhombic'
loop_
_space_group_symop_operation_xyz
x,y,z
-x,-y,1/2+z
x,-y,1/2+z
-x,y,z
1/2+x,1/2+y,z
1/2-x,1/2-y,1/2+z
1/2+x,1/2-y,1/2+z
1/2-x,1/2+y,z
loop_
_atom_site_type_symbol
_atom_site_label
_atom_site_fract_x
_atom_site_fract_y
_atom_site_fract_z
Si Si1 0.833667 0.769713 0.793550
Si Si2 0.165777 0.131308 0.172698
Si Si3 0.822210 0.164937 0.796486
Si Si4 0.821703 0.815896 0.501283
Si Si5 0.320157 0.454052 0.811028
Si Si6 0.322298 0.557393 0.705072
Si Si7 0.322454 0.802063 0.971652
Si Si8 0.177869 0.087378 0.506411
O O1 0.849730 0.809191 0.709830
O O2 0.759919 0.715944 0.752828
O O3 0.726923 0.798574 0.866496
O O4 0.000000 0.758063 0.834883
O O5 0.248546 0.141953 0.075144
O O6 0.248185 0.091610 0.243487
O O7 0.000000 0.106252 0.156205
O O8 0.759566 0.112393 0.746763
O O9 0.000000 0.171567 0.784778
O O10 0.773050 0.162918 0.902409
O O11 0.769842 0.754228 0.517292
O O12 0.000000 0.817651 0.511526
O O13 0.500000 0.452135 0.813880
O O14 0.258021 0.509259 0.767740
O O15 0.261617 0.443210 0.914981
O O16 0.500000 0.556463 0.714011
O O17 0.276329 0.553526 0.597451
O O18 0.500000 0.809870 0.976831
O O19 0.244830 0.853215 0.017951
O O20 0.000000 0.094357 0.500604
#
# Coordination Sequence:
#
# PCOD8174275 Si02
#       8
#     8   8   8   8   8   8   8   8
#     4  10  18  30  51  76 104 136 170 214 261 307
#     4   9  16  27  46  74 102 129 169 214 254 301
#     4   9  18  33  48  71 106 138 170 211 260 314
#     4   8  16  28  44  68 101 136 167 204 249 307
#     4   9  17  31  50  75 104 133 171 219 264 306
#     4   9  19  32  50  76 106 139 176 220 269 313
#     4  10  19  32  51  75 106 139 174 213 264 318
#     4  10  19  33  52  77 105 134 175 223 265 312
#
# _framework density 19.652405000000002
#
# number of rings (size 3 to 8) (size 9 to 14) (size 15 to 20)
#    0.000    2.750    1.250    1.500    1.750    1.000 
#    0.000    5.000    0.000    2.250    0.000    0.000 
#    0.000    0.000    0.000    0.000    0.000    0.000 
#
# Total GULP energy -396428.787305 kJ/mol
# GULP energy per Si atom -12388.399603 kJ/mol
# Density = 1.960768 g / cm^3
# Si number density = 19.652405 Si / 1000 Ang^3
#
#
#
# Elastic Constant Matrix: (Units=GPa)
#
#
# Indices 1 2 3 4 5 6 
#
# 1 24.1967 18.7810 13.0164 0.0000 0.0000 0.0000
# 2 18.7810 123.0988 62.8411 0.0000 0.0000 0.0000
# 3 13.0164 62.8411 105.9552 0.0000 0.0000 0.0000
# 4 0.0000 0.0000 0.0000 32.5195 0.0000 0.0000
# 5 0.0000 0.0000 0.0000 0.0000 10.7182 0.0000
# 6 0.0000 0.0000 0.0000 0.0000 0.0000 20.2720
#
#
#
# Elastic Compliance Matrix: (Units=1/GPa)
#
#
# Indices 1 2 3 4 5 6 
#
# 1 0.047232 -0.006087 -0.002192 0.000000 0.000000 0.000000
# 2 -0.006087 0.012436 -0.006628 0.000000 0.000000 0.000000
# 3 -0.002192 -0.006628 0.013638 0.000000 0.000000 0.000000
# 4 0.000000 0.000000 0.000000 0.030751 0.000000 0.000000
# 5 0.000000 0.000000 0.000000 0.000000 0.093299 0.000000
# 6 0.000000 0.000000 0.000000 0.000000 0.000000 0.049329
#
#
# Mechanical properties :
#
#
# Convention : Reuss Voigt Hill
#
# Bulk Modulus (GPa) = 22.99286 49.16974 36.08130
# Shear Modulus (GPa) = 17.18239 23.27608 20.22923
#
# Velocity S-wave (km/s) = 2.96009 3.44523 3.21183
# Velocity P-wave (km/s) = 4.83818 6.39532 5.67046
#
# Compressibility (1/GPa) = 0.04349176
#
# Stress axis : x y z
#
# Youngs Moduli (GPa) = 21.17218 80.41411 73.32404
#
# Poissons Ratio (x) = 0.48948 0.16074
# Poissons Ratio (y) = 0.12887 0.48597
# Poissons Ratio (z) = 0.04641 0.53296
#
# Static dielectric constant tensor:
#      x y z
#    x 3.108040 0.000000 0.000000 
#    y 0.000000 3.763290 0.000000 
#    z 0.000000 0.000000 3.830440 
# 
# 
# High freq. dielectric constant tensor:
#      x y z
#    x 1.703240 0.000000 0.000000 
#    y 0.000000 1.763190 0.000000 
#    z 0.000000 0.000000 1.774390 
# 
# From -- ./inp_files/10888.got.cif
#   From: 2010.03.12/outbox.cif.g09.slc.cpg/sg36_6_cif.got.tgz:10888.got - 2010.04.14 02:13:53.
