data_PCOD8174133
_publ_section_title
;
Structure prediction by ZEFSAII (Michael W. Deem and Ramdas Pophale) SiO2 
 PCOD8174133
Probable space group: C M M 2
;
_chemical_formula_sum "Si O2"
_cell_formula_units_Z 48
_cell_length_a 18.890260
_cell_length_b 7.927017
_cell_length_c 17.177352
_cell_angle_alpha 90.000000
_cell_angle_beta 90.000000
_cell_angle_gamma 90.000000
_cell_volume 2572.195300
_symmetry_space_group_name_H-M "C M M 2"
_symmetry_group_IT_number 35
_symmetry_cell_setting 'orthorhombic'
loop_
_space_group_symop_operation_xyz
x,y,z
-x,-y,z
-x,y,z
x,-y,z
1/2+x,1/2+y,z
1/2-x,1/2-y,z
1/2-x,1/2+y,z
1/2+x,1/2-y,z
loop_
_atom_site_type_symbol
_atom_site_label
_atom_site_fract_x
_atom_site_fract_y
_atom_site_fract_z
Si Si1 0.915477 0.000000 0.987700
Si Si2 0.919516 0.200803 0.544200
Si Si3 0.584102 0.187708 0.711531
Si Si4 0.915820 0.687162 0.087217
Si Si5 0.915469 0.000000 0.811566
Si Si6 0.920406 0.303048 0.262458
Si Si7 0.170420 0.808482 0.403100
O O1 0.887118 0.000000 0.899744
O O2 0.885772 0.168818 0.029780
O O3 0.000000 0.000000 0.990919
O O4 0.888798 0.278099 0.624102
O O5 0.872790 0.279243 0.473659
O O6 0.000000 0.260176 0.529393
O O7 0.916382 0.000000 0.550831
O O8 0.500000 0.200505 0.711882
O O9 0.614388 0.331114 0.769611
O O10 0.608830 0.000000 0.738332
O O11 0.886964 0.500000 0.063591
O O12 0.892712 0.732784 0.175139
O O13 0.000000 0.681808 0.084007
O O14 0.000000 0.000000 0.810029
O O15 0.919599 0.500000 0.280388
O O16 0.867937 0.211534 0.320872
O O17 0.000000 0.231307 0.273374
O O18 0.250000 0.750000 0.395550
O O19 0.171810 0.000000 0.427052
#
# Coordination Sequence:
#
# PCOD8174133 Si02
#       7
#     4   8   8   8   4   8   8
#     4   9  16  24  40  63  93 133 161 194 250 297
#     4   9  17  32  51  69  93 128 172 215 250 296
#     4   9  16  26  43  65  90 126 165 201 243 292
#     4   8  15  27  42  64  93 125 164 205 241 289
#     4   9  16  26  38  61  99 129 157 202 246 293
#     4   9  18  33  52  72  97 131 171 215 254 297
#     4  11  23  35  49  71 102 137 166 212 258 302
#
# _framework density 18.661103000000001
#
# number of rings (size 3 to 8) (size 9 to 14) (size 15 to 20)
#    0.000    2.833    0.833    2.000    1.167    3.000 
#    0.000    5.000    0.000    0.000    0.000    0.000 
#    0.000    1.333    0.667    0.000    0.000    0.000 
#
# Total GULP energy -297461.442995 kJ/mol
# GULP energy per Si atom -12394.226791 kJ/mol
# Density = 1.861863 g / cm^3
# Si number density = 18.661103 Si / 1000 Ang^3
#
#
#
# Elastic Constant Matrix: (Units=GPa)
#
#
# Indices 1 2 3 4 5 6 
#
# 1 49.6875 21.1620 36.7330 0.0000 0.0000 0.0000
# 2 21.1620 109.7999 74.3162 0.0000 0.0000 0.0000
# 3 36.7330 74.3162 152.4511 0.0000 0.0000 0.0000
# 4 0.0000 0.0000 0.0000 21.4243 0.0000 0.0000
# 5 0.0000 0.0000 0.0000 0.0000 2.6692 0.0000
# 6 0.0000 0.0000 0.0000 0.0000 0.0000 7.5114
#
#
#
# Elastic Compliance Matrix: (Units=1/GPa)
#
#
# Indices 1 2 3 4 5 6 
#
# 1 0.024574 -0.001087 -0.005391 0.000000 0.000000 0.000000
# 2 -0.001087 0.013640 -0.006387 0.000000 0.000000 0.000000
# 3 -0.005391 -0.006387 0.010972 0.000000 0.000000 0.000000
# 4 0.000000 0.000000 0.000000 0.046676 0.000000 0.000000
# 5 0.000000 0.000000 0.000000 0.000000 0.374650 0.000000
# 6 0.000000 0.000000 0.000000 0.000000 0.000000 0.133130
#
#
# Mechanical properties :
#
#
# Convention : Reuss Voigt Hill
#
# Bulk Modulus (GPa) = 42.63449 64.04010 53.33730
# Shear Modulus (GPa) = 7.84692 18.30279 13.07485
#
# Velocity S-wave (km/s) = 2.05282 3.13517 2.64985
# Velocity P-wave (km/s) = 5.33995 6.89185 6.16493
#
# Compressibility (1/GPa) = 0.02345519
#
# Stress axis : x y z
#
# Youngs Moduli (GPa) = 40.69260 73.31300 91.14034
#
# Poissons Ratio (x) = 0.07972 0.49135
# Poissons Ratio (y) = 0.04425 0.58213
# Poissons Ratio (z) = 0.21938 0.46827
#
# Static dielectric constant tensor:
#      x y z
#    x 2.776520 0.000000 0.000000 
#    y 0.000000 3.634770 0.000000 
#    z 0.000000 0.000000 3.565850 
# 
# 
# High freq. dielectric constant tensor:
#      x y z
#    x 1.651940 0.000000 0.000000 
#    y 0.000000 1.732620 0.000000 
#    z 0.000000 0.000000 1.728970 
# 
# From -- ./inp_files/15242.got.cif
#   From: 2010.03.12/outbox.cif.g09.slc.cpg/sg35_8_cif.got.tgz:15242.got - 2010.04.14 02:02:04.
