data_PCOD8174634
_publ_section_title
;
Structure prediction by ZEFSAII (Michael W. Deem and Ramdas Pophale) SiO2 
 PCOD8174634
Probable space group: C M C 21
;
_chemical_formula_sum "Si O2"
_cell_formula_units_Z 64
_cell_length_a 9.048970
_cell_length_b 19.873455
_cell_length_c 19.623719
_cell_angle_alpha 90.000000
_cell_angle_beta 90.000000
_cell_angle_gamma 90.000000
_cell_volume 3529.017732
_symmetry_space_group_name_H-M "C M C 21"
_symmetry_group_IT_number 36
_symmetry_cell_setting 'orthorhombic'
loop_
_space_group_symop_operation_xyz
x,y,z
-x,-y,1/2+z
x,-y,1/2+z
-x,y,z
1/2+x,1/2+y,z
1/2-x,1/2-y,1/2+z
1/2+x,1/2-y,1/2+z
1/2-x,1/2+y,z
loop_
_atom_site_type_symbol
_atom_site_label
_atom_site_fract_x
_atom_site_fract_y
_atom_site_fract_z
Si Si1 0.170420 0.659436 0.710910
Si Si2 0.829778 0.674374 0.553718
Si Si3 0.330046 0.045609 0.470706
Si Si4 0.173053 0.777589 0.812528
Si Si5 0.825578 0.722365 0.958602
Si Si6 0.673242 0.414816 0.440789
Si Si7 0.172184 0.586123 0.318577
Si Si8 0.326622 0.453659 0.288311
O O1 0.201137 0.679373 0.633502
O O2 0.216700 0.722427 0.756848
O O3 0.269997 0.595711 0.729695
O O4 0.000000 0.639975 0.723379
O O5 0.790288 0.599117 0.529105
O O6 0.724927 0.728042 0.517995
O O7 0.000000 0.690710 0.535497
O O8 0.500000 0.022695 0.473817
O O9 0.293667 0.080338 0.398707
O O10 0.229670 0.979992 0.482081
O O11 0.226589 0.751591 0.886088
O O12 0.260141 0.844458 0.791876
O O13 0.000000 0.793805 0.812735
O O14 0.751649 0.650369 0.971353
O O15 0.000000 0.713095 0.961176
O O16 0.500000 0.407681 0.451809
O O17 0.716573 0.422454 0.361498
O O18 0.248302 0.525275 0.278017
O O19 0.000000 0.584827 0.302023
O O20 0.500000 0.464500 0.281280
#
# Coordination Sequence:
#
# PCOD8174634 Si02
#       8
#     8   8   8   8   8   8   8   8
#     4  10  21  38  58  80 112 151 187 226 279 338
#     4  10  21  38  58  81 112 149 187 228 278 337
#     4   9  18  33  53  79 108 138 176 223 273 324
#     4  10  20  34  54  82 112 144 182 227 277 326
#     4  11  21  34  56  83 113 146 183 231 278 328
#     4  10  20  33  54  82 110 140 179 227 275 323
#     4  10  19  32  55  82 109 140 179 227 274 322
#     4  10  20  34  54  81 112 142 179 229 276 328
#
# _framework density 18.135359000000001
#
# number of rings (size 3 to 8) (size 9 to 14) (size 15 to 20)
#    0.000    2.000    2.500    1.500    0.000    3.500 
#    0.000    1.250    0.000    0.000    0.000    0.000 
#    0.000    0.000    0.000    0.000    0.000    0.000 
#
# Total GULP energy -396975.426791 kJ/mol
# GULP energy per Si atom -12405.482087 kJ/mol
# Density = 1.809408 g / cm^3
# Si number density = 18.135359 Si / 1000 Ang^3
#
#
#
# Elastic Constant Matrix: (Units=GPa)
#
#
# Indices 1 2 3 4 5 6 
#
# 1 76.9497 63.7616 32.7299 0.0000 0.0000 0.0000
# 2 63.7616 143.7143 51.5082 0.0000 0.0000 0.0000
# 3 32.7299 51.5082 79.4444 0.0000 0.0000 0.0000
# 4 0.0000 0.0000 0.0000 23.2477 0.0000 0.0000
# 5 0.0000 0.0000 0.0000 0.0000 22.5668 0.0000
# 6 0.0000 0.0000 0.0000 0.0000 0.0000 38.2680
#
#
#
# Elastic Compliance Matrix: (Units=1/GPa)
#
#
# Indices 1 2 3 4 5 6 
#
# 1 0.021249 -0.008194 -0.003442 0.000000 0.000000 0.000000
# 2 -0.008194 0.012224 -0.004550 0.000000 0.000000 0.000000
# 3 -0.003442 -0.004550 0.016955 0.000000 0.000000 0.000000
# 4 0.000000 0.000000 0.000000 0.043015 0.000000 0.000000
# 5 0.000000 0.000000 0.000000 0.000000 0.044313 0.000000
# 6 0.000000 0.000000 0.000000 0.000000 0.000000 0.026132
#
#
# Mechanical properties :
#
#
# Convention : Reuss Voigt Hill
#
# Bulk Modulus (GPa) = 55.37856 66.23420 60.80638
# Shear Modulus (GPa) = 24.71836 26.95706 25.83771
#
# Velocity S-wave (km/s) = 3.69588 3.85962 3.77863
# Velocity P-wave (km/s) = 6.98679 7.51423 7.25530
#
# Compressibility (1/GPa) = 0.01805753
#
# Stress axis : x y z
#
# Youngs Moduli (GPa) = 47.06087 81.80343 58.97852
#
# Poissons Ratio (x) = 0.67030 0.20298
# Poissons Ratio (y) = 0.38562 0.26835
# Poissons Ratio (z) = 0.16197 0.37220
#
# Static dielectric constant tensor:
#      x y z
#    x 3.310280 0.000000 0.000000 
#    y 0.000000 3.373060 0.000000 
#    z 0.000000 0.000000 3.119830 
# 
# 
# High freq. dielectric constant tensor:
#      x y z
#    x 1.706870 0.000000 0.000000 
#    y 0.000000 1.713640 0.000000 
#    z 0.000000 0.000000 1.674020 
# 
# From -- ./inp_files/13890.got.cif
#   From: 2010.03.12/outbox.cif.g09.slc.cpg/sg36_7_cif.got.tgz:13890.got - 2010.04.14 02:13:53.
