data_PCOD8174047
_publ_section_title
;
Structure prediction by ZEFSAII (Michael W. Deem and Ramdas Pophale) SiO2 
 PCOD8174047
Probable space group: C M M 2
;
_chemical_formula_sum "Si O2"
_cell_formula_units_Z 64
_cell_length_a 8.804831
_cell_length_b 29.986195
_cell_length_c 12.311922
_cell_angle_alpha 90.000000
_cell_angle_beta 90.000000
_cell_angle_gamma 90.000000
_cell_volume 3250.635252
_symmetry_space_group_name_H-M "C M M 2"
_symmetry_group_IT_number 35
_symmetry_cell_setting 'orthorhombic'
loop_
_space_group_symop_operation_xyz
x,y,z
-x,-y,z
-x,y,z
x,-y,z
1/2+x,1/2+y,z
1/2-x,1/2-y,z
1/2-x,1/2+y,z
1/2+x,1/2-y,z
loop_
_atom_site_type_symbol
_atom_site_label
_atom_site_fract_x
_atom_site_fract_y
_atom_site_fract_z
Si Si1 0.180777 0.948599 0.744100
Si Si2 0.665645 0.552734 0.979703
Si Si3 0.676870 0.797885 0.206188
Si Si4 0.322005 0.876253 0.356003
Si Si5 0.822522 0.298127 0.967125
Si Si6 0.320192 0.700922 0.753916
Si Si7 0.819060 0.050341 0.212636
Si Si8 0.678267 0.871971 0.607508
O O1 0.246394 0.935203 0.864856
O O2 0.265780 0.918519 0.656861
O O3 0.000000 0.940517 0.739604
O O4 0.218672 0.000000 0.717162
O O5 0.500000 0.575499 0.977300
O O6 0.644074 0.500000 0.983042
O O7 0.747655 0.566503 0.093557
O O8 0.500000 0.790014 0.222654
O O9 0.750000 0.750000 0.224718
O O10 0.741874 0.832576 0.294044
O O11 0.708376 0.819211 0.085960
O O12 0.500000 0.880966 0.335920
O O13 0.243161 0.919947 0.309268
O O14 0.280113 0.872296 0.481270
O O15 0.750000 0.250000 0.972341
O O16 0.738396 0.322589 0.866564
O O17 0.000000 0.295212 0.940199
O O18 0.500000 0.704596 0.754743
O O19 0.250000 0.750000 0.739127
O O20 0.267097 0.669974 0.655929
O O21 0.000000 0.053189 0.208032
O O22 0.765911 0.000000 0.237376
O O23 0.500000 0.866164 0.627919
#
# Coordination Sequence:
#
# PCOD8174047 Si02
#       8
#     8   8   8   8   8   8   8   8
#     4   9  18  35  59  84 111 143 180 225 276 328
#     4   7  12  27  52  81 110 137 168 212 268 327
#     4   9  19  36  57  81 109 140 175 218 268 321
#     4  10  23  40  54  74 107 145 185 226 268 316
#     4   9  16  30  54  83 113 140 170 212 264 324
#     4  11  22  38  60  84 112 143 178 221 271 325
#     4   9  18  34  57  83 109 138 175 219 266 320
#     4  11  24  40  55  75 108 148 191 232 269 317
#
# _framework density 19.688459999999999
#
# number of rings (size 3 to 8) (size 9 to 14) (size 15 to 20)
#    0.000    2.625    0.000    4.125    0.000    4.500 
#    0.000    6.875    0.000    2.250    0.000    0.000 
#    0.000    0.000    0.000    0.000    0.000    0.000 
#
# Total GULP energy -396501.571094 kJ/mol
# GULP energy per Si atom -12390.674097 kJ/mol
# Density = 1.964365 g / cm^3
# Si number density = 19.688460 Si / 1000 Ang^3
#
#
#
# Elastic Constant Matrix: (Units=GPa)
#
#
# Indices 1 2 3 4 5 6 
#
# 1 78.9727 42.3436 63.6249 0.0000 0.0000 0.0000
# 2 42.3436 103.5024 78.5486 0.0000 0.0000 0.0000
# 3 63.6249 78.5486 171.3052 0.0000 0.0000 0.0000
# 4 0.0000 0.0000 0.0000 15.8535 0.0000 0.0000
# 5 0.0000 0.0000 0.0000 0.0000 28.1209 0.0000
# 6 0.0000 0.0000 0.0000 0.0000 0.0000 28.4447
#
#
#
# Elastic Compliance Matrix: (Units=1/GPa)
#
#
# Indices 1 2 3 4 5 6 
#
# 1 0.018950 -0.003698 -0.005342 0.000000 0.000000 0.000000
# 2 -0.003698 0.015540 -0.005752 0.000000 0.000000 0.000000
# 3 -0.005342 -0.005752 0.010459 0.000000 0.000000 0.000000
# 4 0.000000 0.000000 0.000000 0.063078 0.000000 0.000000
# 5 0.000000 0.000000 0.000000 0.000000 0.035561 0.000000
# 6 0.000000 0.000000 0.000000 0.000000 0.000000 0.035156
#
#
# Mechanical properties :
#
#
# Convention : Reuss Voigt Hill
#
# Bulk Modulus (GPa) = 65.08846 80.31273 72.70060
# Shear Modulus (GPa) = 23.42483 25.76804 24.59643
#
# Velocity S-wave (km/s) = 3.45305 3.62164 3.53835
# Velocity P-wave (km/s) = 7.00208 7.63994 7.32795
#
# Compressibility (1/GPa) = 0.01536371
#
# Stress axis : x y z
#
# Youngs Moduli (GPa) = 52.77149 64.35154 95.60937
#
# Poissons Ratio (x) = 0.23797 0.51079
# Poissons Ratio (y) = 0.19515 0.54994
# Poissons Ratio (z) = 0.28193 0.37014
#
# Static dielectric constant tensor:
#      x y z
#    x 3.387280 0.000000 0.000000 
#    y 0.000000 3.722050 0.000000 
#    z 0.000000 0.000000 4.171290 
# 
# 
# High freq. dielectric constant tensor:
#      x y z
#    x 1.748390 0.000000 0.000000 
#    y 0.000000 1.755060 0.000000 
#    z 0.000000 0.000000 1.780930 
# 
# From -- ./inp_files/11931.got.cif
#   From: 2010.03.12/outbox.cif.g09.slc.cpg/sg35_6_cif.got.tgz:11931.got - 2010.04.14 02:02:04.
