data_PCOD8174878
_publ_section_title
;
Structure prediction by ZEFSAII (Michael W. Deem and Ramdas Pophale) SiO2 
 PCOD8174878
Probable space group: C M C 21
;
_chemical_formula_sum "Si O2"
_cell_formula_units_Z 48
_cell_length_a 14.513679
_cell_length_b 14.664392
_cell_length_c 8.969364
_cell_angle_alpha 90.000000
_cell_angle_beta 90.000000
_cell_angle_gamma 90.000000
_cell_volume 1908.988113
_symmetry_space_group_name_H-M "C M C 21"
_symmetry_group_IT_number 36
_symmetry_cell_setting 'orthorhombic'
loop_
_space_group_symop_operation_xyz
x,y,z
-x,-y,1/2+z
x,-y,1/2+z
-x,y,z
1/2+x,1/2+y,z
1/2-x,1/2-y,1/2+z
1/2+x,1/2-y,1/2+z
1/2-x,1/2+y,z
loop_
_atom_site_type_symbol
_atom_site_label
_atom_site_fract_x
_atom_site_fract_y
_atom_site_fract_z
Si Si1 0.609785 0.909530 0.695400
Si Si2 0.672892 0.268530 0.037686
Si Si3 0.889610 0.093064 0.016053
Si Si4 0.653808 0.095474 0.542867
Si Si5 0.601386 0.575943 0.691520
Si Si6 0.100339 0.749192 0.721582
O O1 0.500000 0.903891 0.657555
O O2 0.667350 0.823630 0.633531
O O3 0.623401 0.913727 0.872522
O O4 0.657846 0.995711 0.615979
O O5 0.589381 0.331773 0.096171
O O6 0.756510 0.339772 0.069374
O O7 0.666098 0.243307 0.864499
O O8 0.851952 0.181922 0.102351
O O9 0.000000 0.096998 0.008386
O O10 0.848559 0.003866 0.097801
O O11 0.847006 0.093300 0.849423
O O12 0.581089 0.152309 0.642094
O O13 0.500000 0.537943 0.728782
O O14 0.000000 0.786583 0.772103
#
# Coordination Sequence:
#
# PCOD8174878 Si02
#       6
#     8   8   8   8   8   8
#     4  12  26  50  79 108 144 199 254 298 357 447
#     4  12  26  43  70 106 144 184 234 306 374 427
#     4   9  19  33  57  88 125 171 228 287 346 415
#     4  12  28  47  72 108 147 189 245 313 371 424
#     4  10  19  35  58  92 133 184 240 294 355 435
#     4  11  22  42  68  98 136 187 241 296 360 440
#
# _framework density 25.144213000000001
#
# number of rings (size 3 to 8) (size 9 to 14) (size 15 to 20)
#    0.000    1.000    0.000    7.000    0.000    8.000 
#    0.000    0.000    0.000    0.000    0.000    0.000 
#    0.000    0.000    0.000    0.000    0.000    0.000 
#
# Total GULP energy -297406.687266 kJ/mol
# GULP energy per Si atom -12391.945303 kJ/mol
# Density = 2.508698 g / cm^3
# Si number density = 25.144213 Si / 1000 Ang^3
#
#
#
# Elastic Constant Matrix: (Units=GPa)
#
#
# Indices 1 2 3 4 5 6 
#
# 1 88.4256 27.0454 21.7827 0.0000 0.0000 0.0000
# 2 27.0454 206.5196 68.8128 0.0000 0.0000 0.0000
# 3 21.7827 68.8128 190.2483 0.0000 0.0000 0.0000
# 4 0.0000 0.0000 0.0000 56.8978 0.0000 0.0000
# 5 0.0000 0.0000 0.0000 0.0000 24.1516 0.0000
# 6 0.0000 0.0000 0.0000 0.0000 0.0000 29.8044
#
#
#
# Elastic Compliance Matrix: (Units=1/GPa)
#
#
# Indices 1 2 3 4 5 6 
#
# 1 0.011918 -0.001258 -0.000910 0.000000 0.000000 0.000000
# 2 -0.001258 0.005638 -0.001895 0.000000 0.000000 0.000000
# 3 -0.000910 -0.001895 0.006046 0.000000 0.000000 0.000000
# 4 0.000000 0.000000 0.000000 0.017575 0.000000 0.000000
# 5 0.000000 0.000000 0.000000 0.000000 0.041405 0.000000
# 6 0.000000 0.000000 0.000000 0.000000 0.000000 0.033552
#
#
# Mechanical properties :
#
#
# Convention : Reuss Voigt Hill
#
# Bulk Modulus (GPa) = 64.61314 80.05280 72.33297
# Shear Modulus (GPa) = 38.63419 46.67425 42.65422
#
# Velocity S-wave (km/s) = 3.92408 4.31311 4.12319
# Velocity P-wave (km/s) = 6.80324 7.53064 7.17616
#
# Compressibility (1/GPa) = 0.01547673
#
# Stress axis : x y z
#
# Youngs Moduli (GPa) = 83.90896 177.35502 165.39824
#
# Poissons Ratio (x) = 0.22304 0.15045
# Poissons Ratio (y) = 0.10553 0.31350
# Poissons Ratio (z) = 0.07633 0.33616
#
# Static dielectric constant tensor:
#      x y z
#    x 4.432660 0.000000 0.000000 
#    y 0.000000 4.739110 0.000000 
#    z 0.000000 0.000000 4.580530 
# 
# 
# High freq. dielectric constant tensor:
#      x y z
#    x 2.000980 0.000000 0.000000 
#    y 0.000000 2.014870 0.000000 
#    z 0.000000 0.000000 2.011760 
# 
# From -- ./inp_files/4663.got.cif
#   From: 2010.03.12/outbox.cif.g09.slc.cpg/sg36_3_cif.got.tgz:4663.got - 2010.04.14 02:13:53.
