data_PCOD8174715
_publ_section_title
;
Structure prediction by ZEFSAII (Michael W. Deem and Ramdas Pophale) SiO2 
 PCOD8174715
Probable space group: C M C 21
;
_chemical_formula_sum "Si O2"
_cell_formula_units_Z 64
_cell_length_a 8.839738
_cell_length_b 14.384795
_cell_length_c 26.602130
_cell_angle_alpha 90.000000
_cell_angle_beta 90.000000
_cell_angle_gamma 90.000000
_cell_volume 3382.668831
_symmetry_space_group_name_H-M "C M C 21"
_symmetry_group_IT_number 36
_symmetry_cell_setting 'orthorhombic'
loop_
_space_group_symop_operation_xyz
x,y,z
-x,-y,1/2+z
x,-y,1/2+z
-x,y,z
1/2+x,1/2+y,z
1/2-x,1/2-y,1/2+z
1/2+x,1/2-y,1/2+z
1/2-x,1/2+y,z
loop_
_atom_site_type_symbol
_atom_site_label
_atom_site_fract_x
_atom_site_fract_y
_atom_site_fract_z
Si Si1 0.821313 0.356395 0.452900
Si Si2 0.172147 0.894623 0.549861
Si Si3 0.824053 0.881932 0.812861
Si Si4 0.324013 0.235195 0.727969
Si Si5 0.675232 0.124204 0.156324
Si Si6 0.328237 0.464094 0.970654
Si Si7 0.322787 0.816477 0.912077
Si Si8 0.176151 0.522563 0.741186
O O1 0.767067 0.331149 0.510178
O O2 0.743657 0.453452 0.436367
O O3 0.764131 0.281123 0.413001
O O4 0.000000 0.365295 0.450503
O O5 0.238672 0.891022 0.604771
O O6 0.000000 0.858243 0.550479
O O7 0.178585 0.001790 0.529005
O O8 0.789543 0.791687 0.778803
O O9 0.727113 0.873214 0.863201
O O10 0.772962 0.976394 0.785496
O O11 0.000000 0.889284 0.826222
O O12 0.500000 0.239906 0.713898
O O13 0.232185 0.281539 0.682500
O O14 0.270091 0.128876 0.734445
O O15 0.500000 0.135955 0.144596
O O16 0.708334 0.033699 0.190039
O O17 0.500000 0.444284 0.953508
O O18 0.227764 0.372812 0.961979
O O19 0.500000 0.798951 0.912553
O O20 0.000000 0.517573 0.755861
#
# Coordination Sequence:
#
# PCOD8174715 Si02
#       8
#     8   8   8   8   8   8   8   8
#     4  10  20  37  58  81 112 146 186 233 280 333
#     4   9  19  37  58  80 113 150 185 231 281 329
#     4  10  21  36  56  81 110 144 184 233 283 333
#     4   9  19  37  58  79 108 145 183 227 279 335
#     4  10  19  33  56  83 112 144 182 228 277 332
#     4   9  20  38  57  80 110 146 188 235 278 328
#     4  12  23  37  58  83 113 153 191 231 282 337
#     4   9  19  37  57  81 110 142 183 228 278 339
#
# _framework density 18.919971
#
# number of rings (size 3 to 8) (size 9 to 14) (size 15 to 20)
#    0.750    1.500    0.000    3.375    0.000    2.500 
#    2.250    3.750    0.000    0.000    0.000    0.000 
#    0.000    0.000    0.000    0.000    0.000    0.000 
#
# Total GULP energy -396686.560365 kJ/mol
# GULP energy per Si atom -12396.455011 kJ/mol
# Density = 1.887691 g / cm^3
# Si number density = 18.919971 Si / 1000 Ang^3
#
#
#
# Elastic Constant Matrix: (Units=GPa)
#
#
# Indices 1 2 3 4 5 6 
#
# 1 81.2352 10.7199 16.0851 0.0000 0.0000 0.0000
# 2 10.7199 88.1903 1.7434 0.0000 0.0000 0.0000
# 3 16.0851 1.7434 53.2246 0.0000 0.0000 0.0000
# 4 0.0000 0.0000 0.0000 18.3993 0.0000 0.0000
# 5 0.0000 0.0000 0.0000 0.0000 33.8675 0.0000
# 6 0.0000 0.0000 0.0000 0.0000 0.0000 30.5263
#
#
#
# Elastic Compliance Matrix: (Units=1/GPa)
#
#
# Indices 1 2 3 4 5 6 
#
# 1 0.013299 -0.001538 -0.003969 0.000000 0.000000 0.000000
# 2 -0.001538 0.011524 0.000087 0.000000 0.000000 0.000000
# 3 -0.003969 0.000087 0.019985 0.000000 0.000000 0.000000
# 4 0.000000 0.000000 0.000000 0.054350 0.000000 0.000000
# 5 0.000000 0.000000 0.000000 0.000000 0.029527 0.000000
# 6 0.000000 0.000000 0.000000 0.000000 0.000000 0.032759
#
#
# Mechanical properties :
#
#
# Convention : Reuss Voigt Hill
#
# Bulk Modulus (GPa) = 29.43850 31.08299 30.26075
# Shear Modulus (GPa) = 27.23239 29.49875 28.36557
#
# Velocity S-wave (km/s) = 3.79799 3.95287 3.87620
# Velocity P-wave (km/s) = 5.90137 6.10720 6.00517
#
# Compressibility (1/GPa) = 0.03396912
#
# Stress axis : x y z
#
# Youngs Moduli (GPa) = 75.19519 86.77284 50.03797
#
# Poissons Ratio (x) = 0.13346 0.19858
# Poissons Ratio (y) = 0.11565 -0.00437
# Poissons Ratio (z) = 0.29842 -0.00758
#
# Static dielectric constant tensor:
#      x y z
#    x 3.485210 0.000000 0.000000 
#    y 0.000000 3.440380 0.000000 
#    z 0.000000 0.000000 3.279810 
# 
# 
# High freq. dielectric constant tensor:
#      x y z
#    x 1.746650 0.000000 0.000000 
#    y 0.000000 1.728190 0.000000 
#    z 0.000000 0.000000 1.721580 
# 
# From -- ./inp_files/17345.got.cif
#   From: 2010.03.12/outbox.cif.g09.slc.cpg/sg36_9_cif.got.tgz:17345.got - 2010.04.14 02:13:53.
