data_PCOD8174747
_publ_section_title
;
Structure prediction by ZEFSAII (Michael W. Deem and Ramdas Pophale) SiO2 
 PCOD8174747
Probable space group: C M C 21
;
_chemical_formula_sum "Si O2"
_cell_formula_units_Z 64
_cell_length_a 8.933289
_cell_length_b 28.998907
_cell_length_c 12.174016
_cell_angle_alpha 90.000000
_cell_angle_beta 90.000000
_cell_angle_gamma 90.000000
_cell_volume 3153.747225
_symmetry_space_group_name_H-M "C M C 21"
_symmetry_group_IT_number 36
_symmetry_cell_setting 'orthorhombic'
loop_
_space_group_symop_operation_xyz
x,y,z
-x,-y,1/2+z
x,-y,1/2+z
-x,y,z
1/2+x,1/2+y,z
1/2-x,1/2-y,1/2+z
1/2+x,1/2-y,1/2+z
1/2-x,1/2+y,z
loop_
_atom_site_type_symbol
_atom_site_label
_atom_site_fract_x
_atom_site_fract_y
_atom_site_fract_z
Si Si1 0.176968 0.338677 0.110830
Si Si2 0.823918 0.063540 0.660431
Si Si3 0.668936 0.975111 0.601626
Si Si4 0.332096 0.926710 0.371176
Si Si5 0.327954 0.220938 0.820014
Si Si6 0.824646 0.110968 0.195000
Si Si7 0.824889 0.843258 0.469534
Si Si8 0.172425 0.821710 0.884810
O O1 0.249286 0.388596 0.126913
O O2 0.227799 0.303168 0.206914
O O3 0.000000 0.343992 0.108971
O O4 0.229151 0.318782 0.994019
O O5 0.772578 0.048317 0.782314
O O6 0.000000 0.068441 0.649194
O O7 0.765895 0.021279 0.587118
O O8 0.500000 0.985883 0.641416
O O9 0.670363 0.955432 0.480622
O O10 0.738781 0.937544 0.684903
O O11 0.500000 0.921194 0.324798
O O12 0.264569 0.876362 0.387584
O O13 0.500000 0.208068 0.842422
O O14 0.230611 0.206481 0.927665
O O15 0.306611 0.275916 0.810819
O O16 0.777040 0.135284 0.308554
O O17 0.000000 0.099952 0.191689
O O18 0.782464 0.145911 0.095496
O O19 0.000000 0.849326 0.449647
O O20 0.000000 0.827777 0.919819
#
# Coordination Sequence:
#
# PCOD8174747 Si02
#       8
#     8   8   8   8   8   8   8   8
#     4  11  24  42  64  91 126 163 206 257 313 368
#     4  12  24  39  63  91 122 161 206 255 308 367
#     4  10  22  39  62  90 122 161 206 254 309 371
#     4  10  20  37  59  85 118 155 198 251 308 364
#     4  10  22  39  61  87 121 162 202 254 311 364
#     4   9  20  39  61  87 122 161 203 255 309 363
#     4  10  19  33  60  89 115 152 202 254 303 361
#     4  10  23  42  62  88 126 169 209 254 313 372
#
# _framework density 20.293320999999999
#
# number of rings (size 3 to 8) (size 9 to 14) (size 15 to 20)
#    0.000    1.750    1.250    2.625    1.750    4.500 
#    0.000    0.000    0.000    0.000    0.000    0.000 
#    0.000    0.000    0.000    0.000    0.000    0.000 
#
# Total GULP energy -396788.180852 kJ/mol
# GULP energy per Si atom -12399.630652 kJ/mol
# Density = 2.024713 g / cm^3
# Si number density = 20.293321 Si / 1000 Ang^3
#
#
#
# Elastic Constant Matrix: (Units=GPa)
#
#
# Indices 1 2 3 4 5 6 
#
# 1 99.4583 47.8039 39.0825 0.0000 0.0000 0.0000
# 2 47.8039 109.7406 36.7159 0.0000 0.0000 0.0000
# 3 39.0825 36.7159 82.8998 0.0000 0.0000 0.0000
# 4 0.0000 0.0000 0.0000 23.1883 0.0000 0.0000
# 5 0.0000 0.0000 0.0000 0.0000 32.5316 0.0000
# 6 0.0000 0.0000 0.0000 0.0000 0.0000 33.5144
#
#
#
# Elastic Compliance Matrix: (Units=1/GPa)
#
#
# Indices 1 2 3 4 5 6 
#
# 1 0.014068 -0.004589 -0.004600 0.000000 0.000000 0.000000
# 2 -0.004589 0.012195 -0.003237 0.000000 0.000000 0.000000
# 3 -0.004600 -0.003237 0.015665 0.000000 0.000000 0.000000
# 4 0.000000 0.000000 0.000000 0.043125 0.000000 0.000000
# 5 0.000000 0.000000 0.000000 0.000000 0.030739 0.000000
# 6 0.000000 0.000000 0.000000 0.000000 0.000000 0.029838
#
#
# Mechanical properties :
#
#
# Convention : Reuss Voigt Hill
#
# Bulk Modulus (GPa) = 58.56503 59.92257 59.24380
# Shear Modulus (GPa) = 28.38111 29.07996 28.73053
#
# Velocity S-wave (km/s) = 3.74377 3.78958 3.76674
# Velocity P-wave (km/s) = 6.89997 6.98142 6.94082
#
# Compressibility (1/GPa) = 0.01707504
#
# Stress axis : x y z
#
# Youngs Moduli (GPa) = 71.08535 82.00363 63.83644
#
# Poissons Ratio (x) = 0.37632 0.29362
# Poissons Ratio (y) = 0.32622 0.20667
# Poissons Ratio (z) = 0.32696 0.26548
#
# Static dielectric constant tensor:
#      x y z
#    x 3.790340 0.000000 0.000000 
#    y 0.000000 3.707420 0.000000 
#    z 0.000000 0.000000 3.708090 
# 
# 
# High freq. dielectric constant tensor:
#      x y z
#    x 1.794930 0.000000 0.000000 
#    y 0.000000 1.794970 0.000000 
#    z 0.000000 0.000000 1.790770 
# 
# From -- ./inp_files/7181.got.cif
#   From: 2010.03.12/outbox.cif.g09.slc.cpg/sg36_4_cif.got.tgz:7181.got - 2010.04.14 02:13:53.
