data_PCOD8174792
_publ_section_title
;
Structure prediction by ZEFSAII (Michael W. Deem and Ramdas Pophale) SiO2 
 PCOD8174792
Probable space group: C M C 21
;
_chemical_formula_sum "Si O2"
_cell_formula_units_Z 64
_cell_length_a 9.211689
_cell_length_b 19.763736
_cell_length_c 18.763282
_cell_angle_alpha 90.000000
_cell_angle_beta 90.000000
_cell_angle_gamma 90.000000
_cell_volume 3415.994140
_symmetry_space_group_name_H-M "C M C 21"
_symmetry_group_IT_number 36
_symmetry_cell_setting 'orthorhombic'
loop_
_space_group_symop_operation_xyz
x,y,z
-x,-y,1/2+z
x,-y,1/2+z
-x,y,z
1/2+x,1/2+y,z
1/2-x,1/2-y,1/2+z
1/2+x,1/2-y,1/2+z
1/2-x,1/2+y,z
loop_
_atom_site_type_symbol
_atom_site_label
_atom_site_fract_x
_atom_site_fract_y
_atom_site_fract_z
Si Si1 0.167693 0.918278 0.444330
Si Si2 0.830696 0.323272 0.552104
Si Si3 0.669554 0.695084 0.461777
Si Si4 0.827476 0.019909 0.672518
Si Si5 0.331901 0.367906 0.688195
Si Si6 0.671074 0.627683 0.787102
Si Si7 0.330503 0.555374 0.516917
Si Si8 0.168791 0.762651 0.809006
O O1 0.266773 0.876300 0.496963
O O2 0.212560 0.902827 0.363739
O O3 0.000000 0.900105 0.459350
O O4 0.197878 0.997084 0.459138
O O5 0.799359 0.248032 0.524233
O O6 0.757060 0.328530 0.628418
O O7 0.000000 0.338022 0.559576
O O8 0.500000 0.684259 0.447678
O O9 0.741258 0.624076 0.486159
O O10 0.735904 0.721500 0.387082
O O11 0.768218 0.075294 0.728267
O O12 0.763401 0.036080 0.593987
O O13 0.000000 0.021635 0.672580
O O14 0.775270 0.944977 0.695767
O O15 0.500000 0.367174 0.665282
O O16 0.306513 0.329731 0.762366
O O17 0.500000 0.638345 0.779130
O O18 0.747013 0.699594 0.774790
O O19 0.500000 0.567960 0.528982
O O20 0.000000 0.742684 0.813139
#
# Coordination Sequence:
#
# PCOD8174792 Si02
#       8
#     8   8   8   8   8   8   8   8
#     4  10  19  34  57  82 106 139 181 228 271 313
#     4  11  21  35  57  80 108 143 179 221 270 327
#     4   9  19  33  52  80 108 140 180 221 265 318
#     4   9  18  33  53  80 108 137 176 226 270 308
#     4  10  21  37  57  80 108 143 183 226 270 320
#     4  10  21  34  55  83 111 141 181 226 270 321
#     4   9  17  31  54  79 105 136 180 229 266 305
#     4  10  21  37  55  78 112 147 178 217 270 328
#
# _framework density 18.735396000000001
#
# number of rings (size 3 to 8) (size 9 to 14) (size 15 to 20)
#    0.000    2.250    2.500    0.375    3.500    0.500 
#    0.000    0.625    0.000    2.250    0.000    0.000 
#    0.000    0.000    0.000    0.000    0.000    0.000 
#
# Total GULP energy -396821.617352 kJ/mol
# GULP energy per Si atom -12400.675542 kJ/mol
# Density = 1.869275 g / cm^3
# Si number density = 18.735396 Si / 1000 Ang^3
#
#
#
# Elastic Constant Matrix: (Units=GPa)
#
#
# Indices 1 2 3 4 5 6 
#
# 1 34.4778 29.9220 21.6316 0.0000 0.0000 0.0000
# 2 29.9220 139.0532 45.5902 0.0000 0.0000 0.0000
# 3 21.6316 45.5902 90.2570 0.0000 0.0000 0.0000
# 4 0.0000 0.0000 0.0000 35.4783 0.0000 0.0000
# 5 0.0000 0.0000 0.0000 0.0000 21.3138 0.0000
# 6 0.0000 0.0000 0.0000 0.0000 0.0000 18.6572
#
#
#
# Elastic Compliance Matrix: (Units=1/GPa)
#
#
# Indices 1 2 3 4 5 6 
#
# 1 0.038192 -0.006253 -0.005995 0.000000 0.000000 0.000000
# 2 -0.006253 0.009643 -0.003372 0.000000 0.000000 0.000000
# 3 -0.005995 -0.003372 0.014220 0.000000 0.000000 0.000000
# 4 0.000000 0.000000 0.000000 0.028186 0.000000 0.000000
# 5 0.000000 0.000000 0.000000 0.000000 0.046918 0.000000
# 6 0.000000 0.000000 0.000000 0.000000 0.000000 0.053599
#
#
# Mechanical properties :
#
#
# Convention : Reuss Voigt Hill
#
# Bulk Modulus (GPa) = 32.45223 50.89732 41.67477
# Shear Modulus (GPa) = 21.52686 26.19947 23.86317
#
# Velocity S-wave (km/s) = 3.39336 3.74357 3.57276
# Velocity P-wave (km/s) = 5.71945 6.77577 6.26990
#
# Compressibility (1/GPa) = 0.03081453
#
# Stress axis : x y z
#
# Youngs Moduli (GPa) = 26.18347 103.70706 70.32585
#
# Poissons Ratio (x) = 0.64846 0.42160
# Poissons Ratio (y) = 0.16372 0.23714
# Poissons Ratio (z) = 0.15697 0.34970
#
# Static dielectric constant tensor:
#      x y z
#    x 3.066810 0.000000 0.000000 
#    y 0.000000 3.658340 0.000000 
#    z 0.000000 0.000000 3.707620 
# 
# 
# High freq. dielectric constant tensor:
#      x y z
#    x 1.678680 0.000000 0.000000 
#    y 0.000000 1.741960 0.000000 
#    z 0.000000 0.000000 1.737900 
# 
# From -- ./inp_files/13838.got.cif
#   From: 2010.03.12/outbox.cif.g09.slc.cpg/sg36_7_cif.got.tgz:13838.got - 2010.04.14 02:13:53.
