data_PCOD8174430
_publ_section_title
;
Structure prediction by ZEFSAII (Michael W. Deem and Ramdas Pophale) SiO2 
 PCOD8174430
Probable space group: C M C 21
;
_chemical_formula_sum "Si O2"
_cell_formula_units_Z 52
_cell_length_a 18.925526
_cell_length_b 16.274312
_cell_length_c 8.272280
_cell_angle_alpha 90.000000
_cell_angle_beta 90.000000
_cell_angle_gamma 90.000000
_cell_volume 2547.861536
_symmetry_space_group_name_H-M "C M C 21"
_symmetry_group_IT_number 36
_symmetry_cell_setting 'orthorhombic'
loop_
_space_group_symop_operation_xyz
x,y,z
-x,-y,1/2+z
x,-y,1/2+z
-x,y,z
1/2+x,1/2+y,z
1/2-x,1/2-y,1/2+z
1/2+x,1/2-y,1/2+z
1/2-x,1/2+y,z
loop_
_atom_site_type_symbol
_atom_site_label
_atom_site_fract_x
_atom_site_fract_y
_atom_site_fract_z
Si Si1 0.500000 0.145622 0.900280
Si Si2 0.000000 0.699684 0.541778
Si Si3 0.871084 0.227504 0.864834
Si Si4 0.000000 0.544378 0.314641
Si Si5 0.270353 0.603709 0.021232
Si Si6 0.658223 0.462025 0.825511
Si Si7 0.919966 0.088970 0.627376
Si Si8 0.119195 0.630473 0.129004
O O1 0.500000 0.191765 0.732545
O O2 0.500000 0.046746 0.883537
O O3 0.568322 0.175973 0.000479
O O4 0.930324 0.750961 0.496712
O O5 0.000000 0.610012 0.460321
O O6 0.905985 0.165814 0.739479
O O7 0.850168 0.308720 0.765810
O O8 0.801629 0.189315 0.950303
O O9 0.928406 0.558205 0.209550
O O10 0.298121 0.594384 0.203534
O O11 0.185701 0.598666 0.027053
O O12 0.290924 0.530378 0.902276
O O13 0.595525 0.505541 0.726050
O O14 0.627737 0.404880 0.966873
O O15 0.000000 0.086772 0.569549
#
# Coordination Sequence:
#
# PCOD8174430 Si02
#       8
#     4   4   8   4   8   8   8   8
#     4  11  23  39  65  95 112 154 209 254 313 367
#     4  10  20  40  60  88 125 151 200 253 302 363
#     4  10  22  39  57  85 125 165 194 247 302 360
#     4   9  21  43  63  93 119 153 199 261 311 364
#     4  10  22  41  60  87 125 158 206 246 303 360
#     4   9  21  37  56  91 115 157 205 245 292 358
#     4  10  18  35  60  80 121 155 198 245 293 345
#     4  10  23  40  63  87 124 157 200 252 308 370
#
# _framework density 20.409272000000001
#
# number of rings (size 3 to 8) (size 9 to 14) (size 15 to 20)
#    0.000    2.154    0.769    1.846    2.154    3.692 
#    2.769    0.000    0.000    0.000    0.000    0.000 
#    0.000    0.000    0.000    0.000    0.000    0.000 
#
# Total GULP energy -322381.355420 kJ/mol
# GULP energy per Si atom -12399.282901 kJ/mol
# Density = 2.036282 g / cm^3
# Si number density = 20.409272 Si / 1000 Ang^3
#
#
#
# Elastic Constant Matrix: (Units=GPa)
#
#
# Indices 1 2 3 4 5 6 
#
# 1 131.2608 28.4255 37.6588 0.0000 0.0000 0.0000
# 2 28.4255 59.9749 25.0680 0.0000 0.0000 0.0000
# 3 37.6588 25.0680 123.2682 0.0000 0.0000 0.0000
# 4 0.0000 0.0000 0.0000 32.4376 0.0000 0.0000
# 5 0.0000 0.0000 0.0000 0.0000 21.4948 0.0000
# 6 0.0000 0.0000 0.0000 0.0000 0.0000 13.4846
#
#
#
# Elastic Compliance Matrix: (Units=1/GPa)
#
#
# Indices 1 2 3 4 5 6 
#
# 1 0.008937 -0.003382 -0.002042 0.000000 0.000000 0.000000
# 2 -0.003382 0.019502 -0.002933 0.000000 0.000000 0.000000
# 3 -0.002042 -0.002933 0.009333 0.000000 0.000000 0.000000
# 4 0.000000 0.000000 0.000000 0.030828 0.000000 0.000000
# 5 0.000000 0.000000 0.000000 0.000000 0.046523 0.000000
# 6 0.000000 0.000000 0.000000 0.000000 0.000000 0.074159
#
#
# Mechanical properties :
#
#
# Convention : Reuss Voigt Hill
#
# Bulk Modulus (GPa) = 47.48906 55.20095 51.34500
# Shear Modulus (GPa) = 23.47247 28.37351 25.92299
#
# Velocity S-wave (km/s) = 3.39497 3.73262 3.56779
# Velocity P-wave (km/s) = 6.21986 6.75887 6.49496
#
# Compressibility (1/GPa) = 0.02105748
#
# Stress axis : x y z
#
# Youngs Moduli (GPa) = 111.89699 51.27573 107.14901
#
# Poissons Ratio (x) = 0.17341 0.21885
# Poissons Ratio (y) = 0.37843 0.31425
# Poissons Ratio (z) = 0.22855 0.15038
#
# Static dielectric constant tensor:
#      x y z
#    x 3.627750 0.000000 0.000000 
#    y 0.000000 3.530580 0.000000 
#    z 0.000000 0.000000 3.847710 
# 
# 
# High freq. dielectric constant tensor:
#      x y z
#    x 1.793290 0.000000 0.000000 
#    y 0.000000 1.781970 0.000000 
#    z 0.000000 0.000000 1.812730 
# 
# From -- ./inp_files/5197.got.cif
#   From: 2010.03.12/outbox.cif.g09.slc.cpg/sg36_3_cif.got.tgz:5197.got - 2010.04.14 02:13:53.
