data_PCOD8174924
_publ_section_title
;
Structure prediction by ZEFSAII (Michael W. Deem and Ramdas Pophale) SiO2 
 PCOD8174924
Probable space group: C M C 21
;
_chemical_formula_sum "Si O2"
_cell_formula_units_Z 56
_cell_length_a 28.180273
_cell_length_b 5.328843
_cell_length_c 15.118089
_cell_angle_alpha 90.000000
_cell_angle_beta 90.000000
_cell_angle_gamma 90.000000
_cell_volume 2270.256976
_symmetry_space_group_name_H-M "C M C 21"
_symmetry_group_IT_number 36
_symmetry_cell_setting 'orthorhombic'
loop_
_space_group_symop_operation_xyz
x,y,z
-x,-y,1/2+z
x,-y,1/2+z
-x,y,z
1/2+x,1/2+y,z
1/2-x,1/2-y,1/2+z
1/2+x,1/2-y,1/2+z
1/2-x,1/2+y,z
loop_
_atom_site_type_symbol
_atom_site_label
_atom_site_fract_x
_atom_site_fract_y
_atom_site_fract_z
Si Si1 0.444457 0.915186 0.191270
Si Si2 0.552519 0.944127 0.882917
Si Si3 0.631428 0.545575 0.251016
Si Si4 0.368283 0.205803 0.094952
Si Si5 0.728996 0.722025 0.230612
Si Si6 0.598069 0.460257 0.935018
Si Si7 0.267345 0.878483 0.536814
O O1 0.500000 0.871631 0.165223
O O2 0.440143 0.099232 0.276951
O O3 0.415302 0.031918 0.108202
O O4 0.420073 0.651913 0.220124
O O5 0.500000 0.039558 0.901110
O O6 0.558999 0.681021 0.935212
O O7 0.584118 0.170484 0.918574
O O8 0.646749 0.310284 0.190776
O O9 0.672197 0.756307 0.240051
O O10 0.632049 0.460091 0.353651
O O11 0.323301 0.061582 0.052395
O O12 0.378976 0.447630 0.032101
O O13 0.746920 0.464180 0.276688
O O14 0.741369 0.708624 0.127194
O O15 0.257986 0.612001 0.485220
#
# Coordination Sequence:
#
# PCOD8174924 Si02
#       7
#     8   8   8   8   8   8   8
#     4  10  23  41  67  97 128 178 228 271 333 399
#     4  10  22  45  66  88 131 174 221 279 329 384
#     4  11  23  43  68  93 138 175 222 277 331 399
#     4  12  24  41  69  96 136 175 222 279 329 396
#     4  10  19  35  65  93 121 171 216 261 335 386
#     4  11  26  41  64 100 129 177 218 272 338 385
#     4  10  20  36  63  93 125 170 213 263 335 381
#
# _framework density 24.666813000000001
#
# number of rings (size 3 to 8) (size 9 to 14) (size 15 to 20)
#    0.000    1.429    4.286    2.143    2.000    2.286 
#    0.000    1.429    0.000    0.000    0.000    0.000 
#    0.000    0.000    0.000    0.000    0.000    0.000 
#
# Total GULP energy -346933.022276 kJ/mol
# GULP energy per Si atom -12390.465081 kJ/mol
# Density = 2.461067 g / cm^3
# Si number density = 24.666813 Si / 1000 Ang^3
#
#
#
# Elastic Constant Matrix: (Units=GPa)
#
#
# Indices 1 2 3 4 5 6 
#
# 1 131.8454 20.9819 0.0352 0.0000 0.0000 0.0000
# 2 20.9819 133.4075 4.9542 0.0000 0.0000 0.0000
# 3 0.0352 4.9542 40.2622 0.0000 0.0000 0.0000
# 4 0.0000 0.0000 0.0000 19.6627 0.0000 0.0000
# 5 0.0000 0.0000 0.0000 0.0000 13.8561 0.0000
# 6 0.0000 0.0000 0.0000 0.0000 0.0000 32.1341
#
#
#
# Elastic Compliance Matrix: (Units=1/GPa)
#
#
# Indices 1 2 3 4 5 6 
#
# 1 0.007780 -0.001229 0.000144 0.000000 0.000000 0.000000
# 2 -0.001229 0.007724 -0.000949 0.000000 0.000000 0.000000
# 3 0.000144 -0.000949 0.024954 0.000000 0.000000 0.000000
# 4 0.000000 0.000000 0.000000 0.050858 0.000000 0.000000
# 5 0.000000 0.000000 0.000000 0.000000 0.072170 0.000000
# 6 0.000000 0.000000 0.000000 0.000000 0.000000 0.031120
#
#
# Mechanical properties :
#
#
# Convention : Reuss Voigt Hill
#
# Bulk Modulus (GPa) = 27.47972 39.71753 33.59862
# Shear Modulus (GPa) = 23.71870 31.76685 27.74277
#
# Velocity S-wave (km/s) = 3.10427 3.59254 3.35729
# Velocity P-wave (km/s) = 4.90033 5.77451 5.35529
#
# Compressibility (1/GPa) = 0.03639048
#
# Stress axis : x y z
#
# Youngs Moduli (GPa) = 128.53161 129.46021 40.07396
#
# Poissons Ratio (x) = 0.15911 -0.00579
# Poissons Ratio (y) = 0.15797 0.03805
# Poissons Ratio (z) = -0.01856 0.12291
#
# Static dielectric constant tensor:
#      x y z
#    x 4.391280 0.000000 0.000000 
#    y 0.000000 4.957600 0.000000 
#    z 0.000000 0.000000 4.266260 
# 
# 
# High freq. dielectric constant tensor:
#      x y z
#    x 1.976350 0.000000 0.000000 
#    y 0.000000 1.983540 0.000000 
#    z 0.000000 0.000000 1.951290 
# 
# From -- ./inp_files/13159.got.cif
#   From: 2010.03.12/outbox.cif.g09.slc.cpg/sg36_7_cif.got.tgz:13159.got - 2010.04.14 02:13:53.
