data_PCOD8174222
_publ_section_title
;
Structure prediction by ZEFSAII (Michael W. Deem and Ramdas Pophale) SiO2 
 PCOD8174222
Probable space group: C M C 21
;
_chemical_formula_sum "Si O2"
_cell_formula_units_Z 64
_cell_length_a 17.793749
_cell_length_b 10.036513
_cell_length_c 19.189805
_cell_angle_alpha 90.000000
_cell_angle_beta 90.000000
_cell_angle_gamma 90.000000
_cell_volume 3427.053412
_symmetry_space_group_name_H-M "C M C 21"
_symmetry_group_IT_number 36
_symmetry_cell_setting 'orthorhombic'
loop_
_space_group_symop_operation_xyz
x,y,z
-x,-y,1/2+z
x,-y,1/2+z
-x,y,z
1/2+x,1/2+y,z
1/2-x,1/2-y,1/2+z
1/2+x,1/2-y,1/2+z
1/2-x,1/2+y,z
loop_
_atom_site_type_symbol
_atom_site_label
_atom_site_fract_x
_atom_site_fract_y
_atom_site_fract_z
Si Si1 0.174929 0.522520 0.933140
Si Si2 0.086903 0.526914 0.796241
Si Si3 0.086277 0.777624 0.293580
Si Si4 0.161430 0.869147 0.578002
Si Si5 0.317695 0.289443 0.429034
Si Si6 0.670601 0.869226 0.172696
Si Si7 0.839203 0.391770 0.580231
Si Si8 0.348588 0.369659 0.154505
O O1 0.111215 0.543087 0.875799
O O2 0.243729 0.621762 0.918370
O O3 0.203196 0.368070 0.936110
O O4 0.132321 0.563670 0.004275
O O5 0.102460 0.375137 0.772642
O O6 0.138059 0.627424 0.750822
O O7 0.000000 0.566200 0.788490
O O8 0.131593 0.819169 0.362183
O O9 0.108602 0.869486 0.228084
O O10 0.000000 0.800645 0.312153
O O11 0.136433 0.835056 0.498756
O O12 0.136653 0.756041 0.632052
O O13 0.250254 0.881333 0.575182
O O14 0.126310 0.004416 0.608327
O O15 0.760559 0.867044 0.173149
O O16 0.636758 0.998693 0.135835
O O17 0.873758 0.252953 0.605784
#
# Coordination Sequence:
#
# PCOD8174222 Si02
#       8
#     8   8   8   8   8   8   8   8
#     4  10  20  35  57  84 110 140 182 226 274 324
#     4  10  21  37  55  78 110 147 186 226 266 319
#     4  10  21  38  56  77 109 149 188 221 263 325
#     4   9  19  31  55  86 110 134 175 229 278 314
#     4  10  20  36  58  84 108 142 181 224 275 323
#     4  10  17  34  55  82 108 136 177 224 270 320
#     4   9  17  31  55  83 108 134 176 224 268 318
#     4  10  19  34  57  84 109 142 179 222 272 323
#
# _framework density 18.674935000000001
#
# number of rings (size 3 to 8) (size 9 to 14) (size 15 to 20)
#    0.000    2.250    2.500    0.750    5.250    0.000 
#    2.250    3.125    0.000    0.000    0.000    0.000 
#    0.000    0.000    0.000    0.000    0.000    0.000 
#
# Total GULP energy -396706.063130 kJ/mol
# GULP energy per Si atom -12397.064473 kJ/mol
# Density = 1.863243 g / cm^3
# Si number density = 18.674935 Si / 1000 Ang^3
#
#
#
# Elastic Constant Matrix: (Units=GPa)
#
#
# Indices 1 2 3 4 5 6 
#
# 1 38.5236 19.1533 23.6189 0.0000 0.0000 0.0000
# 2 19.1533 115.3289 50.5605 0.0000 0.0000 0.0000
# 3 23.6189 50.5605 131.4814 0.0000 0.0000 0.0000
# 4 0.0000 0.0000 0.0000 35.9542 0.0000 0.0000
# 5 0.0000 0.0000 0.0000 0.0000 7.8280 0.0000
# 6 0.0000 0.0000 0.0000 0.0000 0.0000 15.6027
#
#
#
# Elastic Compliance Matrix: (Units=1/GPa)
#
#
# Indices 1 2 3 4 5 6 
#
# 1 0.030100 -0.003161 -0.004191 0.000000 0.000000 0.000000
# 2 -0.003161 0.010761 -0.003570 0.000000 0.000000 0.000000
# 3 -0.004191 -0.003570 0.009731 0.000000 0.000000 0.000000
# 4 0.000000 0.000000 0.000000 0.027813 0.000000 0.000000
# 5 0.000000 0.000000 0.000000 0.000000 0.127746 0.000000
# 6 0.000000 0.000000 0.000000 0.000000 0.000000 0.064091
#
#
# Mechanical properties :
#
#
# Convention : Reuss Voigt Hill
#
# Bulk Modulus (GPa) = 34.78701 52.44438 43.61569
# Shear Modulus (GPa) = 16.57437 24.67708 20.62573
#
# Velocity S-wave (km/s) = 2.98236 3.63905 3.32695
# Velocity P-wave (km/s) = 5.52516 6.76762 6.17770
#
# Compressibility (1/GPa) = 0.02874636
#
# Stress axis : x y z
#
# Youngs Moduli (GPa) = 33.22312 92.92764 102.75942
#
# Poissons Ratio (x) = 0.29377 0.43070
# Poissons Ratio (y) = 0.10503 0.36687
# Poissons Ratio (z) = 0.13925 0.33177
#
# Static dielectric constant tensor:
#      x y z
#    x 2.937530 0.000000 0.000000 
#    y 0.000000 3.623020 0.000000 
#    z 0.000000 0.000000 3.654180 
# 
# 
# High freq. dielectric constant tensor:
#      x y z
#    x 1.679850 0.000000 0.000000 
#    y 0.000000 1.725980 0.000000 
#    z 0.000000 0.000000 1.745090 
# 
# From -- ./inp_files/15047.got.cif
#   From: 2010.03.12/outbox.cif.g09.slc.cpg/sg36_8_cif.got.tgz:15047.got - 2010.04.14 02:13:53.
