data_PCOD8174803
_publ_section_title
;
Structure prediction by ZEFSAII (Michael W. Deem and Ramdas Pophale) SiO2 
 PCOD8174803
Probable space group: C M C 21
;
_chemical_formula_sum "Si O2"
_cell_formula_units_Z 64
_cell_length_a 8.772317
_cell_length_b 20.038238
_cell_length_c 19.680085
_cell_angle_alpha 90.000000
_cell_angle_beta 90.000000
_cell_angle_gamma 90.000000
_cell_volume 3459.400290
_symmetry_space_group_name_H-M "C M C 21"
_symmetry_group_IT_number 36
_symmetry_cell_setting 'orthorhombic'
loop_
_space_group_symop_operation_xyz
x,y,z
-x,-y,1/2+z
x,-y,1/2+z
-x,y,z
1/2+x,1/2+y,z
1/2-x,1/2-y,1/2+z
1/2+x,1/2-y,1/2+z
1/2-x,1/2+y,z
loop_
_atom_site_type_symbol
_atom_site_label
_atom_site_fract_x
_atom_site_fract_y
_atom_site_fract_z
Si Si1 0.179810 0.423269 0.494370
Si Si2 0.178193 0.976691 0.240674
Si Si3 0.177205 0.021562 0.391592
Si Si4 0.677088 0.331631 0.857182
Si Si5 0.180203 0.339993 0.248182
Si Si6 0.179513 0.091162 0.137505
Si Si7 0.679420 0.205573 0.217054
Si Si8 0.678201 0.809984 0.397710
O O1 0.216607 0.485803 0.446228
O O2 0.270317 0.433097 0.563597
O O3 0.244013 0.355265 0.458604
O O4 0.000000 0.420601 0.508589
O O5 0.223361 0.996646 0.316954
O O6 0.232155 0.035231 0.191000
O O7 0.000000 0.963315 0.233578
O O8 0.265758 0.910070 0.217467
O O9 0.213394 0.100536 0.397076
O O10 0.000000 0.007059 0.406887
O O11 0.500000 0.329225 0.834954
O O12 0.771785 0.327585 0.788092
O O13 0.716670 0.268809 0.906552
O O14 0.250423 0.278945 0.205736
O O15 0.243975 0.334585 0.325392
O O16 0.000000 0.333957 0.244757
O O17 0.262738 0.160165 0.155147
O O18 0.000000 0.102465 0.140351
O O19 0.500000 0.211348 0.213836
O O20 0.500000 0.823024 0.396626
#
# Coordination Sequence:
#
# PCOD8174803 Si02
#       8
#     8   8   8   8   8   8   8   8
#     4  11  22  37  55  83 116 151 194 242 289 345
#     4  10  20  35  57  85 114 145 193 243 285 338
#     4  10  19  34  57  84 113 148 189 236 288 346
#     4   9  17  34  57  82 111 147 188 231 283 338
#     4  10  19  34  57  84 114 147 183 229 289 342
#     4  11  23  41  59  80 113 158 198 238 291 351
#     4  11  21  34  55  85 115 146 187 237 285 337
#     4   8  16  31  53  79 108 142 182 226 274 331
#
# _framework density 18.500316999999999
#
# number of rings (size 3 to 8) (size 9 to 14) (size 15 to 20)
#    0.000    2.000    2.500    3.000    0.000    1.500 
#    0.000    1.875    0.000    6.000    0.000    0.000 
#    0.000    0.000    0.000    0.000    0.000    0.000 
#
# Total GULP energy -396824.242466 kJ/mol
# GULP energy per Si atom -12400.757577 kJ/mol
# Density = 1.845821 g / cm^3
# Si number density = 18.500317 Si / 1000 Ang^3
#
#
#
# Elastic Constant Matrix: (Units=GPa)
#
#
# Indices 1 2 3 4 5 6 
#
# 1 69.4513 45.6034 27.0345 0.0000 0.0000 0.0000
# 2 45.6034 139.9746 38.2849 0.0000 0.0000 0.0000
# 3 27.0345 38.2849 74.6054 0.0000 0.0000 0.0000
# 4 0.0000 0.0000 0.0000 25.4879 0.0000 0.0000
# 5 0.0000 0.0000 0.0000 0.0000 25.3768 0.0000
# 6 0.0000 0.0000 0.0000 0.0000 0.0000 30.8131
#
#
#
# Elastic Compliance Matrix: (Units=1/GPa)
#
#
# Indices 1 2 3 4 5 6 
#
# 1 0.019498 -0.005142 -0.004427 0.000000 0.000000 0.000000
# 2 -0.005142 0.009666 -0.003097 0.000000 0.000000 0.000000
# 3 -0.004427 -0.003097 0.016597 0.000000 0.000000 0.000000
# 4 0.000000 0.000000 0.000000 0.039234 0.000000 0.000000
# 5 0.000000 0.000000 0.000000 0.000000 0.039406 0.000000
# 6 0.000000 0.000000 0.000000 0.000000 0.000000 0.032454
#
#
# Mechanical properties :
#
#
# Convention : Reuss Voigt Hill
#
# Bulk Modulus (GPa) = 48.94726 56.20854 52.57790
# Shear Modulus (GPa) = 26.45538 27.87612 27.16575
#
# Velocity S-wave (km/s) = 3.78563 3.88595 3.83612
# Velocity P-wave (km/s) = 6.75448 7.11214 6.93562
#
# Compressibility (1/GPa) = 0.02043015
#
# Stress axis : x y z
#
# Youngs Moduli (GPa) = 51.28771 103.45083 60.25016
#
# Poissons Ratio (x) = 0.53190 0.26672
# Poissons Ratio (y) = 0.26370 0.18662
# Poissons Ratio (z) = 0.22705 0.32042
#
# Static dielectric constant tensor:
#      x y z
#    x 3.233850 0.000000 0.000000 
#    y 0.000000 3.695410 0.000000 
#    z 0.000000 0.000000 3.220320 
# 
# 
# High freq. dielectric constant tensor:
#      x y z
#    x 1.709330 0.000000 0.000000 
#    y 0.000000 1.734640 0.000000 
#    z 0.000000 0.000000 1.686880 
# 
# From -- ./inp_files/13961.got.cif
#   From: 2010.03.12/outbox.cif.g09.slc.cpg/sg36_7_cif.got.tgz:13961.got - 2010.04.14 02:13:53.
