data_PCOD8174104
_publ_section_title
;
Structure prediction by ZEFSAII (Michael W. Deem and Ramdas Pophale) SiO2 
 PCOD8174104
Probable space group: C M M 2
;
_chemical_formula_sum "Si O2"
_cell_formula_units_Z 64
_cell_length_a 24.978208
_cell_length_b 13.655394
_cell_length_c 10.059408
_cell_angle_alpha 90.000000
_cell_angle_beta 90.000000
_cell_angle_gamma 90.000000
_cell_volume 3431.136029
_symmetry_space_group_name_H-M "C M M 2"
_symmetry_group_IT_number 35
_symmetry_cell_setting 'orthorhombic'
loop_
_space_group_symop_operation_xyz
x,y,z
-x,-y,z
-x,y,z
x,-y,z
1/2+x,1/2+y,z
1/2-x,1/2-y,z
1/2-x,1/2+y,z
1/2+x,1/2-y,z
loop_
_atom_site_type_symbol
_atom_site_label
_atom_site_fract_x
_atom_site_fract_y
_atom_site_fract_z
Si Si1 0.656121 0.609953 0.061600
Si Si2 0.885560 0.699231 0.677345
Si Si3 0.379341 0.801322 0.173969
Si Si4 0.780551 0.615786 0.770694
Si Si5 0.438222 0.887554 0.929855
Si Si6 0.661331 0.610633 0.748396
Si Si7 0.278441 0.885551 0.067615
Si Si8 0.937277 0.614209 0.420404
O O1 0.643195 0.500000 0.112301
O O2 0.616690 0.685973 0.136121
O O3 0.716963 0.639509 0.098650
O O4 0.647705 0.614317 0.904000
O O5 0.826800 0.649566 0.670274
O O6 0.912725 0.679461 0.817974
O O7 0.878125 0.817136 0.667138
O O8 0.923566 0.656171 0.564858
O O9 0.316938 0.832368 0.172980
O O10 0.403836 0.820309 0.318079
O O11 0.411376 0.868292 0.071045
O O12 0.776241 0.500000 0.775550
O O13 0.721701 0.652658 0.725837
O O14 0.793976 0.653507 0.919809
O O15 0.500000 0.861386 0.944254
O O16 0.428893 0.000000 0.889435
O O17 0.654206 0.500000 0.693733
O O18 0.288590 0.000000 0.077349
O O19 0.921232 0.500000 0.410844
O O20 0.000000 0.627870 0.393820
#
# Coordination Sequence:
#
# PCOD8174104 Si02
#       8
#     8   8   8   8   8   8   8   8
#     4   9  18  33  55  88 123 149 178 223 275 328
#     4  12  20  35  59  81 109 151 190 224 277 336
#     4  12  20  35  59  81 109 151 190 224 277 336
#     4   9  16  28  52  87 120 145 177 222 276 336
#     4  11  22  34  54  83 105 127 180 248 288 323
#     4   9  18  33  55  88 123 149 178 223 275 328
#     4   9  16  28  52  87 120 145 177 222 276 336
#     4  11  26  44  58  77 111 149 184 232 294 343
#
# _framework density 18.652715000000001
#
# number of rings (size 3 to 8) (size 9 to 14) (size 15 to 20)
#    0.000    1.750    2.500    5.250    0.000    4.000 
#    0.000    3.125    0.000    7.500    0.000    0.000 
#    0.000    0.000    0.000    0.000    0.000    0.000 
#
# Total GULP energy -396783.798578 kJ/mol
# GULP energy per Si atom -12399.493706 kJ/mol
# Density = 1.861026 g / cm^3
# Si number density = 18.652715 Si / 1000 Ang^3
#
#
#
# Elastic Constant Matrix: (Units=GPa)
#
#
# Indices 1 2 3 4 5 6 
#
# 1 56.3346 43.1507 14.7035 0.0000 0.0000 0.0000
# 2 43.1507 68.3523 18.0613 0.0000 0.0000 0.0000
# 3 14.7035 18.0613 41.6079 0.0000 0.0000 0.0000
# 4 0.0000 0.0000 0.0000 24.9568 0.0000 0.0000
# 5 0.0000 0.0000 0.0000 0.0000 18.1392 0.0000
# 6 0.0000 0.0000 0.0000 0.0000 0.0000 23.6162
#
#
#
# Elastic Compliance Matrix: (Units=1/GPa)
#
#
# Indices 1 2 3 4 5 6 
#
# 1 0.034725 -0.021099 -0.003112 0.000000 0.000000 0.000000
# 2 -0.021099 0.029346 -0.005282 0.000000 0.000000 0.000000
# 3 -0.003112 -0.005282 0.027427 0.000000 0.000000 0.000000
# 4 0.000000 0.000000 0.000000 0.040069 0.000000 0.000000
# 5 0.000000 0.000000 0.000000 0.000000 0.055129 0.000000
# 6 0.000000 0.000000 0.000000 0.000000 0.000000 0.042344
#
#
# Mechanical properties :
#
#
# Convention : Reuss Voigt Hill
#
# Bulk Modulus (GPa) = 30.76034 35.34732 33.05383
# Shear Modulus (GPa) = 16.72998 19.36773 18.04886
#
# Velocity S-wave (km/s) = 2.99811 3.22581 3.11404
# Velocity P-wave (km/s) = 5.33964 5.73288 5.53975
#
# Compressibility (1/GPa) = 0.03250939
#
# Stress axis : x y z
#
# Youngs Moduli (GPa) = 28.79775 34.07628 36.46072
#
# Poissons Ratio (x) = 0.71899 0.11348
# Poissons Ratio (y) = 0.60762 0.19260
# Poissons Ratio (z) = 0.08963 0.18001
#
# Static dielectric constant tensor:
#      x y z
#    x 3.433960 0.000000 0.000000 
#    y 0.000000 3.606980 0.000000 
#    z 0.000000 0.000000 3.030350 
# 
# 
# High freq. dielectric constant tensor:
#      x y z
#    x 1.717790 0.000000 0.000000 
#    y 0.000000 1.737860 0.000000 
#    z 0.000000 0.000000 1.678100 
# 
# From -- ./inp_files/9878.got.cif
#   From: 2010.03.12/outbox.cif.g09.slc.cpg/sg35_5_cif.got.tgz:9878.got - 2010.04.14 02:02:04.
