data_PCOD8174854
_publ_section_title
;
Structure prediction by ZEFSAII (Michael W. Deem and Ramdas Pophale) SiO2 
 PCOD8174854
Probable space group: C M C 21
;
_chemical_formula_sum "Si O2"
_cell_formula_units_Z 32
_cell_length_a 15.108283
_cell_length_b 13.278582
_cell_length_c 9.081582
_cell_angle_alpha 90.000000
_cell_angle_beta 90.000000
_cell_angle_gamma 90.000000
_cell_volume 1821.915874
_symmetry_space_group_name_H-M "C M C 21"
_symmetry_group_IT_number 36
_symmetry_cell_setting 'orthorhombic'
loop_
_space_group_symop_operation_xyz
x,y,z
-x,-y,1/2+z
x,-y,1/2+z
-x,y,z
1/2+x,1/2+y,z
1/2-x,1/2-y,1/2+z
1/2+x,1/2-y,1/2+z
1/2-x,1/2+y,z
loop_
_atom_site_type_symbol
_atom_site_label
_atom_site_fract_x
_atom_site_fract_y
_atom_site_fract_z
Si Si1 0.101967 0.740453 0.927740
Si Si2 0.184683 0.438149 0.247998
Si Si3 0.751077 0.104412 0.436822
Si Si4 0.900318 0.360838 0.735918
O O1 0.131854 0.652845 0.819006
O O2 0.157644 0.841007 0.895494
O O3 0.000000 0.765725 0.897461
O O4 0.118484 0.707743 0.095213
O O5 0.250820 0.491753 0.366550
O O6 0.113866 0.521593 0.190790
O O7 0.242207 0.398689 0.112092
O O8 0.668443 0.167924 0.366454
O O9 0.000000 0.345291 0.794026
#
# Coordination Sequence:
#
# PCOD8174854 Si02
#       4
#     8   8   8   8
#     4  11  21  36  57  84 111 143 183 226 269 323
#     4  10  19  35  57  78 114 140 180 224 276 314
#     4  10  21  35  56  84 112 144 180 225 274 322
#     4   9  18  34  55  82 109 137 178 227 272 313
#
# _framework density 17.563927
#
# number of rings (size 3 to 8) (size 9 to 14) (size 15 to 20)
#    1.500    0.500    2.500    2.250    0.000    2.000 
#    0.000    1.250    0.000    1.500    0.000    0.000 
#    0.000    0.000    0.000    0.000    0.000    0.000 
#
# Total GULP energy -198298.895122 kJ/mol
# GULP energy per Si atom -12393.680945 kJ/mol
# Density = 1.752395 g / cm^3
# Si number density = 17.563927 Si / 1000 Ang^3
#
#
#
# Elastic Constant Matrix: (Units=GPa)
#
#
# Indices 1 2 3 4 5 6 
#
# 1 125.6854 57.1819 52.2520 0.0000 0.0000 0.0000
# 2 57.1819 40.9472 29.2826 0.0000 0.0000 0.0000
# 3 52.2520 29.2826 79.8846 0.0000 0.0000 0.0000
# 4 0.0000 0.0000 0.0000 19.3157 0.0000 0.0000
# 5 0.0000 0.0000 0.0000 0.0000 19.1283 0.0000
# 6 0.0000 0.0000 0.0000 0.0000 0.0000 23.4783
#
#
#
# Elastic Compliance Matrix: (Units=1/GPa)
#
#
# Indices 1 2 3 4 5 6 
#
# 1 0.022913 -0.028840 -0.004416 0.000000 0.000000 0.000000
# 2 -0.028840 0.069398 -0.006574 0.000000 0.000000 0.000000
# 3 -0.004416 -0.006574 0.017816 0.000000 0.000000 0.000000
# 4 0.000000 0.000000 0.000000 0.051771 0.000000 0.000000
# 5 0.000000 0.000000 0.000000 0.000000 0.052279 0.000000
# 6 0.000000 0.000000 0.000000 0.000000 0.000000 0.042593
#
#
# Mechanical properties :
#
#
# Convention : Reuss Voigt Hill
#
# Bulk Modulus (GPa) = 32.82256 58.21669 45.51963
# Shear Modulus (GPa) = 14.42645 19.57118 16.99882
#
# Velocity S-wave (km/s) = 2.86906 3.34171 3.11436
# Velocity P-wave (km/s) = 5.45008 6.93591 6.23740
#
# Compressibility (1/GPa) = 0.03046685
#
# Stress axis : x y z
#
# Youngs Moduli (GPa) = 43.64294 14.40970 56.12833
#
# Poissons Ratio (x) = 0.41558 0.24785
# Poissons Ratio (y) = 1.25866 0.36901
# Poissons Ratio (z) = 0.19272 0.09474
#
# Static dielectric constant tensor:
#      x y z
#    x 3.099850 0.000000 0.000000 
#    y 0.000000 3.036750 0.000000 
#    z 0.000000 0.000000 3.155770 
# 
# 
# High freq. dielectric constant tensor:
#      x y z
#    x 1.664430 0.000000 0.000000 
#    y 0.000000 1.658510 0.000000 
#    z 0.000000 0.000000 1.680770 
# 
# From -- ./inp_files/2922.got.cif
#   From: 2010.03.12/outbox.cif.g09.slc.cpg/sg36_2_cif.got.tgz:2922.got - 2010.04.14 02:13:53.
