data_PCOD8174308
_publ_section_title
;
Structure prediction by ZEFSAII (Michael W. Deem and Ramdas Pophale) SiO2 
 PCOD8174308
Probable space group: C M C 21
;
_chemical_formula_sum "Si O2"
_cell_formula_units_Z 64
_cell_length_a 9.158826
_cell_length_b 20.204406
_cell_length_c 19.809073
_cell_angle_alpha 90.000000
_cell_angle_beta 90.000000
_cell_angle_gamma 90.000000
_cell_volume 3665.641998
_symmetry_space_group_name_H-M "C M C 21"
_symmetry_group_IT_number 36
_symmetry_cell_setting 'orthorhombic'
loop_
_space_group_symop_operation_xyz
x,y,z
-x,-y,1/2+z
x,-y,1/2+z
-x,y,z
1/2+x,1/2+y,z
1/2-x,1/2-y,1/2+z
1/2+x,1/2-y,1/2+z
1/2-x,1/2+y,z
loop_
_atom_site_type_symbol
_atom_site_label
_atom_site_fract_x
_atom_site_fract_y
_atom_site_fract_z
Si Si1 0.826572 0.225786 0.140930
Si Si2 0.827044 0.952292 0.477347
Si Si3 0.671202 0.773760 0.996420
Si Si4 0.826715 0.918195 0.622898
Si Si5 0.326372 0.833827 0.246253
Si Si6 0.170058 0.940421 0.162473
Si Si7 0.828423 0.164632 0.885717
Si Si8 0.169585 0.904590 0.008669
O O1 0.765933 0.249141 0.068325
O O2 0.770930 0.150681 0.155793
O O3 0.768023 0.274089 0.199133
O O4 0.000000 0.227523 0.139162
O O5 0.760826 0.924035 0.547318
O O6 0.776332 0.906671 0.415010
O O7 0.000000 0.948249 0.483699
O O8 0.780036 0.029009 0.468511
O O9 0.500000 0.784907 0.001078
O O10 0.742766 0.843675 0.977211
O O11 0.711586 0.720597 0.939838
O O12 0.000000 0.917507 0.616649
O O13 0.781708 0.982266 0.666966
O O14 0.500000 0.836992 0.248893
O O15 0.266302 0.902710 0.217412
O O16 0.263997 0.820013 0.319795
O O17 0.203895 0.912998 0.087942
O O18 0.000000 0.931531 0.180431
O O19 0.000000 0.164522 0.868629
O O20 0.000000 0.891064 0.997018
#
# Coordination Sequence:
#
# PCOD8174308 Si02
#       8
#     8   8   8   8   8   8   8   8
#     4   9  16  29  50  76 101 130 169 210 252 299
#     4   8  14  28  50  75  97 123 162 210 251 286
#     4  10  18  31  53  78 102 134 171 210 256 305
#     4   8  13  26  51  78  97 117 163 218 250 280
#     4  11  22  34  50  73 107 141 167 205 260 317
#     4   9  17  30  51  77 101 127 164 210 253 297
#     4  10  20  35  55  74  98 135 179 216 248 299
#     4   9  17  29  50  79 105 125 157 211 260 297
#
# _framework density 17.459425
#
# number of rings (size 3 to 8) (size 9 to 14) (size 15 to 20)
#    0.000    2.750    2.500    1.875    0.000    0.500 
#    0.000    1.875    0.000    9.000    0.000    0.000 
#    0.000    0.000    0.000    0.000    0.000    0.000 
#
# Total GULP energy -396636.983521 kJ/mol
# GULP energy per Si atom -12394.905735 kJ/mol
# Density = 1.741969 g / cm^3
# Si number density = 17.459425 Si / 1000 Ang^3
#
#
#
# Elastic Constant Matrix: (Units=GPa)
#
#
# Indices 1 2 3 4 5 6 
#
# 1 36.0870 40.0621 39.8932 0.0000 0.0000 0.0000
# 2 40.0621 163.7315 68.9584 0.0000 0.0000 0.0000
# 3 39.8932 68.9584 106.6702 0.0000 0.0000 0.0000
# 4 0.0000 0.0000 0.0000 24.5522 0.0000 0.0000
# 5 0.0000 0.0000 0.0000 0.0000 23.7933 0.0000
# 6 0.0000 0.0000 0.0000 0.0000 0.0000 24.6696
#
#
#
# Elastic Compliance Matrix: (Units=1/GPa)
#
#
# Indices 1 2 3 4 5 6 
#
# 1 0.051393 -0.006156 -0.015241 0.000000 0.000000 0.000000
# 2 -0.006156 0.009130 -0.003600 0.000000 0.000000 0.000000
# 3 -0.015241 -0.003600 0.017402 0.000000 0.000000 0.000000
# 4 0.000000 0.000000 0.000000 0.040729 0.000000 0.000000
# 5 0.000000 0.000000 0.000000 0.000000 0.042029 0.000000
# 6 0.000000 0.000000 0.000000 0.000000 0.000000 0.040536
#
#
# Mechanical properties :
#
#
# Convention : Reuss Voigt Hill
#
# Bulk Modulus (GPa) = 35.80186 67.14623 51.47404
# Shear Modulus (GPa) = 19.19220 25.10801 22.15011
#
# Velocity S-wave (km/s) = 3.31908 3.79631 3.56569
# Velocity P-wave (km/s) = 5.93622 7.59986 6.81897
#
# Compressibility (1/GPa) = 0.02793151
#
# Stress axis : x y z
#
# Youngs Moduli (GPa) = 19.45789 109.52876 57.46568
#
# Poissons Ratio (x) = 0.67427 0.87581
# Poissons Ratio (y) = 0.11978 0.20687
# Poissons Ratio (z) = 0.29655 0.39430
#
# Static dielectric constant tensor:
#      x y z
#    x 2.823060 0.000000 0.000000 
#    y 0.000000 3.646200 0.000000 
#    z 0.000000 0.000000 3.096300 
# 
# 
# High freq. dielectric constant tensor:
#      x y z
#    x 1.632490 0.000000 0.000000 
#    y 0.000000 1.693650 0.000000 
#    z 0.000000 0.000000 1.650910 
# 
# From -- ./inp_files/13848.got.cif
#   From: 2010.03.12/outbox.cif.g09.slc.cpg/sg36_7_cif.got.tgz:13848.got - 2010.04.14 02:13:53.
