data_PCOD8174733
_publ_section_title
;
Structure prediction by ZEFSAII (Michael W. Deem and Ramdas Pophale) SiO2 
 PCOD8174733
Probable space group: C M C 21
;
_chemical_formula_sum "Si O2"
_cell_formula_units_Z 64
_cell_length_a 8.822024
_cell_length_b 23.629886
_cell_length_c 14.486772
_cell_angle_alpha 90.000000
_cell_angle_beta 90.000000
_cell_angle_gamma 90.000000
_cell_volume 3019.962056
_symmetry_space_group_name_H-M "C M C 21"
_symmetry_group_IT_number 36
_symmetry_cell_setting 'orthorhombic'
loop_
_space_group_symop_operation_xyz
x,y,z
-x,-y,1/2+z
x,-y,1/2+z
-x,y,z
1/2+x,1/2+y,z
1/2-x,1/2-y,1/2+z
1/2+x,1/2-y,1/2+z
1/2-x,1/2+y,z
loop_
_atom_site_type_symbol
_atom_site_label
_atom_site_fract_x
_atom_site_fract_y
_atom_site_fract_z
Si Si1 0.829071 0.283025 0.794570
Si Si2 0.824536 0.504349 0.203747
Si Si3 0.821926 0.807394 0.977186
Si Si4 0.677738 0.058024 0.884671
Si Si5 0.325296 0.578887 0.065152
Si Si6 0.675769 0.113445 0.610824
Si Si7 0.322963 0.707988 0.096790
Si Si8 0.170023 0.155454 0.782741
O O1 0.727727 0.314217 0.870958
O O2 0.760464 0.290170 0.694096
O O3 0.831371 0.217684 0.824747
O O4 0.000000 0.307666 0.795141
O O5 0.781325 0.491216 0.310663
O O6 0.784423 0.450139 0.140617
O O7 0.000000 0.520152 0.195951
O O8 0.727661 0.557063 0.166170
O O9 0.000000 0.798358 0.984817
O O10 0.773542 0.866960 0.023220
O O11 0.741827 0.754553 0.027091
O O12 0.500000 0.070707 0.879341
O O13 0.729267 0.043279 0.988562
O O14 0.769296 0.114672 0.861941
O O15 0.500000 0.564214 0.051432
O O16 0.294747 0.645588 0.055450
O O17 0.500000 0.120893 0.587448
O O18 0.718967 0.154850 0.694974
O O19 0.500000 0.719862 0.111643
O O20 0.000000 0.137140 0.752895
#
# Coordination Sequence:
#
# PCOD8174733 Si02
#       8
#     8   8   8   8   8   8   8   8
#     4  11  23  38  58  88 123 163 205 248 305 367
#     4   9  21  41  64  90 118 156 203 252 305 364
#     4  12  24  38  60  91 124 163 205 249 307 369
#     4  10  21  38  63  92 120 160 208 252 304 365
#     4  11  24  41  63  92 124 162 204 255 311 364
#     4  10  20  37  61  86 116 153 197 248 302 358
#     4  11  24  42  62  89 127 165 206 255 306 368
#     4  10  19  33  57  88 120 152 198 251 298 353
#
# _framework density 21.192319000000001
#
# number of rings (size 3 to 8) (size 9 to 14) (size 15 to 20)
#    0.000    1.500    1.250    4.875    0.000    9.500 
#    2.250    0.000    0.000    0.000    0.000    0.000 
#    0.000    0.000    0.000    0.000    0.000    0.000 
#
# Total GULP energy -396839.288263 kJ/mol
# GULP energy per Si atom -12401.227758 kJ/mol
# Density = 2.114408 g / cm^3
# Si number density = 21.192319 Si / 1000 Ang^3
#
#
#
# Elastic Constant Matrix: (Units=GPa)
#
#
# Indices 1 2 3 4 5 6 
#
# 1 101.6895 24.3091 20.9706 0.0000 0.0000 0.0000
# 2 24.3091 30.0214 2.1765 0.0000 0.0000 0.0000
# 3 20.9706 2.1765 89.0083 0.0000 0.0000 0.0000
# 4 0.0000 0.0000 0.0000 24.9821 0.0000 0.0000
# 5 0.0000 0.0000 0.0000 0.0000 37.6646 0.0000
# 6 0.0000 0.0000 0.0000 0.0000 0.0000 28.6865
#
#
#
# Elastic Compliance Matrix: (Units=1/GPa)
#
#
# Indices 1 2 3 4 5 6 
#
# 1 0.012845 -0.010199 -0.002777 0.000000 0.000000 0.000000
# 2 -0.010199 0.041468 0.001389 0.000000 0.000000 0.000000
# 3 -0.002777 0.001389 0.011855 0.000000 0.000000 0.000000
# 4 0.000000 0.000000 0.000000 0.040029 0.000000 0.000000
# 5 0.000000 0.000000 0.000000 0.000000 0.026550 0.000000
# 6 0.000000 0.000000 0.000000 0.000000 0.000000 0.034860
#
#
# Mechanical properties :
#
#
# Convention : Reuss Voigt Hill
#
# Bulk Modulus (GPa) = 23.25961 35.07018 29.16490
# Shear Modulus (GPa) = 24.37703 29.81751 27.09727
#
# Velocity S-wave (km/s) = 3.39525 3.75506 3.57968
# Velocity P-wave (km/s) = 5.13514 5.94854 5.55674
#
# Compressibility (1/GPa) = 0.04299298
#
# Stress axis : x y z
#
# Youngs Moduli (GPa) = 77.85317 24.11525 84.35142
#
# Poissons Ratio (x) = 0.24596 0.23423
# Poissons Ratio (y) = 0.79405 -0.11716
# Poissons Ratio (z) = 0.21619 -0.03350
#
# Static dielectric constant tensor:
#      x y z
#    x 3.866920 0.000000 0.000000 
#    y 0.000000 3.719420 0.000000 
#    z 0.000000 0.000000 3.836560 
# 
# 
# High freq. dielectric constant tensor:
#      x y z
#    x 1.839500 0.000000 0.000000 
#    y 0.000000 1.812480 0.000000 
#    z 0.000000 0.000000 1.836360 
# 
# From -- ./inp_files/10963.got.cif
#   From: 2010.03.12/outbox.cif.g09.slc.cpg/sg36_6_cif.got.tgz:10963.got - 2010.04.14 02:13:53.
