data_PCOD8174523
_publ_section_title
;
Structure prediction by ZEFSAII (Michael W. Deem and Ramdas Pophale) SiO2 
 PCOD8174523
Probable space group: C M C 21
;
_chemical_formula_sum "Si O2"
_cell_formula_units_Z 64
_cell_length_a 20.620718
_cell_length_b 18.686845
_cell_length_c 8.827572
_cell_angle_alpha 90.000000
_cell_angle_beta 90.000000
_cell_angle_gamma 90.000000
_cell_volume 3401.582706
_symmetry_space_group_name_H-M "C M C 21"
_symmetry_group_IT_number 36
_symmetry_cell_setting 'orthorhombic'
loop_
_space_group_symop_operation_xyz
x,y,z
-x,-y,1/2+z
x,-y,1/2+z
-x,y,z
1/2+x,1/2+y,z
1/2-x,1/2-y,1/2+z
1/2+x,1/2-y,1/2+z
1/2-x,1/2+y,z
loop_
_atom_site_type_symbol
_atom_site_label
_atom_site_fract_x
_atom_site_fract_y
_atom_site_fract_z
Si Si1 0.570645 0.035998 0.813840
Si Si2 0.924349 0.084370 0.264017
Si Si3 0.163769 0.411269 0.808501
Si Si4 0.072265 0.653788 0.069327
Si Si5 0.741105 0.538049 0.757490
Si Si6 0.152041 0.366899 0.133820
Si Si7 0.650020 0.507085 0.010254
Si Si8 0.425019 0.750203 0.296898
O O1 0.500000 0.007605 0.773347
O O2 0.594636 0.075991 0.661767
O O3 0.611282 0.968108 0.860554
O O4 0.572037 0.087482 0.956793
O O5 0.909229 0.167139 0.289399
O O6 0.000000 0.067564 0.260031
O O7 0.894040 0.041002 0.402340
O O8 0.894361 0.062264 0.102808
O O9 0.131658 0.357389 0.686336
O O10 0.226068 0.457511 0.752070
O O11 0.177748 0.365371 0.960718
O O12 0.000000 0.660261 0.145660
O O13 0.086593 0.724712 0.970257
O O14 0.790597 0.603986 0.743345
O O15 0.703536 0.550508 0.914310
O O16 0.689141 0.544197 0.623398
O O17 0.125630 0.289186 0.183497
O O18 0.500000 0.766828 0.249707
#
# Coordination Sequence:
#
# PCOD8174523 Si02
#       8
#     8   8   8   8   8   8   8   8
#     4   9  17  27  41  67 104 151 206 249 275 305
#     4  10  21  42  69  93 109 135 178 241 310 359
#     4  11  19  27  47  75 113 157 202 238 266 310
#     4   9  18  30  46  74 113 159 199 237 277 320
#     4  10  20  35  53  85 119 155 194 236 278 322
#     4  10  19  31  50  76 113 162 194 224 275 329
#     4  10  21  38  65  86 115 137 181 241 297 350
#     4   9  20  38  57  80 119 156 190 232 284 343
#
# _framework density 18.814772000000001
#
# number of rings (size 3 to 8) (size 9 to 14) (size 15 to 20)
#    0.000    2.250    1.250    3.375    3.500    3.000 
#    0.000    3.750    0.000    6.000    0.000    0.000 
#    0.000    0.000    0.000    0.000    0.000    0.000 
#
# Total GULP energy -396567.749807 kJ/mol
# GULP energy per Si atom -12392.742181 kJ/mol
# Density = 1.877195 g / cm^3
# Si number density = 18.814772 Si / 1000 Ang^3
#
#
#
# Elastic Constant Matrix: (Units=GPa)
#
#
# Indices 1 2 3 4 5 6 
#
# 1 97.9362 46.6710 43.2160 0.0000 0.0000 0.0000
# 2 46.6710 100.6962 44.9543 0.0000 0.0000 0.0000
# 3 43.2160 44.9543 105.2370 0.0000 0.0000 0.0000
# 4 0.0000 0.0000 0.0000 18.4569 0.0000 0.0000
# 5 0.0000 0.0000 0.0000 0.0000 29.3568 0.0000
# 6 0.0000 0.0000 0.0000 0.0000 0.0000 19.2773
#
#
#
# Elastic Compliance Matrix: (Units=1/GPa)
#
#
# Indices 1 2 3 4 5 6 
#
# 1 0.014200 -0.004916 -0.003731 0.000000 0.000000 0.000000
# 2 -0.004916 0.013973 -0.003950 0.000000 0.000000 0.000000
# 3 -0.003731 -0.003950 0.012722 0.000000 0.000000 0.000000
# 4 0.000000 0.000000 0.000000 0.054180 0.000000 0.000000
# 5 0.000000 0.000000 0.000000 0.000000 0.034064 0.000000
# 6 0.000000 0.000000 0.000000 0.000000 0.000000 0.051875
#
#
# Mechanical properties :
#
#
# Convention : Reuss Voigt Hill
#
# Bulk Modulus (GPa) = 63.69304 63.72799 63.71051
# Shear Modulus (GPa) = 23.64730 24.68672 24.16701
#
# Velocity S-wave (km/s) = 3.54905 3.62621 3.58784
# Velocity P-wave (km/s) = 7.12183 7.17477 7.14835
#
# Compressibility (1/GPa) = 0.01570030
#
# Stress axis : x y z
#
# Youngs Moduli (GPa) = 70.42376 71.56863 78.60361
#
# Poissons Ratio (x) = 0.35180 0.29330
# Poissons Ratio (y) = 0.34617 0.31049
# Poissons Ratio (z) = 0.26278 0.28270
#
# Static dielectric constant tensor:
#      x y z
#    x 3.630260 0.000000 0.000000 
#    y 0.000000 3.158190 0.000000 
#    z 0.000000 0.000000 3.581660 
# 
# 
# High freq. dielectric constant tensor:
#      x y z
#    x 1.736770 0.000000 0.000000 
#    y 0.000000 1.693110 0.000000 
#    z 0.000000 0.000000 1.730700 
# 
# From -- ./inp_files/5329.got.cif
#   From: 2010.03.12/outbox.cif.g09.slc.cpg/sg36_3_cif.got.tgz:5329.got - 2010.04.14 02:13:53.
