data_PCOD8174519
_publ_section_title
;
Structure prediction by ZEFSAII (Michael W. Deem and Ramdas Pophale) SiO2 
 PCOD8174519
Probable space group: C M C 21
;
_chemical_formula_sum "Si O2"
_cell_formula_units_Z 64
_cell_length_a 8.821791
_cell_length_b 20.155804
_cell_length_c 20.189857
_cell_angle_alpha 90.000000
_cell_angle_beta 90.000000
_cell_angle_gamma 90.000000
_cell_volume 3589.964335
_symmetry_space_group_name_H-M "C M C 21"
_symmetry_group_IT_number 36
_symmetry_cell_setting 'orthorhombic'
loop_
_space_group_symop_operation_xyz
x,y,z
-x,-y,1/2+z
x,-y,1/2+z
-x,y,z
1/2+x,1/2+y,z
1/2-x,1/2-y,1/2+z
1/2+x,1/2-y,1/2+z
1/2-x,1/2+y,z
loop_
_atom_site_type_symbol
_atom_site_label
_atom_site_fract_x
_atom_site_fract_y
_atom_site_fract_z
Si Si1 0.321055 0.325385 0.880550
Si Si2 0.821281 0.683013 0.736828
Si Si3 0.178594 0.427461 0.635747
Si Si4 0.820514 0.424075 0.130133
Si Si5 0.322008 0.177183 0.885603
Si Si6 0.180164 0.323268 0.741303
Si Si7 0.178995 0.070250 0.491359
Si Si8 0.319648 0.069923 0.987129
O O1 0.500000 0.325681 0.867407
O O2 0.266253 0.251696 0.901993
O O3 0.240241 0.345999 0.812625
O O4 0.271184 0.375784 0.937271
O O5 0.765761 0.627103 0.685938
O O6 0.775943 0.658641 0.810464
O O7 0.738217 0.751211 0.719437
O O8 0.000000 0.695747 0.732349
O O9 0.232508 0.502376 0.652273
O O10 0.247847 0.375686 0.688073
O O11 0.229958 0.408794 0.561198
O O12 0.000000 0.423549 0.641205
O O13 0.000000 0.421875 0.119502
O O14 0.742830 0.404438 0.061267
O O15 0.500000 0.173199 0.895244
O O16 0.250153 0.124403 0.936700
O O17 0.000000 0.322752 0.742264
O O18 0.000000 0.063448 0.496319
O O19 0.248954 0.000704 0.468575
O O20 0.500000 0.062804 0.981876
#
# Coordination Sequence:
#
# PCOD8174519 Si02
#       8
#     8   8   8   8   8   8   8   8
#     4   9  19  35  51  69  97 130 162 198 243 292
#     4   9  18  33  51  72 100 130 161 199 243 288
#     4   8  16  30  48  72  97 122 159 202 236 272
#     4   9  18  34  53  70  94 130 167 200 234 283
#     4   8  15  30  52  72  90 123 166 197 226 276
#     4  10  19  31  50  74  99 127 162 204 242 282
#     4  10  20  33  50  73 100 126 155 200 251 292
#     4   9  17  32  53  72  93 124 162 200 235 281
#
# _framework density 17.827475
#
# number of rings (size 3 to 8) (size 9 to 14) (size 15 to 20)
#    0.000    3.000    0.000    2.250    0.000    3.500 
#    0.000   12.500    0.000    0.000    0.000    0.000 
#    0.000    0.000    0.000    0.000    0.000    0.000 
#
# Total GULP energy -396714.893892 kJ/mol
# GULP energy per Si atom -12397.340434 kJ/mol
# Density = 1.778690 g / cm^3
# Si number density = 17.827475 Si / 1000 Ang^3
#
#
#
# Elastic Constant Matrix: (Units=GPa)
#
#
# Indices 1 2 3 4 5 6 
#
# 1 33.2628 35.6410 35.7250 0.0000 0.0000 0.0000
# 2 35.6410 146.8385 129.6623 0.0000 0.0000 0.0000
# 3 35.7250 129.6623 160.2573 0.0000 0.0000 0.0000
# 4 0.0000 0.0000 0.0000 46.6655 0.0000 0.0000
# 5 0.0000 0.0000 0.0000 0.0000 23.8116 0.0000
# 6 0.0000 0.0000 0.0000 0.0000 0.0000 25.1864
#
#
#
# Elastic Compliance Matrix: (Units=1/GPa)
#
#
# Indices 1 2 3 4 5 6 
#
# 1 0.041294 -0.006634 -0.003838 0.000000 0.000000 0.000000
# 2 -0.006634 0.024915 -0.018679 0.000000 0.000000 0.000000
# 3 -0.003838 -0.018679 0.022209 0.000000 0.000000 0.000000
# 4 0.000000 0.000000 0.000000 0.021429 0.000000 0.000000
# 5 0.000000 0.000000 0.000000 0.000000 0.041996 0.000000
# 6 0.000000 0.000000 0.000000 0.000000 0.000000 0.039704
#
#
# Mechanical properties :
#
#
# Convention : Reuss Voigt Hill
#
# Bulk Modulus (GPa) = 33.20611 82.49058 57.84834
# Shear Modulus (GPa) = 19.23906 28.42141 23.83024
#
# Velocity S-wave (km/s) = 3.28865 3.99713 3.66008
# Velocity P-wave (km/s) = 5.75214 8.22647 7.09796
#
# Compressibility (1/GPa) = 0.03011494
#
# Stress axis : x y z
#
# Youngs Moduli (GPa) = 24.21666 40.13661 45.02712
#
# Poissons Ratio (x) = 0.26627 0.17280
# Poissons Ratio (y) = 0.16066 0.84108
# Poissons Ratio (z) = 0.09294 0.74973
#
# Static dielectric constant tensor:
#      x y z
#    x 3.015390 0.000000 0.000000 
#    y 0.000000 3.526270 0.000000 
#    z 0.000000 0.000000 3.509100 
# 
# 
# High freq. dielectric constant tensor:
#      x y z
#    x 1.663380 0.000000 0.000000 
#    y 0.000000 1.694790 0.000000 
#    z 0.000000 0.000000 1.695000 
# 
# From -- ./inp_files/14086.got.cif
#   From: 2010.03.12/outbox.cif.g09.slc.cpg/sg36_8_cif.got.tgz:14086.got - 2010.04.14 02:13:53.
