data_PCOD8174428
_publ_section_title
;
Structure prediction by ZEFSAII (Michael W. Deem and Ramdas Pophale) SiO2 
 PCOD8174428
Probable space group: C M C 21
;
_chemical_formula_sum "Si O2"
_cell_formula_units_Z 64
_cell_length_a 8.990913
_cell_length_b 20.033386
_cell_length_c 19.697817
_cell_angle_alpha 90.000000
_cell_angle_beta 90.000000
_cell_angle_gamma 90.000000
_cell_volume 3547.939885
_symmetry_space_group_name_H-M "C M C 21"
_symmetry_group_IT_number 36
_symmetry_cell_setting 'orthorhombic'
loop_
_space_group_symop_operation_xyz
x,y,z
-x,-y,1/2+z
x,-y,1/2+z
-x,y,z
1/2+x,1/2+y,z
1/2-x,1/2-y,1/2+z
1/2+x,1/2-y,1/2+z
1/2-x,1/2+y,z
loop_
_atom_site_type_symbol
_atom_site_label
_atom_site_fract_x
_atom_site_fract_y
_atom_site_fract_z
Si Si1 0.672039 0.821817 0.951490
Si Si2 0.675115 0.028529 0.464986
Si Si3 0.674494 0.845895 0.329815
Si Si4 0.674211 0.083505 0.227461
Si Si5 0.829471 0.283182 0.800461
Si Si6 0.175391 0.576279 0.075285
Si Si7 0.674717 0.192973 0.982101
Si Si8 0.676626 0.518091 0.828513
O O1 0.500000 0.809851 0.964882
O O2 0.721709 0.894854 0.976522
O O3 0.712289 0.816833 0.872204
O O4 0.757770 0.766103 0.994954
O O5 0.500000 0.021778 0.447821
O O6 0.764463 0.996270 0.403586
O O7 0.718703 0.990051 0.533784
O O8 0.500000 0.856190 0.319482
O O9 0.727823 0.781617 0.286567
O O10 0.719068 0.834384 0.408104
O O11 0.759198 0.911177 0.302897
O O12 0.500000 0.065550 0.236036
O O13 0.701116 0.161610 0.243120
O O14 0.736047 0.070468 0.151682
O O15 0.769472 0.038900 0.277795
O O16 0.000000 0.259536 0.800092
O O17 0.000000 0.584976 0.078158
O O18 0.241145 0.641589 0.037425
O O19 0.500000 0.199645 0.988728
O O20 0.500000 0.520420 0.829113
#
# Coordination Sequence:
#
# PCOD8174428 Si02
#       8
#     8   8   8   8   8   8   8   8
#     4   9  17  29  50  77 105 136 170 216 266 311
#     4  10  18  35  57  80 109 144 185 226 270 326
#     4  10  19  33  55  79 106 138 177 225 274 319
#     4  10  20  37  58  79 109 150 184 221 276 334
#     4   9  17  31  51  78 108 137 175 218 267 322
#     4   9  18  34  58  81 104 142 187 221 267 333
#     4   9  17  31  52  78 105 133 171 220 264 319
#     4  12  23  34  53  82 112 144 185 231 276 322
#
# _framework density 18.038637000000001
#
# number of rings (size 3 to 8) (size 9 to 14) (size 15 to 20)
#    0.000    2.250    2.500    1.500    0.000    1.500 
#    0.000    2.500    0.000    3.000    0.000    0.000 
#    0.000    0.000    0.000    0.000    0.000    0.000 
#
# Total GULP energy -396815.465795 kJ/mol
# GULP energy per Si atom -12400.483306 kJ/mol
# Density = 1.799758 g / cm^3
# Si number density = 18.038637 Si / 1000 Ang^3
#
#
#
# Elastic Constant Matrix: (Units=GPa)
#
#
# Indices 1 2 3 4 5 6 
#
# 1 60.3750 38.1821 18.1337 0.0000 0.0000 0.0000
# 2 38.1821 111.8343 16.4028 0.0000 0.0000 0.0000
# 3 18.1337 16.4028 56.3594 0.0000 0.0000 0.0000
# 4 0.0000 0.0000 0.0000 24.7469 0.0000 0.0000
# 5 0.0000 0.0000 0.0000 0.0000 12.0789 0.0000
# 6 0.0000 0.0000 0.0000 0.0000 0.0000 32.7514
#
#
#
# Elastic Compliance Matrix: (Units=1/GPa)
#
#
# Indices 1 2 3 4 5 6 
#
# 1 0.022509 -0.006918 -0.005229 0.000000 0.000000 0.000000
# 2 -0.006918 0.011467 -0.001111 0.000000 0.000000 0.000000
# 3 -0.005229 -0.001111 0.019749 0.000000 0.000000 0.000000
# 4 0.000000 0.000000 0.000000 0.040409 0.000000 0.000000
# 5 0.000000 0.000000 0.000000 0.000000 0.082789 0.000000
# 6 0.000000 0.000000 0.000000 0.000000 0.000000 0.030533
#
#
# Mechanical properties :
#
#
# Convention : Reuss Voigt Hill
#
# Bulk Modulus (GPa) = 36.75365 41.55621 39.15493
# Shear Modulus (GPa) = 20.57264 24.30544 22.43904
#
# Velocity S-wave (km/s) = 3.38076 3.67469 3.53078
# Velocity P-wave (km/s) = 5.97148 6.41029 6.19477
#
# Compressibility (1/GPa) = 0.02720818
#
# Stress axis : x y z
#
# Youngs Moduli (GPa) = 44.42743 87.20900 50.63524
#
# Poissons Ratio (x) = 0.60330 0.26476
# Poissons Ratio (y) = 0.30735 0.05628
# Poissons Ratio (z) = 0.23230 0.09692
#
# Static dielectric constant tensor:
#      x y z
#    x 3.162710 0.000000 0.000000 
#    y 0.000000 3.580800 0.000000 
#    z 0.000000 0.000000 3.270070 
# 
# 
# High freq. dielectric constant tensor:
#      x y z
#    x 1.679690 0.000000 0.000000 
#    y 0.000000 1.715060 0.000000 
#    z 0.000000 0.000000 1.669030 
# 
# From -- ./inp_files/13852.got.cif
#   From: 2010.03.12/outbox.cif.g09.slc.cpg/sg36_7_cif.got.tgz:13852.got - 2010.04.14 02:13:53.
