data_PCOD8174517
_publ_section_title
;
Structure prediction by ZEFSAII (Michael W. Deem and Ramdas Pophale) SiO2 
 PCOD8174517
Probable space group: C M C 21
;
_chemical_formula_sum "Si O2"
_cell_formula_units_Z 64
_cell_length_a 8.899197
_cell_length_b 18.615680
_cell_length_c 20.656630
_cell_angle_alpha 90.000000
_cell_angle_beta 90.000000
_cell_angle_gamma 90.000000
_cell_volume 3422.072421
_symmetry_space_group_name_H-M "C M C 21"
_symmetry_group_IT_number 36
_symmetry_cell_setting 'orthorhombic'
loop_
_space_group_symop_operation_xyz
x,y,z
-x,-y,1/2+z
x,-y,1/2+z
-x,y,z
1/2+x,1/2+y,z
1/2-x,1/2-y,1/2+z
1/2+x,1/2-y,1/2+z
1/2-x,1/2+y,z
loop_
_atom_site_type_symbol
_atom_site_label
_atom_site_fract_x
_atom_site_fract_y
_atom_site_fract_z
Si Si1 0.821162 0.546365 0.013270
Si Si2 0.176420 0.448687 0.752285
Si Si3 0.822059 0.203558 0.256608
Si Si4 0.177960 0.708534 0.389748
Si Si5 0.322160 0.701213 0.013447
Si Si6 0.821698 0.545321 0.635224
Si Si7 0.675477 0.952315 0.896980
Si Si8 0.821525 0.706024 0.634011
O O1 0.753344 0.624595 0.018622
O O2 0.764001 0.500201 0.074241
O O3 0.000000 0.552991 0.012083
O O4 0.754845 0.507514 0.948905
O O5 0.263664 0.375346 0.739354
O O6 0.233739 0.507593 0.701279
O O7 0.212043 0.478795 0.824186
O O8 0.000000 0.432213 0.744747
O O9 0.754112 0.234279 0.323232
O O10 0.767274 0.256214 0.199747
O O11 0.000000 0.201467 0.262420
O O12 0.227329 0.762082 0.446338
O O13 0.237567 0.628513 0.407113
O O14 0.000000 0.707306 0.379196
O O15 0.500000 0.692117 0.017295
O O16 0.261213 0.750037 0.072195
O O17 0.753832 0.625523 0.631951
O O18 0.000000 0.549494 0.634453
O O19 0.500000 0.950105 0.910757
O O20 0.000000 0.702790 0.631038
#
# Coordination Sequence:
#
# PCOD8174517 Si02
#       8
#     8   8   8   8   8   8   8   8
#     4  10  19  31  50  74  97 122 159 206 246 284
#     4   9  17  31  51  72  96 127 162 198 238 290
#     4  10  19  31  51  77 103 129 158 201 251 292
#     4   9  18  34  54  72  95 132 171 201 235 288
#     4  10  20  34  52  73 100 132 163 200 248 298
#     4   9  17  30  50  73  94 123 165 205 237 279
#     4   8  15  29  49  70  91 121 160 196 229 272
#     4   9  18  32  51  75 100 128 166 207 244 287
#
# _framework density 18.702117000000001
#
# number of rings (size 3 to 8) (size 9 to 14) (size 15 to 20)
#    0.000    2.750    0.000    2.625    0.000    4.500 
#    0.000    5.625    0.000    6.000    0.000    0.000 
#    0.000    0.000    0.000    0.000    0.000    0.000 
#
# Total GULP energy -396751.835373 kJ/mol
# GULP energy per Si atom -12398.494855 kJ/mol
# Density = 1.865955 g / cm^3
# Si number density = 18.702117 Si / 1000 Ang^3
#
#
#
# Elastic Constant Matrix: (Units=GPa)
#
#
# Indices 1 2 3 4 5 6 
#
# 1 24.5744 26.5106 32.5922 0.0000 0.0000 0.0000
# 2 26.5106 159.4485 114.0351 0.0000 0.0000 0.0000
# 3 32.5922 114.0351 186.9714 0.0000 0.0000 0.0000
# 4 0.0000 0.0000 0.0000 42.6479 0.0000 0.0000
# 5 0.0000 0.0000 0.0000 0.0000 19.7014 0.0000
# 6 0.0000 0.0000 0.0000 0.0000 0.0000 26.3283
#
#
#
# Elastic Compliance Matrix: (Units=1/GPa)
#
#
# Indices 1 2 3 4 5 6 
#
# 1 0.054337 -0.004009 -0.007027 0.000000 0.000000 0.000000
# 2 -0.004009 0.011420 -0.006266 0.000000 0.000000 0.000000
# 3 -0.007027 -0.006266 0.010395 0.000000 0.000000 0.000000
# 4 0.000000 0.000000 0.000000 0.023448 0.000000 0.000000
# 5 0.000000 0.000000 0.000000 0.000000 0.050758 0.000000
# 6 0.000000 0.000000 0.000000 0.000000 0.000000 0.037982
#
#
# Mechanical properties :
#
#
# Convention : Reuss Voigt Hill
#
# Bulk Modulus (GPa) = 24.06854 79.69667 51.88261
# Shear Modulus (GPa) = 21.11563 30.92596 26.02080
#
# Velocity S-wave (km/s) = 3.36378 4.07087 3.73410
# Velocity P-wave (km/s) = 5.28999 8.04998 6.81125
#
# Compressibility (1/GPa) = 0.04154802
#
# Stress axis : x y z
#
# Youngs Moduli (GPa) = 18.40374 87.56946 96.20012
#
# Poissons Ratio (x) = 0.35105 0.67598
# Poissons Ratio (y) = 0.07378 0.60279
# Poissons Ratio (z) = 0.12932 0.54871
#
# Static dielectric constant tensor:
#      x y z
#    x 2.991780 0.000000 0.000000 
#    y 0.000000 3.558310 0.000000 
#    z 0.000000 0.000000 3.765020 
# 
# 
# High freq. dielectric constant tensor:
#      x y z
#    x 1.679260 0.000000 0.000000 
#    y 0.000000 1.728960 0.000000 
#    z 0.000000 0.000000 1.745560 
# 
# From -- ./inp_files/15584.got.cif
#   From: 2010.03.12/outbox.cif.g09.slc.cpg/sg36_8_cif.got.tgz:15584.got - 2010.04.14 02:13:53.
