data_PCOD8174413
_publ_section_title
;
Structure prediction by ZEFSAII (Michael W. Deem and Ramdas Pophale) SiO2 
 PCOD8174413
Probable space group: C M C 21
;
_chemical_formula_sum "Si O2"
_cell_formula_units_Z 64
_cell_length_a 9.015679
_cell_length_b 20.545030
_cell_length_c 19.303805
_cell_angle_alpha 90.000000
_cell_angle_beta 90.000000
_cell_angle_gamma 90.000000
_cell_volume 3575.593524
_symmetry_space_group_name_H-M "C M C 21"
_symmetry_group_IT_number 36
_symmetry_cell_setting 'orthorhombic'
loop_
_space_group_symop_operation_xyz
x,y,z
-x,-y,1/2+z
x,-y,1/2+z
-x,y,z
1/2+x,1/2+y,z
1/2-x,1/2-y,1/2+z
1/2+x,1/2-y,1/2+z
1/2-x,1/2+y,z
loop_
_atom_site_type_symbol
_atom_site_label
_atom_site_fract_x
_atom_site_fract_y
_atom_site_fract_z
Si Si1 0.325328 0.567615 0.834940
Si Si2 0.673382 0.886239 0.623428
Si Si3 0.327881 0.945230 0.768680
Si Si4 0.328951 0.251098 0.629848
Si Si5 0.328363 0.808481 0.270214
Si Si6 0.824749 0.311926 0.839822
Si Si7 0.825313 0.890408 0.483571
Si Si8 0.826337 0.743953 0.479342
O O1 0.500000 0.572368 0.826620
O O2 0.268089 0.504222 0.796654
O O3 0.258978 0.630502 0.798457
O O4 0.281921 0.566072 0.916717
O O5 0.500000 0.878946 0.610374
O O6 0.705743 0.934781 0.687362
O O7 0.734607 0.815621 0.644668
O O8 0.746926 0.915912 0.553758
O O9 0.500000 0.961221 0.780705
O O10 0.278991 0.882453 0.812692
O O11 0.500000 0.274010 0.626372
O O12 0.306348 0.195383 0.687075
O O13 0.280101 0.219568 0.555980
O O14 0.500000 0.815172 0.290726
O O15 0.264221 0.741380 0.297684
O O16 0.769889 0.305207 0.919884
O O17 0.000000 0.299945 0.829745
O O18 0.766074 0.817355 0.467886
O O19 0.000000 0.891650 0.497351
O O20 0.000000 0.747633 0.470987
#
# Coordination Sequence:
#
# PCOD8174413 Si02
#       8
#     8   8   8   8   8   8   8   8
#     4  11  23  39  58  78 109 152 191 230 278 331
#     4  10  19  32  54  82 111 142 179 226 274 326
#     4  10  22  37  54  81 115 147 184 231 277 328
#     4   9  18  32  51  79 112 145 180 220 269 327
#     4  11  21  33  54  82 113 142 180 232 275 322
#     4  10  18  34  57  79 108 142 180 225 275 331
#     4   9  18  34  55  78 105 141 186 228 271 330
#     4   8  14  29  53  77 103 137 178 218 265 323
#
# _framework density 17.899125999999999
#
# number of rings (size 3 to 8) (size 9 to 14) (size 15 to 20)
#    0.000    2.250    2.500    1.875    0.000    3.000 
#    0.000    1.250    0.000    3.000    0.000    0.000 
#    0.000    0.000    0.000    0.000    0.000    0.000 
#
# Total GULP energy -396653.738436 kJ/mol
# GULP energy per Si atom -12395.429326 kJ/mol
# Density = 1.785839 g / cm^3
# Si number density = 17.899126 Si / 1000 Ang^3
#
#
#
# Elastic Constant Matrix: (Units=GPa)
#
#
# Indices 1 2 3 4 5 6 
#
# 1 74.8111 45.8283 59.6762 0.0000 0.0000 0.0000
# 2 45.8283 75.1377 59.4213 0.0000 0.0000 0.0000
# 3 59.6762 59.4213 149.3073 0.0000 0.0000 0.0000
# 4 0.0000 0.0000 0.0000 24.0819 0.0000 0.0000
# 5 0.0000 0.0000 0.0000 0.0000 27.7544 0.0000
# 6 0.0000 0.0000 0.0000 0.0000 0.0000 28.5449
#
#
#
# Elastic Compliance Matrix: (Units=1/GPa)
#
#
# Indices 1 2 3 4 5 6 
#
# 1 0.024101 -0.010334 -0.005520 0.000000 0.000000 0.000000
# 2 -0.010334 0.023853 -0.005362 0.000000 0.000000 0.000000
# 3 -0.005520 -0.005362 0.011038 0.000000 0.000000 0.000000
# 4 0.000000 0.000000 0.000000 0.041525 0.000000 0.000000
# 5 0.000000 0.000000 0.000000 0.000000 0.036030 0.000000
# 6 0.000000 0.000000 0.000000 0.000000 0.000000 0.035033
#
#
# Mechanical properties :
#
#
# Convention : Reuss Voigt Hill
#
# Bulk Modulus (GPa) = 60.39290 69.90085 65.14687
# Shear Modulus (GPa) = 22.77565 25.03159 23.90362
#
# Velocity S-wave (km/s) = 3.57100 3.74368 3.65836
# Velocity P-wave (km/s) = 7.12858 7.60423 7.37025
#
# Compressibility (1/GPa) = 0.01655824
#
# Stress axis : x y z
#
# Youngs Moduli (GPa) = 41.49218 41.92365 90.59624
#
# Poissons Ratio (x) = 0.43326 0.50009
# Poissons Ratio (y) = 0.42880 0.48582
# Poissons Ratio (z) = 0.22903 0.22481
#
# Static dielectric constant tensor:
#      x y z
#    x 3.229780 0.000000 0.000000 
#    y 0.000000 3.213640 0.000000 
#    z 0.000000 0.000000 3.985380 
# 
# 
# High freq. dielectric constant tensor:
#      x y z
#    x 1.684920 0.000000 0.000000 
#    y 0.000000 1.658580 0.000000 
#    z 0.000000 0.000000 1.716010 
# 
# From -- ./inp_files/15717.got.cif
#   From: 2010.03.12/outbox.cif.g09.slc.cpg/sg36_8_cif.got.tgz:15717.got - 2010.04.14 02:13:53.
