data_PCOD8174898
_publ_section_title
;
Structure prediction by ZEFSAII (Michael W. Deem and Ramdas Pophale) SiO2 
 PCOD8174898
Probable space group: C M C 21
;
_chemical_formula_sum "Si O2"
_cell_formula_units_Z 64
_cell_length_a 9.180281
_cell_length_b 32.216387
_cell_length_c 10.943722
_cell_angle_alpha 90.000000
_cell_angle_beta 90.000000
_cell_angle_gamma 90.000000
_cell_volume 3236.665813
_symmetry_space_group_name_H-M "C M C 21"
_symmetry_group_IT_number 36
_symmetry_cell_setting 'orthorhombic'
loop_
_space_group_symop_operation_xyz
x,y,z
-x,-y,1/2+z
x,-y,1/2+z
-x,y,z
1/2+x,1/2+y,z
1/2-x,1/2-y,1/2+z
1/2+x,1/2-y,1/2+z
1/2-x,1/2+y,z
loop_
_atom_site_type_symbol
_atom_site_label
_atom_site_fract_x
_atom_site_fract_y
_atom_site_fract_z
Si Si1 0.339244 0.609253 0.264130
Si Si2 0.169627 0.736498 0.311399
Si Si3 0.827418 0.977613 0.858362
Si Si4 0.832242 0.668082 0.110140
Si Si5 0.166240 0.684611 0.842982
Si Si6 0.166402 0.380091 0.149530
Si Si7 0.673415 0.533281 0.631666
Si Si8 0.336589 0.677098 0.472014
O O1 0.500000 0.598362 0.213685
O O2 0.268379 0.568190 0.324296
O O3 0.243786 0.625499 0.152190
O O4 0.348925 0.644865 0.363054
O O5 0.198125 0.706726 0.197449
O O6 0.231308 0.781734 0.275140
O O7 0.260829 0.719544 0.427402
O O8 0.000000 0.738770 0.345554
O O9 0.000000 0.978469 0.853981
O O10 0.767733 0.008412 0.751500
O O11 0.779027 0.987579 0.999901
O O12 0.000000 0.656565 0.101942
O O13 0.770380 0.680477 0.978928
O O14 0.174402 0.638579 0.785564
O O15 0.000000 0.701066 0.840594
O O16 0.261234 0.421067 0.138861
O O17 0.000000 0.389456 0.109659
O O18 0.231761 0.342809 0.071083
O O19 0.500000 0.537550 0.635037
O O20 0.500000 0.686897 0.522357
#
# Coordination Sequence:
#
# PCOD8174898 Si02
#       8
#     8   8   8   8   8   8   8   8
#     4   9  17  33  57  84 108 139 184 233 281 338
#     4  10  21  36  57  86 112 142 190 238 284 343
#     4   9  18  34  58  87 116 148 192 241 292 354
#     4   9  20  38  55  77 110 147 184 231 288 346
#     4  10  23  40  55  77 115 155 189 235 293 344
#     4  11  23  38  57  84 117 154 197 243 288 344
#     4  10  20  38  61  86 117 155 197 246 303 361
#     4  10  19  35  60  83 111 148 187 231 285 340
#
# _framework density 19.773433000000001
#
# number of rings (size 3 to 8) (size 9 to 14) (size 15 to 20)
#    0.000    2.250    1.250    1.125    1.750    3.500 
#    0.000    2.500    0.000    0.000    0.000    0.000 
#    0.000    0.000    0.000    0.000    0.000    0.000 
#
# Total GULP energy -396638.889546 kJ/mol
# GULP energy per Si atom -12394.965298 kJ/mol
# Density = 1.972843 g / cm^3
# Si number density = 19.773433 Si / 1000 Ang^3
#
#
#
# Elastic Constant Matrix: (Units=GPa)
#
#
# Indices 1 2 3 4 5 6 
#
# 1 60.5857 22.5670 37.5169 0.0000 0.0000 0.0000
# 2 22.5670 77.2955 41.7918 0.0000 0.0000 0.0000
# 3 37.5169 41.7918 106.5266 0.0000 0.0000 0.0000
# 4 0.0000 0.0000 0.0000 24.4035 0.0000 0.0000
# 5 0.0000 0.0000 0.0000 0.0000 23.3109 0.0000
# 6 0.0000 0.0000 0.0000 0.0000 0.0000 29.3355
#
#
#
# Elastic Compliance Matrix: (Units=1/GPa)
#
#
# Indices 1 2 3 4 5 6 
#
# 1 0.021570 -0.002780 -0.006506 0.000000 0.000000 0.000000
# 2 -0.002780 0.016779 -0.005603 0.000000 0.000000 0.000000
# 3 -0.006506 -0.005603 0.013877 0.000000 0.000000 0.000000
# 4 0.000000 0.000000 0.000000 0.040978 0.000000 0.000000
# 5 0.000000 0.000000 0.000000 0.000000 0.042898 0.000000
# 6 0.000000 0.000000 0.000000 0.000000 0.000000 0.034088
#
#
# Mechanical properties :
#
#
# Convention : Reuss Voigt Hill
#
# Bulk Modulus (GPa) = 44.54980 49.79547 47.17264
# Shear Modulus (GPa) = 24.10212 24.91210 24.50711
#
# Velocity S-wave (km/s) = 3.49508 3.55333 3.52432
# Velocity P-wave (km/s) = 6.23430 6.48633 6.36157
#
# Compressibility (1/GPa) = 0.02244679
#
# Stress axis : x y z
#
# Youngs Moduli (GPa) = 46.36132 59.59969 72.06199
#
# Poissons Ratio (x) = 0.16568 0.46883
# Poissons Ratio (y) = 0.12888 0.40380
# Poissons Ratio (z) = 0.30162 0.33397
#
# Static dielectric constant tensor:
#      x y z
#    x 3.575210 0.000000 0.000000 
#    y 0.000000 3.542690 0.000000 
#    z 0.000000 0.000000 3.898050 
# 
# 
# High freq. dielectric constant tensor:
#      x y z
#    x 1.755690 0.000000 0.000000 
#    y 0.000000 1.764320 0.000000 
#    z 0.000000 0.000000 1.772670 
# 
# From -- ./inp_files/7208.got.cif
#   From: 2010.03.12/outbox.cif.g09.slc.cpg/sg36_4_cif.got.tgz:7208.got - 2010.04.14 02:13:53.
