data_PCOD8174558
_publ_section_title
;
Structure prediction by ZEFSAII (Michael W. Deem and Ramdas Pophale) SiO2 
 PCOD8174558
Probable space group: C M C 21
;
_chemical_formula_sum "Si O2"
_cell_formula_units_Z 40
_cell_length_a 17.590328
_cell_length_b 15.086280
_cell_length_c 9.646439
_cell_angle_alpha 90.000000
_cell_angle_beta 90.000000
_cell_angle_gamma 90.000000
_cell_volume 2559.900728
_symmetry_space_group_name_H-M "C M C 21"
_symmetry_group_IT_number 36
_symmetry_cell_setting 'orthorhombic'
loop_
_space_group_symop_operation_xyz
x,y,z
-x,-y,1/2+z
x,-y,1/2+z
-x,y,z
1/2+x,1/2+y,z
1/2-x,1/2-y,1/2+z
1/2+x,1/2-y,1/2+z
1/2-x,1/2+y,z
loop_
_atom_site_type_symbol
_atom_site_label
_atom_site_fract_x
_atom_site_fract_y
_atom_site_fract_z
Si Si1 0.794505 0.673125 0.220170
Si Si2 0.914273 0.436790 0.062729
Si Si3 0.180200 0.514581 0.819398
Si Si4 0.085145 0.739264 0.401603
Si Si5 0.235260 0.179404 0.918081
O O1 0.776713 0.570982 0.256645
O O2 0.883512 0.692975 0.259204
O O3 0.742847 0.738260 0.316308
O O4 0.781133 0.693009 0.059776
O O5 0.883157 0.446495 0.217280
O O6 0.000000 0.473975 0.056278
O O7 0.861051 0.494571 0.963523
O O8 0.913052 0.333556 0.022916
O O9 0.245290 0.587110 0.845121
O O10 0.143401 0.818254 0.444955
O O11 0.000000 0.776191 0.377936
#
# Coordination Sequence:
#
# PCOD8174558 Si02
#       5
#     8   8   8   8   8
#     4   9  20  32  52  77 100 134 174 213 254 308
#     4  10  19  32  49  75 110 137 166 211 266 316
#     4  11  19  32  49  78 106 136 175 208 261 310
#     4   8  18  33  52  74 104 137 169 209 262 307
#     4  10  19  33  53  76 102 136 176 213 252 311
#
# _framework density 15.625605999999999
#
# number of rings (size 3 to 8) (size 9 to 14) (size 15 to 20)
#    1.200    1.200    2.000    1.800    0.000    0.800 
#    0.000    0.000    0.000    2.400    0.000    0.000 
#    0.000    0.000    0.000    0.000    0.000    0.000 
#
# Total GULP energy -247817.868827 kJ/mol
# GULP energy per Si atom -12390.893441 kJ/mol
# Density = 1.559004 g / cm^3
# Si number density = 15.625606 Si / 1000 Ang^3
#
#
#
# Elastic Constant Matrix: (Units=GPa)
#
#
# Indices 1 2 3 4 5 6 
#
# 1 77.7019 46.2376 12.9393 0.0000 0.0000 0.0000
# 2 46.2376 89.6527 25.7811 0.0000 0.0000 0.0000
# 3 12.9393 25.7811 65.9239 0.0000 0.0000 0.0000
# 4 0.0000 0.0000 0.0000 19.4776 0.0000 0.0000
# 5 0.0000 0.0000 0.0000 0.0000 21.1898 0.0000
# 6 0.0000 0.0000 0.0000 0.0000 0.0000 23.5032
#
#
#
# Elastic Compliance Matrix: (Units=1/GPa)
#
#
# Indices 1 2 3 4 5 6 
#
# 1 0.018569 -0.009609 0.000113 0.000000 0.000000 0.000000
# 2 -0.009609 0.017540 -0.004973 0.000000 0.000000 0.000000
# 3 0.000113 -0.004973 0.017092 0.000000 0.000000 0.000000
# 4 0.000000 0.000000 0.000000 0.051341 0.000000 0.000000
# 5 0.000000 0.000000 0.000000 0.000000 0.047193 0.000000
# 6 0.000000 0.000000 0.000000 0.000000 0.000000 0.042547
#
#
# Mechanical properties :
#
#
# Convention : Reuss Voigt Hill
#
# Bulk Modulus (GPa) = 41.21666 44.79939 43.00802
# Shear Modulus (GPa) = 21.61615 22.72215 22.16915
#
# Velocity S-wave (km/s) = 3.72342 3.81748 3.77074
# Velocity P-wave (km/s) = 6.70224 6.94000 6.82216
#
# Compressibility (1/GPa) = 0.02426203
#
# Stress axis : x y z
#
# Youngs Moduli (GPa) = 53.85306 57.01144 58.50772
#
# Poissons Ratio (x) = 0.54785 -0.00663
# Poissons Ratio (y) = 0.51750 0.29099
# Poissons Ratio (z) = -0.00610 0.28354
#
# Static dielectric constant tensor:
#      x y z
#    x 2.864970 0.000000 0.000000 
#    y 0.000000 2.923350 0.000000 
#    z 0.000000 0.000000 2.916800 
# 
# 
# High freq. dielectric constant tensor:
#      x y z
#    x 1.578440 0.000000 0.000000 
#    y 0.000000 1.587950 0.000000 
#    z 0.000000 0.000000 1.603160 
# 
# From -- ./inp_files/3885.got.cif
#   From: 2010.03.12/outbox.cif.g09.slc.cpg/sg36_2_cif.got.tgz:3885.got - 2010.04.14 02:13:53.
