data_PCOD8174294
_publ_section_title
;
Structure prediction by ZEFSAII (Michael W. Deem and Ramdas Pophale) SiO2 
 PCOD8174294
Probable space group: C M C 21
;
_chemical_formula_sum "Si O2"
_cell_formula_units_Z 56
_cell_length_a 13.240018
_cell_length_b 13.748990
_cell_length_c 18.640276
_cell_angle_alpha 90.000000
_cell_angle_beta 90.000000
_cell_angle_gamma 90.000000
_cell_volume 3393.217594
_symmetry_space_group_name_H-M "C M C 21"
_symmetry_group_IT_number 36
_symmetry_cell_setting 'orthorhombic'
loop_
_space_group_symop_operation_xyz
x,y,z
-x,-y,1/2+z
x,-y,1/2+z
-x,y,z
1/2+x,1/2+y,z
1/2-x,1/2-y,1/2+z
1/2+x,1/2-y,1/2+z
1/2-x,1/2+y,z
loop_
_atom_site_type_symbol
_atom_site_label
_atom_site_fract_x
_atom_site_fract_y
_atom_site_fract_z
Si Si1 0.617261 0.854281 0.184840
Si Si2 0.882431 0.661147 0.851305
Si Si3 0.728063 0.242265 0.095571
Si Si4 0.114618 0.082078 0.558011
Si Si5 0.305944 0.025451 0.093477
Si Si6 0.616323 0.027262 0.439542
Si Si7 0.225595 0.814702 0.944650
O O1 0.500000 0.836916 0.169967
O O2 0.642904 0.850634 0.268370
O O3 0.676151 0.767662 0.144788
O O4 0.650338 0.960484 0.157485
O O5 0.848476 0.563567 0.891683
O O6 0.817546 0.751511 0.879995
O O7 0.000000 0.682561 0.865922
O O8 0.640427 0.323598 0.107871
O O9 0.681660 0.137788 0.114957
O O10 0.761788 0.246338 0.011445
O O11 0.186689 0.993588 0.581499
O O12 0.138890 0.111773 0.475252
O O13 0.000000 0.048598 0.567667
O O14 0.368496 0.998576 0.022733
O O15 0.500000 0.052472 0.425299
O O16 0.680373 0.121779 0.416327
#
# Coordination Sequence:
#
# PCOD8174294 Si02
#       7
#     8   8   8   8   8   8   8
#     4  10  21  35  50  77 109 135 170 216 263 308
#     4  10  20  34  54  76 104 138 171 214 264 308
#     4   9  19  31  50  75 100 134 170 205 258 299
#     4   8  16  29  46  72  98 121 164 209 243 292
#     4  10  18  31  51  75 101 132 170 210 255 301
#     4  10  18  32  54  78 102 132 172 216 256 304
#     4   9  18  30  53  75 100 130 173 210 255 300
#
# _framework density 16.503509999999999
#
# number of rings (size 3 to 8) (size 9 to 14) (size 15 to 20)
#    0.857    1.714    2.857    0.857    0.000    2.857 
#    0.000    0.000    0.000    3.429    0.000    0.000 
#    0.000    0.000    0.000    0.000    0.000    0.000 
#
# Total GULP energy -347038.915960 kJ/mol
# GULP energy per Si atom -12394.246999 kJ/mol
# Density = 1.646595 g / cm^3
# Si number density = 16.503510 Si / 1000 Ang^3
#
#
#
# Elastic Constant Matrix: (Units=GPa)
#
#
# Indices 1 2 3 4 5 6 
#
# 1 72.8722 9.8510 23.3459 0.0000 0.0000 0.0000
# 2 9.8510 66.1582 13.4324 0.0000 0.0000 0.0000
# 3 23.3459 13.4324 67.7316 0.0000 0.0000 0.0000
# 4 0.0000 0.0000 0.0000 24.6853 0.0000 0.0000
# 5 0.0000 0.0000 0.0000 0.0000 20.9158 0.0000
# 6 0.0000 0.0000 0.0000 0.0000 0.0000 21.8612
#
#
#
# Elastic Compliance Matrix: (Units=1/GPa)
#
#
# Indices 1 2 3 4 5 6 
#
# 1 0.015529 -0.001277 -0.005099 0.000000 0.000000 0.000000
# 2 -0.001277 0.015854 -0.002704 0.000000 0.000000 0.000000
# 3 -0.005099 -0.002704 0.017058 0.000000 0.000000 0.000000
# 4 0.000000 0.000000 0.000000 0.040510 0.000000 0.000000
# 5 0.000000 0.000000 0.000000 0.000000 0.047811 0.000000
# 6 0.000000 0.000000 0.000000 0.000000 0.000000 0.045743
#
#
# Mechanical properties :
#
#
# Convention : Reuss Voigt Hill
#
# Bulk Modulus (GPa) = 33.02423 33.33561 33.17992
# Shear Modulus (GPa) = 23.72372 24.16797 23.94585
#
# Velocity S-wave (km/s) = 3.79555 3.83092 3.81327
# Velocity P-wave (km/s) = 6.26595 6.30959 6.28780
#
# Compressibility (1/GPa) = 0.03028079
#
# Stress axis : x y z
#
# Youngs Moduli (GPa) = 64.39594 63.07375 58.62330
#
# Poissons Ratio (x) = 0.08054 0.29894
# Poissons Ratio (y) = 0.08223 0.15852
# Poissons Ratio (z) = 0.32837 0.17056
#
# Static dielectric constant tensor:
#      x y z
#    x 2.943950 0.000000 0.000000 
#    y 0.000000 3.002140 0.000000 
#    z 0.000000 0.000000 2.925720 
# 
# 
# High freq. dielectric constant tensor:
#      x y z
#    x 1.626510 0.000000 0.000000 
#    y 0.000000 1.631930 0.000000 
#    z 0.000000 0.000000 1.615790 
# 
# From -- ./inp_files/14746.got.cif
#   From: 2010.03.12/outbox.cif.g09.slc.cpg/sg36_8_cif.got.tgz:14746.got - 2010.04.14 02:13:53.
