data_PCOD8174234
_publ_section_title
;
Structure prediction by ZEFSAII (Michael W. Deem and Ramdas Pophale) SiO2 
 PCOD8174234
Probable space group: C M C 21
;
_chemical_formula_sum "Si O2"
_cell_formula_units_Z 56
_cell_length_a 28.912062
_cell_length_b 13.519226
_cell_length_c 8.823190
_cell_angle_alpha 90.000000
_cell_angle_beta 90.000000
_cell_angle_gamma 90.000000
_cell_volume 3448.708808
_symmetry_space_group_name_H-M "C M C 21"
_symmetry_group_IT_number 36
_symmetry_cell_setting 'orthorhombic'
loop_
_space_group_symop_operation_xyz
x,y,z
-x,-y,1/2+z
x,-y,1/2+z
-x,y,z
1/2+x,1/2+y,z
1/2-x,1/2-y,1/2+z
1/2+x,1/2-y,1/2+z
1/2-x,1/2+y,z
loop_
_atom_site_type_symbol
_atom_site_label
_atom_site_fract_x
_atom_site_fract_y
_atom_site_fract_z
Si Si1 0.898861 0.128004 0.689680
Si Si2 0.099806 0.081680 0.343679
Si Si3 0.773869 0.379631 0.333277
Si Si4 0.500000 0.559478 0.383797
Si Si5 0.317978 0.737352 0.838221
Si Si6 0.677224 0.702196 0.186479
Si Si7 0.270063 0.087688 0.182747
Si Si8 0.500000 0.626065 0.709398
O O1 0.886811 0.093573 0.519638
O O2 0.862735 0.209932 0.741077
O O3 0.950062 0.181586 0.704095
O O4 0.893437 0.032585 0.797772
O O5 0.045987 0.112181 0.317996
O O6 0.129536 0.155271 0.241929
O O7 0.722614 0.339601 0.301457
O O8 0.811571 0.298675 0.285267
O O9 0.778526 0.475808 0.230531
O O10 0.783558 0.402609 0.507789
O O11 0.500000 0.555034 0.564194
O O12 0.500000 0.442840 0.355093
O O13 0.303123 0.846302 0.787307
O O14 0.329251 0.737623 0.015163
O O15 0.716895 0.619562 0.206599
#
# Coordination Sequence:
#
# PCOD8174234 Si02
#       8
#     8   8   8   4   8   8   8   4
#     4  10  18  29  45  66  93 123 154 187 225 267
#     4  10  18  29  45  66  93 123 154 187 225 267
#     4  10  20  33  48  66  91 121 152 188 226 265
#     4   8  16  28  42  62  89 120 151 184 222 266
#     4  10  20  32  47  68  92 120 154 187 223 267
#     4  10  20  32  47  68  92 120 154 187 223 267
#     4  10  20  33  48  66  91 121 152 188 226 265
#     4   8  16  28  42  62  89 120 151 184 222 266
#
# _framework density 16.237962
#
# number of rings (size 3 to 8) (size 9 to 14) (size 15 to 20)
#    0.000    2.286    0.000    3.429    0.000    6.857 
#    0.000    0.000    0.000    0.000    0.000    1.000 
#    0.000    0.000    0.000    0.000    0.000    0.000 
#
# Total GULP energy -347084.364891 kJ/mol
# GULP energy per Si atom -12395.870175 kJ/mol
# Density = 1.620100 g / cm^3
# Si number density = 16.237962 Si / 1000 Ang^3
#
#
#
# Elastic Constant Matrix: (Units=GPa)
#
#
# Indices 1 2 3 4 5 6 
#
# 1 75.4531 15.2682 24.0378 0.0000 0.0000 0.0000
# 2 15.2682 57.4550 13.7123 0.0000 0.0000 0.0000
# 3 24.0378 13.7123 62.4505 0.0000 0.0000 0.0000
# 4 0.0000 0.0000 0.0000 29.8159 0.0000 0.0000
# 5 0.0000 0.0000 0.0000 0.0000 26.3144 0.0000
# 6 0.0000 0.0000 0.0000 0.0000 0.0000 21.2494
#
#
#
# Elastic Compliance Matrix: (Units=1/GPa)
#
#
# Indices 1 2 3 4 5 6 
#
# 1 0.015536 -0.002851 -0.005354 0.000000 0.000000 0.000000
# 2 -0.002851 0.018891 -0.003051 0.000000 0.000000 0.000000
# 3 -0.005354 -0.003051 0.018743 0.000000 0.000000 0.000000
# 4 0.000000 0.000000 0.000000 0.033539 0.000000 0.000000
# 5 0.000000 0.000000 0.000000 0.000000 0.038002 0.000000
# 6 0.000000 0.000000 0.000000 0.000000 0.000000 0.047060
#
#
# Mechanical properties :
#
#
# Convention : Reuss Voigt Hill
#
# Bulk Modulus (GPa) = 32.61668 33.48838 33.05253
# Shear Modulus (GPa) = 24.44976 24.96529 24.70753
#
# Velocity S-wave (km/s) = 3.88457 3.92531 3.90499
# Velocity P-wave (km/s) = 6.34430 6.41968 6.38210
#
# Compressibility (1/GPa) = 0.03065916
#
# Stress axis : x y z
#
# Youngs Moduli (GPa) = 64.36760 52.93662 53.35249
#
# Poissons Ratio (x) = 0.15091 0.28565
# Poissons Ratio (y) = 0.18349 0.16275
# Poissons Ratio (z) = 0.34462 0.16149
#
# Static dielectric constant tensor:
#      x y z
#    x 3.246890 0.000000 0.000000 
#    y 0.000000 2.782580 0.000000 
#    z 0.000000 0.000000 3.248530 
# 
# 
# High freq. dielectric constant tensor:
#      x y z
#    x 1.623010 0.000000 0.000000 
#    y 0.000000 1.587920 0.000000 
#    z 0.000000 0.000000 1.645290 
# 
# From -- ./inp_files/6115.got.cif
#   From: 2010.03.12/outbox.cif.g09.slc.cpg/sg36_4_cif.got.tgz:6115.got - 2010.04.14 02:13:53.
