data_PCOD8174507
_publ_section_title
;
Structure prediction by ZEFSAII (Michael W. Deem and Ramdas Pophale) SiO2 
 PCOD8174507
Probable space group: C M C 21
;
_chemical_formula_sum "Si O2"
_cell_formula_units_Z 64
_cell_length_a 8.805298
_cell_length_b 28.516786
_cell_length_c 14.271549
_cell_angle_alpha 90.000000
_cell_angle_beta 90.000000
_cell_angle_gamma 90.000000
_cell_volume 3583.568810
_symmetry_space_group_name_H-M "C M C 21"
_symmetry_group_IT_number 36
_symmetry_cell_setting 'orthorhombic'
loop_
_space_group_symop_operation_xyz
x,y,z
-x,-y,1/2+z
x,-y,1/2+z
-x,y,z
1/2+x,1/2+y,z
1/2-x,1/2-y,1/2+z
1/2+x,1/2-y,1/2+z
1/2-x,1/2+y,z
loop_
_atom_site_type_symbol
_atom_site_label
_atom_site_fract_x
_atom_site_fract_y
_atom_site_fract_z
Si Si1 0.178272 0.426212 0.464730
Si Si2 0.320463 0.677963 0.469541
Si Si3 0.180324 0.501916 0.320291
Si Si4 0.321451 0.250089 0.816736
Si Si5 0.678928 0.003810 0.607879
Si Si6 0.180532 0.678306 0.970901
Si Si7 0.319248 0.751134 0.107034
Si Si8 0.679155 0.570531 0.461579
O O1 0.237653 0.455389 0.374799
O O2 0.221533 0.454546 0.558778
O O3 0.249418 0.374308 0.467640
O O4 0.000000 0.420286 0.455343
O O5 0.500000 0.683555 0.483641
O O6 0.266621 0.704114 0.374423
O O7 0.239394 0.701587 0.558208
O O8 0.268759 0.624365 0.463275
O O9 0.237980 0.498547 0.214018
O O10 0.250763 0.547626 0.368561
O O11 0.000000 0.506938 0.326243
O O12 0.500000 0.251726 0.806055
O O13 0.272899 0.203518 0.873831
O O14 0.251717 0.249155 0.712762
O O15 0.500000 0.013277 0.602174
O O16 0.761087 0.046479 0.556138
O O17 0.000000 0.679381 0.985849
O O18 0.256553 0.704621 0.057713
O O19 0.500000 0.750533 0.104585
O O20 0.500000 0.565420 0.456950
#
# Coordination Sequence:
#
# PCOD8174507 Si02
#       8
#     8   8   8   8   8   8   8   8
#     4   8  15  29  49  71  93 122 160 194 230 284
#     4   9  19  36  52  68  97 135 165 193 242 302
#     4   9  18  33  52  73  99 131 166 204 244 289
#     4   8  16  31  49  67  91 124 158 192 234 286
#     4   9  18  33  52  74 101 131 164 203 245 291
#     4   9  17  32  50  66  92 128 158 187 234 295
#     4  10  19  31  49  73  95 118 159 209 245 280
#     4  10  20  33  51  74 100 131 166 204 246 295
#
# _framework density 17.859290999999999
#
# number of rings (size 3 to 8) (size 9 to 14) (size 15 to 20)
#    0.000    3.000    0.000    2.250    0.000    3.500 
#    0.000   10.000    0.000    0.000    0.000    0.000 
#    0.000    0.000    0.000    0.000    0.000    0.000 
#
# Total GULP energy -396716.102981 kJ/mol
# GULP energy per Si atom -12397.378218 kJ/mol
# Density = 1.781864 g / cm^3
# Si number density = 17.859291 Si / 1000 Ang^3
#
#
#
# Elastic Constant Matrix: (Units=GPa)
#
#
# Indices 1 2 3 4 5 6 
#
# 1 32.7227 34.9220 32.5122 0.0000 0.0000 0.0000
# 2 34.9220 176.7293 84.1277 0.0000 0.0000 0.0000
# 3 32.5122 84.1277 178.6077 0.0000 0.0000 0.0000
# 4 0.0000 0.0000 0.0000 12.3488 0.0000 0.0000
# 5 0.0000 0.0000 0.0000 0.0000 21.0820 0.0000
# 6 0.0000 0.0000 0.0000 0.0000 0.0000 24.7600
#
#
#
# Elastic Compliance Matrix: (Units=1/GPa)
#
#
# Indices 1 2 3 4 5 6 
#
# 1 0.041666 -0.005959 -0.004778 0.000000 0.000000 0.000000
# 2 -0.005959 0.008146 -0.002752 0.000000 0.000000 0.000000
# 3 -0.004778 -0.002752 0.007765 0.000000 0.000000 0.000000
# 4 0.000000 0.000000 0.000000 0.080979 0.000000 0.000000
# 5 0.000000 0.000000 0.000000 0.000000 0.047434 0.000000
# 6 0.000000 0.000000 0.000000 0.000000 0.000000 0.040388
#
#
# Mechanical properties :
#
#
# Convention : Reuss Voigt Hill
#
# Bulk Modulus (GPa) = 32.68045 76.79819 54.73932
# Shear Modulus (GPa) = 18.97131 27.40468 23.18800
#
# Velocity S-wave (km/s) = 3.26278 3.92149 3.60720
# Velocity P-wave (km/s) = 5.70376 7.97492 6.93297
#
# Compressibility (1/GPa) = 0.03059933
#
# Stress axis : x y z
#
# Youngs Moduli (GPa) = 24.00015 122.75969 128.78446
#
# Poissons Ratio (x) = 0.73152 0.61531
# Poissons Ratio (y) = 0.14302 0.35444
# Poissons Ratio (z) = 0.11467 0.33786
#
# Static dielectric constant tensor:
#      x y z
#    x 3.014680 0.000000 0.000000 
#    y 0.000000 3.508820 0.000000 
#    z 0.000000 0.000000 3.555840 
# 
# 
# High freq. dielectric constant tensor:
#      x y z
#    x 1.664540 0.000000 0.000000 
#    y 0.000000 1.696070 0.000000 
#    z 0.000000 0.000000 1.696240 
# 
# From -- ./inp_files/11194.got.cif
#   From: 2010.03.12/outbox.cif.g09.slc.cpg/sg36_6_cif.got.tgz:11194.got - 2010.04.14 02:13:53.
