data_PCOD8174024
_publ_section_title
;
Structure prediction by ZEFSAII (Michael W. Deem and Ramdas Pophale) SiO2 
 PCOD8174024
Probable space group: C M M 2
;
_chemical_formula_sum "Si O2"
_cell_formula_units_Z 56
_cell_length_a 8.537208
_cell_length_b 20.329500
_cell_length_c 14.718313
_cell_angle_alpha 90.000000
_cell_angle_beta 90.000000
_cell_angle_gamma 90.000000
_cell_volume 2554.468752
_symmetry_space_group_name_H-M "C M M 2"
_symmetry_group_IT_number 35
_symmetry_cell_setting 'orthorhombic'
loop_
_space_group_symop_operation_xyz
x,y,z
-x,-y,z
-x,y,z
x,-y,z
1/2+x,1/2+y,z
1/2-x,1/2-y,z
1/2-x,1/2+y,z
1/2+x,1/2-y,z
loop_
_atom_site_type_symbol
_atom_site_label
_atom_site_fract_x
_atom_site_fract_y
_atom_site_fract_z
Si Si1 0.815585 0.000000 0.065100
Si Si2 0.814284 0.575743 0.624616
Si Si3 0.816919 0.677101 0.775825
Si Si4 0.817291 0.129220 0.301936
Si Si5 0.181188 0.131347 0.962237
Si Si6 0.185495 0.500000 0.267565
Si Si7 0.681842 0.185750 0.133442
Si Si8 0.185237 0.682046 0.479117
O O1 0.724849 0.000000 0.159936
O O2 0.765852 0.938698 0.002547
O O3 0.000000 0.000000 0.087164
O O4 0.746004 0.500000 0.625187
O O5 0.750279 0.620086 0.708722
O O6 0.762192 0.617294 0.535625
O O7 0.000000 0.570587 0.629694
O O8 0.750000 0.750000 0.756941
O O9 0.783061 0.651536 0.876401
O O10 0.000000 0.684052 0.760385
O O11 0.767792 0.056274 0.328033
O O12 0.721749 0.130600 0.206487
O O13 0.758747 0.178966 0.378701
O O14 0.000000 0.139736 0.283943
O O15 0.000000 0.133242 0.934336
O O16 0.216802 0.182665 0.041708
O O17 0.000000 0.500000 0.281410
O O18 0.500000 0.186911 0.109911
O O19 0.750000 0.250000 0.183950
O O20 0.250000 0.750000 0.523945
O O21 0.000000 0.686461 0.473309
#
# Coordination Sequence:
#
# PCOD8174024 Si02
#       8
#     4   8   8   8   8   4   8   8
#     4  10  22  40  62  87 126 171 212 265 328 382
#     4   9  21  42  68  99 130 166 213 269 326 386
#     4  11  23  41  67  96 130 170 216 268 326 389
#     4  12  25  42  63  92 131 169 214 268 324 383
#     4  11  23  40  62  91 128 168 213 264 324 385
#     4  12  24  40  64  93 126 171 222 265 322 390
#     4  12  24  40  61  89 123 166 216 265 321 381
#     4  11  23  42  69  98 131 171 218 269 329 394
#
# _framework density 21.922367999999999
#
# number of rings (size 3 to 8) (size 9 to 14) (size 15 to 20)
#    0.000    1.000    1.429    5.786    2.000    0.571 
#    0.000    2.143    0.000    3.429    0.000    0.000 
#    0.000    0.000    0.000    0.000    0.000    0.000 
#
# Total GULP energy -347053.297229 kJ/mol
# GULP energy per Si atom -12394.760615 kJ/mol
# Density = 2.187247 g / cm^3
# Si number density = 21.922368 Si / 1000 Ang^3
#
#
#
# Elastic Constant Matrix: (Units=GPa)
#
#
# Indices 1 2 3 4 5 6 
#
# 1 69.9017 35.9672 21.3374 0.0000 0.0000 0.0000
# 2 35.9672 155.5121 42.9017 0.0000 0.0000 0.0000
# 3 21.3374 42.9017 112.1228 0.0000 0.0000 0.0000
# 4 0.0000 0.0000 0.0000 34.4850 0.0000 0.0000
# 5 0.0000 0.0000 0.0000 0.0000 14.5627 0.0000
# 6 0.0000 0.0000 0.0000 0.0000 0.0000 33.2594
#
#
#
# Elastic Compliance Matrix: (Units=1/GPa)
#
#
# Indices 1 2 3 4 5 6 
#
# 1 0.016588 -0.003316 -0.001888 0.000000 0.000000 0.000000
# 2 -0.003316 0.007852 -0.002373 0.000000 0.000000 0.000000
# 3 -0.001888 -0.002373 0.010186 0.000000 0.000000 0.000000
# 4 0.000000 0.000000 0.000000 0.028998 0.000000 0.000000
# 5 0.000000 0.000000 0.000000 0.000000 0.068668 0.000000
# 6 0.000000 0.000000 0.000000 0.000000 0.000000 0.030067
#
#
# Mechanical properties :
#
#
# Convention : Reuss Voigt Hill
#
# Bulk Modulus (GPa) = 51.35578 59.77213 55.56395
# Shear Modulus (GPa) = 27.17320 32.28344 29.72832
#
# Velocity S-wave (km/s) = 3.52450 3.84164 3.68648
# Velocity P-wave (km/s) = 6.32771 6.85581 6.59705
#
# Compressibility (1/GPa) = 0.01947201
#
# Stress axis : x y z
#
# Youngs Moduli (GPa) = 60.28380 127.35613 98.17148
#
# Poissons Ratio (x) = 0.42227 0.18536
# Poissons Ratio (y) = 0.19988 0.23300
# Poissons Ratio (z) = 0.11382 0.30227
#
# Static dielectric constant tensor:
#      x y z
#    x 3.677270 0.000000 0.000000 
#    y 0.000000 4.352950 0.000000 
#    z 0.000000 0.000000 3.857860 
# 
# 
# High freq. dielectric constant tensor:
#      x y z
#    x 1.847160 0.000000 0.000000 
#    y 0.000000 1.889680 0.000000 
#    z 0.000000 0.000000 1.859510 
# 
# From -- ./inp_files/15796.got.cif
#   From: 2010.03.12/outbox.cif.g09.slc.cpg/sg35_8_cif.got.tgz:15796.got - 2010.04.14 02:02:04.
