data_PCOD8174874
_publ_section_title
;
Structure prediction by ZEFSAII (Michael W. Deem and Ramdas Pophale) SiO2 
 PCOD8174874
Probable space group: C M C 21
;
_chemical_formula_sum "Si O2"
_cell_formula_units_Z 64
_cell_length_a 8.468126
_cell_length_b 20.175175
_cell_length_c 19.239205
_cell_angle_alpha 90.000000
_cell_angle_beta 90.000000
_cell_angle_gamma 90.000000
_cell_volume 3286.939755
_symmetry_space_group_name_H-M "C M C 21"
_symmetry_group_IT_number 36
_symmetry_cell_setting 'orthorhombic'
loop_
_space_group_symop_operation_xyz
x,y,z
-x,-y,1/2+z
x,-y,1/2+z
-x,y,z
1/2+x,1/2+y,z
1/2-x,1/2-y,1/2+z
1/2+x,1/2-y,1/2+z
1/2-x,1/2+y,z
loop_
_atom_site_type_symbol
_atom_site_label
_atom_site_fract_x
_atom_site_fract_y
_atom_site_fract_z
Si Si1 0.812584 0.265086 0.736940
Si Si2 0.684232 0.439093 0.382945
Si Si3 0.181663 0.566169 0.448655
Si Si4 0.683572 0.253860 0.591879
Si Si5 0.813540 0.115206 0.739249
Si Si6 0.817891 0.318154 0.462671
Si Si7 0.816908 0.190623 0.375291
Si Si8 0.685287 0.390247 0.086660
O O1 0.746455 0.287915 0.662401
O O2 0.753143 0.190047 0.750681
O O3 0.735998 0.312067 0.795154
O O4 0.000000 0.272121 0.738973
O O5 0.500000 0.421772 0.387305
O O6 0.714161 0.513869 0.406168
O O7 0.745114 0.430336 0.303093
O O8 0.778533 0.390138 0.432999
O O9 0.215470 0.638674 0.418899
O O10 0.224167 0.564987 0.530407
O O11 0.000000 0.547519 0.439161
O O12 0.500000 0.236198 0.598128
O O13 0.712185 0.306293 0.530628
O O14 0.781096 0.187441 0.574824
O O15 0.754116 0.088425 0.663978
O O16 0.000000 0.117229 0.735228
O O17 0.777819 0.263311 0.404680
O O18 0.000000 0.315449 0.484513
O O19 0.000000 0.172009 0.382368
O O20 0.500000 0.402100 0.076606
#
# Coordination Sequence:
#
# PCOD8174874 Si02
#       8
#     8   8   8   8   8   8   8   8
#     4  10  19  35  58  87 121 154 193 246 300 353
#     4  11  22  40  62  87 119 157 198 245 300 360
#     4  12  25  40  58  86 121 160 202 247 299 357
#     4  11  21  34  56  88 121 156 197 244 299 356
#     4   8  17  33  58  86 113 146 189 236 290 351
#     4  11  22  37  59  88 120 153 195 246 296 348
#     4  11  22  37  60  88 118 153 196 246 298 352
#     4  10  19  36  59  86 115 151 196 246 298 353
#
# _framework density 19.470998999999999
#
# number of rings (size 3 to 8) (size 9 to 14) (size 15 to 20)
#    0.000    1.500    2.500    4.875    0.000    1.000 
#    0.000    3.125    0.000    1.500    0.000    0.000 
#    0.000    0.000    0.000    0.000    0.000    0.000 
#
# Total GULP energy -396898.619252 kJ/mol
# GULP energy per Si atom -12403.081852 kJ/mol
# Density = 1.942668 g / cm^3
# Si number density = 19.470999 Si / 1000 Ang^3
#
#
#
# Elastic Constant Matrix: (Units=GPa)
#
#
# Indices 1 2 3 4 5 6 
#
# 1 65.6783 14.3870 29.1035 0.0000 0.0000 0.0000
# 2 14.3870 49.1676 30.0954 0.0000 0.0000 0.0000
# 3 29.1035 30.0954 151.3844 0.0000 0.0000 0.0000
# 4 0.0000 0.0000 0.0000 29.9864 0.0000 0.0000
# 5 0.0000 0.0000 0.0000 0.0000 31.2495 0.0000
# 6 0.0000 0.0000 0.0000 0.0000 0.0000 26.0509
#
#
#
# Elastic Compliance Matrix: (Units=1/GPa)
#
#
# Indices 1 2 3 4 5 6 
#
# 1 0.017132 -0.003412 -0.002615 0.000000 0.000000 0.000000
# 2 -0.003412 0.023836 -0.004083 0.000000 0.000000 0.000000
# 3 -0.002615 -0.004083 0.007920 0.000000 0.000000 0.000000
# 4 0.000000 0.000000 0.000000 0.033348 0.000000 0.000000
# 5 0.000000 0.000000 0.000000 0.000000 0.032001 0.000000
# 6 0.000000 0.000000 0.000000 0.000000 0.000000 0.038386
#
#
# Mechanical properties :
#
#
# Convention : Reuss Voigt Hill
#
# Bulk Modulus (GPa) = 34.88219 45.93358 40.40789
# Shear Modulus (GPa) = 27.41229 30.30030 28.85630
#
# Velocity S-wave (km/s) = 3.75621 3.94912 3.85387
# Velocity P-wave (km/s) = 6.06349 6.66604 6.37189
#
# Compressibility (1/GPa) = 0.02866792
#
# Stress axis : x y z
#
# Youngs Moduli (GPa) = 58.37003 41.95334 126.26083
#
# Poissons Ratio (x) = 0.14315 0.33021
# Poissons Ratio (y) = 0.19917 0.51548
# Poissons Ratio (z) = 0.15265 0.17128
#
# Static dielectric constant tensor:
#      x y z
#    x 3.421240 0.000000 0.000000 
#    y 0.000000 3.138200 0.000000 
#    z 0.000000 0.000000 3.941160 
# 
# 
# High freq. dielectric constant tensor:
#      x y z
#    x 1.759140 0.000000 0.000000 
#    y 0.000000 1.718420 0.000000 
#    z 0.000000 0.000000 1.778070 
# 
# From -- ./inp_files/14040.got.cif
#   From: 2010.03.12/outbox.cif.g09.slc.cpg/sg36_8_cif.got.tgz:14040.got - 2010.04.14 02:13:53.
