data_PCOD8174839
_publ_section_title
;
Structure prediction by ZEFSAII (Michael W. Deem and Ramdas Pophale) SiO2 
 PCOD8174839
Probable space group: C M C 21
;
_chemical_formula_sum "Si O2"
_cell_formula_units_Z 64
_cell_length_a 9.005093
_cell_length_b 28.771660
_cell_length_c 12.329567
_cell_angle_alpha 90.000000
_cell_angle_beta 90.000000
_cell_angle_gamma 90.000000
_cell_volume 3194.485689
_symmetry_space_group_name_H-M "C M C 21"
_symmetry_group_IT_number 36
_symmetry_cell_setting 'orthorhombic'
loop_
_space_group_symop_operation_xyz
x,y,z
-x,-y,1/2+z
x,-y,1/2+z
-x,y,z
1/2+x,1/2+y,z
1/2-x,1/2-y,1/2+z
1/2+x,1/2-y,1/2+z
1/2-x,1/2+y,z
loop_
_atom_site_type_symbol
_atom_site_label
_atom_site_fract_x
_atom_site_fract_y
_atom_site_fract_z
Si Si1 0.322814 0.081820 0.398720
Si Si2 0.673044 0.571150 0.624075
Si Si3 0.176957 0.628055 0.801338
Si Si4 0.828788 0.090836 0.005205
Si Si5 0.330350 0.815103 0.848832
Si Si6 0.170519 0.970762 0.702676
Si Si7 0.836868 0.329792 0.608164
Si Si8 0.336629 0.775278 0.398549
O O1 0.500000 0.078690 0.405967
O O2 0.250047 0.062522 0.508343
O O3 0.265747 0.134875 0.384427
O O4 0.272752 0.051491 0.295286
O O5 0.500000 0.582050 0.605768
O O6 0.750382 0.613999 0.686970
O O7 0.695701 0.525951 0.699448
O O8 0.229101 0.680840 0.830089
O O9 0.000000 0.624982 0.794197
O O10 0.230024 0.592782 0.896379
O O11 0.790232 0.046711 0.080684
O O12 0.793906 0.134846 0.080695
O O13 0.000000 0.091104 0.969108
O O14 0.500000 0.813746 0.883277
O O15 0.302105 0.806976 0.722458
O O16 0.256498 0.771315 0.904350
O O17 0.000000 0.958218 0.730079
O O18 0.843348 0.288328 0.523879
O O19 0.000000 0.355156 0.611134
O O20 0.500000 0.764084 0.352530
#
# Coordination Sequence:
#
# PCOD8174839 Si02
#       8
#     8   8   8   8   8   8   8   8
#     4  11  24  42  64  93 126 160 204 256 309 367
#     4  11  25  43  63  89 127 169 206 253 309 369
#     4  10  22  41  61  88 124 160 205 257 305 362
#     4  10  19  34  60  89 115 151 197 250 303 359
#     4  10  21  37  59  86 120 156 200 254 306 363
#     4  10  23  41  62  89 121 158 203 251 301 364
#     4   9  18  36  55  79 114 153 197 251 304 354
#     4   9  20  36  58  85 117 157 204 254 307 364
#
# _framework density 20.034524999999999
#
# number of rings (size 3 to 8) (size 9 to 14) (size 15 to 20)
#    0.000    2.000    1.250    2.250    1.750    6.500 
#    0.000    2.500    0.000    0.000    0.000    0.000 
#    0.000    0.000    0.000    0.000    0.000    0.000 
#
# Total GULP energy -396703.042933 kJ/mol
# GULP energy per Si atom -12396.970092 kJ/mol
# Density = 1.998893 g / cm^3
# Si number density = 20.034525 Si / 1000 Ang^3
#
#
#
# Elastic Constant Matrix: (Units=GPa)
#
#
# Indices 1 2 3 4 5 6 
#
# 1 84.8911 38.2048 41.8161 0.0000 0.0000 0.0000
# 2 38.2048 91.3074 28.9831 0.0000 0.0000 0.0000
# 3 41.8161 28.9831 77.6442 0.0000 0.0000 0.0000
# 4 0.0000 0.0000 0.0000 22.1078 0.0000 0.0000
# 5 0.0000 0.0000 0.0000 0.0000 34.8189 0.0000
# 6 0.0000 0.0000 0.0000 0.0000 0.0000 30.0781
#
#
#
# Elastic Compliance Matrix: (Units=1/GPa)
#
#
# Indices 1 2 3 4 5 6 
#
# 1 0.017848 -0.005011 -0.007742 0.000000 0.000000 0.000000
# 2 -0.005011 0.013831 -0.002464 0.000000 0.000000 0.000000
# 3 -0.007742 -0.002464 0.017969 0.000000 0.000000 0.000000
# 4 0.000000 0.000000 0.000000 0.045233 0.000000 0.000000
# 5 0.000000 0.000000 0.000000 0.000000 0.028720 0.000000
# 6 0.000000 0.000000 0.000000 0.000000 0.000000 0.033247
#
#
# Mechanical properties :
#
#
# Convention : Reuss Voigt Hill
#
# Bulk Modulus (GPa) = 52.04536 52.42784 52.23660
# Shear Modulus (GPa) = 25.81494 27.05685 26.43590
#
# Velocity S-wave (km/s) = 3.59349 3.67892 3.63646
# Velocity P-wave (km/s) = 6.57661 6.65368 6.61526
#
# Compressibility (1/GPa) = 0.01921401
#
# Stress axis : x y z
#
# Youngs Moduli (GPa) = 56.02733 72.30262 55.65233
#
# Poissons Ratio (x) = 0.36228 0.43087
# Poissons Ratio (y) = 0.28073 0.13714
# Poissons Ratio (z) = 0.43377 0.17817
#
# Static dielectric constant tensor:
#      x y z
#    x 3.684190 0.000000 0.000000 
#    y 0.000000 3.540920 0.000000 
#    z 0.000000 0.000000 3.658150 
# 
# 
# High freq. dielectric constant tensor:
#      x y z
#    x 1.781110 0.000000 0.000000 
#    y 0.000000 1.774070 0.000000 
#    z 0.000000 0.000000 1.786030 
# 
# From -- ./inp_files/7273.got.cif
#   From: 2010.03.12/outbox.cif.g09.slc.cpg/sg36_4_cif.got.tgz:7273.got - 2010.04.14 02:13:53.
