data_PCOD8174651
_publ_section_title
;
Structure prediction by ZEFSAII (Michael W. Deem and Ramdas Pophale) SiO2 
 PCOD8174651
Probable space group: C M C 21
;
_chemical_formula_sum "Si O2"
_cell_formula_units_Z 48
_cell_length_a 8.616051
_cell_length_b 19.255127
_cell_length_c 15.556974
_cell_angle_alpha 90.000000
_cell_angle_beta 90.000000
_cell_angle_gamma 90.000000
_cell_volume 2580.951088
_symmetry_space_group_name_H-M "C M C 21"
_symmetry_group_IT_number 36
_symmetry_cell_setting 'orthorhombic'
loop_
_space_group_symop_operation_xyz
x,y,z
-x,-y,1/2+z
x,-y,1/2+z
-x,y,z
1/2+x,1/2+y,z
1/2-x,1/2-y,1/2+z
1/2+x,1/2-y,1/2+z
1/2-x,1/2+y,z
loop_
_atom_site_type_symbol
_atom_site_label
_atom_site_fract_x
_atom_site_fract_y
_atom_site_fract_z
Si Si1 0.322969 0.297406 0.430830
Si Si2 0.677537 0.967888 0.608771
Si Si3 0.680528 0.558260 0.751995
Si Si4 0.180629 0.709597 0.760477
Si Si5 0.317716 0.682726 0.117762
Si Si6 0.321503 0.943448 0.421232
O O1 0.500000 0.279639 0.408716
O O2 0.216800 0.261968 0.357145
O O3 0.281365 0.275519 0.528643
O O4 0.296723 0.379698 0.427280
O O5 0.500000 0.978375 0.636483
O O6 0.721341 0.887885 0.623901
O O7 0.700193 0.988996 0.507715
O O8 0.783510 0.018600 0.664006
O O9 0.500000 0.553322 0.770736
O O10 0.729442 0.638382 0.742168
O O11 0.771728 0.519780 0.831486
O O12 0.238262 0.767827 0.694346
O O13 0.000000 0.694966 0.748816
O O14 0.500000 0.664623 0.123327
O O15 0.500000 0.917763 0.414846
#
# Coordination Sequence:
#
# PCOD8174651 Si02
#       6
#     8   8   8   8   8   8
#     4   9  16  29  49  72  97 128 166 203 244 295
#     4  10  20  34  54  77 101 131 167 208 251 298
#     4  11  21  33  52  76 103 134 168 207 249 296
#     4  10  19  33  52  74 101 132 167 205 247 294
#     4   9  19  34  52  74 101 132 164 203 250 298
#     4   9  17  31  51  73  97 129 168 206 247 297
#
# _framework density 18.597795000000001
#
# number of rings (size 3 to 8) (size 9 to 14) (size 15 to 20)
#    0.000    2.333    0.000    5.500    0.000    4.000 
#    0.000    1.667    0.000    6.000    0.000    0.000 
#    0.000    0.000    0.000    0.000    0.000    0.000 
#
# Total GULP energy -297425.485890 kJ/mol
# GULP energy per Si atom -12392.728579 kJ/mol
# Density = 1.855547 g / cm^3
# Si number density = 18.597795 Si / 1000 Ang^3
#
#
#
# Elastic Constant Matrix: (Units=GPa)
#
#
# Indices 1 2 3 4 5 6 
#
# 1 69.5053 12.4759 17.6910 0.0000 0.0000 0.0000
# 2 12.4759 25.0719 1.0710 0.0000 0.0000 0.0000
# 3 17.6910 1.0710 52.9711 0.0000 0.0000 0.0000
# 4 0.0000 0.0000 0.0000 31.8509 0.0000 0.0000
# 5 0.0000 0.0000 0.0000 0.0000 32.2451 0.0000
# 6 0.0000 0.0000 0.0000 0.0000 0.0000 22.2097
#
#
#
# Elastic Compliance Matrix: (Units=1/GPa)
#
#
# Indices 1 2 3 4 5 6 
#
# 1 0.017321 -0.008379 -0.005615 0.000000 0.000000 0.000000
# 2 -0.008379 0.043973 0.001909 0.000000 0.000000 0.000000
# 3 -0.005615 0.001909 0.020715 0.000000 0.000000 0.000000
# 4 0.000000 0.000000 0.000000 0.031396 0.000000 0.000000
# 5 0.000000 0.000000 0.000000 0.000000 0.031012 0.000000
# 6 0.000000 0.000000 0.000000 0.000000 0.000000 0.045025
#
#
# Mechanical properties :
#
#
# Convention : Reuss Voigt Hill
#
# Bulk Modulus (GPa) = 17.28942 23.33600 20.31271
# Shear Modulus (GPa) = 21.46918 25.01518 23.24218
#
# Velocity S-wave (km/s) = 3.40132 3.67149 3.53898
# Velocity P-wave (km/s) = 4.97413 5.52703 5.25785
#
# Compressibility (1/GPa) = 0.05783886
#
# Stress axis : x y z
#
# Youngs Moduli (GPa) = 57.73472 22.74121 48.27431
#
# Poissons Ratio (x) = 0.19055 0.27107
# Poissons Ratio (y) = 0.48375 -0.09217
# Poissons Ratio (z) = 0.32419 -0.04342
#
# Static dielectric constant tensor:
#      x y z
#    x 3.417920 0.000000 0.000000 
#    y 0.000000 2.909420 0.000000 
#    z 0.000000 0.000000 4.180160 
# 
# 
# High freq. dielectric constant tensor:
#      x y z
#    x 1.732390 0.000000 0.000000 
#    y 0.000000 1.661880 0.000000 
#    z 0.000000 0.000000 1.748270 
# 
# From -- ./inp_files/6766.got.cif
#   From: 2010.03.12/outbox.cif.g09.slc.cpg/sg36_4_cif.got.tgz:6766.got - 2010.04.14 02:13:53.
