data_PCOD8174296
_publ_section_title
;
Structure prediction by ZEFSAII (Michael W. Deem and Ramdas Pophale) SiO2 
 PCOD8174296
Probable space group: C M C 21
;
_chemical_formula_sum "Si O2"
_cell_formula_units_Z 40
_cell_length_a 7.866509
_cell_length_b 28.722461
_cell_length_c 9.179273
_cell_angle_alpha 90.000000
_cell_angle_beta 90.000000
_cell_angle_gamma 90.000000
_cell_volume 2074.015409
_symmetry_space_group_name_H-M "C M C 21"
_symmetry_group_IT_number 36
_symmetry_cell_setting 'orthorhombic'
loop_
_space_group_symop_operation_xyz
x,y,z
-x,-y,1/2+z
x,-y,1/2+z
-x,y,z
1/2+x,1/2+y,z
1/2-x,1/2-y,1/2+z
1/2+x,1/2-y,1/2+z
1/2-x,1/2+y,z
loop_
_atom_site_type_symbol
_atom_site_label
_atom_site_fract_x
_atom_site_fract_y
_atom_site_fract_z
Si Si1 0.688672 0.881122 0.388350
Si Si2 0.198956 0.281597 0.304513
Si Si3 0.806518 0.195911 0.490314
Si Si4 0.314501 0.901317 0.048151
Si Si5 0.000000 0.057611 0.925160
Si Si6 0.000000 0.038192 0.582226
O O1 0.500000 0.893390 0.450808
O O2 0.730583 0.826407 0.409334
O O3 0.693183 0.890290 0.217397
O O4 0.832378 0.912366 0.464699
O O5 0.269435 0.235997 0.386532
O O6 0.301185 0.286426 0.155746
O O7 0.000000 0.278070 0.267494
O O8 0.707286 0.147631 0.463638
O O9 0.000000 0.186060 0.449011
O O10 0.500000 0.922140 0.005314
O O11 0.166485 0.937896 0.010922
O O12 0.000000 0.041242 0.757262
O O13 0.000000 0.015078 0.036002
#
# Coordination Sequence:
#
# PCOD8174296 Si02
#       6
#     8   8   8   8   4   4
#     4   8  16  32  51  72 100 133 170 206 247 305
#     4   9  19  32  48  75 106 136 174 214 252 305
#     4  10  18  31  51  75 105 138 174 214 252 303
#     4   9  17  32  53  74 101 136 171 208 252 307
#     4  10  20  34  56  76  98 130 172 214 257 302
#     4  10  20  36  54  78 100 130 174 216 257 310
#
# _framework density 19.286259999999999
#
# number of rings (size 3 to 8) (size 9 to 14) (size 15 to 20)
#    0.000    2.800    1.000    1.800    4.200    2.400 
#    0.000    2.000    0.000    2.400    0.000    0.000 
#    0.000    0.000    0.000    0.000    0.000    0.000 
#
# Total GULP energy -247903.194642 kJ/mol
# GULP energy per Si atom -12395.159732 kJ/mol
# Density = 1.924236 g / cm^3
# Si number density = 19.286260 Si / 1000 Ang^3
#
#
#
# Elastic Constant Matrix: (Units=GPa)
#
#
# Indices 1 2 3 4 5 6 
#
# 1 107.0512 18.8616 -2.1858 0.0000 0.0000 0.0000
# 2 18.8616 33.9766 -7.5166 0.0000 0.0000 0.0000
# 3 -2.1858 -7.5166 12.0487 0.0000 0.0000 0.0000
# 4 0.0000 0.0000 0.0000 32.5101 0.0000 0.0000
# 5 0.0000 0.0000 0.0000 0.0000 12.9489 0.0000
# 6 0.0000 0.0000 0.0000 0.0000 0.0000 26.5490
#
#
#
# Elastic Compliance Matrix: (Units=1/GPa)
#
#
# Indices 1 2 3 4 5 6 
#
# 1 0.010395 -0.006211 -0.001989 0.000000 0.000000 0.000000
# 2 -0.006211 0.037855 0.022489 0.000000 0.000000 0.000000
# 3 -0.001989 0.022489 0.096666 0.000000 0.000000 0.000000
# 4 0.000000 0.000000 0.000000 0.030760 0.000000 0.000000
# 5 0.000000 0.000000 0.000000 0.000000 0.077226 0.000000
# 6 0.000000 0.000000 0.000000 0.000000 0.000000 0.037666
#
#
# Mechanical properties :
#
#
# Convention : Reuss Voigt Hill
#
# Bulk Modulus (GPa) = 5.76383 19.04389 12.40386
# Shear Modulus (GPa) = 15.63377 23.99608 19.81493
#
# Velocity S-wave (km/s) = 2.85022 3.53116 3.20880
# Velocity P-wave (km/s) = 3.71843 5.14987 4.49154
#
# Compressibility (1/GPa) = 0.17349585
#
# Stress axis : x y z
#
# Youngs Moduli (GPa) = 96.20030 26.41658 10.34490
#
# Poissons Ratio (x) = 0.16406 0.02057
# Poissons Ratio (y) = 0.59746 -0.23265
# Poissons Ratio (z) = 0.19131 -0.59409
#
# Static dielectric constant tensor:
#      x y z
#    x 3.851380 0.000000 0.000000 
#    y 0.000000 3.620330 0.000000 
#    z 0.000000 0.000000 2.977670 
# 
# 
# High freq. dielectric constant tensor:
#      x y z
#    x 1.763670 0.000000 0.000000 
#    y 0.000000 1.749590 0.000000 
#    z 0.000000 0.000000 1.691900 
# 
# From -- ./inp_files/2459.got.cif
#   From: 2010.03.12/outbox.cif.g09.slc.cpg/sg36_2_cif.got.tgz:2459.got - 2010.04.14 02:13:53.
