data_PCOD8174404
_publ_section_title
;
Structure prediction by ZEFSAII (Michael W. Deem and Ramdas Pophale) SiO2 
 PCOD8174404
Probable space group: C M C 21
;
_chemical_formula_sum "Si O2"
_cell_formula_units_Z 64
_cell_length_a 9.217265
_cell_length_b 23.801892
_cell_length_c 15.302009
_cell_angle_alpha 90.000000
_cell_angle_beta 90.000000
_cell_angle_gamma 90.000000
_cell_volume 3357.082446
_symmetry_space_group_name_H-M "C M C 21"
_symmetry_group_IT_number 36
_symmetry_cell_setting 'orthorhombic'
loop_
_space_group_symop_operation_xyz
x,y,z
-x,-y,1/2+z
x,-y,1/2+z
-x,y,z
1/2+x,1/2+y,z
1/2-x,1/2-y,1/2+z
1/2+x,1/2-y,1/2+z
1/2-x,1/2+y,z
loop_
_atom_site_type_symbol
_atom_site_label
_atom_site_fract_x
_atom_site_fract_y
_atom_site_fract_z
Si Si1 0.328598 0.379445 0.273900
Si Si2 0.171645 0.323286 0.927305
Si Si3 0.835460 0.992193 0.522580
Si Si4 0.667805 0.881299 0.566742
Si Si5 0.167670 0.999261 0.822296
Si Si6 0.327406 0.304459 0.431711
Si Si7 0.832690 0.114024 0.579958
Si Si8 0.166784 0.605684 0.263671
O O1 0.500000 0.383826 0.282346
O O2 0.263648 0.440070 0.299832
O O3 0.271030 0.333038 0.341934
O O4 0.285183 0.362749 0.175148
O O5 0.227361 0.259430 0.929709
O O6 0.225805 0.351081 0.836761
O O7 0.000000 0.325308 0.934100
O O8 0.234078 0.356555 0.008969
O O9 0.724871 0.943803 0.548604
O O10 0.000000 0.969152 0.532164
O O11 0.807718 0.012877 0.424153
O O12 0.809241 0.046701 0.582656
O O13 0.500000 0.879031 0.538972
O O14 0.756739 0.835022 0.514079
O O15 0.687586 0.866350 0.668827
O O16 0.246895 0.952394 0.765507
O O17 0.000000 0.996551 0.795551
O O18 0.500000 0.309065 0.440817
O O19 0.000000 0.128009 0.559001
O O20 0.000000 0.591221 0.281997
#
# Coordination Sequence:
#
# PCOD8174404 Si02
#       8
#     8   8   8   8   8   8   8   8
#     4   9  18  34  57  82 108 142 183 224 271 328
#     4  10  22  39  58  78 108 149 189 231 280 331
#     4  10  19  34  58  86 115 147 184 225 274 332
#     4  11  23  37  57  86 116 148 184 228 282 333
#     4  10  18  33  59  86 110 143 186 226 269 328
#     4  10  21  40  60  78 106 149 193 231 276 330
#     4  10  20  35  58  86 112 142 183 229 275 327
#     4  10  22  38  55  82 117 150 182 222 281 341
#
# _framework density 19.064173
#
# number of rings (size 3 to 8) (size 9 to 14) (size 15 to 20)
#    0.000    2.000    2.500    1.125    0.000    4.500 
#    0.000    3.750    0.000    0.000    0.000    0.000 
#    0.000    0.000    0.000    0.000    0.000    0.000 
#
# Total GULP energy -396858.535560 kJ/mol
# GULP energy per Si atom -12401.829236 kJ/mol
# Density = 1.902078 g / cm^3
# Si number density = 19.064173 Si / 1000 Ang^3
#
#
#
# Elastic Constant Matrix: (Units=GPa)
#
#
# Indices 1 2 3 4 5 6 
#
# 1 35.3071 31.7703 25.6774 0.0000 0.0000 0.0000
# 2 31.7703 115.7754 46.3843 0.0000 0.0000 0.0000
# 3 25.6774 46.3843 101.7830 0.0000 0.0000 0.0000
# 4 0.0000 0.0000 0.0000 14.6530 0.0000 0.0000
# 5 0.0000 0.0000 0.0000 0.0000 26.0598 0.0000
# 6 0.0000 0.0000 0.0000 0.0000 0.0000 26.4331
#
#
#
# Elastic Compliance Matrix: (Units=1/GPa)
#
#
# Indices 1 2 3 4 5 6 
#
# 1 0.040694 -0.008630 -0.006334 0.000000 0.000000 0.000000
# 2 -0.008630 0.012397 -0.003472 0.000000 0.000000 0.000000
# 3 -0.006334 -0.003472 0.013005 0.000000 0.000000 0.000000
# 4 0.000000 0.000000 0.000000 0.068246 0.000000 0.000000
# 5 0.000000 0.000000 0.000000 0.000000 0.038373 0.000000
# 6 0.000000 0.000000 0.000000 0.000000 0.000000 0.037831
#
#
# Mechanical properties :
#
#
# Convention : Reuss Voigt Hill
#
# Bulk Modulus (GPa) = 34.21731 51.16995 42.69363
# Shear Modulus (GPa) = 19.44326 23.36473 21.40399
#
# Velocity S-wave (km/s) = 3.19703 3.50463 3.35436
# Velocity P-wave (km/s) = 5.62276 6.57843 6.11928
#
# Compressibility (1/GPa) = 0.02922498
#
# Stress axis : x y z
#
# Youngs Moduli (GPa) = 24.57356 80.66705 76.89339
#
# Poissons Ratio (x) = 0.69612 0.48701
# Poissons Ratio (y) = 0.21206 0.26700
# Poissons Ratio (z) = 0.15564 0.28010
#
# Static dielectric constant tensor:
#      x y z
#    x 3.265260 0.000000 0.000000 
#    y 0.000000 3.503120 0.000000 
#    z 0.000000 0.000000 3.672400 
# 
# 
# High freq. dielectric constant tensor:
#      x y z
#    x 1.717040 0.000000 0.000000 
#    y 0.000000 1.737410 0.000000 
#    z 0.000000 0.000000 1.756920 
# 
# From -- ./inp_files/11085.got.cif
#   From: 2010.03.12/outbox.cif.g09.slc.cpg/sg36_6_cif.got.tgz:11085.got - 2010.04.14 02:13:53.
