data_PCOD8174466
_publ_section_title
;
Structure prediction by ZEFSAII (Michael W. Deem and Ramdas Pophale) SiO2 
 PCOD8174466
Probable space group: C M C 21
;
_chemical_formula_sum "Si O2"
_cell_formula_units_Z 48
_cell_length_a 9.438349
_cell_length_b 18.849825
_cell_length_c 15.334086
_cell_angle_alpha 90.000000
_cell_angle_beta 90.000000
_cell_angle_gamma 90.000000
_cell_volume 2728.106054
_symmetry_space_group_name_H-M "C M C 21"
_symmetry_group_IT_number 36
_symmetry_cell_setting 'orthorhombic'
loop_
_space_group_symop_operation_xyz
x,y,z
-x,-y,1/2+z
x,-y,1/2+z
-x,y,z
1/2+x,1/2+y,z
1/2-x,1/2-y,1/2+z
1/2+x,1/2-y,1/2+z
1/2-x,1/2+y,z
loop_
_atom_site_type_symbol
_atom_site_label
_atom_site_fract_x
_atom_site_fract_y
_atom_site_fract_z
Si Si1 0.836824 0.775302 0.369160
Si Si2 0.667310 0.019266 0.545947
Si Si3 0.343244 0.960247 0.240844
Si Si4 0.157064 0.293690 0.210459
Si Si5 0.168631 0.678798 0.523866
Si Si6 0.835466 0.059743 0.902310
O O1 0.757380 0.755368 0.280015
O O2 0.772005 0.724482 0.443619
O O3 0.814130 0.856193 0.396816
O O4 0.000000 0.757806 0.353364
O O5 0.500000 0.009328 0.529094
O O6 0.703243 0.005731 0.648182
O O7 0.719398 0.097565 0.516756
O O8 0.756308 0.963486 0.490043
O O9 0.500000 0.988469 0.267283
O O10 0.351468 0.876658 0.229027
O O11 0.232858 0.979207 0.317696
O O12 0.222607 0.284330 0.113548
O O13 0.000000 0.260179 0.217838
O O14 0.000000 0.680002 0.528130
O O15 0.000000 0.038655 0.906413
#
# Coordination Sequence:
#
# PCOD8174466 Si02
#       6
#     8   8   8   8   8   8
#     4   9  17  30  47  67  92 120 147 178 222 272
#     4   9  17  31  51  69  86 116 157 194 223 257
#     4   8  15  29  48  66  85 117 159 192 217 256
#     4   8  14  27  47  67  86 114 153 188 216 255
#     4   8  15  30  50  67  86 117 153 185 220 262
#     4  10  19  29  45  70  97 122 145 179 230 278
#
# _framework density 17.594624
#
# number of rings (size 3 to 8) (size 9 to 14) (size 15 to 20)
#    0.000    3.333    0.000    2.500    0.000    1.333 
#    0.000    5.833    0.000    4.000    0.000    0.000 
#    0.000    0.000    0.000    0.000    0.000    0.000 
#
# Total GULP energy -297458.733991 kJ/mol
# GULP energy per Si atom -12394.113916 kJ/mol
# Density = 1.755458 g / cm^3
# Si number density = 17.594624 Si / 1000 Ang^3
#
#
#
# Elastic Constant Matrix: (Units=GPa)
#
#
# Indices 1 2 3 4 5 6 
#
# 1 55.4790 7.2516 16.3857 0.0000 0.0000 0.0000
# 2 7.2516 16.6994 -0.8897 0.0000 0.0000 0.0000
# 3 16.3857 -0.8897 46.2105 0.0000 0.0000 0.0000
# 4 0.0000 0.0000 0.0000 30.4198 0.0000 0.0000
# 5 0.0000 0.0000 0.0000 0.0000 32.6883 0.0000
# 6 0.0000 0.0000 0.0000 0.0000 0.0000 12.0448
#
#
#
# Elastic Compliance Matrix: (Units=1/GPa)
#
#
# Indices 1 2 3 4 5 6 
#
# 1 0.021628 -0.009810 -0.007858 0.000000 0.000000 0.000000
# 2 -0.009810 0.064394 0.004718 0.000000 0.000000 0.000000
# 3 -0.007858 0.004718 0.024517 0.000000 0.000000 0.000000
# 4 0.000000 0.000000 0.000000 0.032873 0.000000 0.000000
# 5 0.000000 0.000000 0.000000 0.000000 0.030592 0.000000
# 6 0.000000 0.000000 0.000000 0.000000 0.000000 0.083023
#
#
# Mechanical properties :
#
#
# Convention : Reuss Voigt Hill
#
# Bulk Modulus (GPa) = 11.81486 18.20935 15.01211
# Shear Modulus (GPa) = 16.06992 21.40668 18.73830
#
# Velocity S-wave (km/s) = 3.02543 3.49185 3.26698
# Velocity P-wave (km/s) = 4.35132 5.16035 4.77301
#
# Compressibility (1/GPa) = 0.08463917
#
# Stress axis : x y z
#
# Youngs Moduli (GPa) = 46.23643 15.52946 40.78764
#
# Poissons Ratio (x) = 0.15235 0.32050
# Poissons Ratio (y) = 0.45360 -0.19245
# Poissons Ratio (z) = 0.36332 -0.07327
#
# Static dielectric constant tensor:
#      x y z
#    x 3.225300 0.000000 0.000000 
#    y 0.000000 2.935810 0.000000 
#    z 0.000000 0.000000 3.672160 
# 
# 
# High freq. dielectric constant tensor:
#      x y z
#    x 1.661170 0.000000 0.000000 
#    y 0.000000 1.639050 0.000000 
#    z 0.000000 0.000000 1.695360 
# 
# From -- ./inp_files/6724.got.cif
#   From: 2010.03.12/outbox.cif.g09.slc.cpg/sg36_4_cif.got.tgz:6724.got - 2010.04.14 02:13:53.
