data_PCOD8174080
_publ_section_title
;
Structure prediction by ZEFSAII (Michael W. Deem and Ramdas Pophale) SiO2 
 PCOD8174080
Probable space group: C M M 2
;
_chemical_formula_sum "Si O2"
_cell_formula_units_Z 64
_cell_length_a 8.845481
_cell_length_b 28.411406
_cell_length_c 15.770138
_cell_angle_alpha 90.000000
_cell_angle_beta 90.000000
_cell_angle_gamma 90.000000
_cell_volume 3963.233625
_symmetry_space_group_name_H-M "C M M 2"
_symmetry_group_IT_number 35
_symmetry_cell_setting 'orthorhombic'
loop_
_space_group_symop_operation_xyz
x,y,z
-x,-y,z
-x,y,z
x,-y,z
1/2+x,1/2+y,z
1/2-x,1/2-y,z
1/2-x,1/2+y,z
1/2+x,1/2-y,z
loop_
_atom_site_type_symbol
_atom_site_label
_atom_site_fract_x
_atom_site_fract_y
_atom_site_fract_z
Si Si1 0.825226 0.053122 0.359690
Si Si2 0.177655 0.699178 0.578117
Si Si3 0.177643 0.643453 0.106888
Si Si4 0.825226 0.946878 0.161914
Si Si5 0.679232 0.698723 0.260802
Si Si6 0.822345 0.300822 0.943487
Si Si7 0.677643 0.856547 0.414716
Si Si8 0.823315 0.300114 0.760802
O O1 0.790833 0.060255 0.260802
O O2 0.720671 0.088417 0.413028
O O3 0.000000 0.063957 0.378490
O O4 0.784527 0.000000 0.387353
O O5 0.250000 0.750000 0.562789
O O6 0.230408 0.663217 0.505714
O O7 0.223968 0.676110 0.670542
O O8 0.000000 0.707130 0.572743
O O9 0.220671 0.588417 0.108576
O O10 0.269343 0.670997 0.178020
O O11 0.000000 0.649913 0.122819
O O12 0.230408 0.663217 0.015890
O O13 0.000000 0.936043 0.143114
O O14 0.784526 0.000000 0.134251
O O15 0.500000 0.703055 0.260802
O O16 0.750000 0.750000 0.260802
O O17 0.730658 0.670997 0.343584
O O18 0.750000 0.250000 0.958815
O O19 0.776032 0.323890 0.851062
O O20 0.000000 0.292870 0.948861
O O21 0.500000 0.850087 0.398785
O O22 0.750000 0.250000 0.760802
O O23 0.000000 0.292593 0.760802
#
# Coordination Sequence:
#
# PCOD8174080 Si02
#       8
#     8   8   8   8   8   8   8   8
#     4   9  18  33  51  69  90 119 155 193 235 278
#     4   9  18  30  46  68  94 123 155 189 226 270
#     4  11  21  32  47  71  96 121 155 192 231 275
#     4   9  18  33  51  69  90 119 155 193 235 278
#     4  12  24  36  47  62  91 130 164 191 223 267
#     4   9  18  30  46  68  94 123 155 189 226 270
#     4  11  21  32  47  71  96 121 155 192 231 275
#     4   8  14  28  46  64  89 120 151 187 228 267
#
# _framework density 16.148430000000001
#
# number of rings (size 3 to 8) (size 9 to 14) (size 15 to 20)
#    0.000    2.250    1.250    3.375    0.000    4.500 
#    0.000    1.250    0.000    0.000    0.000    0.875 
#    0.000    7.000    0.000    0.000    0.000    0.000 
#
# Total GULP energy -396556.571902 kJ/mol
# GULP energy per Si atom -12392.392872 kJ/mol
# Density = 1.611168 g / cm^3
# Si number density = 16.148430 Si / 1000 Ang^3
#
#
#
# Elastic Constant Matrix: (Units=GPa)
#
#
# Indices 1 2 3 4 5 6 
#
# 1 57.0205 34.9800 43.1374 0.0000 0.0000 0.0000
# 2 34.9800 101.9883 62.1800 0.0000 0.0000 0.0000
# 3 43.1374 62.1800 144.5806 0.0000 0.0000 0.0000
# 4 0.0000 0.0000 0.0000 8.9115 0.0000 0.0000
# 5 0.0000 0.0000 0.0000 0.0000 9.4848 0.0000
# 6 0.0000 0.0000 0.0000 0.0000 0.0000 28.3605
#
#
#
# Elastic Compliance Matrix: (Units=1/GPa)
#
#
# Indices 1 2 3 4 5 6 
#
# 1 0.024653 -0.005382 -0.005041 0.000000 0.000000 0.000000
# 2 -0.005382 0.014465 -0.004615 0.000000 0.000000 0.000000
# 3 -0.005041 -0.004615 0.010405 0.000000 0.000000 0.000000
# 4 0.000000 0.000000 0.000000 0.112215 0.000000 0.000000
# 5 0.000000 0.000000 0.000000 0.000000 0.105431 0.000000
# 6 0.000000 0.000000 0.000000 0.000000 0.000000 0.035260
#
#
# Mechanical properties :
#
#
# Convention : Reuss Voigt Hill
#
# Bulk Modulus (GPa) = 51.42209 64.90935 58.16572
# Shear Modulus (GPa) = 14.74980 20.23750 17.49365
#
# Velocity S-wave (km/s) = 3.02551 3.54392 3.29493
# Velocity P-wave (km/s) = 6.64210 7.55173 7.11147
#
# Compressibility (1/GPa) = 0.01944690
#
# Stress axis : x y z
#
# Youngs Moduli (GPa) = 40.56343 69.13382 96.10493
#
# Poissons Ratio (x) = 0.37209 0.48444
# Poissons Ratio (y) = 0.21832 0.44352
# Poissons Ratio (z) = 0.20447 0.31905
#
# Static dielectric constant tensor:
#      x y z
#    x 3.147710 0.000000 0.000000 
#    y 0.000000 3.080970 0.000000 
#    z 0.000000 0.000000 3.679080 
# 
# 
# High freq. dielectric constant tensor:
#      x y z
#    x 1.626020 0.000000 0.000000 
#    y 0.000000 1.599200 0.000000 
#    z 0.000000 0.000000 1.618930 
# 
# From -- ./inp_files/16204.got.cif
#   From: 2010.03.12/outbox.cif.g09.slc.cpg/sg35_9_cif.got.tgz:16204.got - 2010.04.14 02:02:04.
