data_PCOD8174879
_publ_section_title
;
Structure prediction by ZEFSAII (Michael W. Deem and Ramdas Pophale) SiO2 
 PCOD8174879
Probable space group: C M C 21
;
_chemical_formula_sum "Si O2"
_cell_formula_units_Z 64
_cell_length_a 9.518522
_cell_length_b 19.693974
_cell_length_c 18.527323
_cell_angle_alpha 90.000000
_cell_angle_beta 90.000000
_cell_angle_gamma 90.000000
_cell_volume 3473.086110
_symmetry_space_group_name_H-M "C M C 21"
_symmetry_group_IT_number 36
_symmetry_cell_setting 'orthorhombic'
loop_
_space_group_symop_operation_xyz
x,y,z
-x,-y,1/2+z
x,-y,1/2+z
-x,y,z
1/2+x,1/2+y,z
1/2-x,1/2-y,1/2+z
1/2+x,1/2-y,1/2+z
1/2-x,1/2+y,z
loop_
_atom_site_type_symbol
_atom_site_label
_atom_site_fract_x
_atom_site_fract_y
_atom_site_fract_z
Si Si1 0.662368 0.472409 0.636400
Si Si2 0.839169 0.442507 0.379053
Si Si3 0.663911 0.374067 0.122259
Si Si4 0.164605 0.948899 0.800467
Si Si5 0.833418 0.800355 0.842297
Si Si6 0.337539 0.169949 0.759644
Si Si7 0.334910 0.880317 0.532156
Si Si8 0.833238 0.229231 0.500663
O O1 0.500000 0.451932 0.627039
O O2 0.693178 0.547035 0.604198
O O3 0.704517 0.473177 0.720468
O O4 0.755404 0.416511 0.597226
O O5 0.742049 0.505524 0.359243
O O6 0.812692 0.380644 0.325471
O O7 0.796486 0.418165 0.458368
O O8 0.000000 0.466566 0.376169
O O9 0.500000 0.362090 0.137721
O O10 0.746203 0.352246 0.192652
O O11 0.718223 0.329221 0.055329
O O12 0.217649 0.872196 0.811602
O O13 0.000000 0.955657 0.815533
O O14 0.782581 0.743239 0.786140
O O15 0.000000 0.796625 0.848366
O O16 0.768887 0.787196 0.921910
O O17 0.500000 0.171752 0.736082
O O18 0.500000 0.883328 0.548042
O O19 0.280896 0.802686 0.527950
O O20 0.000000 0.230088 0.495418
#
# Coordination Sequence:
#
# PCOD8174879 Si02
#       8
#     8   8   8   8   8   8   8   8
#     4  10  22  37  52  81 116 143 178 222 269 324
#     4  10  20  36  57  80 106 138 180 228 270 316
#     4  10  21  36  55  80 111 143 178 222 267 321
#     4  10  21  36  57  82 111 144 180 223 270 323
#     4   9  18  34  57  80 104 140 185 224 263 319
#     4  10  19  35  59  80 102 139 182 224 267 314
#     4  10  21  37  57  79 106 142 184 226 268 321
#     4   9  18  35  56  78 104 141 185 221 262 320
#
# _framework density 18.427416000000001
#
# number of rings (size 3 to 8) (size 9 to 14) (size 15 to 20)
#    0.000    2.250    2.500    0.000    3.500    1.500 
#    0.000    0.625    0.000    1.500    0.000    0.000 
#    0.000    0.000    0.000    0.000    0.000    0.000 
#
# Total GULP energy -396857.863283 kJ/mol
# GULP energy per Si atom -12401.808228 kJ/mol
# Density = 1.838547 g / cm^3
# Si number density = 18.427416 Si / 1000 Ang^3
#
#
#
# Elastic Constant Matrix: (Units=GPa)
#
#
# Indices 1 2 3 4 5 6 
#
# 1 33.4252 31.6278 26.3290 0.0000 0.0000 0.0000
# 2 31.6278 119.6935 29.2218 0.0000 0.0000 0.0000
# 3 26.3290 29.2218 65.7255 0.0000 0.0000 0.0000
# 4 0.0000 0.0000 0.0000 34.1310 0.0000 0.0000
# 5 0.0000 0.0000 0.0000 0.0000 23.3548 0.0000
# 6 0.0000 0.0000 0.0000 0.0000 0.0000 22.4399
#
#
#
# Elastic Compliance Matrix: (Units=1/GPa)
#
#
# Indices 1 2 3 4 5 6 
#
# 1 0.052196 -0.009745 -0.016576 0.000000 0.000000 0.000000
# 2 -0.009745 0.011191 -0.001072 0.000000 0.000000 0.000000
# 3 -0.016576 -0.001072 0.022332 0.000000 0.000000 0.000000
# 4 0.000000 0.000000 0.000000 0.029299 0.000000 0.000000
# 5 0.000000 0.000000 0.000000 0.000000 0.042818 0.000000
# 6 0.000000 0.000000 0.000000 0.000000 0.000000 0.044563
#
#
# Mechanical properties :
#
#
# Convention : Reuss Voigt Hill
#
# Bulk Modulus (GPa) = 32.32902 43.68905 38.00903
# Shear Modulus (GPa) = 18.69177 24.76285 21.72731
#
# Velocity S-wave (km/s) = 3.18833 3.66977 3.43749
# Velocity P-wave (km/s) = 5.57997 6.45883 6.03542
#
# Compressibility (1/GPa) = 0.03093196
#
# Stress axis : x y z
#
# Youngs Moduli (GPa) = 19.15850 89.35367 44.77935
#
# Poissons Ratio (x) = 0.87078 0.74228
# Poissons Ratio (y) = 0.18671 0.04800
# Poissons Ratio (z) = 0.31758 0.09578
#
# Static dielectric constant tensor:
#      x y z
#    x 3.075890 0.000000 0.000000 
#    y 0.000000 3.622890 0.000000 
#    z 0.000000 0.000000 3.501570 
# 
# 
# High freq. dielectric constant tensor:
#      x y z
#    x 1.679820 0.000000 0.000000 
#    y 0.000000 1.730760 0.000000 
#    z 0.000000 0.000000 1.721240 
# 
# From -- ./inp_files/11779.got.cif
#   From: 2010.03.12/outbox.cif.g09.slc.cpg/sg36_6_cif.got.tgz:11779.got - 2010.04.14 02:13:53.
