data_PCOD8174028
_publ_section_title
;
Structure prediction by ZEFSAII (Michael W. Deem and Ramdas Pophale) SiO2 
 PCOD8174028
Probable space group: C M M 2
;
_chemical_formula_sum "Si O2"
_cell_formula_units_Z 48
_cell_length_a 8.818826
_cell_length_b 17.683626
_cell_length_c 15.389107
_cell_angle_alpha 90.000000
_cell_angle_beta 90.000000
_cell_angle_gamma 90.000000
_cell_volume 2399.913089
_symmetry_space_group_name_H-M "C M M 2"
_symmetry_group_IT_number 35
_symmetry_cell_setting 'orthorhombic'
loop_
_space_group_symop_operation_xyz
x,y,z
-x,-y,z
-x,y,z
x,-y,z
1/2+x,1/2+y,z
1/2-x,1/2-y,z
1/2-x,1/2+y,z
1/2+x,1/2-y,z
loop_
_atom_site_type_symbol
_atom_site_label
_atom_site_fract_x
_atom_site_fract_y
_atom_site_fract_z
Si Si1 0.328298 0.910658 0.481090
Si Si2 0.679074 0.331971 0.320043
Si Si3 0.176340 0.588192 0.803187
Si Si4 0.320995 0.332025 0.642489
Si Si5 0.676682 0.412568 0.142606
Si Si6 0.177168 0.668238 0.981351
O O1 0.500000 0.878919 0.481959
O O2 0.242856 0.884000 0.395650
O O3 0.240561 0.883366 0.565567
O O4 0.328332 0.000000 0.482353
O O5 0.500000 0.326207 0.330203
O O6 0.750000 0.250000 0.327341
O O7 0.726747 0.368949 0.229117
O O8 0.215478 0.500000 0.802309
O O9 0.278538 0.630483 0.733523
O O10 0.222045 0.620967 0.896480
O O11 0.000000 0.602608 0.781842
O O12 0.500000 0.325052 0.635128
O O13 0.250000 0.250000 0.634854
O O14 0.500000 0.401292 0.123416
O O15 0.718968 0.500000 0.154536
O O16 0.769669 0.378794 0.063691
O O17 0.250000 0.750000 0.977628
O O18 0.000000 0.680330 0.988786
#
# Coordination Sequence:
#
# PCOD8174028 Si02
#       6
#     8   8   8   8   8   8
#     4  11  24  42  64  90 121 157 197 244 298 354
#     4  11  23  40  62  89 122 158 199 246 296 352
#     4  10  22  41  63  89 122 157 196 245 299 354
#     4  12  25  41  63  90 121 158 200 245 295 352
#     4  10  22  40  62  89 121 157 198 247 300 353
#     4  11  23  39  61  89 121 159 201 246 297 352
#
# _framework density 20.000724000000002
#
# number of rings (size 3 to 8) (size 9 to 14) (size 15 to 20)
#    0.000    1.167    0.000    6.000    0.000   10.667 
#    0.000    0.000    0.000    0.000    0.000    0.000 
#    0.000    0.000    0.000    0.000    0.000    0.000 
#
# Total GULP energy -297761.150278 kJ/mol
# GULP energy per Si atom -12406.714595 kJ/mol
# Density = 1.995520 g / cm^3
# Si number density = 20.000724 Si / 1000 Ang^3
#
#
#
# Elastic Constant Matrix: (Units=GPa)
#
#
# Indices 1 2 3 4 5 6 
#
# 1 104.3841 35.0072 67.0200 0.0000 0.0000 0.0000
# 2 35.0072 84.8486 30.7974 0.0000 0.0000 0.0000
# 3 67.0200 30.7974 145.5198 0.0000 0.0000 0.0000
# 4 0.0000 0.0000 0.0000 50.8598 0.0000 0.0000
# 5 0.0000 0.0000 0.0000 0.0000 22.1931 0.0000
# 6 0.0000 0.0000 0.0000 0.0000 0.0000 43.5846
#
#
#
# Elastic Compliance Matrix: (Units=1/GPa)
#
#
# Indices 1 2 3 4 5 6 
#
# 1 0.014710 -0.003910 -0.005947 0.000000 0.000000 0.000000
# 2 -0.003910 0.013806 -0.001121 0.000000 0.000000 0.000000
# 3 -0.005947 -0.001121 0.009848 0.000000 0.000000 0.000000
# 4 0.000000 0.000000 0.000000 0.019662 0.000000 0.000000
# 5 0.000000 0.000000 0.000000 0.000000 0.045059 0.000000
# 6 0.000000 0.000000 0.000000 0.000000 0.000000 0.022944
#
#
# Mechanical properties :
#
#
# Convention : Reuss Voigt Hill
#
# Bulk Modulus (GPa) = 60.94946 66.71130 63.83038
# Shear Modulus (GPa) = 32.58299 36.78937 34.68618
#
# Velocity S-wave (km/s) = 4.04058 4.29348 4.16895
# Velocity P-wave (km/s) = 7.23244 7.61613 7.42676
#
# Compressibility (1/GPa) = 0.01640704
#
# Stress axis : x y z
#
# Youngs Moduli (GPa) = 67.98206 72.43265 101.54250
#
# Poissons Ratio (x) = 0.28324 0.60388
# Poissons Ratio (y) = 0.26584 0.11382
# Poissons Ratio (z) = 0.40429 0.08119
#
# Static dielectric constant tensor:
#      x y z
#    x 4.015410 0.000000 0.000000 
#    y 0.000000 3.808440 0.000000 
#    z 0.000000 0.000000 3.874710 
# 
# 
# High freq. dielectric constant tensor:
#      x y z
#    x 1.789280 0.000000 0.000000 
#    y 0.000000 1.801000 0.000000 
#    z 0.000000 0.000000 1.800390 
# 
# From -- ./inp_files/15139.got.cif
#   From: 2010.03.12/outbox.cif.g09.slc.cpg/sg35_8_cif.got.tgz:15139.got - 2010.04.14 02:02:04.
