data_PCOD8174353
_publ_section_title
;
Structure prediction by ZEFSAII (Michael W. Deem and Ramdas Pophale) SiO2 
 PCOD8174353
Probable space group: C M C 21
;
_chemical_formula_sum "Si O2"
_cell_formula_units_Z 64
_cell_length_a 8.793586
_cell_length_b 20.533294
_cell_length_c 19.337183
_cell_angle_alpha 90.000000
_cell_angle_beta 90.000000
_cell_angle_gamma 90.000000
_cell_volume 3491.546643
_symmetry_space_group_name_H-M "C M C 21"
_symmetry_group_IT_number 36
_symmetry_cell_setting 'orthorhombic'
loop_
_space_group_symop_operation_xyz
x,y,z
-x,-y,1/2+z
x,-y,1/2+z
-x,y,z
1/2+x,1/2+y,z
1/2-x,1/2-y,1/2+z
1/2+x,1/2-y,1/2+z
1/2-x,1/2+y,z
loop_
_atom_site_type_symbol
_atom_site_label
_atom_site_fract_x
_atom_site_fract_y
_atom_site_fract_z
Si Si1 0.179265 0.567361 0.833360
Si Si2 0.680778 0.890863 0.611948
Si Si3 0.319651 0.938403 0.757455
Si Si4 0.823496 0.244943 0.618830
Si Si5 0.824890 0.815651 0.255058
Si Si6 0.825317 0.314933 0.841300
Si Si7 0.820237 0.888107 0.469355
Si Si8 0.676768 0.747770 0.465459
O O1 0.240345 0.505118 0.790668
O O2 0.218882 0.631475 0.790388
O O3 0.259674 0.566424 0.907750
O O4 0.000000 0.563882 0.844769
O O5 0.500000 0.891341 0.601133
O O6 0.733944 0.934318 0.677266
O O7 0.743535 0.817768 0.625017
O O8 0.756740 0.916978 0.541434
O O9 0.500000 0.934431 0.758141
O O10 0.256826 0.877192 0.801226
O O11 0.759444 0.195666 0.677034
O O12 0.792047 0.217970 0.541814
O O13 0.000000 0.251252 0.636347
O O14 0.806421 0.747594 0.293614
O O15 0.000000 0.839669 0.256912
O O16 0.729810 0.306408 0.911443
O O17 0.000000 0.326271 0.861972
O O18 0.768010 0.814429 0.454524
O O19 0.000000 0.890040 0.470020
O O20 0.500000 0.764714 0.456050
#
# Coordination Sequence:
#
# PCOD8174353 Si02
#       8
#     8   8   8   8   8   8   8   8
#     4  11  22  36  54  80 112 146 185 223 264 318
#     4   9  16  33  58  80 101 132 178 226 270 320
#     4   9  19  36  58  81 107 144 184 221 266 323
#     4   8  15  29  52  78 103 135 172 213 265 323
#     4  10  18  32  55  79 105 137 176 220 271 322
#     4  10  18  32  56  81 106 138 177 218 269 320
#     4  11  21  34  52  78 109 143 181 221 269 321
#     4  10  19  32  53  81 109 139 179 224 270 319
#
# _framework density 18.329986000000002
#
# number of rings (size 3 to 8) (size 9 to 14) (size 15 to 20)
#    0.000    2.250    2.500    2.625    0.000    0.000 
#    0.000    7.500    0.000    4.500    0.000    0.000 
#    0.000    0.000    0.000    0.000    0.000    0.000 
#
# Total GULP energy -396730.965415 kJ/mol
# GULP energy per Si atom -12397.842669 kJ/mol
# Density = 1.828827 g / cm^3
# Si number density = 18.329986 Si / 1000 Ang^3
#
#
#
# Elastic Constant Matrix: (Units=GPa)
#
#
# Indices 1 2 3 4 5 6 
#
# 1 68.4239 25.8828 47.7240 0.0000 0.0000 0.0000
# 2 25.8828 76.1342 56.5382 0.0000 0.0000 0.0000
# 3 47.7240 56.5382 176.5170 0.0000 0.0000 0.0000
# 4 0.0000 0.0000 0.0000 31.1081 0.0000 0.0000
# 5 0.0000 0.0000 0.0000 0.0000 26.9376 0.0000
# 6 0.0000 0.0000 0.0000 0.0000 0.0000 17.4300
#
#
#
# Elastic Compliance Matrix: (Units=1/GPa)
#
#
# Indices 1 2 3 4 5 6 
#
# 1 0.018662 -0.003408 -0.003954 0.000000 0.000000 0.000000
# 2 -0.003408 0.017856 -0.004798 0.000000 0.000000 0.000000
# 3 -0.003954 -0.004798 0.008271 0.000000 0.000000 0.000000
# 4 0.000000 0.000000 0.000000 0.032146 0.000000 0.000000
# 5 0.000000 0.000000 0.000000 0.000000 0.037123 0.000000
# 6 0.000000 0.000000 0.000000 0.000000 0.000000 0.057372
#
#
# Mechanical properties :
#
#
# Convention : Reuss Voigt Hill
#
# Bulk Modulus (GPa) = 48.85400 64.59614 56.72507
# Shear Modulus (GPa) = 24.68249 27.82383 26.25316
#
# Velocity S-wave (km/s) = 3.67354 3.90030 3.78862
# Velocity P-wave (km/s) = 6.68607 7.45656 7.08180
#
# Compressibility (1/GPa) = 0.02046915
#
# Stress axis : x y z
#
# Youngs Moduli (GPa) = 53.58578 56.00258 120.90547
#
# Poissons Ratio (x) = 0.19086 0.47804
# Poissons Ratio (y) = 0.18263 0.58010
# Poissons Ratio (z) = 0.21187 0.26870
#
# Static dielectric constant tensor:
#      x y z
#    x 3.123600 0.000000 0.000000 
#    y 0.000000 3.217280 0.000000 
#    z 0.000000 0.000000 3.787580 
# 
# 
# High freq. dielectric constant tensor:
#      x y z
#    x 1.686090 0.000000 0.000000 
#    y 0.000000 1.677690 0.000000 
#    z 0.000000 0.000000 1.733130 
# 
# From -- ./inp_files/15656.got.cif
#   From: 2010.03.12/outbox.cif.g09.slc.cpg/sg36_8_cif.got.tgz:15656.got - 2010.04.14 02:13:53.
