data_PCOD8174647
_publ_section_title
;
Structure prediction by ZEFSAII (Michael W. Deem and Ramdas Pophale) SiO2 
 PCOD8174647
Probable space group: C M C 21
;
_chemical_formula_sum "Si O2"
_cell_formula_units_Z 64
_cell_length_a 8.719199
_cell_length_b 28.517207
_cell_length_c 14.326899
_cell_angle_alpha 90.000000
_cell_angle_beta 90.000000
_cell_angle_gamma 90.000000
_cell_volume 3562.343361
_symmetry_space_group_name_H-M "C M C 21"
_symmetry_group_IT_number 36
_symmetry_cell_setting 'orthorhombic'
loop_
_space_group_symop_operation_xyz
x,y,z
-x,-y,1/2+z
x,-y,1/2+z
-x,y,z
1/2+x,1/2+y,z
1/2-x,1/2-y,1/2+z
1/2+x,1/2-y,1/2+z
1/2-x,1/2+y,z
loop_
_atom_site_type_symbol
_atom_site_label
_atom_site_fract_x
_atom_site_fract_y
_atom_site_fract_z
Si Si1 0.179874 0.576362 0.215080
Si Si2 0.818328 0.501811 0.570924
Si Si3 0.318170 0.999168 0.864050
Si Si4 0.817154 0.574010 0.719819
Si Si5 0.681560 0.179336 0.724273
Si Si6 0.819706 0.750385 0.569120
Si Si7 0.319334 0.322704 0.720091
Si Si8 0.317877 0.247201 0.360291
O O1 0.225717 0.545996 0.124318
O O2 0.227783 0.547627 0.307705
O O3 0.276968 0.623338 0.211909
O O4 0.000000 0.588293 0.215686
O O5 0.744694 0.501976 0.467479
O O6 0.756192 0.547018 0.627577
O O7 0.000000 0.505422 0.564483
O O8 0.500000 0.002054 0.869878
O O9 0.257802 0.045541 0.810539
O O10 0.752178 0.626617 0.721972
O O11 0.000000 0.574727 0.718160
O O12 0.500000 0.180671 0.740671
O O13 0.725884 0.203576 0.626201
O O14 0.760192 0.206072 0.809565
O O15 0.760092 0.795622 0.627170
O O16 0.748721 0.748426 0.465509
O O17 0.000000 0.753946 0.558454
O O18 0.500000 0.316318 0.731111
O O19 0.241917 0.299904 0.810994
O O20 0.500000 0.246074 0.359976
#
# Coordination Sequence:
#
# PCOD8174647 Si02
#       8
#     8   8   8   8   8   8   8   8
#     4   9  17  29  47  72  96 121 160 200 232 274
#     4   8  14  25  42  66  95 123 152 188 226 266
#     4   8  14  25  42  67  97 122 148 189 232 265
#     4   8  14  24  40  62  87 118 152 181 215 266
#     4   9  17  31  49  70  96 124 154 189 234 283
#     4   8  17  32  48  66  91 123 155 188 230 284
#     4  10  20  35  51  69  96 127 157 193 243 293
#     4  10  19  33  51  70  92 120 158 198 234 279
#
# _framework density 17.965702
#
# number of rings (size 3 to 8) (size 9 to 14) (size 15 to 20)
#    0.000    3.250    0.000    3.000    0.000    2.000 
#    0.000   11.250    0.000    3.750    0.000    0.000 
#    0.000    0.000    0.000    0.000    0.000    0.000 
#
# Total GULP energy -396628.290298 kJ/mol
# GULP energy per Si atom -12394.634072 kJ/mol
# Density = 1.792481 g / cm^3
# Si number density = 17.965702 Si / 1000 Ang^3
#
#
#
# Elastic Constant Matrix: (Units=GPa)
#
#
# Indices 1 2 3 4 5 6 
#
# 1 27.8385 23.6142 24.4714 0.0000 0.0000 0.0000
# 2 23.6142 146.0548 69.3147 0.0000 0.0000 0.0000
# 3 24.4714 69.3147 174.2438 0.0000 0.0000 0.0000
# 4 0.0000 0.0000 0.0000 14.3698 0.0000 0.0000
# 5 0.0000 0.0000 0.0000 0.0000 13.6864 0.0000
# 6 0.0000 0.0000 0.0000 0.0000 0.0000 24.9007
#
#
#
# Elastic Compliance Matrix: (Units=1/GPa)
#
#
# Indices 1 2 3 4 5 6 
#
# 1 0.043906 -0.005143 -0.004120 0.000000 0.000000 0.000000
# 2 -0.005143 0.009043 -0.002875 0.000000 0.000000 0.000000
# 3 -0.004120 -0.002875 0.007461 0.000000 0.000000 0.000000
# 4 0.000000 0.000000 0.000000 0.069591 0.000000 0.000000
# 5 0.000000 0.000000 0.000000 0.000000 0.073065 0.000000
# 6 0.000000 0.000000 0.000000 0.000000 0.000000 0.040160
#
#
# Mechanical properties :
#
#
# Convention : Reuss Voigt Hill
#
# Bulk Modulus (GPa) = 27.67528 64.77086 46.22307
# Shear Modulus (GPa) = 17.88605 25.97381 21.92993
#
# Velocity S-wave (km/s) = 3.15868 3.80642 3.49758
# Velocity P-wave (km/s) = 5.36106 7.44642 6.48807
#
# Compressibility (1/GPa) = 0.03613332
#
# Stress axis : x y z
#
# Youngs Moduli (GPa) = 22.77575 110.58668 134.02343
#
# Poissons Ratio (x) = 0.56879 0.55222
# Poissons Ratio (y) = 0.11714 0.38530
# Poissons Ratio (z) = 0.09384 0.31792
#
# Static dielectric constant tensor:
#      x y z
#    x 2.810460 0.000000 0.000000 
#    y 0.000000 3.437110 0.000000 
#    z 0.000000 0.000000 3.874520 
# 
# 
# High freq. dielectric constant tensor:
#      x y z
#    x 1.646270 0.000000 0.000000 
#    y 0.000000 1.700170 0.000000 
#    z 0.000000 0.000000 1.703480 
# 
# From -- ./inp_files/11191.got.cif
#   From: 2010.03.12/outbox.cif.g09.slc.cpg/sg36_6_cif.got.tgz:11191.got - 2010.04.14 02:13:53.
