data_PCOD8174315
_publ_section_title
;
Structure prediction by ZEFSAII (Michael W. Deem and Ramdas Pophale) SiO2 
 PCOD8174315
Probable space group: C M C 21
;
_chemical_formula_sum "Si O2"
_cell_formula_units_Z 64
_cell_length_a 8.815233
_cell_length_b 20.713374
_cell_length_c 18.707676
_cell_angle_alpha 90.000000
_cell_angle_beta 90.000000
_cell_angle_gamma 90.000000
_cell_volume 3415.894763
_symmetry_space_group_name_H-M "C M C 21"
_symmetry_group_IT_number 36
_symmetry_cell_setting 'orthorhombic'
loop_
_space_group_symop_operation_xyz
x,y,z
-x,-y,1/2+z
x,-y,1/2+z
-x,y,z
1/2+x,1/2+y,z
1/2-x,1/2-y,1/2+z
1/2+x,1/2-y,1/2+z
1/2-x,1/2+y,z
loop_
_atom_site_type_symbol
_atom_site_label
_atom_site_fract_x
_atom_site_fract_y
_atom_site_fract_z
Si Si1 0.333084 0.244439 0.684960
Si Si2 0.832823 0.751763 0.515576
Si Si3 0.321762 0.119321 0.020130
Si Si4 0.180119 0.115104 0.174651
Si Si5 0.820938 0.999829 0.772598
Si Si6 0.677289 0.617601 0.675524
Si Si7 0.820668 0.609460 0.522332
Si Si8 0.319849 0.504762 0.933506
O O1 0.500000 0.228205 0.716363
O O2 0.343626 0.248975 0.600277
O O3 0.278102 0.315465 0.710494
O O4 0.216566 0.188369 0.707746
O O5 0.718450 0.808388 0.492293
O O6 0.778194 0.680508 0.490660
O O7 0.000000 0.767248 0.484098
O O8 0.500000 0.110557 0.020703
O O9 0.259345 0.105085 0.098746
O O10 0.249650 0.069226 0.965726
O O11 0.243904 0.060785 0.228061
O O12 0.000000 0.109956 0.161688
O O13 0.000000 0.993708 0.774917
O O14 0.771805 0.066004 0.734568
O O15 0.756790 0.998683 0.852800
O O16 0.500000 0.613674 0.657765
O O17 0.770586 0.602700 0.604308
O O18 0.731640 0.558027 0.475955
O O19 0.000000 0.597160 0.518491
O O20 0.500000 0.510073 0.936460
#
# Coordination Sequence:
#
# PCOD8174315 Si02
#       8
#     8   8   8   8   8   8   8   8
#     4   8  15  28  49  77 106 132 160 205 260 306
#     4   8  16  32  53  76 105 137 166 206 260 309
#     4  11  21  33  53  82 109 133 171 217 256 303
#     4   9  17  34  57  77 100 133 172 211 256 307
#     4   9  20  36  53  73  98 134 178 215 248 300
#     4  10  18  31  54  80 104 133 170 210 253 305
#     4  10  20  35  55  81 108 133 169 215 261 308
#     4  11  22  37  54  72 102 143 180 213 256 306
#
# _framework density 18.735939999999999
#
# number of rings (size 3 to 8) (size 9 to 14) (size 15 to 20)
#    0.000    2.500    0.000    4.500    0.000    6.000 
#    0.000    5.625    0.000    3.000    0.000    0.000 
#    0.000    0.000    0.000    0.000    0.000    0.000 
#
# Total GULP energy -396679.527706 kJ/mol
# GULP energy per Si atom -12396.235241 kJ/mol
# Density = 1.869330 g / cm^3
# Si number density = 18.735940 Si / 1000 Ang^3
#
#
#
# Elastic Constant Matrix: (Units=GPa)
#
#
# Indices 1 2 3 4 5 6 
#
# 1 69.6587 32.9564 22.7679 0.0000 0.0000 0.0000
# 2 32.9564 131.7550 37.8948 0.0000 0.0000 0.0000
# 3 22.7679 37.8948 65.4103 0.0000 0.0000 0.0000
# 4 0.0000 0.0000 0.0000 -0.7502 0.0000 0.0000
# 5 0.0000 0.0000 0.0000 0.0000 11.8345 0.0000
# 6 0.0000 0.0000 0.0000 0.0000 0.0000 33.9771
#
#
#
# Elastic Compliance Matrix: (Units=1/GPa)
#
#
# Indices 1 2 3 4 5 6 
#
# 1 0.017189 -0.003094 -0.004191 0.000000 0.000000 0.000000
# 2 -0.003094 0.009664 -0.004522 0.000000 0.000000 0.000000
# 3 -0.004191 -0.004522 0.019366 0.000000 0.000000 0.000000
# 4 0.000000 0.000000 0.000000 -1.332904 0.000000 0.000000
# 5 0.000000 0.000000 0.000000 0.000000 0.084499 0.000000
# 6 0.000000 0.000000 0.000000 0.000000 0.000000 0.029432
#
#
# Mechanical properties :
#
#
# Convention : Reuss Voigt Hill
#
# Bulk Modulus (GPa) = 44.23483 50.45135 47.34309
# Shear Modulus (GPa) = -4.37980 20.55926 8.08973
#
# Velocity S-wave (km/s) = -1.53060 3.31617 2.08018
# Velocity P-wave (km/s) = 4.53180 6.45358 5.57611
#
# Compressibility (1/GPa) = 0.02260662
#
# Stress axis : x y z
#
# Youngs Moduli (GPa) = 58.17545 103.47224 51.63561
#
# Poissons Ratio (x) = 0.32018 0.21638
# Poissons Ratio (y) = 0.18002 0.23349
# Poissons Ratio (z) = 0.24379 0.46789
#
# Static dielectric constant tensor:
#      x y z
#    x 3.334760 0.000000 0.000000 
#    y 0.000000 4.074830 0.000000 
#    z 0.000000 0.000000 3.227640 
# 
# 
# High freq. dielectric constant tensor:
#      x y z
#    x 1.717030 0.000000 0.000000 
#    y 0.000000 1.751710 0.000000 
#    z 0.000000 0.000000 1.688880 
# 
# From -- ./inp_files/13761.got.cif
#   From: 2010.03.12/outbox.cif.g09.slc.cpg/sg36_7_cif.got.tgz:13761.got - 2010.04.14 02:13:53.
