data_PCOD8174084
_publ_section_title
;
Structure prediction by ZEFSAII (Michael W. Deem and Ramdas Pophale) SiO2 
 PCOD8174084
Probable space group: C M M 2
;
_chemical_formula_sum "Si O2"
_cell_formula_units_Z 40
_cell_length_a 8.809192
_cell_length_b 19.647747
_cell_length_c 12.905269
_cell_angle_alpha 90.000000
_cell_angle_beta 90.000000
_cell_angle_gamma 90.000000
_cell_volume 2233.653969
_symmetry_space_group_name_H-M "C M M 2"
_symmetry_group_IT_number 35
_symmetry_cell_setting 'orthorhombic'
loop_
_space_group_symop_operation_xyz
x,y,z
-x,-y,z
-x,y,z
x,-y,z
1/2+x,1/2+y,z
1/2-x,1/2-y,z
1/2-x,1/2+y,z
1/2+x,1/2-y,z
loop_
_atom_site_type_symbol
_atom_site_label
_atom_site_fract_x
_atom_site_fract_y
_atom_site_fract_z
Si Si1 0.677626 0.323376 0.932530
Si Si2 0.321380 0.175455 0.501426
Si Si3 0.677362 0.323473 0.705125
Si Si4 0.179674 0.074977 0.103051
Si Si5 0.824097 0.920674 0.337145
O O1 0.500000 0.313603 0.950401
O O2 0.750000 0.250000 0.945195
O O3 0.707447 0.356870 0.818280
O O4 0.749500 0.373029 0.019095
O O5 0.500000 0.183921 0.508831
O O6 0.250000 0.250000 0.483752
O O7 0.258580 0.139806 0.607736
O O8 0.280921 0.125696 0.408057
O O9 0.500000 0.318603 0.680659
O O10 0.750000 0.250000 0.711324
O O11 0.219980 0.098463 0.219257
O O12 0.000000 0.071260 0.090325
O O13 0.248348 0.000000 0.081893
O O14 0.000000 0.904287 0.359085
O O15 0.790773 0.000000 0.358515
#
# Coordination Sequence:
#
# PCOD8174084 Si02
#       5
#     8   8   8   8   8
#     4   9  17  29  48  73  98 124 157 196 236 281
#     4  11  21  33  51  73  99 129 164 206 246 289
#     4   9  16  28  46  69  97 127 159 195 239 288
#     4   8  15  30  51  72  95 125 159 194 234 282
#     4   9  18  34  54  73  97 130 165 201 243 291
#
# _framework density 17.907876999999999
#
# number of rings (size 3 to 8) (size 9 to 14) (size 15 to 20)
#    0.000    2.800    0.000    4.800    0.000    2.000 
#    0.000    4.000    0.000    5.400    0.000    0.000 
#    0.000    0.000    0.000    0.000    0.000    0.000 
#
# Total GULP energy -247830.480334 kJ/mol
# GULP energy per Si atom -12391.524017 kJ/mol
# Density = 1.786712 g / cm^3
# Si number density = 17.907877 Si / 1000 Ang^3
#
#
#
# Elastic Constant Matrix: (Units=GPa)
#
#
# Indices 1 2 3 4 5 6 
#
# 1 84.5582 34.4634 54.8432 0.0000 0.0000 0.0000
# 2 34.4634 72.0533 74.6083 0.0000 0.0000 0.0000
# 3 54.8432 74.6083 164.8256 0.0000 0.0000 0.0000
# 4 0.0000 0.0000 0.0000 9.7142 0.0000 0.0000
# 5 0.0000 0.0000 0.0000 0.0000 22.6142 0.0000
# 6 0.0000 0.0000 0.0000 0.0000 0.0000 20.8548
#
#
#
# Elastic Compliance Matrix: (Units=1/GPa)
#
#
# Indices 1 2 3 4 5 6 
#
# 1 0.015654 -0.003941 -0.003424 0.000000 0.000000 0.000000
# 2 -0.003941 0.027114 -0.010962 0.000000 0.000000 0.000000
# 3 -0.003424 -0.010962 0.012168 0.000000 0.000000 0.000000
# 4 0.000000 0.000000 0.000000 0.102942 0.000000 0.000000
# 5 0.000000 0.000000 0.000000 0.000000 0.044220 0.000000
# 6 0.000000 0.000000 0.000000 0.000000 0.000000 0.047951
#
#
# Mechanical properties :
#
#
# Convention : Reuss Voigt Hill
#
# Bulk Modulus (GPa) = 54.70163 72.14077 63.42120
# Shear Modulus (GPa) = 17.07663 21.13813 19.10738
#
# Velocity S-wave (km/s) = 3.09136 3.43940 3.27001
# Velocity P-wave (km/s) = 6.58441 7.49296 7.05333
#
# Compressibility (1/GPa) = 0.01828099
#
# Stress axis : x y z
#
# Youngs Moduli (GPa) = 63.88310 36.88078 82.18026
#
# Poissons Ratio (x) = 0.14536 0.28142
# Poissons Ratio (y) = 0.25178 0.90085
# Poissons Ratio (z) = 0.21877 0.40428
#
# Static dielectric constant tensor:
#      x y z
#    x 3.131120 0.000000 0.000000 
#    y 0.000000 3.207050 0.000000 
#    z 0.000000 0.000000 4.064060 
# 
# 
# High freq. dielectric constant tensor:
#      x y z
#    x 1.676670 0.000000 0.000000 
#    y 0.000000 1.661760 0.000000 
#    z 0.000000 0.000000 1.714480 
# 
# From -- ./inp_files/11168.got.cif
#   From: 2010.03.12/outbox.cif.g09.slc.cpg/sg35_6_cif.got.tgz:11168.got - 2010.04.14 02:02:04.
