data_PCOD8174054
_publ_section_title
;
Structure prediction by ZEFSAII (Michael W. Deem and Ramdas Pophale) SiO2 
 PCOD8174054
Probable space group: C M M 2
;
_chemical_formula_sum "Si O2"
_cell_formula_units_Z 64
_cell_length_a 14.809112
_cell_length_b 23.139888
_cell_length_c 8.975995
_cell_angle_alpha 90.000000
_cell_angle_beta 90.000000
_cell_angle_gamma 90.000000
_cell_volume 3075.904675
_symmetry_space_group_name_H-M "C M M 2"
_symmetry_group_IT_number 35
_symmetry_cell_setting 'orthorhombic'
loop_
_space_group_symop_operation_xyz
x,y,z
-x,-y,z
-x,y,z
x,-y,z
1/2+x,1/2+y,z
1/2-x,1/2-y,z
1/2-x,1/2+y,z
1/2+x,1/2-y,z
loop_
_atom_site_type_symbol
_atom_site_label
_atom_site_fract_x
_atom_site_fract_y
_atom_site_fract_z
Si Si1 0.101112 0.143231 0.081070
Si Si2 0.758105 0.932748 0.255244
Si Si3 0.899107 0.563827 0.792346
Si Si4 0.896493 0.623055 0.092356
Si Si5 0.396061 0.663442 0.741559
Si Si6 0.234713 0.385644 0.580705
Si Si7 0.354688 0.758044 0.243915
Si Si8 0.600203 0.781169 0.573536
O O1 0.167074 0.095121 0.147856
O O2 0.101979 0.201880 0.173146
O O3 0.000000 0.117433 0.084716
O O4 0.130229 0.160207 0.914529
O O5 0.659978 0.923842 0.184428
O O6 0.756389 0.900087 0.411503
O O7 0.779811 0.000000 0.276078
O O8 0.891489 0.500000 0.865006
O O9 0.826607 0.565881 0.658984
O O10 0.000000 0.573076 0.727319
O O11 0.878734 0.612445 0.916988
O O12 0.868192 0.688098 0.132646
O O13 0.000000 0.611868 0.134051
O O14 0.500000 0.645566 0.713522
O O15 0.332101 0.618049 0.657998
O O16 0.376516 0.726859 0.677228
O O17 0.178445 0.326987 0.600583
O O18 0.250000 0.750000 0.275676
O O19 0.404523 0.765637 0.399897
O O20 0.500000 0.804867 0.616788
#
# Coordination Sequence:
#
# PCOD8174054 Si02
#       8
#     8   8   8   8   8   8   8   8
#     4  11  24  44  68  96 130 170 221 282 340 396
#     4  12  26  44  67  96 130 174 228 278 332 397
#     4  10  23  42  63  90 128 175 223 272 330 398
#     4  11  23  41  65  95 131 172 216 269 331 395
#     4  10  24  41  63  94 129 170 213 269 338 403
#     4  12  23  40  64  93 129 176 218 275 328 399
#     4  12  22  38  65  98 133 172 210 266 335 399
#     4  11  22  38  60  95 137 175 213 261 329 406
#
# _framework density 20.806885999999999
#
# number of rings (size 3 to 8) (size 9 to 14) (size 15 to 20)
#    0.000    0.875    2.500    4.875    1.750    3.000 
#    0.000    0.625    0.000    2.625    0.000    0.000 
#    0.000    0.000    0.000    0.000    0.000    0.000 
#
# Total GULP energy -396863.270131 kJ/mol
# GULP energy per Si atom -12401.977192 kJ/mol
# Density = 2.075953 g / cm^3
# Si number density = 20.806886 Si / 1000 Ang^3
#
#
#
# Elastic Constant Matrix: (Units=GPa)
#
#
# Indices 1 2 3 4 5 6 
#
# 1 112.5563 47.2521 38.4594 0.0000 0.0000 0.0000
# 2 47.2521 80.2248 24.6192 0.0000 0.0000 0.0000
# 3 38.4594 24.6192 86.2509 0.0000 0.0000 0.0000
# 4 0.0000 0.0000 0.0000 25.7472 0.0000 0.0000
# 5 0.0000 0.0000 0.0000 0.0000 34.4261 0.0000
# 6 0.0000 0.0000 0.0000 0.0000 0.0000 25.5119
#
#
#
# Elastic Compliance Matrix: (Units=1/GPa)
#
#
# Indices 1 2 3 4 5 6 
#
# 1 0.012915 -0.006400 -0.003932 0.000000 0.000000 0.000000
# 2 -0.006400 0.016833 -0.001951 0.000000 0.000000 0.000000
# 3 -0.003932 -0.001951 0.013904 0.000000 0.000000 0.000000
# 4 0.000000 0.000000 0.000000 0.038839 0.000000 0.000000
# 5 0.000000 0.000000 0.000000 0.000000 0.029048 0.000000
# 6 0.000000 0.000000 0.000000 0.000000 0.000000 0.039197
#
#
# Mechanical properties :
#
#
# Convention : Reuss Voigt Hill
#
# Bulk Modulus (GPa) = 52.39378 55.52148 53.95763
# Shear Modulus (GPa) = 27.52321 28.38379 27.95350
#
# Velocity S-wave (km/s) = 3.64097 3.69745 3.66932
# Velocity P-wave (km/s) = 6.55066 6.70599 6.62878
#
# Compressibility (1/GPa) = 0.01908623
#
# Stress axis : x y z
#
# Youngs Moduli (GPa) = 77.43082 59.40582 71.92069
#
# Poissons Ratio (x) = 0.38021 0.28278
# Poissons Ratio (y) = 0.49557 0.14032
# Poissons Ratio (z) = 0.30445 0.11590
#
# Static dielectric constant tensor:
#      x y z
#    x 4.033890 0.000000 0.000000 
#    y 0.000000 3.675930 0.000000 
#    z 0.000000 0.000000 3.886690 
# 
# 
# High freq. dielectric constant tensor:
#      x y z
#    x 1.832490 0.000000 0.000000 
#    y 0.000000 1.801250 0.000000 
#    z 0.000000 0.000000 1.822770 
# 
# From -- ./inp_files/7879.got.cif
#   From: 2010.03.12/outbox.cif.g09.slc.cpg/sg35_4_cif.got.tgz:7879.got - 2010.04.14 02:02:04.
