data_PCOD8174350
_publ_section_title
;
Structure prediction by ZEFSAII (Michael W. Deem and Ramdas Pophale) SiO2 
 PCOD8174350
Probable space group: C M C 21
;
_chemical_formula_sum "Si O2"
_cell_formula_units_Z 64
_cell_length_a 9.368608
_cell_length_b 20.778176
_cell_length_c 19.050735
_cell_angle_alpha 90.000000
_cell_angle_beta 90.000000
_cell_angle_gamma 90.000000
_cell_volume 3708.465338
_symmetry_space_group_name_H-M "C M C 21"
_symmetry_group_IT_number 36
_symmetry_cell_setting 'orthorhombic'
loop_
_space_group_symop_operation_xyz
x,y,z
-x,-y,1/2+z
x,-y,1/2+z
-x,y,z
1/2+x,1/2+y,z
1/2-x,1/2-y,1/2+z
1/2+x,1/2-y,1/2+z
1/2-x,1/2+y,z
loop_
_atom_site_type_symbol
_atom_site_label
_atom_site_fract_x
_atom_site_fract_y
_atom_site_fract_z
Si Si1 0.836019 0.497624 0.625000
Si Si2 0.833526 0.063314 0.903985
Si Si3 0.336268 0.489411 0.257046
Si Si4 0.665982 0.368358 0.618111
Si Si5 0.836376 0.137288 0.275148
Si Si6 0.330901 0.820065 0.904793
Si Si7 0.832055 0.191685 0.975928
Si Si8 0.662839 0.950946 0.976623
O O1 0.763371 0.531048 0.692340
O O2 0.757913 0.431769 0.604375
O O3 0.822691 0.547404 0.560798
O O4 0.000000 0.481967 0.642605
O O5 0.805547 0.059320 0.820649
O O6 0.000000 0.056434 0.921407
O O7 0.757577 0.005516 0.942760
O O8 0.771683 0.131051 0.931771
O O9 0.500000 0.486245 0.232019
O O10 0.299317 0.561784 0.281643
O O11 0.500000 0.388532 0.611855
O O12 0.695967 0.339273 0.695377
O O13 0.707355 0.316262 0.558433
O O14 0.737127 0.177382 0.327446
O O15 0.000000 0.150174 0.295614
O O16 0.500000 0.816228 0.895607
O O17 0.283735 0.881578 0.950375
O O18 0.267733 0.757757 0.945342
O O19 0.000000 0.194476 0.966000
O O20 0.500000 0.962994 0.953316
#
# Coordination Sequence:
#
# PCOD8174350 Si02
#       8
#     8   8   8   8   8   8   8   8
#     4  10  19  30  47  74 104 132 164 205 253 304
#     4  10  18  32  55  76  96 126 170 215 250 290
#     4   9  18  31  49  75 101 127 165 212 254 297
#     4   9  17  32  53  73  96 128 170 213 248 291
#     4   9  17  30  49  75 100 125 164 209 252 295
#     4  10  20  34  51  73 103 137 168 201 247 305
#     4   9  18  33  54  76  97 131 174 209 245 294
#     4  10  20  32  48  74 105 132 163 204 253 304
#
# _framework density 17.257811
#
# number of rings (size 3 to 8) (size 9 to 14) (size 15 to 20)
#    0.000    2.500    2.500    1.125    0.000    3.000 
#    0.000    2.500    0.000    1.500    0.000    0.000 
#    0.000    0.000    0.000    0.000    0.000    0.000 
#
# Total GULP energy -396751.293775 kJ/mol
# GULP energy per Si atom -12398.477930 kJ/mol
# Density = 1.721853 g / cm^3
# Si number density = 17.257811 Si / 1000 Ang^3
#
#
#
# Elastic Constant Matrix: (Units=GPa)
#
#
# Indices 1 2 3 4 5 6 
#
# 1 52.8782 34.2877 46.5297 0.0000 0.0000 0.0000
# 2 34.2877 109.4586 69.2106 0.0000 0.0000 0.0000
# 3 46.5297 69.2106 137.4415 0.0000 0.0000 0.0000
# 4 0.0000 0.0000 0.0000 27.3756 0.0000 0.0000
# 5 0.0000 0.0000 0.0000 0.0000 29.6385 0.0000
# 6 0.0000 0.0000 0.0000 0.0000 0.0000 16.2247
#
#
#
# Elastic Compliance Matrix: (Units=1/GPa)
#
#
# Indices 1 2 3 4 5 6 
#
# 1 0.028133 -0.004094 -0.007462 0.000000 0.000000 0.000000
# 2 -0.004094 0.013999 -0.005664 0.000000 0.000000 0.000000
# 3 -0.007462 -0.005664 0.012654 0.000000 0.000000 0.000000
# 4 0.000000 0.000000 0.000000 0.036529 0.000000 0.000000
# 5 0.000000 0.000000 0.000000 0.000000 0.033740 0.000000
# 6 0.000000 0.000000 0.000000 0.000000 0.000000 0.061635
#
#
# Mechanical properties :
#
#
# Convention : Reuss Voigt Hill
#
# Bulk Modulus (GPa) = 49.14960 66.64825 57.89892
# Shear Modulus (GPa) = 21.93833 24.63111 23.28472
#
# Velocity S-wave (km/s) = 3.56927 3.78199 3.67717
# Velocity P-wave (km/s) = 6.74742 7.60094 7.18686
#
# Compressibility (1/GPa) = 0.02034605
#
# Stress axis : x y z
#
# Youngs Moduli (GPa) = 35.54598 71.43164 79.02533
#
# Poissons Ratio (x) = 0.29244 0.58972
# Poissons Ratio (y) = 0.14552 0.44757
# Poissons Ratio (z) = 0.26526 0.40456
#
# Static dielectric constant tensor:
#      x y z
#    x 3.098460 0.000000 0.000000 
#    y 0.000000 3.166450 0.000000 
#    z 0.000000 0.000000 3.473600 
# 
# 
# High freq. dielectric constant tensor:
#      x y z
#    x 1.652880 0.000000 0.000000 
#    y 0.000000 1.635940 0.000000 
#    z 0.000000 0.000000 1.681070 
# 
# From -- ./inp_files/15618.got.cif
#   From: 2010.03.12/outbox.cif.g09.slc.cpg/sg36_8_cif.got.tgz:15618.got - 2010.04.14 02:13:53.
