data_PCOD8174849
_publ_section_title
;
Structure prediction by ZEFSAII (Michael W. Deem and Ramdas Pophale) SiO2 
 PCOD8174849
Probable space group: C M C 21
;
_chemical_formula_sum "Si O2"
_cell_formula_units_Z 48
_cell_length_a 16.527637
_cell_length_b 9.602748
_cell_length_c 15.741939
_cell_angle_alpha 90.000000
_cell_angle_beta 90.000000
_cell_angle_gamma 90.000000
_cell_volume 2498.414680
_symmetry_space_group_name_H-M "C M C 21"
_symmetry_group_IT_number 36
_symmetry_cell_setting 'orthorhombic'
loop_
_space_group_symop_operation_xyz
x,y,z
-x,-y,1/2+z
x,-y,1/2+z
-x,y,z
1/2+x,1/2+y,z
1/2-x,1/2-y,1/2+z
1/2+x,1/2-y,1/2+z
1/2-x,1/2+y,z
loop_
_atom_site_type_symbol
_atom_site_label
_atom_site_fract_x
_atom_site_fract_y
_atom_site_fract_z
Si Si1 0.179794 0.219323 0.702880
Si Si2 0.679010 0.973328 0.270250
Si Si3 0.091555 0.730033 0.670522
Si Si4 0.092361 0.990732 0.785467
Si Si5 0.768112 0.242698 0.041350
Si Si6 0.270379 0.510419 0.426431
O O1 0.184694 0.363172 0.752838
O O2 0.188958 0.252506 0.602647
O O3 0.251752 0.113522 0.723411
O O4 0.099573 0.135442 0.731642
O O5 0.693132 0.957570 0.371265
O O6 0.596762 0.903933 0.234613
O O7 0.118482 0.865764 0.723267
O O8 0.149644 0.712370 0.589398
O O9 0.000000 0.741685 0.637246
O O10 0.149107 0.988128 0.868408
O O11 0.000000 0.974199 0.815984
O O12 0.750445 0.336693 0.959803
O O13 0.782020 0.086784 0.008004
#
# Coordination Sequence:
#
# PCOD8174849 Si02
#       6
#     8   8   8   8   8   8
#     4  10  19  35  56  79 107 144 188 222 261 325
#     4  10  19  35  56  78 106 144 188 223 261 325
#     4  10  21  38  56  75 106 148 187 223 271 330
#     4  10  21  38  58  80 110 149 189 225 268 328
#     4  11  20  33  55  81 109 138 176 229 280 325
#     4  11  20  33  55  83 110 137 178 230 279 323
#
# _framework density 19.212183
#
# number of rings (size 3 to 8) (size 9 to 14) (size 15 to 20)
#    0.000    1.667    0.000   10.000    0.000    1.333 
#    0.000    1.667    0.000    4.000    0.000    0.000 
#    0.000    0.000    0.000    0.000    0.000    0.000 
#
# Total GULP energy -297464.345361 kJ/mol
# GULP energy per Si atom -12394.347723 kJ/mol
# Density = 1.916846 g / cm^3
# Si number density = 19.212183 Si / 1000 Ang^3
#
#
#
# Elastic Constant Matrix: (Units=GPa)
#
#
# Indices 1 2 3 4 5 6 
#
# 1 68.1585 33.5758 37.3796 0.0000 0.0000 0.0000
# 2 33.5758 108.8966 25.3001 0.0000 0.0000 0.0000
# 3 37.3796 25.3001 101.9141 0.0000 0.0000 0.0000
# 4 0.0000 0.0000 0.0000 42.1659 0.0000 0.0000
# 5 0.0000 0.0000 0.0000 0.0000 26.6725 0.0000
# 6 0.0000 0.0000 0.0000 0.0000 0.0000 18.5037
#
#
#
# Elastic Compliance Matrix: (Units=1/GPa)
#
#
# Indices 1 2 3 4 5 6 
#
# 1 0.020536 -0.004862 -0.006325 0.000000 0.000000 0.000000
# 2 -0.004862 0.010896 -0.000922 0.000000 0.000000 0.000000
# 3 -0.006325 -0.000922 0.012361 0.000000 0.000000 0.000000
# 4 0.000000 0.000000 0.000000 0.023716 0.000000 0.000000
# 5 0.000000 0.000000 0.000000 0.000000 0.037492 0.000000
# 6 0.000000 0.000000 0.000000 0.000000 0.000000 0.054043
#
#
# Mechanical properties :
#
#
# Convention : Reuss Voigt Hill
#
# Bulk Modulus (GPa) = 51.08519 52.38668 51.73594
# Shear Modulus (GPa) = 26.34545 29.64934 27.99739
#
# Velocity S-wave (km/s) = 3.70711 3.93269 3.82157
# Velocity P-wave (km/s) = 6.70606 6.92445 6.81613
#
# Compressibility (1/GPa) = 0.01957514
#
# Stress axis : x y z
#
# Youngs Moduli (GPa) = 48.69599 91.77418 80.90090
#
# Poissons Ratio (x) = 0.44623 0.51169
# Poissons Ratio (y) = 0.23677 0.07456
# Poissons Ratio (z) = 0.30800 0.08458
#
# Static dielectric constant tensor:
#      x y z
#    x 3.506800 0.000000 0.000000 
#    y 0.000000 3.873420 0.000000 
#    z 0.000000 0.000000 3.598290 
# 
# 
# High freq. dielectric constant tensor:
#      x y z
#    x 1.717820 0.000000 0.000000 
#    y 0.000000 1.766410 0.000000 
#    z 0.000000 0.000000 1.747460 
# 
# From -- ./inp_files/12485.got.cif
#   From: 2010.03.12/outbox.cif.g09.slc.cpg/sg36_7_cif.got.tgz:12485.got - 2010.04.14 02:13:53.
