data_PCOD8174648
_publ_section_title
;
Structure prediction by ZEFSAII (Michael W. Deem and Ramdas Pophale) SiO2 
 PCOD8174648
Probable space group: C M C 21
;
_chemical_formula_sum "Si O2"
_cell_formula_units_Z 64
_cell_length_a 8.955322
_cell_length_b 14.228521
_cell_length_c 28.308107
_cell_angle_alpha 90.000000
_cell_angle_beta 90.000000
_cell_angle_gamma 90.000000
_cell_volume 3607.046938
_symmetry_space_group_name_H-M "C M C 21"
_symmetry_group_IT_number 36
_symmetry_cell_setting 'orthorhombic'
loop_
_space_group_symop_operation_xyz
x,y,z
-x,-y,1/2+z
x,-y,1/2+z
-x,y,z
1/2+x,1/2+y,z
1/2-x,1/2-y,1/2+z
1/2+x,1/2-y,1/2+z
1/2-x,1/2+y,z
loop_
_atom_site_type_symbol
_atom_site_label
_atom_site_fract_x
_atom_site_fract_y
_atom_site_fract_z
Si Si1 0.172093 0.401610 0.005040
Si Si2 0.821635 0.112774 0.756683
Si Si3 0.177846 0.751271 0.577040
Si Si4 0.175299 0.100201 0.003704
Si Si5 0.675084 0.402263 0.756077
Si Si6 0.828518 0.750448 0.426528
Si Si7 0.323664 0.752327 0.328069
Si Si8 0.177091 0.252498 0.183862
O O1 0.233390 0.342403 0.049918
O O2 0.258812 0.497656 0.000601
O O3 0.000000 0.425779 0.012454
O O4 0.196788 0.342388 0.957521
O O5 0.759978 0.159961 0.804288
O O6 0.759014 0.162362 0.709914
O O7 0.000000 0.117439 0.756483
O O8 0.756384 0.006499 0.755988
O O9 0.238252 0.843437 0.549428
O O10 0.237777 0.751417 0.630407
O O11 0.000000 0.753114 0.575441
O O12 0.000000 0.090567 0.008502
O O13 0.216086 0.157636 0.956468
O O14 0.500000 0.414283 0.758255
O O15 0.728909 0.343109 0.801713
O O16 0.720970 0.345898 0.708679
O O17 0.718947 0.744650 0.382417
O O18 0.000000 0.756795 0.409579
O O19 0.500000 0.767650 0.322324
O O20 0.000000 0.269981 0.186429
#
# Coordination Sequence:
#
# PCOD8174648 Si02
#       8
#     8   8   8   8   8   8   8   8
#     4   9  18  33  51  73 101 131 164 203 246 288
#     4  10  19  33  51  73 101 129 159 200 248 290
#     4   8  16  32  52  71  98 135 166 198 245 294
#     4   9  18  33  52  73  98 132 169 200 239 293
#     4   8  17  32  49  69  95 126 158 195 239 290
#     4   9  19  35  51  70 100 133 162 198 248 296
#     4  10  20  35  53  73  96 127 167 203 240 291
#     4   9  17  33  53  72  97 131 169 203 239 288
#
# _framework density 17.743046
#
# number of rings (size 3 to 8) (size 9 to 14) (size 15 to 20)
#    0.000    3.000    0.000    3.000    0.000    3.000 
#    0.000   14.375    0.000    0.000    0.000    0.000 
#    0.000    0.000    0.000    0.000    0.000    0.000 
#
# Total GULP energy -396697.998139 kJ/mol
# GULP energy per Si atom -12396.812442 kJ/mol
# Density = 1.770266 g / cm^3
# Si number density = 17.743046 Si / 1000 Ang^3
#
#
#
# Elastic Constant Matrix: (Units=GPa)
#
#
# Indices 1 2 3 4 5 6 
#
# 1 24.0208 10.4752 34.2541 0.0000 0.0000 0.0000
# 2 10.4752 122.7443 60.2725 0.0000 0.0000 0.0000
# 3 34.2541 60.2725 137.0473 0.0000 0.0000 0.0000
# 4 0.0000 0.0000 0.0000 10.8495 0.0000 0.0000
# 5 0.0000 0.0000 0.0000 0.0000 26.5281 0.0000
# 6 0.0000 0.0000 0.0000 0.0000 0.0000 29.1324
#
#
#
# Elastic Compliance Matrix: (Units=1/GPa)
#
#
# Indices 1 2 3 4 5 6 
#
# 1 0.065615 0.003129 -0.017776 0.000000 0.000000 0.000000
# 2 0.003129 0.010540 -0.005418 0.000000 0.000000 0.000000
# 3 -0.017776 -0.005418 0.014122 0.000000 0.000000 0.000000
# 4 0.000000 0.000000 0.000000 0.092170 0.000000 0.000000
# 5 0.000000 0.000000 0.000000 0.000000 0.037696 0.000000
# 6 0.000000 0.000000 0.000000 0.000000 0.000000 0.034326
#
#
# Mechanical properties :
#
#
# Convention : Reuss Voigt Hill
#
# Bulk Modulus (GPa) = 19.94078 54.86845 37.40462
# Shear Modulus (GPa) = 16.06085 25.22271 20.64178
#
# Velocity S-wave (km/s) = 3.01190 3.77444 3.41453
# Velocity P-wave (km/s) = 4.83306 7.07010 6.05577
#
# Compressibility (1/GPa) = 0.05014848
#
# Stress axis : x y z
#
# Youngs Moduli (GPa) = 15.24034 94.87435 70.80905
#
# Poissons Ratio (x) = -0.29688 1.25873
# Poissons Ratio (y) = -0.04769 0.38362
# Poissons Ratio (z) = 0.27092 0.51400
#
# Static dielectric constant tensor:
#      x y z
#    x 3.004970 0.000000 0.000000 
#    y 0.000000 3.602030 0.000000 
#    z 0.000000 0.000000 3.422180 
# 
# 
# High freq. dielectric constant tensor:
#      x y z
#    x 1.662160 0.000000 0.000000 
#    y 0.000000 1.691890 0.000000 
#    z 0.000000 0.000000 1.690970 
# 
# From -- ./inp_files/17342.got.cif
#   From: 2010.03.12/outbox.cif.g09.slc.cpg/sg36_9_cif.got.tgz:17342.got - 2010.04.14 02:13:53.
