data_PCOD8174595
_publ_section_title
;
Structure prediction by ZEFSAII (Michael W. Deem and Ramdas Pophale) SiO2 
 PCOD8174595
Probable space group: C M C 21
;
_chemical_formula_sum "Si O2"
_cell_formula_units_Z 40
_cell_length_a 18.547877
_cell_length_b 10.133967
_cell_length_c 8.731421
_cell_angle_alpha 90.000000
_cell_angle_beta 90.000000
_cell_angle_gamma 90.000000
_cell_volume 1641.189092
_symmetry_space_group_name_H-M "C M C 21"
_symmetry_group_IT_number 36
_symmetry_cell_setting 'orthorhombic'
loop_
_space_group_symop_operation_xyz
x,y,z
-x,-y,1/2+z
x,-y,1/2+z
-x,y,z
1/2+x,1/2+y,z
1/2-x,1/2-y,1/2+z
1/2+x,1/2-y,1/2+z
1/2-x,1/2+y,z
loop_
_atom_site_type_symbol
_atom_site_label
_atom_site_fract_x
_atom_site_fract_y
_atom_site_fract_z
Si Si1 0.341619 0.565937 0.504110
Si Si2 0.417883 0.714598 0.008783
Si Si3 0.210816 0.591725 0.040810
Si Si4 0.418336 0.796527 0.672309
Si Si5 0.192667 0.259463 0.243122
O O1 0.378988 0.425080 0.483474
O O2 0.259316 0.538218 0.570545
O O3 0.389464 0.655155 0.614680
O O4 0.333719 0.631475 0.338455
O O5 0.500000 0.691117 0.060304
O O6 0.375556 0.798902 0.137172
O O7 0.413688 0.800477 0.855055
O O8 0.128376 0.582112 0.100427
O O9 0.240186 0.719661 0.134926
O O10 0.213481 0.622830 0.858707
O O11 0.500000 0.815624 0.615289
#
# Coordination Sequence:
#
# PCOD8174595 Si02
#       5
#     8   8   8   8   8
#     4  10  20  34  55  85 117 150 187 233 286 339
#     4  10  19  32  52  82 119 151 183 231 287 337
#     4  10  20  36  55  80 116 153 190 232 284 339
#     4  10  21  37  59  88 118 148 187 236 287 339
#     4  10  21  33  52  81 114 152 193 234 279 338
#
# _framework density 24.372572000000002
#
# number of rings (size 3 to 8) (size 9 to 14) (size 15 to 20)
#    0.000    2.000    0.000    5.400    0.000    8.800 
#    0.000    2.000    0.000    1.200    0.000   32.200 
#    0.000    0.000    0.000    0.000    0.000    0.000 
#
# Total GULP energy -247975.632333 kJ/mol
# GULP energy per Si atom -12398.781617 kJ/mol
# Density = 2.431710 g / cm^3
# Si number density = 24.372572 Si / 1000 Ang^3
#
#
#
# Elastic Constant Matrix: (Units=GPa)
#
#
# Indices 1 2 3 4 5 6 
#
# 1 192.6908 15.8370 58.5511 0.0000 0.0000 0.0000
# 2 15.8370 36.7684 7.8728 0.0000 0.0000 0.0000
# 3 58.5511 7.8728 119.7627 0.0000 0.0000 0.0000
# 4 0.0000 0.0000 0.0000 16.2567 0.0000 0.0000
# 5 0.0000 0.0000 0.0000 0.0000 48.6531 0.0000
# 6 0.0000 0.0000 0.0000 0.0000 0.0000 27.5396
#
#
#
# Elastic Compliance Matrix: (Units=1/GPa)
#
#
# Indices 1 2 3 4 5 6 
#
# 1 0.006246 -0.002066 -0.002918 0.000000 0.000000 0.000000
# 2 -0.002066 0.028269 -0.000848 0.000000 0.000000 0.000000
# 3 -0.002918 -0.000848 0.009832 0.000000 0.000000 0.000000
# 4 0.000000 0.000000 0.000000 0.061513 0.000000 0.000000
# 5 0.000000 0.000000 0.000000 0.000000 0.020554 0.000000
# 6 0.000000 0.000000 0.000000 0.000000 0.000000 0.036311
#
#
# Mechanical properties :
#
#
# Convention : Reuss Voigt Hill
#
# Bulk Modulus (GPa) = 30.59691 57.08264 43.83977
# Shear Modulus (GPa) = 26.98572 36.28726 31.63649
#
# Velocity S-wave (km/s) = 3.33110 3.86276 3.60674
# Velocity P-wave (km/s) = 5.23221 6.58530 5.94736
#
# Compressibility (1/GPa) = 0.03268304
#
# Stress axis : x y z
#
# Youngs Moduli (GPa) = 160.10120 35.37495 101.70725
#
# Poissons Ratio (x) = 0.07307 0.29677
# Poissons Ratio (y) = 0.33070 0.08629
# Poissons Ratio (z) = 0.46715 0.03001
#
# Static dielectric constant tensor:
#      x y z
#    x 4.739780 0.000000 0.000000 
#    y 0.000000 3.890590 0.000000 
#    z 0.000000 0.000000 4.505470 
# 
# 
# High freq. dielectric constant tensor:
#      x y z
#    x 1.976180 0.000000 0.000000 
#    y 0.000000 1.948460 0.000000 
#    z 0.000000 0.000000 1.980270 
# 
# From -- ./inp_files/4512.got.cif
#   From: 2010.03.12/outbox.cif.g09.slc.cpg/sg36_3_cif.got.tgz:4512.got - 2010.04.14 02:13:53.
