data_PCOD8174082
_publ_section_title
;
Structure prediction by ZEFSAII (Michael W. Deem and Ramdas Pophale) SiO2 
 PCOD8174082
Probable space group: C M M 2
;
_chemical_formula_sum "Si O2"
_cell_formula_units_Z 64
_cell_length_a 28.342566
_cell_length_b 8.657621
_cell_length_c 15.627214
_cell_angle_alpha 90.000000
_cell_angle_beta 90.000000
_cell_angle_gamma 90.000000
_cell_volume 3834.593185
_symmetry_space_group_name_H-M "C M M 2"
_symmetry_group_IT_number 35
_symmetry_cell_setting 'orthorhombic'
loop_
_space_group_symop_operation_xyz
x,y,z
-x,-y,z
-x,y,z
x,-y,z
1/2+x,1/2+y,z
1/2-x,1/2-y,z
1/2-x,1/2+y,z
1/2+x,1/2-y,z
loop_
_atom_site_type_symbol
_atom_site_label
_atom_site_fract_x
_atom_site_fract_y
_atom_site_fract_z
Si Si1 0.802193 0.181824 0.199150
Si Si2 0.946934 0.178896 0.618986
Si Si3 0.698309 0.317857 0.519259
Si Si4 0.855015 0.680851 0.357615
Si Si5 0.553286 0.679195 0.420019
Si Si6 0.144001 0.319643 0.675948
Si Si7 0.198265 0.318177 0.028245
Si Si8 0.698857 0.819412 0.841496
O O1 0.750000 0.250000 0.212249
O O2 0.836138 0.234465 0.274335
O O3 0.797720 0.000000 0.199216
O O4 0.826773 0.238437 0.109898
O O5 0.940556 0.218997 0.519514
O O6 0.911745 0.284634 0.674017
O O7 0.000000 0.218171 0.648574
O O8 0.935522 0.000000 0.635241
O O9 0.700690 0.500000 0.504415
O O10 0.750000 0.250000 0.529727
O O11 0.672871 0.240547 0.439547
O O12 0.669450 0.282302 0.604625
O O13 0.846906 0.500000 0.347850
O O14 0.910591 0.717263 0.366104
O O15 0.500000 0.717997 0.390325
O O16 0.564773 0.500000 0.404105
O O17 0.153650 0.500000 0.659124
O O18 0.162872 0.264911 0.768342
O O19 0.199239 0.500000 0.044260
O O20 0.250000 0.250000 0.026572
O O21 0.176477 0.275551 0.934872
O O22 0.750000 0.750000 0.824446
O O23 0.706893 0.000000 0.837656
#
# Coordination Sequence:
#
# PCOD8174082 Si02
#       8
#     8   8   8   8   8   8   8   8
#     4  11  21  34  51  73 101 132 166 205 247 294
#     4   9  18  33  52  72  96 128 165 207 253 294
#     4  12  24  37  49  66  97 135 171 205 242 285
#     4  12  23  35  51  74 100 130 167 204 244 294
#     4   9  18  34  54  74  98 128 163 205 251 293
#     4  11  21  33  49  74 101 131 168 204 245 294
#     4   9  16  30  49  70  96 127 162 204 247 289
#     4   9  19  32  48  71 101 132 165 203 244 289
#
# _framework density 16.690166999999999
#
# number of rings (size 3 to 8) (size 9 to 14) (size 15 to 20)
#    0.000    1.750    1.250    6.375    0.000    3.000 
#    0.000    1.250    0.000    0.000    0.000    0.875 
#    0.000    5.000    0.000    0.000    0.000    0.000 
#
# Total GULP energy -396729.859568 kJ/mol
# GULP energy per Si atom -12397.808112 kJ/mol
# Density = 1.665218 g / cm^3
# Si number density = 16.690167 Si / 1000 Ang^3
#
#
#
# Elastic Constant Matrix: (Units=GPa)
#
#
# Indices 1 2 3 4 5 6 
#
# 1 88.2077 22.0651 43.6691 0.0000 0.0000 0.0000
# 2 22.0651 70.5033 28.0991 0.0000 0.0000 0.0000
# 3 43.6691 28.0991 119.5837 0.0000 0.0000 0.0000
# 4 0.0000 0.0000 0.0000 2.8821 0.0000 0.0000
# 5 0.0000 0.0000 0.0000 0.0000 -8.2279 0.0000
# 6 0.0000 0.0000 0.0000 0.0000 0.0000 21.1555
#
#
#
# Elastic Compliance Matrix: (Units=1/GPa)
#
#
# Indices 1 2 3 4 5 6 
#
# 1 0.014269 -0.002636 -0.004591 0.000000 0.000000 0.000000
# 2 -0.002636 0.016136 -0.002829 0.000000 0.000000 0.000000
# 3 -0.004591 -0.002829 0.010704 0.000000 0.000000 0.000000
# 4 0.000000 0.000000 0.000000 0.346970 0.000000 0.000000
# 5 0.000000 0.000000 0.000000 0.000000 -0.121537 0.000000
# 6 0.000000 0.000000 0.000000 0.000000 0.000000 0.047269
#
#
# Mechanical properties :
#
#
# Convention : Reuss Voigt Hill
#
# Bulk Modulus (GPa) = 47.62685 51.77350 49.70017
# Shear Modulus (GPa) = 14.66610 15.45936 15.06273
#
# Velocity S-wave (km/s) = 2.96755 3.04675 3.00741
# Velocity P-wave (km/s) = 6.35135 6.59277 6.47318
#
# Compressibility (1/GPa) = 0.02099656
#
# Stress axis : x y z
#
# Youngs Moduli (GPa) = 70.08030 61.97253 93.42493
#
# Poissons Ratio (x) = 0.16335 0.42896
# Poissons Ratio (y) = 0.18472 0.26430
# Poissons Ratio (z) = 0.32177 0.17532
#
# Static dielectric constant tensor:
#      x y z
#    x 3.107130 0.000000 0.000000 
#    y 0.000000 3.224280 0.000000 
#    z 0.000000 0.000000 3.979330 
# 
# 
# High freq. dielectric constant tensor:
#      x y z
#    x 1.621530 0.000000 0.000000 
#    y 0.000000 1.655030 0.000000 
#    z 0.000000 0.000000 1.638080 
# 
# From -- ./inp_files/17747.got.cif
#   From: 2010.03.12/outbox.cif.g09.slc.cpg/sg35_9_cif.got.tgz:17747.got - 2010.04.14 02:02:04.
