data_PCOD8174763
_publ_section_title
;
Structure prediction by ZEFSAII (Michael W. Deem and Ramdas Pophale) SiO2 
 PCOD8174763
Probable space group: C M C 21
;
_chemical_formula_sum "Si O2"
_cell_formula_units_Z 64
_cell_length_a 22.159896
_cell_length_b 12.282443
_cell_length_c 11.981751
_cell_angle_alpha 90.000000
_cell_angle_beta 90.000000
_cell_angle_gamma 90.000000
_cell_volume 3261.164944
_symmetry_space_group_name_H-M "C M C 21"
_symmetry_group_IT_number 36
_symmetry_cell_setting 'orthorhombic'
loop_
_space_group_symop_operation_xyz
x,y,z
-x,-y,1/2+z
x,-y,1/2+z
-x,y,z
1/2+x,1/2+y,z
1/2-x,1/2-y,1/2+z
1/2+x,1/2-y,1/2+z
1/2-x,1/2+y,z
loop_
_atom_site_type_symbol
_atom_site_label
_atom_site_fract_x
_atom_site_fract_y
_atom_site_fract_z
Si Si1 0.147775 0.310213 0.040900
Si Si2 0.427353 0.060817 0.705054
Si Si3 0.932835 0.779527 0.828446
Si Si4 0.833229 0.394697 0.794928
Si Si5 0.142635 0.906286 0.992468
Si Si6 0.378997 0.594130 0.139254
Si Si7 0.724909 0.292819 0.158695
Si Si8 0.287170 0.495623 0.296243
O O1 0.102435 0.404768 0.086341
O O2 0.119344 0.189988 0.047926
O O3 0.205013 0.298835 0.124453
O O4 0.157759 0.330812 0.910543
O O5 0.500000 0.042288 0.692878
O O6 0.411384 0.161350 0.786734
O O7 0.395346 0.951356 0.752223
O O8 0.897376 0.813992 0.937334
O O9 0.927113 0.873061 0.733878
O O10 0.000000 0.771094 0.869657
O O11 0.803926 0.321438 0.696684
O O12 0.783007 0.484569 0.820166
O O13 0.174168 0.989911 0.907824
O O14 0.193626 0.834537 0.047873
O O15 0.103664 0.980511 0.078440
O O16 0.313630 0.575689 0.199339
O O17 0.709200 0.370388 0.262429
#
# Coordination Sequence:
#
# PCOD8174763 Si02
#       8
#     8   8   8   8   8   8   8   8
#     4  11  21  37  62  88 122 164 203 251 311 372
#     4  10  24  45  63  85 123 170 217 256 304 370
#     4   9  20  40  63  84 115 165 212 249 297 372
#     4  12  23  37  62  91 121 163 205 257 304 372
#     4  10  20  36  58  89 126 155 193 258 313 366
#     4   9  19  35  55  85 125 151 193 250 304 367
#     4  11  22  36  56  93 124 156 198 252 312 369
#     4  10  19  34  55  85 124 156 193 243 309 374
#
# _framework density 19.624889
#
# number of rings (size 3 to 8) (size 9 to 14) (size 15 to 20)
#    0.000    1.750    3.750    0.750    0.000    2.000 
#    4.500    1.875    0.000    7.500    0.000    0.000 
#    0.000    0.000    0.000    0.000    0.000    0.000 
#
# Total GULP energy -396508.411759 kJ/mol
# GULP energy per Si atom -12390.887867 kJ/mol
# Density = 1.958022 g / cm^3
# Si number density = 19.624889 Si / 1000 Ang^3
#
#
#
# Elastic Constant Matrix: (Units=GPa)
#
#
# Indices 1 2 3 4 5 6 
#
# 1 61.6532 26.1980 9.7804 0.0000 0.0000 0.0000
# 2 26.1980 64.2771 17.3749 0.0000 0.0000 0.0000
# 3 9.7804 17.3749 62.3662 0.0000 0.0000 0.0000
# 4 0.0000 0.0000 0.0000 31.1296 0.0000 0.0000
# 5 0.0000 0.0000 0.0000 0.0000 20.2625 0.0000
# 6 0.0000 0.0000 0.0000 0.0000 0.0000 26.5012
#
#
#
# Elastic Compliance Matrix: (Units=1/GPa)
#
#
# Indices 1 2 3 4 5 6 
#
# 1 0.019666 -0.007767 -0.000920 0.000000 0.000000 0.000000
# 2 -0.007767 0.019892 -0.004324 0.000000 0.000000 0.000000
# 3 -0.000920 -0.004324 0.017383 0.000000 0.000000 0.000000
# 4 0.000000 0.000000 0.000000 0.032124 0.000000 0.000000
# 5 0.000000 0.000000 0.000000 0.000000 0.049352 0.000000
# 6 0.000000 0.000000 0.000000 0.000000 0.000000 0.037734
#
#
# Mechanical properties :
#
#
# Convention : Reuss Voigt Hill
#
# Bulk Modulus (GPa) = 32.34191 32.77810 32.56000
# Shear Modulus (GPa) = 23.53168 24.57488 24.05328
#
# Velocity S-wave (km/s) = 3.46652 3.54253 3.50473
# Velocity P-wave (km/s) = 5.70422 5.78543 5.74497
#
# Compressibility (1/GPa) = 0.03091964
#
# Stress axis : x y z
#
# Youngs Moduli (GPa) = 50.84921 50.27157 57.52664
#
# Poissons Ratio (x) = 0.39044 0.05294
# Poissons Ratio (y) = 0.39493 0.24873
# Poissons Ratio (z) = 0.04680 0.21737
#
# Static dielectric constant tensor:
#      x y z
#    x 3.491910 0.000000 0.000000 
#    y 0.000000 3.557630 0.000000 
#    z 0.000000 0.000000 3.525160 
# 
# 
# High freq. dielectric constant tensor:
#      x y z
#    x 1.748590 0.000000 0.000000 
#    y 0.000000 1.765530 0.000000 
#    z 0.000000 0.000000 1.763450 
# 
# From -- ./inp_files/9514.got.cif
#   From: 2010.03.12/outbox.cif.g09.slc.cpg/sg36_5_cif.got.tgz:9514.got - 2010.04.14 02:13:53.
