data_PCOD8174456
_publ_section_title
;
Structure prediction by ZEFSAII (Michael W. Deem and Ramdas Pophale) SiO2 
 PCOD8174456
Probable space group: C M C 21
;
_chemical_formula_sum "Si O2"
_cell_formula_units_Z 48
_cell_length_a 17.877961
_cell_length_b 12.622617
_cell_length_c 9.953040
_cell_angle_alpha 90.000000
_cell_angle_beta 90.000000
_cell_angle_gamma 90.000000
_cell_volume 2246.069238
_symmetry_space_group_name_H-M "C M C 21"
_symmetry_group_IT_number 36
_symmetry_cell_setting 'orthorhombic'
loop_
_space_group_symop_operation_xyz
x,y,z
-x,-y,1/2+z
x,-y,1/2+z
-x,y,z
1/2+x,1/2+y,z
1/2-x,1/2-y,1/2+z
1/2+x,1/2-y,1/2+z
1/2-x,1/2+y,z
loop_
_atom_site_type_symbol
_atom_site_label
_atom_site_fract_x
_atom_site_fract_y
_atom_site_fract_z
Si Si1 0.659293 0.572402 0.379740
Si Si2 0.121267 0.541301 0.737122
Si Si3 0.500000 0.386576 0.830719
Si Si4 0.658931 0.184622 0.960366
Si Si5 0.500000 0.194462 0.627770
Si Si6 0.256030 0.549606 0.107610
Si Si7 0.000000 0.371995 0.824432
Si Si8 0.500000 0.781635 0.554068
O O1 0.574716 0.541439 0.333487
O O2 0.661613 0.695871 0.412431
O O3 0.684769 0.504247 0.507574
O O4 0.712555 0.551682 0.255981
O O5 0.174301 0.596624 0.847159
O O6 0.175639 0.508786 0.615093
O O7 0.072067 0.635469 0.679900
O O8 0.073419 0.444806 0.801036
O O9 0.500000 0.310875 0.697818
O O10 0.500000 0.328899 0.976413
O O11 0.729703 0.167607 0.061130
O O12 0.575535 0.154904 0.015008
O O13 0.500000 0.190607 0.465678
O O14 0.000000 0.275438 0.716256
#
# Coordination Sequence:
#
# PCOD8174456 Si02
#       8
#     8   8   4   8   4   8   4   4
#     4  11  27  45  70  91 127 178 223 281 334 384
#     4  11  21  37  62  99 139 168 207 262 336 403
#     4  10  23  49  67  83 126 178 230 273 322 385
#     4  11  22  42  65  94 137 173 210 264 333 398
#     4  11  21  35  68  98 130 172 211 260 331 401
#     4  12  25  42  66 103 132 171 220 273 336 405
#     4  11  22  30  62 107 136 166 206 265 338 411
#     4  10  18  40  61  94 130 174 205 256 333 399
#
# _framework density 21.370667999999998
#
# number of rings (size 3 to 8) (size 9 to 14) (size 15 to 20)
#    0.000    1.000    6.667    1.500    4.667    0.667 
#    0.000    3.333    0.000    0.000    0.000    0.000 
#    0.000    0.000    0.000    0.000    0.000    0.000 
#
# Total GULP energy -297349.999634 kJ/mol
# GULP energy per Si atom -12389.583318 kJ/mol
# Density = 2.132203 g / cm^3
# Si number density = 21.370668 Si / 1000 Ang^3
#
#
#
# Elastic Constant Matrix: (Units=GPa)
#
#
# Indices 1 2 3 4 5 6 
#
# 1 116.7044 34.7621 28.0174 0.0000 0.0000 0.0000
# 2 34.7621 44.6821 26.5310 0.0000 0.0000 0.0000
# 3 28.0174 26.5310 125.5022 0.0000 0.0000 0.0000
# 4 0.0000 0.0000 0.0000 18.1369 0.0000 0.0000
# 5 0.0000 0.0000 0.0000 0.0000 25.2825 0.0000
# 6 0.0000 0.0000 0.0000 0.0000 0.0000 27.3459
#
#
#
# Elastic Compliance Matrix: (Units=1/GPa)
#
#
# Indices 1 2 3 4 5 6 
#
# 1 0.011215 -0.008278 -0.000754 0.000000 0.000000 0.000000
# 2 -0.008278 0.031702 -0.004854 0.000000 0.000000 0.000000
# 3 -0.000754 -0.004854 0.009162 0.000000 0.000000 0.000000
# 4 0.000000 0.000000 0.000000 0.055136 0.000000 0.000000
# 5 0.000000 0.000000 0.000000 0.000000 0.039553 0.000000
# 6 0.000000 0.000000 0.000000 0.000000 0.000000 0.036569
#
#
# Mechanical properties :
#
#
# Convention : Reuss Voigt Hill
#
# Bulk Modulus (GPa) = 41.13678 51.72329 46.43004
# Shear Modulus (GPa) = 22.80898 27.32493 25.06696
#
# Velocity S-wave (km/s) = 3.27051 3.57966 3.42857
# Velocity P-wave (km/s) = 5.79246 6.42968 6.11937
#
# Compressibility (1/GPa) = 0.02430914
#
# Stress axis : x y z
#
# Youngs Moduli (GPa) = 89.16422 31.54338 109.14193
#
# Poissons Ratio (x) = 0.26111 0.08227
# Poissons Ratio (y) = 0.73808 0.52976
# Poissons Ratio (z) = 0.06721 0.15311
#
# Static dielectric constant tensor:
#      x y z
#    x 4.373820 0.000000 0.000000 
#    y 0.000000 3.404530 0.000000 
#    z 0.000000 0.000000 4.088660 
# 
# 
# High freq. dielectric constant tensor:
#      x y z
#    x 1.852840 0.000000 0.000000 
#    y 0.000000 1.800590 0.000000 
#    z 0.000000 0.000000 1.848700 
# 
# From -- ./inp_files/4701.got.cif
#   From: 2010.03.12/outbox.cif.g09.slc.cpg/sg36_3_cif.got.tgz:4701.got - 2010.04.14 02:13:53.
