data_PCOD8174629
_publ_section_title
;
Structure prediction by ZEFSAII (Michael W. Deem and Ramdas Pophale) SiO2 
 PCOD8174629
Probable space group: C M C 21
;
_chemical_formula_sum "Si O2"
_cell_formula_units_Z 64
_cell_length_a 8.838866
_cell_length_b 24.244609
_cell_length_c 14.574485
_cell_angle_alpha 90.000000
_cell_angle_beta 90.000000
_cell_angle_gamma 90.000000
_cell_volume 3123.237079
_symmetry_space_group_name_H-M "C M C 21"
_symmetry_group_IT_number 36
_symmetry_cell_setting 'orthorhombic'
loop_
_space_group_symop_operation_xyz
x,y,z
-x,-y,1/2+z
x,-y,1/2+z
-x,y,z
1/2+x,1/2+y,z
1/2-x,1/2-y,1/2+z
1/2+x,1/2-y,1/2+z
1/2-x,1/2+y,z
loop_
_atom_site_type_symbol
_atom_site_label
_atom_site_fract_x
_atom_site_fract_y
_atom_site_fract_z
Si Si1 0.674005 0.445626 0.706870
Si Si2 0.328264 0.028690 0.385831
Si Si3 0.829145 0.403683 0.381573
Si Si4 0.822211 0.194144 0.788688
Si Si5 0.679401 0.163591 0.609801
Si Si6 0.826098 0.134517 0.051224
Si Si7 0.177853 0.248292 0.971166
Si Si8 0.821066 0.047122 0.579854
O O1 0.500000 0.456455 0.732003
O O2 0.766613 0.436414 0.800187
O O3 0.695794 0.387492 0.654153
O O4 0.733649 0.496363 0.643607
O O5 0.500000 0.046402 0.408004
O O6 0.230509 0.038521 0.475829
O O7 0.317490 0.966370 0.349497
O O8 0.711804 0.367770 0.323180
O O9 0.782164 0.402415 0.487939
O O10 0.000000 0.381227 0.368497
O O11 0.732693 0.202646 0.693967
O O12 0.000000 0.200763 0.771239
O O13 0.760708 0.236673 0.867693
O O14 0.500000 0.157802 0.612626
O O15 0.735406 0.194402 0.516069
O O16 0.752183 0.103669 0.618729
O O17 0.777509 0.198362 0.040170
O O18 0.000000 0.125924 0.019547
O O19 0.000000 0.250894 0.962850
O O20 0.000000 0.051962 0.580618
#
# Coordination Sequence:
#
# PCOD8174629 Si02
#       8
#     8   8   8   8   8   8   8   8
#     4  10  21  36  58  85 115 151 193 238 288 348
#     4  11  23  36  54  83 121 158 190 234 292 350
#     4  10  19  32  54  84 114 148 189 238 288 338
#     4  10  20  37  61  87 113 152 201 244 286 345
#     4  11  22  39  60  86 120 156 192 242 299 347
#     4   9  17  35  59  81 107 144 187 237 287 340
#     4   8  18  37  61  83 112 149 190 239 295 344
#     4  11  23  40  61  87 118 158 200 240 287 348
#
# _framework density 20.491558999999999
#
# number of rings (size 3 to 8) (size 9 to 14) (size 15 to 20)
#    0.000    2.000    1.250    3.375    0.000    5.000 
#    2.250    6.250    0.000    0.000    0.000    0.000 
#    0.000    0.000    0.000    0.000    0.000    0.000 
#
# Total GULP energy -396680.199070 kJ/mol
# GULP energy per Si atom -12396.256221 kJ/mol
# Density = 2.044492 g / cm^3
# Si number density = 20.491559 Si / 1000 Ang^3
#
#
#
# Elastic Constant Matrix: (Units=GPa)
#
#
# Indices 1 2 3 4 5 6 
#
# 1 60.4811 10.1110 21.4018 0.0000 0.0000 0.0000
# 2 10.1110 43.7613 10.3469 0.0000 0.0000 0.0000
# 3 21.4018 10.3469 100.8810 0.0000 0.0000 0.0000
# 4 0.0000 0.0000 0.0000 27.1767 0.0000 0.0000
# 5 0.0000 0.0000 0.0000 0.0000 31.7910 0.0000
# 6 0.0000 0.0000 0.0000 0.0000 0.0000 20.0914
#
#
#
# Elastic Compliance Matrix: (Units=1/GPa)
#
#
# Indices 1 2 3 4 5 6 
#
# 1 0.018358 -0.003403 -0.003546 0.000000 0.000000 0.000000
# 2 -0.003403 0.024050 -0.001745 0.000000 0.000000 0.000000
# 3 -0.003546 -0.001745 0.010844 0.000000 0.000000 0.000000
# 4 0.000000 0.000000 0.000000 0.036796 0.000000 0.000000
# 5 0.000000 0.000000 0.000000 0.000000 0.031455 0.000000
# 6 0.000000 0.000000 0.000000 0.000000 0.000000 0.049773
#
#
# Mechanical properties :
#
#
# Convention : Reuss Voigt Hill
#
# Bulk Modulus (GPa) = 27.88263 32.09365 29.98814
# Shear Modulus (GPa) = 24.92305 26.69606 25.80955
#
# Velocity S-wave (km/s) = 3.49127 3.61332 3.55282
# Velocity P-wave (km/s) = 5.46703 5.75361 5.61215
#
# Compressibility (1/GPa) = 0.03586462
#
# Stress axis : x y z
#
# Youngs Moduli (GPa) = 54.47327 41.57997 92.21863
#
# Poissons Ratio (x) = 0.14151 0.32696
# Poissons Ratio (y) = 0.18538 0.16089
# Poissons Ratio (z) = 0.19314 0.07254
#
# Static dielectric constant tensor:
#      x y z
#    x 3.607800 0.000000 0.000000 
#    y 0.000000 3.718760 0.000000 
#    z 0.000000 0.000000 3.874290 
# 
# 
# High freq. dielectric constant tensor:
#      x y z
#    x 1.790030 0.000000 0.000000 
#    y 0.000000 1.784460 0.000000 
#    z 0.000000 0.000000 1.805600 
# 
# From -- ./inp_files/10927.got.cif
#   From: 2010.03.12/outbox.cif.g09.slc.cpg/sg36_6_cif.got.tgz:10927.got - 2010.04.14 02:13:53.
