data_PCOD8174891
_publ_section_title
;
Structure prediction by ZEFSAII (Michael W. Deem and Ramdas Pophale) SiO2 
 PCOD8174891
Probable space group: C M C 21
;
_chemical_formula_sum "Si O2"
_cell_formula_units_Z 64
_cell_length_a 8.810712
_cell_length_b 15.382719
_cell_length_c 23.653335
_cell_angle_alpha 90.000000
_cell_angle_beta 90.000000
_cell_angle_gamma 90.000000
_cell_volume 3205.800519
_symmetry_space_group_name_H-M "C M C 21"
_symmetry_group_IT_number 36
_symmetry_cell_setting 'orthorhombic'
loop_
_space_group_symop_operation_xyz
x,y,z
-x,-y,1/2+z
x,-y,1/2+z
-x,y,z
1/2+x,1/2+y,z
1/2-x,1/2-y,1/2+z
1/2+x,1/2-y,1/2+z
1/2-x,1/2+y,z
loop_
_atom_site_type_symbol
_atom_site_label
_atom_site_fract_x
_atom_site_fract_y
_atom_site_fract_z
Si Si1 0.677679 0.496264 0.231870
Si Si2 0.679999 0.095880 0.916277
Si Si3 0.678021 0.651108 0.309357
Si Si4 0.178394 0.003892 0.101991
Si Si5 0.322268 0.156686 0.795660
Si Si6 0.821098 0.340414 0.045759
Si Si7 0.678352 0.900942 0.922128
Si Si8 0.679841 0.838438 0.535422
O O1 0.500000 0.489351 0.241233
O O2 0.746128 0.573805 0.270748
O O3 0.717586 0.517579 0.167570
O O4 0.747759 0.404118 0.248823
O O5 0.500000 0.092725 0.916257
O O6 0.743674 0.136744 0.858328
O O7 0.744991 0.998476 0.921966
O O8 0.733664 0.151967 0.970179
O O9 0.500000 0.639674 0.316619
O O10 0.715537 0.743555 0.280033
O O11 0.748244 0.652913 0.371548
O O12 0.232755 0.908190 0.084816
O O13 0.000000 0.014340 0.089800
O O14 0.273158 0.074930 0.068097
O O15 0.500000 0.138031 0.795050
O O16 0.765361 0.244064 0.062384
O O17 0.000000 0.349800 0.056483
O O18 0.776131 0.356481 0.980801
O O19 0.500000 0.901695 0.912932
O O20 0.500000 0.825936 0.540642
#
# Coordination Sequence:
#
# PCOD8174891 Si02
#       8
#     8   8   8   8   8   8   8   8
#     4  10  23  41  58  82 117 151 194 248 294 340
#     4   9  17  33  57  86 120 152 187 234 289 354
#     4  10  21  37  58  87 118 151 190 238 294 351
#     4  11  24  42  61  84 118 161 206 252 298 350
#     4  10  20  36  60  86 115 154 194 230 286 353
#     4  11  23  40  61  89 122 157 199 248 299 355
#     4  10  19  35  59  87 119 153 191 238 290 350
#     4  11  22  40  64  91 123 157 195 244 300 361
#
# _framework density 19.963812000000001
#
# number of rings (size 3 to 8) (size 9 to 14) (size 15 to 20)
#    0.000    1.750    2.500    1.875    0.000    4.500 
#    0.000    2.500    0.000    0.000    0.000    0.000 
#    0.000    0.000    0.000    0.000    0.000    0.000 
#
# Total GULP energy -396884.986639 kJ/mol
# GULP energy per Si atom -12402.655832 kJ/mol
# Density = 1.991837 g / cm^3
# Si number density = 19.963812 Si / 1000 Ang^3
#
#
#
# Elastic Constant Matrix: (Units=GPa)
#
#
# Indices 1 2 3 4 5 6 
#
# 1 37.5648 17.2046 31.2775 0.0000 0.0000 0.0000
# 2 17.2046 97.5720 21.7625 0.0000 0.0000 0.0000
# 3 31.2775 21.7625 66.8887 0.0000 0.0000 0.0000
# 4 0.0000 0.0000 0.0000 18.7299 0.0000 0.0000
# 5 0.0000 0.0000 0.0000 0.0000 27.3327 0.0000
# 6 0.0000 0.0000 0.0000 0.0000 0.0000 31.4865
#
#
#
# Elastic Compliance Matrix: (Units=1/GPa)
#
#
# Indices 1 2 3 4 5 6 
#
# 1 0.044656 -0.003468 -0.019753 0.000000 0.000000 0.000000
# 2 -0.003468 0.011320 -0.002061 0.000000 0.000000 0.000000
# 3 -0.019753 -0.002061 0.024857 0.000000 0.000000 0.000000
# 4 0.000000 0.000000 0.000000 0.053390 0.000000 0.000000
# 5 0.000000 0.000000 0.000000 0.000000 0.036586 0.000000
# 6 0.000000 0.000000 0.000000 0.000000 0.000000 0.031760
#
#
# Mechanical properties :
#
#
# Convention : Reuss Voigt Hill
#
# Bulk Modulus (GPa) = 33.03762 38.05718 35.54740
# Shear Modulus (GPa) = 18.99520 24.29523 21.64521
#
# Velocity S-wave (km/s) = 3.08796 3.49228 3.29633
# Velocity P-wave (km/s) = 5.41282 5.94692 5.68615
#
# Compressibility (1/GPa) = 0.03026853
#
# Stress axis : x y z
#
# Youngs Moduli (GPa) = 22.39337 88.33807 40.22946
#
# Poissons Ratio (x) = 0.30639 0.79465
# Poissons Ratio (y) = 0.07767 0.08292
# Poissons Ratio (z) = 0.44233 0.18208
#
# Static dielectric constant tensor:
#      x y z
#    x 3.384810 0.000000 0.000000 
#    y 0.000000 3.778490 0.000000 
#    z 0.000000 0.000000 3.692430 
# 
# 
# High freq. dielectric constant tensor:
#      x y z
#    x 1.761480 0.000000 0.000000 
#    y 0.000000 1.793960 0.000000 
#    z 0.000000 0.000000 1.775520 
# 
# From -- ./inp_files/16548.got.cif
#   From: 2010.03.12/outbox.cif.g09.slc.cpg/sg36_9_cif.got.tgz:16548.got - 2010.04.14 02:13:53.
