data_PCOD8174944
_publ_section_title
;
Structure prediction by ZEFSAII (Michael W. Deem and Ramdas Pophale) SiO2 
 PCOD8174944
Probable space group: C M C 21
;
_chemical_formula_sum "Si O2"
_cell_formula_units_Z 56
_cell_length_a 14.335003
_cell_length_b 14.578443
_cell_length_c 14.584026
_cell_angle_alpha 90.000000
_cell_angle_beta 90.000000
_cell_angle_gamma 90.000000
_cell_volume 3047.799274
_symmetry_space_group_name_H-M "C M C 21"
_symmetry_group_IT_number 36
_symmetry_cell_setting 'orthorhombic'
loop_
_space_group_symop_operation_xyz
x,y,z
-x,-y,1/2+z
x,-y,1/2+z
-x,y,z
1/2+x,1/2+y,z
1/2-x,1/2-y,1/2+z
1/2+x,1/2-y,1/2+z
1/2-x,1/2+y,z
loop_
_atom_site_type_symbol
_atom_site_label
_atom_site_fract_x
_atom_site_fract_y
_atom_site_fract_z
Si Si1 0.269751 0.476607 0.177690
Si Si2 0.603758 0.595248 0.524790
Si Si3 0.734593 0.549755 0.363581
Si Si4 0.396096 0.205390 0.075470
Si Si5 0.237612 0.822103 0.706184
Si Si6 0.105715 0.428441 0.416784
Si Si7 0.108165 0.651644 0.719194
O O1 0.347159 0.424129 0.121154
O O2 0.295272 0.474208 0.286631
O O3 0.273150 0.583705 0.146745
O O4 0.167480 0.428053 0.166440
O O5 0.500000 0.553803 0.527384
O O6 0.655154 0.550518 0.439150
O O7 0.602434 0.704144 0.512655
O O8 0.749364 0.648800 0.313482
O O9 0.831619 0.519606 0.409836
O O10 0.500000 0.183948 0.112521
O O11 0.331346 0.221874 0.164455
O O12 0.361361 0.125829 0.007172
O O13 0.151712 0.751613 0.695176
O O14 0.114926 0.363264 0.328021
O O15 0.000000 0.462787 0.426927
O O16 0.000000 0.648532 0.685994
#
# Coordination Sequence:
#
# PCOD8174944 Si02
#       7
#     8   8   8   8   8   8   8
#     4   9  21  37  57  89 119 153 194 252 300 345
#     4  11  21  37  58  83 118 157 202 246 295 362
#     4   9  21  35  57  86 116 153 193 248 302 352
#     4  10  20  33  57  83 113 154 196 241 295 358
#     4  10  20  35  57  86 117 150 190 248 299 350
#     4   9  18  35  58  85 112 149 199 242 290 356
#     4  10  19  36  60  86 117 154 198 241 291 357
#
# _framework density 18.373915
#
# number of rings (size 3 to 8) (size 9 to 14) (size 15 to 20)
#    0.857    1.429    1.429    1.714    0.000    4.000 
#    0.000    0.714    0.000    0.000    0.000    0.000 
#    0.000    0.000    0.000    0.000    0.000    0.000 
#
# Total GULP energy -346883.707216 kJ/mol
# GULP energy per Si atom -12388.703829 kJ/mol
# Density = 1.833209 g / cm^3
# Si number density = 18.373915 Si / 1000 Ang^3
#
#
#
# Elastic Constant Matrix: (Units=GPa)
#
#
# Indices 1 2 3 4 5 6 
#
# 1 153.7104 51.1544 63.8845 0.0000 0.0000 0.0000
# 2 51.1544 84.2567 13.8811 0.0000 0.0000 0.0000
# 3 63.8845 13.8811 77.6334 0.0000 0.0000 0.0000
# 4 0.0000 0.0000 0.0000 17.7006 0.0000 0.0000
# 5 0.0000 0.0000 0.0000 0.0000 30.9094 0.0000
# 6 0.0000 0.0000 0.0000 0.0000 0.0000 29.5969
#
#
#
# Elastic Compliance Matrix: (Units=1/GPa)
#
#
# Indices 1 2 3 4 5 6 
#
# 1 0.012220 -0.005937 -0.008994 0.000000 0.000000 0.000000
# 2 -0.005937 0.015113 0.002183 0.000000 0.000000 0.000000
# 3 -0.008994 0.002183 0.019892 0.000000 0.000000 0.000000
# 4 0.000000 0.000000 0.000000 0.056495 0.000000 0.000000
# 5 0.000000 0.000000 0.000000 0.000000 0.032353 0.000000
# 6 0.000000 0.000000 0.000000 0.000000 0.000000 0.033787
#
#
# Mechanical properties :
#
#
# Convention : Reuss Voigt Hill
#
# Bulk Modulus (GPa) = 46.02080 63.71563 54.86822
# Shear Modulus (GPa) = 24.67935 28.08674 26.38304
#
# Velocity S-wave (km/s) = 3.66891 3.91400 3.79343
# Velocity P-wave (km/s) = 6.56118 7.42821 7.00812
#
# Compressibility (1/GPa) = 0.02172930
#
# Stress axis : x y z
#
# Youngs Moduli (GPa) = 81.83548 66.16655 50.27200
#
# Poissons Ratio (x) = 0.39284 0.45214
# Poissons Ratio (y) = 0.48587 -0.10976
# Poissons Ratio (z) = 0.73603 -0.14446
#
# Static dielectric constant tensor:
#      x y z
#    x 3.352560 0.000000 0.000000 
#    y 0.000000 3.316140 0.000000 
#    z 0.000000 0.000000 3.208830 
# 
# 
# High freq. dielectric constant tensor:
#      x y z
#    x 1.706570 0.000000 0.000000 
#    y 0.000000 1.704570 0.000000 
#    z 0.000000 0.000000 1.700940 
# 
# From -- ./inp_files/12250.got.cif
#   From: 2010.03.12/outbox.cif.g09.slc.cpg/sg36_7_cif.got.tgz:12250.got - 2010.04.14 02:13:53.
