data_PCOD8174388
_publ_section_title
;
Structure prediction by ZEFSAII (Michael W. Deem and Ramdas Pophale) SiO2 
 PCOD8174388
Probable space group: C M C 21
;
_chemical_formula_sum "Si O2"
_cell_formula_units_Z 64
_cell_length_a 9.062890
_cell_length_b 31.057725
_cell_length_c 12.019867
_cell_angle_alpha 90.000000
_cell_angle_beta 90.000000
_cell_angle_gamma 90.000000
_cell_volume 3383.264963
_symmetry_space_group_name_H-M "C M C 21"
_symmetry_group_IT_number 36
_symmetry_cell_setting 'orthorhombic'
loop_
_space_group_symop_operation_xyz
x,y,z
-x,-y,1/2+z
x,-y,1/2+z
-x,y,z
1/2+x,1/2+y,z
1/2-x,1/2-y,1/2+z
1/2+x,1/2-y,1/2+z
1/2-x,1/2+y,z
loop_
_atom_site_type_symbol
_atom_site_label
_atom_site_fract_x
_atom_site_fract_y
_atom_site_fract_z
Si Si1 0.668584 0.955656 0.355680
Si Si2 0.175007 0.299732 0.809791
Si Si3 0.669646 0.704237 0.854279
Si Si4 0.324472 0.873924 0.972522
Si Si5 0.176048 0.372645 0.226600
Si Si6 0.675131 0.950533 0.819499
Si Si7 0.168225 0.585761 0.083911
Si Si8 0.667915 0.669921 0.091829
O O1 0.500000 0.958286 0.316145
O O2 0.739330 0.915875 0.286451
O O3 0.680782 0.949512 0.487757
O O4 0.745831 0.001778 0.332793
O O5 0.233736 0.251487 0.827916
O O6 0.234743 0.331986 0.905785
O O7 0.228913 0.314746 0.690428
O O8 0.000000 0.300788 0.810510
O O9 0.500000 0.698974 0.816897
O O10 0.764322 0.669279 0.788714
O O11 0.684162 0.701188 0.987045
O O12 0.500000 0.874334 0.970464
O O13 0.263734 0.917216 0.912262
O O14 0.267302 0.872513 0.099242
O O15 0.000000 0.370834 0.234686
O O16 0.500000 0.953417 0.831119
O O17 0.723341 0.934348 0.698749
O O18 0.277193 0.623759 0.049953
O O19 0.000000 0.602836 0.094410
O O20 0.500000 0.667482 0.133695
#
# Coordination Sequence:
#
# PCOD8174388 Si02
#       8
#     8   8   8   8   8   8   8   8
#     4   9  18  29  48  83 112 136 179 230 269 315
#     4  10  21  39  58  79 107 143 183 221 273 330
#     4  10  23  39  56  79 111 146 179 220 274 328
#     4   9  18  32  53  79 108 141 174 221 277 322
#     4  10  20  34  55  81 110 141 181 225 266 321
#     4   9  17  29  50  80 111 139 174 226 280 317
#     4  10  18  33  56  79 108 146 184 227 277 327
#     4  11  22  37  58  82 109 142 184 230 272 320
#
# _framework density 18.916640000000001
#
# number of rings (size 3 to 8) (size 9 to 14) (size 15 to 20)
#    0.000    2.250    2.500    0.375    3.500    1.000 
#    0.000    0.625    0.000    1.500    0.000    0.000 
#    0.000    0.000    0.000    0.000    0.000    0.000 
#
# Total GULP energy -396731.252622 kJ/mol
# GULP energy per Si atom -12397.851644 kJ/mol
# Density = 1.887358 g / cm^3
# Si number density = 18.916640 Si / 1000 Ang^3
#
#
#
# Elastic Constant Matrix: (Units=GPa)
#
#
# Indices 1 2 3 4 5 6 
#
# 1 10.8252 18.8348 12.4539 0.0000 0.0000 0.0000
# 2 18.8348 151.3838 50.2663 0.0000 0.0000 0.0000
# 3 12.4539 50.2663 117.7857 0.0000 0.0000 0.0000
# 4 0.0000 0.0000 0.0000 26.4947 0.0000 0.0000
# 5 0.0000 0.0000 0.0000 0.0000 19.2454 0.0000
# 6 0.0000 0.0000 0.0000 0.0000 0.0000 18.3101
#
#
#
# Elastic Compliance Matrix: (Units=1/GPa)
#
#
# Indices 1 2 3 4 5 6 
#
# 1 0.123433 -0.012844 -0.007570 0.000000 0.000000 0.000000
# 2 -0.012844 0.009033 -0.002497 0.000000 0.000000 0.000000
# 3 -0.007570 -0.002497 0.010356 0.000000 0.000000 0.000000
# 4 0.000000 0.000000 0.000000 0.037743 0.000000 0.000000
# 5 0.000000 0.000000 0.000000 0.000000 0.051961 0.000000
# 6 0.000000 0.000000 0.000000 0.000000 0.000000 0.054615
#
#
# Mechanical properties :
#
#
# Convention : Reuss Voigt Hill
#
# Bulk Modulus (GPa) = 10.30920 49.23385 29.77152
# Shear Modulus (GPa) = 13.68760 26.03936 19.86348
#
# Velocity S-wave (km/s) = 2.69285 3.71419 3.24397
# Velocity P-wave (km/s) = 3.88976 6.66910 5.45926
#
# Compressibility (1/GPa) = 0.09700075
#
# Stress axis : x y z
#
# Youngs Moduli (GPa) = 8.10159 110.70801 96.56324
#
# Poissons Ratio (x) = 1.42190 0.73096
# Poissons Ratio (y) = 0.10405 0.24110
# Poissons Ratio (z) = 0.06133 0.27642
#
# Static dielectric constant tensor:
#      x y z
#    x 3.018720 0.000000 0.000000 
#    y 0.000000 3.793140 0.000000 
#    z 0.000000 0.000000 3.574560 
# 
# 
# High freq. dielectric constant tensor:
#      x y z
#    x 1.680310 0.000000 0.000000 
#    y 0.000000 1.748560 0.000000 
#    z 0.000000 0.000000 1.748120 
# 
# From -- ./inp_files/7084.got.cif
#   From: 2010.03.12/outbox.cif.g09.slc.cpg/sg36_4_cif.got.tgz:7084.got - 2010.04.14 02:13:53.
