data_PCOD8174637
_publ_section_title
;
Structure prediction by ZEFSAII (Michael W. Deem and Ramdas Pophale) SiO2 
 PCOD8174637
Probable space group: C M C 21
;
_chemical_formula_sum "Si O2"
_cell_formula_units_Z 64
_cell_length_a 8.855542
_cell_length_b 19.921655
_cell_length_c 19.646703
_cell_angle_alpha 90.000000
_cell_angle_beta 90.000000
_cell_angle_gamma 90.000000
_cell_volume 3466.013436
_symmetry_space_group_name_H-M "C M C 21"
_symmetry_group_IT_number 36
_symmetry_cell_setting 'orthorhombic'
loop_
_space_group_symop_operation_xyz
x,y,z
-x,-y,1/2+z
x,-y,1/2+z
-x,y,z
1/2+x,1/2+y,z
1/2-x,1/2-y,1/2+z
1/2+x,1/2-y,1/2+z
1/2-x,1/2+y,z
loop_
_atom_site_type_symbol
_atom_site_label
_atom_site_fract_x
_atom_site_fract_y
_atom_site_fract_z
Si Si1 0.175323 0.332021 0.643200
Si Si2 0.676461 0.661289 0.751731
Si Si3 0.326621 0.489592 0.263277
Si Si4 0.677568 0.422781 0.003749
Si Si5 0.173392 0.035391 0.112520
Si Si6 0.822941 0.591512 0.362124
Si Si7 0.324678 0.688373 0.602567
Si Si8 0.321549 0.293449 0.784027
O O1 0.226176 0.398106 0.603178
O O2 0.205892 0.267984 0.593912
O O3 0.267183 0.325412 0.713057
O O4 0.000000 0.336037 0.662846
O O5 0.500000 0.679926 0.751318
O O6 0.705251 0.587906 0.782849
O O7 0.742789 0.664539 0.674954
O O8 0.762551 0.717629 0.795704
O O9 0.500000 0.508803 0.279733
O O10 0.291878 0.499049 0.183742
O O11 0.215784 0.535272 0.306565
O O12 0.500000 0.418407 0.987457
O O13 0.715644 0.485147 0.052296
O O14 0.741736 0.354781 0.039988
O O15 0.768612 0.434467 0.935014
O O16 0.000000 0.057461 0.108455
O O17 0.740552 0.661401 0.345435
O O18 0.000000 0.603732 0.362156
O O19 0.500000 0.670017 0.604309
O O20 0.500000 0.294228 0.785955
#
# Coordination Sequence:
#
# PCOD8174637 Si02
#       8
#     8   8   8   8   8   8   8   8
#     4  10  19  32  55  85 115 144 180 234 286 330
#     4   9  17  33  58  87 114 140 178 231 285 336
#     4  10  19  35  60  87 115 149 188 234 287 346
#     4  10  20  38  60  81 109 152 195 235 286 349
#     4  10  19  33  58  87 114 147 190 233 280 344
#     4  12  25  39  55  81 116 155 196 241 287 342
#     4   8  15  31  55  81 107 139 180 223 275 334
#     4  11  21  35  55  81 112 148 189 233 282 339
#
# _framework density 18.465018000000001
#
# number of rings (size 3 to 8) (size 9 to 14) (size 15 to 20)
#    0.000    2.000    2.500    3.375    0.000    1.000 
#    0.000    4.375    0.000    3.000    0.000    0.000 
#    0.000    0.000    0.000    0.000    0.000    0.000 
#
# Total GULP energy -396805.565245 kJ/mol
# GULP energy per Si atom -12400.173914 kJ/mol
# Density = 1.842299 g / cm^3
# Si number density = 18.465018 Si / 1000 Ang^3
#
#
#
# Elastic Constant Matrix: (Units=GPa)
#
#
# Indices 1 2 3 4 5 6 
#
# 1 93.4274 42.9375 26.8659 0.0000 0.0000 0.0000
# 2 42.9375 105.3234 17.8912 0.0000 0.0000 0.0000
# 3 26.8659 17.8912 58.6586 0.0000 0.0000 0.0000
# 4 0.0000 0.0000 0.0000 24.4082 0.0000 0.0000
# 5 0.0000 0.0000 0.0000 0.0000 21.8488 0.0000
# 6 0.0000 0.0000 0.0000 0.0000 0.0000 31.9122
#
#
#
# Elastic Compliance Matrix: (Units=1/GPa)
#
#
# Indices 1 2 3 4 5 6 
#
# 1 0.014485 -0.005039 -0.005097 0.000000 0.000000 0.000000
# 2 -0.005039 0.011767 -0.001281 0.000000 0.000000 0.000000
# 3 -0.005097 -0.001281 0.019773 0.000000 0.000000 0.000000
# 4 0.000000 0.000000 0.000000 0.040970 0.000000 0.000000
# 5 0.000000 0.000000 0.000000 0.000000 0.045769 0.000000
# 6 0.000000 0.000000 0.000000 0.000000 0.000000 0.031336
#
#
# Mechanical properties :
#
#
# Convention : Reuss Voigt Hill
#
# Bulk Modulus (GPa) = 43.12218 48.08873 45.60546
# Shear Modulus (GPa) = 25.68518 26.94815 26.31667
#
# Velocity S-wave (km/s) = 3.73368 3.82438 3.77930
# Velocity P-wave (km/s) = 6.48007 6.75284 6.61786
#
# Compressibility (1/GPa) = 0.02318992
#
# Stress axis : x y z
#
# Youngs Moduli (GPa) = 69.03562 84.98656 50.57396
#
# Poissons Ratio (x) = 0.42828 0.25779
# Poissons Ratio (y) = 0.34790 0.06478
# Poissons Ratio (z) = 0.35189 0.10885
#
# Static dielectric constant tensor:
#      x y z
#    x 3.222530 0.000000 0.000000 
#    y 0.000000 3.622770 0.000000 
#    z 0.000000 0.000000 3.192760 
# 
# 
# High freq. dielectric constant tensor:
#      x y z
#    x 1.701280 0.000000 0.000000 
#    y 0.000000 1.731970 0.000000 
#    z 0.000000 0.000000 1.687140 
# 
# From -- ./inp_files/13921.got.cif
#   From: 2010.03.12/outbox.cif.g09.slc.cpg/sg36_7_cif.got.tgz:13921.got - 2010.04.14 02:13:53.
