data_PCOD8174371
_publ_section_title
;
Structure prediction by ZEFSAII (Michael W. Deem and Ramdas Pophale) SiO2 
 PCOD8174371
Probable space group: C M C 21
;
_chemical_formula_sum "Si O2"
_cell_formula_units_Z 64
_cell_length_a 8.665777
_cell_length_b 24.044932
_cell_length_c 14.523564
_cell_angle_alpha 90.000000
_cell_angle_beta 90.000000
_cell_angle_gamma 90.000000
_cell_volume 3026.246255
_symmetry_space_group_name_H-M "C M C 21"
_symmetry_group_IT_number 36
_symmetry_cell_setting 'orthorhombic'
loop_
_space_group_symop_operation_xyz
x,y,z
-x,-y,1/2+z
x,-y,1/2+z
-x,y,z
1/2+x,1/2+y,z
1/2-x,1/2-y,1/2+z
1/2+x,1/2-y,1/2+z
1/2-x,1/2+y,z
loop_
_atom_site_type_symbol
_atom_site_label
_atom_site_fract_x
_atom_site_fract_y
_atom_site_fract_z
Si Si1 0.319968 0.459115 0.460620
Si Si2 0.674585 0.098565 0.659915
Si Si3 0.681206 0.937702 0.850749
Si Si4 0.679967 0.303104 0.259443
Si Si5 0.325754 0.026547 0.154115
Si Si6 0.817657 0.748618 0.076996
Si Si7 0.681498 0.159393 0.937559
Si Si8 0.181980 0.860616 0.986006
O O1 0.500000 0.465716 0.443754
O O2 0.237141 0.507160 0.403428
O O3 0.286762 0.462337 0.569449
O O4 0.267441 0.398698 0.424629
O O5 0.500000 0.121928 0.669037
O O6 0.792069 0.135454 0.718846
O O7 0.730807 0.097279 0.554617
O O8 0.683025 0.035697 0.694319
O O9 0.500000 0.933369 0.866878
O O10 0.722140 0.937034 0.742350
O O11 0.764035 0.881287 0.885943
O O12 0.500000 0.294891 0.280381
O O13 0.774965 0.298440 0.354218
O O14 0.741028 0.258396 0.182309
O O15 0.500000 0.040432 0.121013
O O16 0.765490 0.689821 0.032968
O O17 0.760652 0.798287 0.009582
O O18 0.000000 0.751861 0.079933
O O19 0.500000 0.148556 0.936817
O O20 0.000000 0.867186 0.997288
#
# Coordination Sequence:
#
# PCOD8174371 Si02
#       8
#     8   8   8   8   8   8   8   8
#     4  12  25  40  61  90 124 160 200 252 308 356
#     4  10  18  32  57  85 114 154 200 243 291 349
#     4  11  22  38  60  89 122 159 202 242 296 367
#     4  10  20  37  61  91 120 152 203 256 302 352
#     4  10  22  38  57  83 120 160 200 240 291 363
#     4   8  19  39  62  85 116 156 197 246 302 354
#     4  11  22  41  64  86 120 164 204 245 301 365
#     4  10  19  35  58  85 116 149 192 246 299 348
#
# _framework density 21.148312000000001
#
# number of rings (size 3 to 8) (size 9 to 14) (size 15 to 20)
#    0.000    1.750    1.250    4.500    0.000    2.500 
#    2.250    7.500    0.000    0.000    0.000    0.000 
#    0.000    0.000    0.000    0.000    0.000    0.000 
#
# Total GULP energy -396691.799251 kJ/mol
# GULP energy per Si atom -12396.618727 kJ/mol
# Density = 2.110018 g / cm^3
# Si number density = 21.148312 Si / 1000 Ang^3
#
#
#
# Elastic Constant Matrix: (Units=GPa)
#
#
# Indices 1 2 3 4 5 6 
#
# 1 51.2743 7.4358 4.9969 0.0000 0.0000 0.0000
# 2 7.4358 39.4532 6.8220 0.0000 0.0000 0.0000
# 3 4.9969 6.8220 76.4381 0.0000 0.0000 0.0000
# 4 0.0000 0.0000 0.0000 28.2148 0.0000 0.0000
# 5 0.0000 0.0000 0.0000 0.0000 32.1732 0.0000
# 6 0.0000 0.0000 0.0000 0.0000 0.0000 22.1195
#
#
#
# Elastic Compliance Matrix: (Units=1/GPa)
#
#
# Indices 1 2 3 4 5 6 
#
# 1 0.020125 -0.003621 -0.000992 0.000000 0.000000 0.000000
# 2 -0.003621 0.026395 -0.002119 0.000000 0.000000 0.000000
# 3 -0.000992 -0.002119 0.013336 0.000000 0.000000 0.000000
# 4 0.000000 0.000000 0.000000 0.035442 0.000000 0.000000
# 5 0.000000 0.000000 0.000000 0.000000 0.031082 0.000000
# 6 0.000000 0.000000 0.000000 0.000000 0.000000 0.045209
#
#
# Mechanical properties :
#
#
# Convention : Reuss Voigt Hill
#
# Bulk Modulus (GPa) = 21.55584 22.85279 22.20431
# Shear Modulus (GPa) = 24.93526 26.36221 25.64873
#
# Velocity S-wave (km/s) = 3.43748 3.53447 3.48631
# Velocity P-wave (km/s) = 5.09606 5.24271 5.16991
#
# Compressibility (1/GPa) = 0.04639115
#
# Stress axis : x y z
#
# Youngs Moduli (GPa) = 49.68990 37.88532 74.98229
#
# Poissons Ratio (x) = 0.13720 0.07441
# Poissons Ratio (y) = 0.17995 0.15889
# Poissons Ratio (z) = 0.04931 0.08028
#
# Static dielectric constant tensor:
#      x y z
#    x 3.671840 0.000000 0.000000 
#    y 0.000000 3.761800 0.000000 
#    z 0.000000 0.000000 4.070540 
# 
# 
# High freq. dielectric constant tensor:
#      x y z
#    x 1.818700 0.000000 0.000000 
#    y 0.000000 1.813630 0.000000 
#    z 0.000000 0.000000 1.835450 
# 
# From -- ./inp_files/11014.got.cif
#   From: 2010.03.12/outbox.cif.g09.slc.cpg/sg36_6_cif.got.tgz:11014.got - 2010.04.14 02:13:53.
