data_PCOD8174425
_publ_section_title
;
Structure prediction by ZEFSAII (Michael W. Deem and Ramdas Pophale) SiO2 
 PCOD8174425
Probable space group: C M C 21
;
_chemical_formula_sum "Si O2"
_cell_formula_units_Z 64
_cell_length_a 17.694518
_cell_length_b 10.089875
_cell_length_c 19.137175
_cell_angle_alpha 90.000000
_cell_angle_beta 90.000000
_cell_angle_gamma 90.000000
_cell_volume 3416.664625
_symmetry_space_group_name_H-M "C M C 21"
_symmetry_group_IT_number 36
_symmetry_cell_setting 'orthorhombic'
loop_
_space_group_symop_operation_xyz
x,y,z
-x,-y,1/2+z
x,-y,1/2+z
-x,y,z
1/2+x,1/2+y,z
1/2-x,1/2-y,1/2+z
1/2+x,1/2-y,1/2+z
1/2-x,1/2+y,z
loop_
_atom_site_type_symbol
_atom_site_label
_atom_site_fract_x
_atom_site_fract_y
_atom_site_fract_z
Si Si1 0.585406 0.477428 0.501390
Si Si2 0.910865 0.134061 0.144078
Si Si3 0.585986 0.216586 0.015266
Si Si4 0.589867 0.597247 0.740112
Si Si5 0.684530 0.509782 0.869751
Si Si6 0.589779 0.871894 0.234550
Si Si7 0.673662 0.800450 0.372995
Si Si8 0.090004 0.360194 0.666541
O O1 0.500000 0.446172 0.475431
O O2 0.610352 0.376574 0.562710
O O3 0.588269 0.626881 0.529939
O O4 0.645755 0.453153 0.442099
O O5 0.877171 0.265888 0.179141
O O6 0.000000 0.134239 0.152956
O O7 0.878757 0.007318 0.184279
O O8 0.500000 0.170943 0.000283
O O9 0.618472 0.146847 0.085771
O O10 0.635524 0.176261 0.948344
O O11 0.500000 0.594227 0.749090
O O12 0.625526 0.559183 0.813194
O O13 0.619577 0.738697 0.713251
O O14 0.701102 0.352003 0.864709
O O15 0.760036 0.594319 0.863826
O O16 0.500000 0.874330 0.234774
O O17 0.614269 0.835114 0.312542
O O18 0.622016 0.011028 0.206220
O O19 0.000000 0.357318 0.663669
#
# Coordination Sequence:
#
# PCOD8174425 Si02
#       8
#     8   8   8   8   8   8   8   8
#     4   9  17  34  61  86 106 139 188 235 274 323
#     4   9  16  31  58  88 109 130 178 237 279 318
#     4   9  17  35  62  85 106 142 187 227 275 333
#     4  10  18  34  61  86 108 139 183 231 275 324
#     4  11  24  39  55  79 114 151 189 229 274 331
#     4  10  20  36  59  87 114 143 183 231 281 328
#     4  11  24  40  56  78 113 153 189 228 273 329
#     4   9  18  33  58  91 116 137 177 234 285 328
#
# _framework density 18.731718999999998
#
# number of rings (size 3 to 8) (size 9 to 14) (size 15 to 20)
#    0.000    2.250    2.500    0.750    1.750    1.000 
#    2.250    2.500    0.000    0.000    0.000    0.000 
#    0.000    0.000    0.000    0.000    0.000    0.000 
#
# Total GULP energy -396672.689125 kJ/mol
# GULP energy per Si atom -12396.021535 kJ/mol
# Density = 1.868908 g / cm^3
# Si number density = 18.731719 Si / 1000 Ang^3
#
#
#
# Elastic Constant Matrix: (Units=GPa)
#
#
# Indices 1 2 3 4 5 6 
#
# 1 38.3536 26.8532 17.3976 0.0000 0.0000 0.0000
# 2 26.8532 132.3674 59.1388 0.0000 0.0000 0.0000
# 3 17.3976 59.1388 108.8241 0.0000 0.0000 0.0000
# 4 0.0000 0.0000 0.0000 32.7364 0.0000 0.0000
# 5 0.0000 0.0000 0.0000 0.0000 -1.2653 0.0000
# 6 0.0000 0.0000 0.0000 0.0000 0.0000 18.0105
#
#
#
# Elastic Compliance Matrix: (Units=1/GPa)
#
#
# Indices 1 2 3 4 5 6 
#
# 1 0.030720 -0.005333 -0.002013 0.000000 0.000000 0.000000
# 2 -0.005333 0.010903 -0.005072 0.000000 0.000000 0.000000
# 3 -0.002013 -0.005072 0.012268 0.000000 0.000000 0.000000
# 4 0.000000 0.000000 0.000000 0.030547 0.000000 0.000000
# 5 0.000000 0.000000 0.000000 0.000000 -0.790346 0.000000
# 6 0.000000 0.000000 0.000000 0.000000 0.000000 0.055523
#
#
# Mechanical properties :
#
#
# Convention : Reuss Voigt Hill
#
# Bulk Modulus (GPa) = 34.41896 54.03603 44.22750
# Shear Modulus (GPa) = -8.11868 21.64004 6.76068
#
# Velocity S-wave (km/s) = -2.08413 3.40260 1.90185
# Velocity P-wave (km/s) = 3.55290 6.65935 5.33713
#
# Compressibility (1/GPa) = 0.02905375
#
# Stress axis : x y z
#
# Youngs Moduli (GPa) = 32.55198 91.71945 81.51602
#
# Poissons Ratio (x) = 0.48911 0.16411
# Poissons Ratio (y) = 0.17359 0.41348
# Poissons Ratio (z) = 0.06553 0.46524
#
# Static dielectric constant tensor:
#      x y z
#    x 3.089690 0.000000 0.000000 
#    y 0.000000 3.696190 0.000000 
#    z 0.000000 0.000000 3.574700 
# 
# 
# High freq. dielectric constant tensor:
#      x y z
#    x 1.691370 0.000000 0.000000 
#    y 0.000000 1.727890 0.000000 
#    z 0.000000 0.000000 1.743080 
# 
# From -- ./inp_files/15029.got.cif
#   From: 2010.03.12/outbox.cif.g09.slc.cpg/sg36_8_cif.got.tgz:15029.got - 2010.04.14 02:13:53.
