data_PCOD8174649
_publ_section_title
;
Structure prediction by ZEFSAII (Michael W. Deem and Ramdas Pophale) SiO2 
 PCOD8174649
Probable space group: C M C 21
;
_chemical_formula_sum "Si O2"
_cell_formula_units_Z 64
_cell_length_a 8.444022
_cell_length_b 14.180849
_cell_length_c 28.358810
_cell_angle_alpha 90.000000
_cell_angle_beta 90.000000
_cell_angle_gamma 90.000000
_cell_volume 3395.780356
_symmetry_space_group_name_H-M "C M C 21"
_symmetry_group_IT_number 36
_symmetry_cell_setting 'orthorhombic'
loop_
_space_group_symop_operation_xyz
x,y,z
-x,-y,1/2+z
x,-y,1/2+z
-x,y,z
1/2+x,1/2+y,z
1/2-x,1/2-y,1/2+z
1/2+x,1/2-y,1/2+z
1/2-x,1/2+y,z
loop_
_atom_site_type_symbol
_atom_site_label
_atom_site_fract_x
_atom_site_fract_y
_atom_site_fract_z
Si Si1 0.313185 0.005264 0.810420
Si Si2 0.689297 0.000101 0.415954
Si Si3 0.816202 0.647918 0.236769
Si Si4 0.186542 0.651569 0.989170
Si Si5 0.315243 0.853024 0.232900
Si Si6 0.187567 0.862983 0.990183
Si Si7 0.817745 0.998185 0.667283
Si Si8 0.814999 0.496759 0.565100
O O1 0.500000 0.008664 0.814750
O O2 0.261411 0.910417 0.782951
O O3 0.241413 0.006140 0.862930
O O4 0.254454 0.096731 0.781093
O O5 0.500000 0.010751 0.417677
O O6 0.747604 0.906675 0.443669
O O7 0.767268 0.090984 0.440269
O O8 0.715256 0.742511 0.234994
O O9 0.785759 0.584648 0.190664
O O10 0.000000 0.674659 0.238758
O O11 0.255883 0.756600 0.989139
O O12 0.000000 0.657141 0.985805
O O13 0.236027 0.597549 0.036968
O O14 0.500000 0.872817 0.225843
O O15 0.226090 0.899685 0.188612
O O16 0.000000 0.867105 0.998519
O O17 0.276693 0.913197 0.033068
O O18 0.787619 0.000968 0.611920
O O19 0.000000 0.975993 0.677145
O O20 0.000000 0.496845 0.577706
#
# Coordination Sequence:
#
# PCOD8174649 Si02
#       8
#     8   8   8   8   8   8   8   8
#     4   8  17  33  54  76 104 139 178 219 264 318
#     4   9  17  34  54  74 102 141 178 213 262 318
#     4  10  20  36  55  79 110 144 179 222 269 320
#     4   8  17  32  52  73 100 135 170 207 256 310
#     4  10  20  36  56  80 107 141 182 225 269 320
#     4  10  19  33  51  77 106 134 173 222 265 310
#     4  11  22  37  56  80 108 140 176 222 272 324
#     4  10  20  37  56  75 101 138 176 214 263 324
#
# _framework density 18.846920999999998
#
# number of rings (size 3 to 8) (size 9 to 14) (size 15 to 20)
#    0.000    2.500    0.000    4.125    0.000    2.000 
#    0.000   15.000    0.000    0.000    0.000    0.000 
#    0.000    0.000    0.000    0.000    0.000    0.000 
#
# Total GULP energy -396795.881454 kJ/mol
# GULP energy per Si atom -12399.871295 kJ/mol
# Density = 1.880402 g / cm^3
# Si number density = 18.846921 Si / 1000 Ang^3
#
#
#
# Elastic Constant Matrix: (Units=GPa)
#
#
# Indices 1 2 3 4 5 6 
#
# 1 43.7201 9.5884 12.9332 0.0000 0.0000 0.0000
# 2 9.5884 144.6415 55.2273 0.0000 0.0000 0.0000
# 3 12.9332 55.2273 135.4141 0.0000 0.0000 0.0000
# 4 0.0000 0.0000 0.0000 13.1815 0.0000 0.0000
# 5 0.0000 0.0000 0.0000 0.0000 23.2562 0.0000
# 6 0.0000 0.0000 0.0000 0.0000 0.0000 28.3185
#
#
#
# Elastic Compliance Matrix: (Units=1/GPa)
#
#
# Indices 1 2 3 4 5 6 
#
# 1 0.023623 -0.000834 -0.001916 0.000000 0.000000 0.000000
# 2 -0.000834 0.008218 -0.003272 0.000000 0.000000 0.000000
# 3 -0.001916 -0.003272 0.008902 0.000000 0.000000 0.000000
# 4 0.000000 0.000000 0.000000 0.075864 0.000000 0.000000
# 5 0.000000 0.000000 0.000000 0.000000 0.042999 0.000000
# 6 0.000000 0.000000 0.000000 0.000000 0.000000 0.035313
#
#
# Mechanical properties :
#
#
# Convention : Reuss Voigt Hill
#
# Bulk Modulus (GPa) = 34.84518 53.25260 44.04889
# Shear Modulus (GPa) = 23.09155 29.35304 26.22229
#
# Velocity S-wave (km/s) = 3.50411 3.95073 3.73410
# Velocity P-wave (km/s) = 5.90765 7.00911 6.48182
#
# Compressibility (1/GPa) = 0.02869837
#
# Stress axis : x y z
#
# Youngs Moduli (GPa) = 42.33249 121.67962 112.33175
#
# Poissons Ratio (x) = 0.10154 0.21521
# Poissons Ratio (y) = 0.03532 0.36756
# Poissons Ratio (z) = 0.08110 0.39814
#
# Static dielectric constant tensor:
#      x y z
#    x 3.248680 0.000000 0.000000 
#    y 0.000000 3.628480 0.000000 
#    z 0.000000 0.000000 3.624070 
# 
# 
# High freq. dielectric constant tensor:
#      x y z
#    x 1.718040 0.000000 0.000000 
#    y 0.000000 1.733670 0.000000 
#    z 0.000000 0.000000 1.734640 
# 
# From -- ./inp_files/17356.got.cif
#   From: 2010.03.12/outbox.cif.g09.slc.cpg/sg36_9_cif.got.tgz:17356.got - 2010.04.14 02:13:53.
