data_PCOD8174153
_publ_section_title
;
Structure prediction by ZEFSAII (Michael W. Deem and Ramdas Pophale) SiO2 
 PCOD8174153
Probable space group: C M M 2
;
_chemical_formula_sum "Si O2"
_cell_formula_units_Z 56
_cell_length_a 9.878590
_cell_length_b 19.760031
_cell_length_c 17.756067
_cell_angle_alpha 90.000000
_cell_angle_beta 90.000000
_cell_angle_gamma 90.000000
_cell_volume 3466.006378
_symmetry_space_group_name_H-M "C M M 2"
_symmetry_group_IT_number 35
_symmetry_cell_setting 'orthorhombic'
loop_
_space_group_symop_operation_xyz
x,y,z
-x,-y,z
-x,y,z
x,-y,z
1/2+x,1/2+y,z
1/2-x,1/2-y,z
1/2-x,1/2+y,z
1/2+x,1/2-y,z
loop_
_atom_site_type_symbol
_atom_site_label
_atom_site_fract_x
_atom_site_fract_y
_atom_site_fract_z
Si Si1 0.160656 0.925353 0.805940
Si Si2 0.151438 0.419646 0.346682
Si Si3 0.655037 0.688238 0.093914
Si Si4 0.343871 0.422114 0.215429
Si Si5 0.650701 0.580638 0.640258
Si Si6 0.842518 0.812614 0.920728
Si Si7 0.151767 0.419454 0.513722
O O1 0.206196 0.898722 0.723192
O O2 0.210528 0.875080 0.870879
O O3 0.000000 0.930671 0.805753
O O4 0.222123 0.000000 0.822252
O O5 0.153781 0.500000 0.346592
O O6 0.256517 0.392391 0.284741
O O7 0.194225 0.394007 0.430090
O O8 0.000000 0.393860 0.327038
O O9 0.500000 0.711050 0.106320
O O10 0.750000 0.750000 0.119421
O O11 0.690508 0.621840 0.142011
O O12 0.681487 0.668027 0.007544
O O13 0.500000 0.415348 0.238920
O O14 0.306814 0.500000 0.196839
O O15 0.500000 0.609795 0.626536
O O16 0.646899 0.500000 0.635609
O O17 0.747870 0.611965 0.576101
O O18 0.750000 0.750000 0.896966
O O19 0.000000 0.795527 0.905014
O O20 0.158102 0.500000 0.516350
O O21 0.000000 0.394747 0.532154
#
# Coordination Sequence:
#
# PCOD8174153 Si02
#       7
#     8   8   8   8   8   8   8
#     4   8  14  25  42  64  87 111 141 175 209 247
#     4   8  14  24  37  55  81 112 142 169 202 248
#     4   9  18  31  46  64  85 111 142 174 209 250
#     4   9  17  28  42  63  89 111 136 175 216 249
#     4   8  13  21  34  54  79 105 135 170 205 241
#     4   9  17  30  47  64  84 111 142 175 209 248
#     4   8  13  21  33  51  78 110 139 165 197 241
#
# _framework density 16.156924
#
# number of rings (size 3 to 8) (size 9 to 14) (size 15 to 20)
#    0.000    3.571    0.000    1.714    0.000    1.714 
#    0.000    6.429    0.000    1.286    0.000    5.000 
#    0.000    2.286    0.000    0.000    0.000    0.000 
#
# Total GULP energy -347007.776835 kJ/mol
# GULP energy per Si atom -12393.134887 kJ/mol
# Density = 1.612015 g / cm^3
# Si number density = 16.156924 Si / 1000 Ang^3
#
#
#
# Elastic Constant Matrix: (Units=GPa)
#
#
# Indices 1 2 3 4 5 6 
#
# 1 71.3027 38.5629 65.6201 0.0000 0.0000 0.0000
# 2 38.5629 57.1546 57.8658 0.0000 0.0000 0.0000
# 3 65.6201 57.8658 128.3634 0.0000 0.0000 0.0000
# 4 0.0000 0.0000 0.0000 4.0795 0.0000 0.0000
# 5 0.0000 0.0000 0.0000 0.0000 24.0136 0.0000
# 6 0.0000 0.0000 0.0000 0.0000 0.0000 16.4448
#
#
#
# Elastic Compliance Matrix: (Units=1/GPa)
#
#
# Indices 1 2 3 4 5 6 
#
# 1 0.028441 -0.008222 -0.010833 0.000000 0.000000 0.000000
# 2 -0.008222 0.034563 -0.011378 0.000000 0.000000 0.000000
# 3 -0.010833 -0.011378 0.018457 0.000000 0.000000 0.000000
# 4 0.000000 0.000000 0.000000 0.245128 0.000000 0.000000
# 5 0.000000 0.000000 0.000000 0.000000 0.041643 0.000000
# 6 0.000000 0.000000 0.000000 0.000000 0.000000 0.060809
#
#
# Mechanical properties :
#
#
# Convention : Reuss Voigt Hill
#
# Bulk Modulus (GPa) = 48.55235 64.54649 56.54942
# Shear Modulus (GPa) = 10.06498 15.22571 12.64534
#
# Velocity S-wave (km/s) = 2.49861 3.07313 2.80064
# Velocity P-wave (km/s) = 6.19998 7.25456 6.74790
#
# Compressibility (1/GPa) = 0.02059633
#
# Stress axis : x y z
#
# Youngs Moduli (GPa) = 35.16094 28.93231 54.17920
#
# Poissons Ratio (x) = 0.23788 0.58690
# Poissons Ratio (y) = 0.28909 0.61645
# Poissons Ratio (z) = 0.38089 0.32919
#
# Static dielectric constant tensor:
#      x y z
#    x 3.124510 0.000000 0.000000 
#    y 0.000000 2.738220 0.000000 
#    z 0.000000 0.000000 3.371550 
# 
# 
# High freq. dielectric constant tensor:
#      x y z
#    x 1.610190 0.000000 0.000000 
#    y 0.000000 1.569000 0.000000 
#    z 0.000000 0.000000 1.631540 
# 
# From -- ./inp_files/16411.got.cif
#   From: 2010.03.12/outbox.cif.g09.slc.cpg/sg35_9_cif.got.tgz:16411.got - 2010.04.14 02:02:04.
