data_PCOD8174596
_publ_section_title
;
Structure prediction by ZEFSAII (Michael W. Deem and Ramdas Pophale) SiO2 
 PCOD8174596
Probable space group: C M C 21
;
_chemical_formula_sum "Si O2"
_cell_formula_units_Z 64
_cell_length_a 9.083778
_cell_length_b 15.528514
_cell_length_c 24.149074
_cell_angle_alpha 90.000000
_cell_angle_beta 90.000000
_cell_angle_gamma 90.000000
_cell_volume 3406.409789
_symmetry_space_group_name_H-M "C M C 21"
_symmetry_group_IT_number 36
_symmetry_cell_setting 'orthorhombic'
loop_
_space_group_symop_operation_xyz
x,y,z
-x,-y,1/2+z
x,-y,1/2+z
-x,y,z
1/2+x,1/2+y,z
1/2-x,1/2-y,1/2+z
1/2+x,1/2-y,1/2+z
1/2-x,1/2+y,z
loop_
_atom_site_type_symbol
_atom_site_label
_atom_site_fract_x
_atom_site_fract_y
_atom_site_fract_z
Si Si1 0.674907 0.472166 0.422840
Si Si2 0.825339 0.042254 0.537181
Si Si3 0.675352 0.635646 0.227614
Si Si4 0.825544 0.712118 0.533486
Si Si5 0.825619 0.782116 0.296049
Si Si6 0.674512 0.375802 0.602019
Si Si7 0.174042 0.218359 0.919400
Si Si8 0.325511 0.478819 0.301166
O O1 0.500000 0.468190 0.424260
O O2 0.730107 0.530306 0.473687
O O3 0.739116 0.376339 0.431164
O O4 0.729122 0.506497 0.362868
O O5 0.750567 0.128646 0.560027
O O6 0.000000 0.051004 0.541434
O O7 0.766372 0.963241 0.574114
O O8 0.500000 0.641652 0.231684
O O9 0.742177 0.722317 0.252816
O O10 0.731480 0.629216 0.164769
O O11 0.736283 0.549979 0.258586
O O12 0.766891 0.794047 0.567743
O O13 0.772731 0.719912 0.469141
O O14 0.000000 0.703008 0.538455
O O15 0.778095 0.750867 0.358017
O O16 0.773870 0.881443 0.286504
O O17 0.000000 0.773281 0.287421
O O18 0.500000 0.376549 0.599909
O O19 0.000000 0.210939 0.921136
O O20 0.500000 0.479027 0.299618
#
# Coordination Sequence:
#
# PCOD8174596 Si02
#       8
#     8   8   8   8   8   8   8   8
#     4   8  13  26  49  73  97 128 164 199 240 296
#     4  10  19  32  53  78 100 128 170 213 248 290
#     4  10  20  34  53  75 100 134 172 209 248 295
#     4  10  19  33  52  74 100 134 169 204 249 303
#     4   9  18  33  52  76 102 132 167 205 251 301
#     4   9  19  36  53  70 100 140 174 200 242 310
#     4   8  14  28  51  73  99 134 168 198 241 308
#     4   8  16  30  49  73 100 130 164 202 245 295
#
# _framework density 18.78811
#
# number of rings (size 3 to 8) (size 9 to 14) (size 15 to 20)
#    0.000    3.000    1.250    1.500    1.750    1.000 
#    0.000    3.750    0.000    3.000    0.000    0.000 
#    0.000    0.000    0.000    0.000    0.000    0.000 
#
# Total GULP energy -396556.783847 kJ/mol
# GULP energy per Si atom -12392.399495 kJ/mol
# Density = 1.874535 g / cm^3
# Si number density = 18.788110 Si / 1000 Ang^3
#
#
#
# Elastic Constant Matrix: (Units=GPa)
#
#
# Indices 1 2 3 4 5 6 
#
# 1 17.3548 23.3509 21.7983 0.0000 0.0000 0.0000
# 2 23.3509 138.1082 74.8402 0.0000 0.0000 0.0000
# 3 21.7983 74.8402 141.1136 0.0000 0.0000 0.0000
# 4 0.0000 0.0000 0.0000 26.0282 0.0000 0.0000
# 5 0.0000 0.0000 0.0000 0.0000 15.7697 0.0000
# 6 0.0000 0.0000 0.0000 0.0000 0.0000 25.7728
#
#
#
# Elastic Compliance Matrix: (Units=1/GPa)
#
#
# Indices 1 2 3 4 5 6 
#
# 1 0.079522 -0.009527 -0.007232 0.000000 0.000000 0.000000
# 2 -0.009527 0.011302 -0.004523 0.000000 0.000000 0.000000
# 3 -0.007232 -0.004523 0.010602 0.000000 0.000000 0.000000
# 4 0.000000 0.000000 0.000000 0.038420 0.000000 0.000000
# 5 0.000000 0.000000 0.000000 0.000000 0.063413 0.000000
# 6 0.000000 0.000000 0.000000 0.000000 0.000000 0.038801
#
#
# Mechanical properties :
#
#
# Convention : Reuss Voigt Hill
#
# Bulk Modulus (GPa) = 16.98805 59.61727 38.30266
# Shear Modulus (GPa) = 16.43426 25.28663 20.86044
#
# Velocity S-wave (km/s) = 2.96077 3.67261 3.33573
# Velocity P-wave (km/s) = 4.55519 7.05580 5.93861
#
# Compressibility (1/GPa) = 0.05886489
#
# Stress axis : x y z
#
# Youngs Moduli (GPa) = 12.57515 88.47864 94.32068
#
# Poissons Ratio (x) = 0.84289 0.68209
# Poissons Ratio (y) = 0.11980 0.42657
# Poissons Ratio (z) = 0.09094 0.40015
#
# Static dielectric constant tensor:
#      x y z
#    x 2.798800 0.000000 0.000000 
#    y 0.000000 3.541280 0.000000 
#    z 0.000000 0.000000 3.794870 
# 
# 
# High freq. dielectric constant tensor:
#      x y z
#    x 1.666180 0.000000 0.000000 
#    y 0.000000 1.736400 0.000000 
#    z 0.000000 0.000000 1.736090 
# 
# From -- ./inp_files/15731.got.cif
#   From: 2010.03.12/outbox.cif.g09.slc.cpg/sg36_8_cif.got.tgz:15731.got - 2010.04.14 02:13:53.
