data_PCOD8174835
_publ_section_title
;
Structure prediction by ZEFSAII (Michael W. Deem and Ramdas Pophale) SiO2 
 PCOD8174835
Probable space group: C M C 21
;
_chemical_formula_sum "Si O2"
_cell_formula_units_Z 64
_cell_length_a 8.985126
_cell_length_b 24.955862
_cell_length_c 14.315230
_cell_angle_alpha 90.000000
_cell_angle_beta 90.000000
_cell_angle_gamma 90.000000
_cell_volume 3209.926419
_symmetry_space_group_name_H-M "C M C 21"
_symmetry_group_IT_number 36
_symmetry_cell_setting 'orthorhombic'
loop_
_space_group_symop_operation_xyz
x,y,z
-x,-y,1/2+z
x,-y,1/2+z
-x,y,z
1/2+x,1/2+y,z
1/2-x,1/2-y,1/2+z
1/2+x,1/2-y,1/2+z
1/2-x,1/2+y,z
loop_
_atom_site_type_symbol
_atom_site_label
_atom_site_fract_x
_atom_site_fract_y
_atom_site_fract_z
Si Si1 0.822793 0.047256 0.338820
Si Si2 0.333459 0.845928 0.351995
Si Si3 0.176994 0.906364 0.641847
Si Si4 0.174422 0.942455 0.440507
Si Si5 0.669275 0.814347 0.139657
Si Si6 0.833845 0.867763 0.987120
Si Si7 0.176167 0.705808 0.175184
Si Si8 0.334271 0.729493 0.359410
O O1 0.765907 0.060898 0.233746
O O2 0.765168 0.092861 0.409688
O O3 0.000000 0.046763 0.336169
O O4 0.756066 0.991883 0.380967
O O5 0.500000 0.865657 0.376811
O O6 0.216254 0.887984 0.389392
O O7 0.313523 0.837164 0.242607
O O8 0.296979 0.788555 0.399190
O O9 0.223642 0.940754 0.549752
O O10 0.254313 0.848485 0.632993
O O11 0.000000 0.897199 0.646660
O O12 0.000000 0.949128 0.436500
O O13 0.500000 0.803009 0.111386
O O14 0.759183 0.758944 0.125465
O O15 0.731982 0.863662 0.078114
O O16 0.836447 0.808009 0.947928
O O17 0.000000 0.886870 0.015293
O O18 0.215601 0.708408 0.284778
O O19 0.000000 0.704290 0.161010
O O20 0.500000 0.731157 0.311275
#
# Coordination Sequence:
#
# PCOD8174835 Si02
#       8
#     8   8   8   8   8   8   8   8
#     4   9  19  38  61  85 117 154 193 240 296 347
#     4   9  20  38  56  78 117 158 187 231 297 351
#     4  10  20  38  59  82 117 154 188 239 301 346
#     4  10  22  37  60  90 112 149 203 244 284 345
#     4  10  22  38  56  83 121 161 195 237 300 353
#     4  10  19  34  59  88 116 154 195 236 291 348
#     4  11  21  34  56  86 116 151 200 242 285 346
#     4   9  18  35  57  82 116 155 187 231 300 350
#
# _framework density 19.938153
#
# number of rings (size 3 to 8) (size 9 to 14) (size 15 to 20)
#    0.000    2.250    1.250    2.250    1.750    4.500 
#    0.000    3.750    0.000    0.000    0.000    0.000 
#    0.000    0.000    0.000    0.000    0.000    0.000 
#
# Total GULP energy -396651.581751 kJ/mol
# GULP energy per Si atom -12395.361930 kJ/mol
# Density = 1.989277 g / cm^3
# Si number density = 19.938153 Si / 1000 Ang^3
#
#
#
# Elastic Constant Matrix: (Units=GPa)
#
#
# Indices 1 2 3 4 5 6 
#
# 1 57.9892 24.1166 28.8730 0.0000 0.0000 0.0000
# 2 24.1166 117.7765 59.9132 0.0000 0.0000 0.0000
# 3 28.8730 59.9132 81.1270 0.0000 0.0000 0.0000
# 4 0.0000 0.0000 0.0000 27.9660 0.0000 0.0000
# 5 0.0000 0.0000 0.0000 0.0000 24.2619 0.0000
# 6 0.0000 0.0000 0.0000 0.0000 0.0000 24.5430
#
#
#
# Elastic Compliance Matrix: (Units=1/GPa)
#
#
# Indices 1 2 3 4 5 6 
#
# 1 0.021005 -0.000798 -0.006886 0.000000 0.000000 0.000000
# 2 -0.000798 0.013630 -0.009782 0.000000 0.000000 0.000000
# 3 -0.006886 -0.009782 0.022001 0.000000 0.000000 0.000000
# 4 0.000000 0.000000 0.000000 0.035758 0.000000 0.000000
# 5 0.000000 0.000000 0.000000 0.000000 0.041217 0.000000
# 6 0.000000 0.000000 0.000000 0.000000 0.000000 0.040745
#
#
# Mechanical properties :
#
#
# Convention : Reuss Voigt Hill
#
# Bulk Modulus (GPa) = 46.07471 53.63315 49.85393
# Shear Modulus (GPa) = 23.09215 24.95350 24.02283
#
# Velocity S-wave (km/s) = 3.40691 3.54156 3.47489
# Velocity P-wave (km/s) = 6.21571 6.60921 6.41548
#
# Compressibility (1/GPa) = 0.02170388
#
# Stress axis : x y z
#
# Youngs Moduli (GPa) = 47.60714 73.36643 45.45173
#
# Poissons Ratio (x) = 0.05855 0.31300
# Poissons Ratio (y) = 0.03799 0.44461
# Poissons Ratio (z) = 0.32784 0.71767
#
# Static dielectric constant tensor:
#      x y z
#    x 3.439660 0.000000 0.000000 
#    y 0.000000 3.726700 0.000000 
#    z 0.000000 0.000000 3.698630 
# 
# 
# High freq. dielectric constant tensor:
#      x y z
#    x 1.750210 0.000000 0.000000 
#    y 0.000000 1.775540 0.000000 
#    z 0.000000 0.000000 1.781430 
# 
# From -- ./inp_files/11013.got.cif
#   From: 2010.03.12/outbox.cif.g09.slc.cpg/sg36_6_cif.got.tgz:11013.got - 2010.04.14 02:13:53.
