data_PCOD8174896
_publ_section_title
;
Structure prediction by ZEFSAII (Michael W. Deem and Ramdas Pophale) SiO2 
 PCOD8174896
Probable space group: C M C 21
;
_chemical_formula_sum "Si O2"
_cell_formula_units_Z 64
_cell_length_a 8.964893
_cell_length_b 24.212427
_cell_length_c 14.372888
_cell_angle_alpha 90.000000
_cell_angle_beta 90.000000
_cell_angle_gamma 90.000000
_cell_volume 3119.805189
_symmetry_space_group_name_H-M "C M C 21"
_symmetry_group_IT_number 36
_symmetry_cell_setting 'orthorhombic'
loop_
_space_group_symop_operation_xyz
x,y,z
-x,-y,1/2+z
x,-y,1/2+z
-x,y,z
1/2+x,1/2+y,z
1/2-x,1/2-y,1/2+z
1/2+x,1/2-y,1/2+z
1/2-x,1/2+y,z
loop_
_atom_site_type_symbol
_atom_site_label
_atom_site_fract_x
_atom_site_fract_y
_atom_site_fract_z
Si Si1 0.323966 0.162073 0.066440
Si Si2 0.330823 0.100158 0.772613
Si Si3 0.173347 0.049660 0.103225
Si Si4 0.332258 0.574502 0.591436
Si Si5 0.826732 0.808130 0.384236
Si Si6 0.168685 0.890802 0.893842
Si Si7 0.831516 0.525435 0.288614
Si Si8 0.326535 0.800850 0.773358
O O1 0.500000 0.160336 0.054589
O O2 0.263300 0.099429 0.054447
O O3 0.278672 0.189689 0.165696
O O4 0.257746 0.199754 0.982951
O O5 0.500000 0.122342 0.777859
O O6 0.279876 0.100340 0.665742
O O7 0.224135 0.135424 0.837110
O O8 0.317135 0.038546 0.811551
O O9 0.220099 0.048074 0.210601
O O10 0.000000 0.064029 0.093373
O O11 0.211986 0.988689 0.062152
O O12 0.500000 0.572500 0.633612
O O13 0.326541 0.616587 0.505082
O O14 0.792143 0.760947 0.307922
O O15 0.000000 0.810972 0.407777
O O16 0.278414 0.942564 0.879455
O O17 0.228287 0.837644 0.841336
O O18 0.000000 0.903096 0.861072
O O19 0.000000 0.541174 0.259723
O O20 0.500000 0.816113 0.785717
#
# Coordination Sequence:
#
# PCOD8174896 Si02
#       8
#     8   8   8   8   8   8   8   8
#     4  11  23  41  64  91 123 160 205 260 314 371
#     4  10  22  40  61  90 124 163 207 255 312 368
#     4  10  19  35  59  89 123 163 208 252 306 368
#     4   9  21  38  57  89 130 169 207 253 309 371
#     4  11  25  44  66  91 122 164 210 258 314 373
#     4  11  22  36  60  92 123 163 210 253 305 369
#     4  10  20  35  56  86 124 162 200 251 310 366
#     4  10  24  45  65  88 123 164 207 260 316 366
#
# _framework density 20.514101
#
# number of rings (size 3 to 8) (size 9 to 14) (size 15 to 20)
#    0.000    1.750    1.250    2.250    1.750    5.500 
#    0.000    3.750    0.000    0.000    0.000    0.000 
#    0.000    0.000    0.000    0.000    0.000    0.000 
#
# Total GULP energy -396743.597773 kJ/mol
# GULP energy per Si atom -12398.237430 kJ/mol
# Density = 2.046741 g / cm^3
# Si number density = 20.514101 Si / 1000 Ang^3
#
#
#
# Elastic Constant Matrix: (Units=GPa)
#
#
# Indices 1 2 3 4 5 6 
#
# 1 85.3956 45.9494 37.6775 0.0000 0.0000 0.0000
# 2 45.9494 74.9468 50.4077 0.0000 0.0000 0.0000
# 3 37.6775 50.4077 89.0789 0.0000 0.0000 0.0000
# 4 0.0000 0.0000 0.0000 27.3576 0.0000 0.0000
# 5 0.0000 0.0000 0.0000 0.0000 34.3284 0.0000
# 6 0.0000 0.0000 0.0000 0.0000 0.0000 28.0167
#
#
#
# Elastic Compliance Matrix: (Units=1/GPa)
#
#
# Indices 1 2 3 4 5 6 
#
# 1 0.017733 -0.009408 -0.002177 0.000000 0.000000 0.000000
# 2 -0.009408 0.026533 -0.011035 0.000000 0.000000 0.000000
# 3 -0.002177 -0.011035 0.018391 0.000000 0.000000 0.000000
# 4 0.000000 0.000000 0.000000 0.036553 0.000000 0.000000
# 5 0.000000 0.000000 0.000000 0.000000 0.029130 0.000000
# 6 0.000000 0.000000 0.000000 0.000000 0.000000 0.035693
#
#
# Mechanical properties :
#
#
# Convention : Reuss Voigt Hill
#
# Bulk Modulus (GPa) = 57.41377 57.49897 57.45637
# Shear Modulus (GPa) = 23.24746 25.63300 24.44023
#
# Velocity S-wave (km/s) = 3.37002 3.53871 3.45539
# Velocity P-wave (km/s) = 6.57198 6.69227 6.63240
#
# Compressibility (1/GPa) = 0.01741743
#
# Stress axis : x y z
#
# Youngs Moduli (GPa) = 56.39298 37.68958 54.37410
#
# Poissons Ratio (x) = 0.35458 0.11836
# Poissons Ratio (y) = 0.53053 0.60002
# Poissons Ratio (z) = 0.12275 0.41590
#
# Static dielectric constant tensor:
#      x y z
#    x 3.792920 0.000000 0.000000 
#    y 0.000000 3.654480 0.000000 
#    z 0.000000 0.000000 3.696780 
# 
# 
# High freq. dielectric constant tensor:
#      x y z
#    x 1.810940 0.000000 0.000000 
#    y 0.000000 1.791460 0.000000 
#    z 0.000000 0.000000 1.800750 
# 
# From -- ./inp_files/10945.got.cif
#   From: 2010.03.12/outbox.cif.g09.slc.cpg/sg36_6_cif.got.tgz:10945.got - 2010.04.14 02:13:53.
