data_PCOD8174845
_publ_section_title
;
Structure prediction by ZEFSAII (Michael W. Deem and Ramdas Pophale) SiO2 
 PCOD8174845
Probable space group: C M C 21
;
_chemical_formula_sum "Si O2"
_cell_formula_units_Z 48
_cell_length_a 8.271677
_cell_length_b 28.059762
_cell_length_c 10.097945
_cell_angle_alpha 90.000000
_cell_angle_beta 90.000000
_cell_angle_gamma 90.000000
_cell_volume 2343.746040
_symmetry_space_group_name_H-M "C M C 21"
_symmetry_group_IT_number 36
_symmetry_cell_setting 'orthorhombic'
loop_
_space_group_symop_operation_xyz
x,y,z
-x,-y,1/2+z
x,-y,1/2+z
-x,y,z
1/2+x,1/2+y,z
1/2-x,1/2-y,1/2+z
1/2+x,1/2-y,1/2+z
1/2-x,1/2+y,z
loop_
_atom_site_type_symbol
_atom_site_label
_atom_site_fract_x
_atom_site_fract_y
_atom_site_fract_z
Si Si1 0.311627 0.859888 0.378280
Si Si2 0.687934 0.293911 0.152191
Si Si3 0.306860 0.037959 0.794314
Si Si4 0.690776 0.145700 0.420189
Si Si5 0.192088 0.540806 0.496559
Si Si6 0.190818 0.313217 0.641232
O O1 0.500000 0.867434 0.401730
O O2 0.286956 0.823647 0.258870
O O3 0.235562 0.911278 0.342612
O O4 0.232109 0.839176 0.512818
O O5 0.500000 0.295097 0.189979
O O6 0.758899 0.240359 0.153515
O O7 0.715658 0.315747 0.007602
O O8 0.500000 0.038658 0.796175
O O9 0.246508 0.028026 0.644339
O O10 0.237377 0.997334 0.891904
O O11 0.500000 0.150871 0.445576
O O12 0.753972 0.093139 0.456507
O O13 0.737475 0.155715 0.268609
O O14 0.000000 0.539777 0.490725
O O15 0.000000 0.309443 0.622765
#
# Coordination Sequence:
#
# PCOD8174845 Si02
#       6
#     8   8   8   8   8   8
#     4  10  19  35  55  78 106 137 172 214 263 312
#     4  11  21  35  52  75 105 141 179 215 256 303
#     4   9  17  28  47  77 105 128 160 208 262 308
#     4  10  19  35  55  78 106 137 172 214 263 312
#     4   9  17  28  47  77 105 128 160 208 262 308
#     4   9  20  33  52  79 105 135 175 219 260 303
#
# _framework density 20.480035000000001
#
# number of rings (size 3 to 8) (size 9 to 14) (size 15 to 20)
#    0.000    2.333    1.667    1.500    2.333    0.000 
#    0.000    2.500    0.000    1.000    0.000    0.000 
#    0.000    0.000    0.000    0.000    0.000    0.000 
#
# Total GULP energy -297603.495311 kJ/mol
# GULP energy per Si atom -12400.145638 kJ/mol
# Density = 2.043342 g / cm^3
# Si number density = 20.480035 Si / 1000 Ang^3
#
#
#
# Elastic Constant Matrix: (Units=GPa)
#
#
# Indices 1 2 3 4 5 6 
#
# 1 8.4806 5.2071 -0.8351 0.0000 0.0000 0.0000
# 2 5.2071 164.9721 89.0268 0.0000 0.0000 0.0000
# 3 -0.8351 89.0268 161.6111 0.0000 0.0000 0.0000
# 4 0.0000 0.0000 0.0000 48.6192 0.0000 0.0000
# 5 0.0000 0.0000 0.0000 0.0000 15.5087 0.0000
# 6 0.0000 0.0000 0.0000 0.0000 0.0000 15.4282
#
#
#
# Elastic Compliance Matrix: (Units=1/GPa)
#
#
# Indices 1 2 3 4 5 6 
#
# 1 0.121963 -0.005962 0.003915 0.000000 0.000000 0.000000
# 2 -0.005962 0.008917 -0.004943 0.000000 0.000000 0.000000
# 3 0.003915 -0.004943 0.008931 0.000000 0.000000 0.000000
# 4 0.000000 0.000000 0.000000 0.020568 0.000000 0.000000
# 5 0.000000 0.000000 0.000000 0.000000 0.064480 0.000000
# 6 0.000000 0.000000 0.000000 0.000000 0.000000 0.064816
#
#
# Mechanical properties :
#
#
# Convention : Reuss Voigt Hill
#
# Bulk Modulus (GPa) = 7.94725 57.98459 32.96592
# Shear Modulus (GPa) = 14.46760 32.02222 23.24491
#
# Velocity S-wave (km/s) = 2.66075 3.95851 3.37264
# Velocity P-wave (km/s) = 3.65080 7.01906 5.59444
#
# Compressibility (1/GPa) = 0.12582976
#
# Stress axis : x y z
#
# Youngs Moduli (GPa) = 8.19923 112.14093 111.97030
#
# Poissons Ratio (x) = 0.66859 -0.43831
# Poissons Ratio (y) = 0.04888 0.55348
# Poissons Ratio (z) = -0.03210 0.55433
#
# Static dielectric constant tensor:
#      x y z
#    x 3.050110 0.000000 0.000000 
#    y 0.000000 3.993270 0.000000 
#    z 0.000000 0.000000 3.924130 
# 
# 
# High freq. dielectric constant tensor:
#      x y z
#    x 1.737380 0.000000 0.000000 
#    y 0.000000 1.813440 0.000000 
#    z 0.000000 0.000000 1.816870 
# 
# From -- ./inp_files/2708.got.cif
#   From: 2010.03.12/outbox.cif.g09.slc.cpg/sg36_2_cif.got.tgz:2708.got - 2010.04.14 02:13:53.
