data_PCOD8174030
_publ_section_title
;
Structure prediction by ZEFSAII (Michael W. Deem and Ramdas Pophale) SiO2 
 PCOD8174030
Probable space group: C M M 2
;
_chemical_formula_sum "Si O2"
_cell_formula_units_Z 48
_cell_length_a 17.852695
_cell_length_b 7.619689
_cell_length_c 17.006872
_cell_angle_alpha 90.000000
_cell_angle_beta 90.000000
_cell_angle_gamma 90.000000
_cell_volume 2313.478535
_symmetry_space_group_name_H-M "C M M 2"
_symmetry_group_IT_number 35
_symmetry_cell_setting 'orthorhombic'
loop_
_space_group_symop_operation_xyz
x,y,z
-x,-y,z
-x,y,z
x,-y,z
1/2+x,1/2+y,z
1/2-x,1/2-y,z
1/2-x,1/2+y,z
1/2+x,1/2-y,z
loop_
_atom_site_type_symbol
_atom_site_label
_atom_site_fract_x
_atom_site_fract_y
_atom_site_fract_z
Si Si1 0.334165 0.194089 0.693290
Si Si2 0.413534 0.000000 0.107303
Si Si3 0.086631 0.500000 0.292230
Si Si4 0.585683 0.704780 0.847577
Si Si5 0.336666 0.294724 0.009492
Si Si6 0.336804 0.707489 0.390824
Si Si7 0.918116 0.802339 0.544694
O O1 0.250000 0.250000 0.711148
O O2 0.379540 0.195279 0.774097
O O3 0.373795 0.308269 0.626735
O O4 0.334236 0.000000 0.658298
O O5 0.500000 0.000000 0.083036
O O6 0.401572 0.000000 0.199659
O O7 0.376321 0.822194 0.075187
O O8 0.123819 0.679213 0.323259
O O9 0.000000 0.500000 0.316421
O O10 0.500000 0.762882 0.858338
O O11 0.593083 0.500000 0.830213
O O12 0.630065 0.759273 0.925331
O O13 0.351032 0.500000 0.028151
O O14 0.250000 0.250000 0.008395
O O15 0.350427 0.500000 0.375622
O O16 0.250000 0.750000 0.391066
O O17 0.369491 0.779262 0.474008
O O18 0.000000 0.708438 0.553234
O O19 0.932751 0.000000 0.519751
#
# Coordination Sequence:
#
# PCOD8174030 Si02
#       7
#     8   4   4   8   8   8   8
#     4  12  25  38  57  87 121 169 217 268 320 375
#     4  11  26  46  70 101 136 174 217 273 338 400
#     4  11  26  46  70 101 136 174 217 273 338 400
#     4  10  22  40  63  90 126 167 212 265 325 384
#     4  11  23  43  69 101 133 176 221 273 330 395
#     4  11  23  43  69 101 133 176 221 273 330 395
#     4  10  22  40  63  90 126 167 212 265 325 384
#
# _framework density 20.747976999999999
#
# number of rings (size 3 to 8) (size 9 to 14) (size 15 to 20)
#    0.000    1.167    1.667    4.000    2.333    8.667 
#    0.000    1.667    0.000    0.000    0.000    0.000 
#    0.000    0.000    0.000    0.000    0.000    0.000 
#
# Total GULP energy -297635.722454 kJ/mol
# GULP energy per Si atom -12401.488436 kJ/mol
# Density = 2.070075 g / cm^3
# Si number density = 20.747977 Si / 1000 Ang^3
#
#
#
# Elastic Constant Matrix: (Units=GPa)
#
#
# Indices 1 2 3 4 5 6 
#
# 1 180.8050 45.2359 81.2979 0.0000 0.0000 0.0000
# 2 45.2359 105.6175 42.7441 0.0000 0.0000 0.0000
# 3 81.2979 42.7441 123.3349 0.0000 0.0000 0.0000
# 4 0.0000 0.0000 0.0000 20.3706 0.0000 0.0000
# 5 0.0000 0.0000 0.0000 0.0000 15.2219 0.0000
# 6 0.0000 0.0000 0.0000 0.0000 0.0000 7.2413
#
#
#
# Elastic Compliance Matrix: (Units=1/GPa)
#
#
# Indices 1 2 3 4 5 6 
#
# 1 0.008064 -0.001515 -0.004790 0.000000 0.000000 0.000000
# 2 -0.001515 0.011297 -0.002917 0.000000 0.000000 0.000000
# 3 -0.004790 -0.002917 0.012276 0.000000 0.000000 0.000000
# 4 0.000000 0.000000 0.000000 0.049090 0.000000 0.000000
# 5 0.000000 0.000000 0.000000 0.000000 0.065695 0.000000
# 6 0.000000 0.000000 0.000000 0.000000 0.000000 0.138097
#
#
# Mechanical properties :
#
#
# Convention : Reuss Voigt Hill
#
# Bulk Modulus (GPa) = 75.79429 83.14591 79.47010
# Shear Modulus (GPa) = 16.26747 24.59873 20.43310
#
# Velocity S-wave (km/s) = 2.80313 3.44698 3.14159
# Velocity P-wave (km/s) = 6.86199 7.48355 7.17950
#
# Compressibility (1/GPa) = 0.01319361
#
# Stress axis : x y z
#
# Youngs Moduli (GPa) = 124.01091 88.51578 81.45697
#
# Poissons Ratio (x) = 0.13411 0.39020
# Poissons Ratio (y) = 0.18788 0.23758
# Poissons Ratio (z) = 0.59405 0.25817
#
# Static dielectric constant tensor:
#      x y z
#    x 4.066910 0.000000 0.000000 
#    y 0.000000 4.175920 0.000000 
#    z 0.000000 0.000000 3.619950 
# 
# 
# High freq. dielectric constant tensor:
#      x y z
#    x 1.833040 0.000000 0.000000 
#    y 0.000000 1.817930 0.000000 
#    z 0.000000 0.000000 1.809510 
# 
# From -- ./inp_files/18786.got.cif
#   From: 2010.03.12/outbox.cif.g09.slc.cpg/sg35_10_cif.got.tgz:18786.got - 2010.04.14 02:02:04.
