data_PCOD8174077
_publ_section_title
;
Structure prediction by ZEFSAII (Michael W. Deem and Ramdas Pophale) SiO2 
 PCOD8174077
Probable space group: C M M 2
;
_chemical_formula_sum "Si O2"
_cell_formula_units_Z 64
_cell_length_a 30.188697
_cell_length_b 9.144786
_cell_length_c 15.234390
_cell_angle_alpha 90.000000
_cell_angle_beta 90.000000
_cell_angle_gamma 90.000000
_cell_volume 4205.745459
_symmetry_space_group_name_H-M "C M M 2"
_symmetry_group_IT_number 35
_symmetry_cell_setting 'orthorhombic'
loop_
_space_group_symop_operation_xyz
x,y,z
-x,-y,z
-x,y,z
x,-y,z
1/2+x,1/2+y,z
1/2-x,1/2-y,z
1/2-x,1/2+y,z
1/2+x,1/2-y,z
loop_
_atom_site_type_symbol
_atom_site_label
_atom_site_fract_x
_atom_site_fract_y
_atom_site_fract_z
Si Si1 0.209712 0.159596 0.909160
Si Si2 0.617226 0.825171 0.106825
Si Si3 0.949273 0.829622 0.766814
Si Si4 0.947167 0.663517 0.596328
Si Si5 0.948165 0.170304 0.234919
Si Si6 0.447476 0.661434 0.431914
Si Si7 0.886788 0.173884 0.924565
Si Si8 0.707583 0.665012 0.117112
O O1 0.250000 0.250000 0.867082
O O2 0.161144 0.222627 0.885919
O O3 0.214670 0.000000 0.867746
O O4 0.213767 0.154335 0.013513
O O5 0.578723 0.778298 0.172808
O O6 0.663344 0.755389 0.139917
O O7 0.621743 0.000000 0.103188
O O8 0.602922 0.763573 0.012157
O O9 0.929620 0.748863 0.681713
O O10 0.923095 0.781286 0.853348
O O11 0.000000 0.785786 0.783660
O O12 0.943775 0.000000 0.748311
O O13 0.928920 0.500000 0.601936
O O14 0.927675 0.733048 0.506818
O O15 0.000000 0.668906 0.594391
O O16 0.934691 0.214434 0.334362
O O17 0.000000 0.197624 0.218351
O O18 0.936699 0.000000 0.216817
O O19 0.500000 0.655130 0.439446
O O20 0.427971 0.500000 0.448738
O O21 0.886779 0.000000 0.946180
O O22 0.704537 0.500000 0.156286
O O23 0.750000 0.750000 0.157878
#
# Coordination Sequence:
#
# PCOD8174077 Si02
#       8
#     8   8   8   8   8   8   8   8
#     4   8  14  24  39  57  76  98 127 166 209 248
#     4  11  21  30  42  62  88 117 147 179 216 257
#     4   9  17  29  44  59  77 107 145 177 205 244
#     4   9  16  25  39  60  84 106 128 163 212 255
#     4   9  18  32  47  61  81 113 150 184 215 249
#     4   8  14  26  44  62  78 101 136 174 211 252
#     4   9  18  31  43  57  80 111 146 181 211 241
#     4   9  16  28  45  63  83 107 138 176 217 258
#
# _framework density 15.217278
#
# number of rings (size 3 to 8) (size 9 to 14) (size 15 to 20)
#    0.000    3.000    0.000    3.375    0.000    6.250 
#    0.000    2.500    0.000    0.000    0.000    0.000 
#    0.000    1.000    0.000    6.750    0.000    5.125 
#
# Total GULP energy -396615.794271 kJ/mol
# GULP energy per Si atom -12394.243571 kJ/mol
# Density = 1.518264 g / cm^3
# Si number density = 15.217278 Si / 1000 Ang^3
#
#
#
# Elastic Constant Matrix: (Units=GPa)
#
#
# Indices 1 2 3 4 5 6 
#
# 1 67.8114 43.0361 47.2155 0.0000 0.0000 0.0000
# 2 43.0361 96.2410 55.6437 0.0000 0.0000 0.0000
# 3 47.2155 55.6437 87.7595 0.0000 0.0000 0.0000
# 4 0.0000 0.0000 0.0000 15.7200 0.0000 0.0000
# 5 0.0000 0.0000 0.0000 0.0000 0.0983 0.0000
# 6 0.0000 0.0000 0.0000 0.0000 0.0000 21.9657
#
#
#
# Elastic Compliance Matrix: (Units=1/GPa)
#
#
# Indices 1 2 3 4 5 6 
#
# 1 0.025256 -0.005427 -0.010147 0.000000 0.000000 0.000000
# 2 -0.005427 0.017570 -0.008221 0.000000 0.000000 0.000000
# 3 -0.010147 -0.008221 0.022066 0.000000 0.000000 0.000000
# 4 0.000000 0.000000 0.000000 0.063613 0.000000 0.000000
# 5 0.000000 0.000000 0.000000 0.000000 10.174151 0.000000
# 6 0.000000 0.000000 0.000000 0.000000 0.000000 0.045526
#
#
# Mechanical properties :
#
#
# Convention : Reuss Voigt Hill
#
# Bulk Modulus (GPa) = 57.79249 60.40029 59.09639
# Shear Modulus (GPa) = 0.48070 14.61791 7.54930
#
# Velocity S-wave (km/s) = 0.56265 3.10274 2.22975
# Velocity P-wave (km/s) = 6.20345 7.25355 6.74896
#
# Compressibility (1/GPa) = 0.01730329
#
# Stress axis : x y z
#
# Youngs Moduli (GPa) = 39.59424 56.91419 45.31810
#
# Poissons Ratio (x) = 0.30888 0.45985
# Poissons Ratio (y) = 0.21488 0.37254
# Poissons Ratio (z) = 0.40177 0.46787
#
# Static dielectric constant tensor:
#      x y z
#    x 2.832660 0.000000 0.000000 
#    y 0.000000 3.084520 0.000000 
#    z 0.000000 0.000000 2.787350 
# 
# 
# High freq. dielectric constant tensor:
#      x y z
#    x 1.555540 0.000000 0.000000 
#    y 0.000000 1.588130 0.000000 
#    z 0.000000 0.000000 1.554340 
# 
# From -- ./inp_files/16261.got.cif
#   From: 2010.03.12/outbox.cif.g09.slc.cpg/sg35_9_cif.got.tgz:16261.got - 2010.04.14 02:02:04.
