data_PCOD8174850
_publ_section_title
;
Structure prediction by ZEFSAII (Michael W. Deem and Ramdas Pophale) SiO2 
 PCOD8174850
Probable space group: C M C 21
;
_chemical_formula_sum "Si O2"
_cell_formula_units_Z 64
_cell_length_a 8.942165
_cell_length_b 22.577492
_cell_length_c 16.374835
_cell_angle_alpha 90.000000
_cell_angle_beta 90.000000
_cell_angle_gamma 90.000000
_cell_volume 3305.942600
_symmetry_space_group_name_H-M "C M C 21"
_symmetry_group_IT_number 36
_symmetry_cell_setting 'orthorhombic'
loop_
_space_group_symop_operation_xyz
x,y,z
-x,-y,1/2+z
x,-y,1/2+z
-x,y,z
1/2+x,1/2+y,z
1/2-x,1/2-y,1/2+z
1/2+x,1/2-y,1/2+z
1/2-x,1/2+y,z
loop_
_atom_site_type_symbol
_atom_site_label
_atom_site_fract_x
_atom_site_fract_y
_atom_site_fract_z
Si Si1 0.173648 0.468247 0.660100
Si Si2 0.170065 0.237799 0.009831
Si Si3 0.824122 0.779987 0.844539
Si Si4 0.322019 0.418459 0.201910
Si Si5 0.829583 0.087020 0.308693
Si Si6 0.169621 0.966503 0.372968
Si Si7 0.671635 0.400572 0.525585
Si Si8 0.678047 0.791504 0.182825
O O1 0.262607 0.529695 0.641689
O O2 0.211851 0.438696 0.745786
O O3 0.222969 0.416905 0.599494
O O4 0.000000 0.482262 0.653585
O O5 0.184337 0.168052 0.008693
O O6 0.231070 0.260709 0.097912
O O7 0.000000 0.258987 0.999244
O O8 0.258884 0.259511 0.930693
O O9 0.777980 0.848707 0.837524
O O10 0.765061 0.744641 0.763701
O O11 0.000000 0.772071 0.849947
O O12 0.500000 0.414234 0.195011
O O13 0.260646 0.439919 0.290075
O O14 0.250383 0.355915 0.181095
O O15 0.000000 0.089240 0.272799
O O16 0.822544 0.038170 0.381287
O O17 0.246223 0.936209 0.450298
O O18 0.000000 0.944033 0.372556
O O19 0.500000 0.418987 0.543784
O O20 0.500000 0.796070 0.185655
#
# Coordination Sequence:
#
# PCOD8174850 Si02
#       8
#     8   8   8   8   8   8   8   8
#     4  11  22  35  54  83 113 141 177 229 281 329
#     4  10  22  38  57  82 116 154 194 236 282 337
#     4  10  21  37  59  84 116 155 193 234 283 334
#     4  10  20  37  59  81 105 140 184 228 277 340
#     4   9  18  36  57  79 109 147 187 225 272 334
#     4   8  16  31  55  81 102 131 180 230 268 319
#     4  10  19  35  56  78 108 148 187 224 272 332
#     4  10  21  37  55  80 115 154 190 234 287 335
#
# _framework density 19.359079000000001
#
# number of rings (size 3 to 8) (size 9 to 14) (size 15 to 20)
#    0.000    2.250    0.000    3.750    0.000    6.000 
#    0.000    5.625    0.000    0.000    0.000    0.000 
#    0.000    0.000    0.000    0.000    0.000    0.000 
#
# Total GULP energy -396565.285532 kJ/mol
# GULP energy per Si atom -12392.665173 kJ/mol
# Density = 1.931502 g / cm^3
# Si number density = 19.359079 Si / 1000 Ang^3
#
#
#
# Elastic Constant Matrix: (Units=GPa)
#
#
# Indices 1 2 3 4 5 6 
#
# 1 50.5098 36.2835 34.6496 0.0000 0.0000 0.0000
# 2 36.2835 124.3714 55.8834 0.0000 0.0000 0.0000
# 3 34.6496 55.8834 110.4159 0.0000 0.0000 0.0000
# 4 0.0000 0.0000 0.0000 32.3905 0.0000 0.0000
# 5 0.0000 0.0000 0.0000 0.0000 24.4181 0.0000
# 6 0.0000 0.0000 0.0000 0.0000 0.0000 29.2550
#
#
#
# Elastic Compliance Matrix: (Units=1/GPa)
#
#
# Indices 1 2 3 4 5 6 
#
# 1 0.027794 -0.005423 -0.005978 0.000000 0.000000 0.000000
# 2 -0.005423 0.011465 -0.004101 0.000000 0.000000 0.000000
# 3 -0.005978 -0.004101 0.013008 0.000000 0.000000 0.000000
# 4 0.000000 0.000000 0.000000 0.030873 0.000000 0.000000
# 5 0.000000 0.000000 0.000000 0.000000 0.040953 0.000000
# 6 0.000000 0.000000 0.000000 0.000000 0.000000 0.034182
#
#
# Mechanical properties :
#
#
# Convention : Reuss Voigt Hill
#
# Bulk Modulus (GPa) = 47.02598 59.88113 53.45356
# Shear Modulus (GPa) = 25.46258 27.77809 26.62033
#
# Velocity S-wave (km/s) = 3.63061 3.79210 3.71223
# Velocity P-wave (km/s) = 6.47451 7.08324 6.78571
#
# Compressibility (1/GPa) = 0.02126484
#
# Stress axis : x y z
#
# Youngs Moduli (GPa) = 35.97890 87.22128 76.87532
#
# Poissons Ratio (x) = 0.47297 0.45953
# Poissons Ratio (y) = 0.19510 0.31527
# Poissons Ratio (z) = 0.21507 0.35770
#
# Static dielectric constant tensor:
#      x y z
#    x 3.331320 0.000000 0.000000 
#    y 0.000000 3.744900 0.000000 
#    z 0.000000 0.000000 3.733800 
# 
# 
# High freq. dielectric constant tensor:
#      x y z
#    x 1.728870 0.000000 0.000000 
#    y 0.000000 1.769530 0.000000 
#    z 0.000000 0.000000 1.751140 
# 
# From -- ./inp_files/11037.got.cif
#   From: 2010.03.12/outbox.cif.g09.slc.cpg/sg36_6_cif.got.tgz:11037.got - 2010.04.14 02:13:53.
