data_PCOD8174886
_publ_section_title
;
Structure prediction by ZEFSAII (Michael W. Deem and Ramdas Pophale) SiO2 
 PCOD8174886
Probable space group: C M C 21
;
_chemical_formula_sum "Si O2"
_cell_formula_units_Z 64
_cell_length_a 9.001543
_cell_length_b 15.224401
_cell_length_c 24.187742
_cell_angle_alpha 90.000000
_cell_angle_beta 90.000000
_cell_angle_gamma 90.000000
_cell_volume 3314.763152
_symmetry_space_group_name_H-M "C M C 21"
_symmetry_group_IT_number 36
_symmetry_cell_setting 'orthorhombic'
loop_
_space_group_symop_operation_xyz
x,y,z
-x,-y,1/2+z
x,-y,1/2+z
-x,y,z
1/2+x,1/2+y,z
1/2-x,1/2-y,1/2+z
1/2+x,1/2-y,1/2+z
1/2-x,1/2+y,z
loop_
_atom_site_type_symbol
_atom_site_label
_atom_site_fract_x
_atom_site_fract_y
_atom_site_fract_z
Si Si1 0.331864 0.729304 0.433330
Si Si2 0.172907 0.519577 0.821239
Si Si3 0.327650 0.784827 0.317403
Si Si4 0.323694 0.973708 0.045703
Si Si5 0.175833 0.875208 0.746964
Si Si6 0.174911 0.884934 0.620246
Si Si7 0.673614 0.226275 0.543634
Si Si8 0.169783 0.022115 0.432731
O O1 0.500000 0.761468 0.441894
O O2 0.256973 0.771437 0.378504
O O3 0.243218 0.761326 0.486790
O O4 0.322230 0.625682 0.425483
O O5 0.197013 0.616721 0.795739
O O6 0.250474 0.454979 0.779001
O O7 0.246001 0.520672 0.881425
O O8 0.000000 0.495771 0.827150
O O9 0.500000 0.762336 0.324998
O O10 0.262948 0.716115 0.272809
O O11 0.500000 0.982442 0.041610
O O12 0.273846 0.872910 0.058006
O O13 0.263098 0.033270 0.095069
O O14 0.251674 0.007596 0.988701
O O15 0.224887 0.877517 0.683550
O O16 0.000000 0.884332 0.753031
O O17 0.221584 0.792848 0.591984
O O18 0.000000 0.902318 0.613700
O O19 0.500000 0.226641 0.534372
O O20 0.000000 0.988873 0.434638
#
# Coordination Sequence:
#
# PCOD8174886 Si02
#       8
#     8   8   8   8   8   8   8   8
#     4   9  17  33  57  82 111 149 186 224 278 342
#     4  11  22  35  57  89 118 146 189 241 291 337
#     4   9  19  36  57  82 111 149 190 228 284 344
#     4  10  21  37  58  86 119 149 185 237 292 337
#     4  10  21  42  62  78 111 156 196 233 278 343
#     4  10  22  39  61  84 110 151 198 235 277 341
#     4   9  20  37  55  83 115 147 187 233 282 333
#     4  10  19  35  59  84 117 155 191 229 280 345
#
# _framework density 19.307563999999999
#
# number of rings (size 3 to 8) (size 9 to 14) (size 15 to 20)
#    0.000    2.250    1.250    1.125    1.750    3.000 
#    0.000    4.375    0.000    0.000    0.000    0.000 
#    0.000    0.000    0.000    0.000    0.000    0.000 
#
# Total GULP energy -396814.033813 kJ/mol
# GULP energy per Si atom -12400.438557 kJ/mol
# Density = 1.926362 g / cm^3
# Si number density = 19.307564 Si / 1000 Ang^3
#
#
#
# Elastic Constant Matrix: (Units=GPa)
#
#
# Indices 1 2 3 4 5 6 
#
# 1 40.5204 31.0960 40.2349 0.0000 0.0000 0.0000
# 2 31.0960 103.0091 75.0719 0.0000 0.0000 0.0000
# 3 40.2349 75.0719 155.5638 0.0000 0.0000 0.0000
# 4 0.0000 0.0000 0.0000 20.0502 0.0000 0.0000
# 5 0.0000 0.0000 0.0000 0.0000 29.8425 0.0000
# 6 0.0000 0.0000 0.0000 0.0000 0.0000 26.0635
#
#
#
# Elastic Compliance Matrix: (Units=1/GPa)
#
#
# Indices 1 2 3 4 5 6 
#
# 1 0.035623 -0.006230 -0.006207 0.000000 0.000000 0.000000
# 2 -0.006230 0.016064 -0.006141 0.000000 0.000000 0.000000
# 3 -0.006207 -0.006141 0.010997 0.000000 0.000000 0.000000
# 4 0.000000 0.000000 0.000000 0.049875 0.000000 0.000000
# 5 0.000000 0.000000 0.000000 0.000000 0.033509 0.000000
# 6 0.000000 0.000000 0.000000 0.000000 0.000000 0.038368
#
#
# Mechanical properties :
#
#
# Convention : Reuss Voigt Hill
#
# Bulk Modulus (GPa) = 39.17220 65.76655 52.46937
# Shear Modulus (GPa) = 21.72952 25.37059 23.55006
#
# Velocity S-wave (km/s) = 3.35840 3.62888 3.49626
# Velocity P-wave (km/s) = 5.94735 7.18992 6.59795
#
# Compressibility (1/GPa) = 0.02552831
#
# Stress axis : x y z
#
# Youngs Moduli (GPa) = 28.07148 62.25117 90.93380
#
# Poissons Ratio (x) = 0.38784 0.56443
# Poissons Ratio (y) = 0.17489 0.55840
# Poissons Ratio (z) = 0.17424 0.38227
#
# Static dielectric constant tensor:
#      x y z
#    x 3.420460 0.000000 0.000000 
#    y 0.000000 3.609300 0.000000 
#    z 0.000000 0.000000 3.637290 
# 
# 
# High freq. dielectric constant tensor:
#      x y z
#    x 1.736570 0.000000 0.000000 
#    y 0.000000 1.758240 0.000000 
#    z 0.000000 0.000000 1.751290 
# 
# From -- ./inp_files/16641.got.cif
#   From: 2010.03.12/outbox.cif.g09.slc.cpg/sg36_9_cif.got.tgz:16641.got - 2010.04.14 02:13:53.
