data_PCOD8174627
_publ_section_title
;
Structure prediction by ZEFSAII (Michael W. Deem and Ramdas Pophale) SiO2 
 PCOD8174627
Probable space group: C M C 21
;
_chemical_formula_sum "Si O2"
_cell_formula_units_Z 64
_cell_length_a 9.007619
_cell_length_b 24.316131
_cell_length_c 14.546739
_cell_angle_alpha 90.000000
_cell_angle_beta 90.000000
_cell_angle_gamma 90.000000
_cell_volume 3186.178696
_symmetry_space_group_name_H-M "C M C 21"
_symmetry_group_IT_number 36
_symmetry_cell_setting 'orthorhombic'
loop_
_space_group_symop_operation_xyz
x,y,z
-x,-y,1/2+z
x,-y,1/2+z
-x,y,z
1/2+x,1/2+y,z
1/2-x,1/2-y,1/2+z
1/2+x,1/2-y,1/2+z
1/2-x,1/2+y,z
loop_
_atom_site_type_symbol
_atom_site_label
_atom_site_fract_x
_atom_site_fract_y
_atom_site_fract_z
Si Si1 0.831947 0.890043 0.990380
Si Si2 0.327876 0.992868 0.903930
Si Si3 0.333731 0.335385 0.800643
Si Si4 0.174504 0.226038 0.793974
Si Si5 0.832470 0.564598 0.224896
Si Si6 0.824055 0.308265 0.116906
Si Si7 0.175634 0.797216 0.500302
Si Si8 0.830658 0.590015 0.025410
O O1 0.763833 0.947378 0.958440
O O2 0.829042 0.845869 0.908796
O O3 0.000000 0.900431 0.024040
O O4 0.734766 0.863971 0.070990
O O5 0.500000 0.984899 0.929834
O O6 0.301761 0.987376 0.793238
O O7 0.275297 0.053094 0.939004
O O8 0.500000 0.318258 0.769099
O O9 0.216954 0.288878 0.774290
O O10 0.287891 0.389486 0.746593
O O11 0.260298 0.189294 0.719892
O O12 0.230494 0.209778 0.895500
O O13 0.000000 0.218075 0.781942
O O14 0.814755 0.551293 0.116792
O O15 0.000000 0.586147 0.245192
O O16 0.000000 0.310344 0.118954
O O17 0.767060 0.253535 0.062931
O O18 0.236413 0.854801 0.538249
O O19 0.000000 0.799029 0.504027
O O20 0.000000 0.608516 0.010940
#
# Coordination Sequence:
#
# PCOD8174627 Si02
#       8
#     8   8   8   8   8   8   8   8
#     4  10  20  35  57  83 111 144 187 237 286 338
#     4   9  19  37  58  81 112 148 190 241 290 339
#     4  10  19  32  54  83 112 144 189 237 279 334
#     4  11  22  37  55  81 117 155 190 231 289 348
#     4   9  18  34  57  82 110 148 191 238 292 339
#     4  11  22  38  59  86 116 153 194 234 287 349
#     4  10  23  40  58  82 119 156 188 233 291 347
#     4  10  21  37  58  84 113 150 197 241 286 342
#
# _framework density 20.086756999999999
#
# number of rings (size 3 to 8) (size 9 to 14) (size 15 to 20)
#    0.000    2.000    1.250    2.250    0.000    6.000 
#    2.250    0.000    0.000    0.000    0.000    0.000 
#    0.000    0.000    0.000    0.000    0.000    0.000 
#
# Total GULP energy -396731.706494 kJ/mol
# GULP energy per Si atom -12397.865828 kJ/mol
# Density = 2.004104 g / cm^3
# Si number density = 20.086757 Si / 1000 Ang^3
#
#
#
# Elastic Constant Matrix: (Units=GPa)
#
#
# Indices 1 2 3 4 5 6 
#
# 1 61.9035 11.3853 21.8236 0.0000 0.0000 0.0000
# 2 11.3853 44.3984 8.0192 0.0000 0.0000 0.0000
# 3 21.8236 8.0192 92.5852 0.0000 0.0000 0.0000
# 4 0.0000 0.0000 0.0000 24.6964 0.0000 0.0000
# 5 0.0000 0.0000 0.0000 0.0000 27.8139 0.0000
# 6 0.0000 0.0000 0.0000 0.0000 0.0000 26.5806
#
#
#
# Elastic Compliance Matrix: (Units=1/GPa)
#
#
# Indices 1 2 3 4 5 6 
#
# 1 0.018283 -0.003972 -0.003965 0.000000 0.000000 0.000000
# 2 -0.003972 0.023744 -0.001120 0.000000 0.000000 0.000000
# 3 -0.003965 -0.001120 0.011833 0.000000 0.000000 0.000000
# 4 0.000000 0.000000 0.000000 0.040492 0.000000 0.000000
# 5 0.000000 0.000000 0.000000 0.000000 0.035953 0.000000
# 6 0.000000 0.000000 0.000000 0.000000 0.000000 0.037621
#
#
# Mechanical properties :
#
#
# Convention : Reuss Voigt Hill
#
# Bulk Modulus (GPa) = 27.97682 31.26037 29.61859
# Shear Modulus (GPa) = 25.25811 26.32879 25.79345
#
# Velocity S-wave (km/s) = 3.54990 3.62436 3.58732
# Velocity P-wave (km/s) = 5.54623 5.75423 5.65118
#
# Compressibility (1/GPa) = 0.03574387
#
# Stress axis : x y z
#
# Youngs Moduli (GPa) = 54.69644 42.11541 84.51217
#
# Poissons Ratio (x) = 0.16729 0.33513
# Poissons Ratio (y) = 0.21726 0.09468
# Poissons Ratio (z) = 0.21690 0.04718
#
# Static dielectric constant tensor:
#      x y z
#    x 3.591520 0.000000 0.000000 
#    y 0.000000 3.358280 0.000000 
#    z 0.000000 0.000000 3.941310 
# 
# 
# High freq. dielectric constant tensor:
#      x y z
#    x 1.782370 0.000000 0.000000 
#    y 0.000000 1.758950 0.000000 
#    z 0.000000 0.000000 1.791670 
# 
# From -- ./inp_files/10886.got.cif
#   From: 2010.03.12/outbox.cif.g09.slc.cpg/sg36_6_cif.got.tgz:10886.got - 2010.04.14 02:13:53.
