data_PCOD8174475
_publ_section_title
;
Structure prediction by ZEFSAII (Michael W. Deem and Ramdas Pophale) SiO2 
 PCOD8174475
Probable space group: C M C 21
;
_chemical_formula_sum "Si O2"
_cell_formula_units_Z 48
_cell_length_a 17.346722
_cell_length_b 38.291485
_cell_length_c 5.201074
_cell_angle_alpha 90.000000
_cell_angle_beta 90.000000
_cell_angle_gamma 90.000000
_cell_volume 3454.718460
_symmetry_space_group_name_H-M "C M C 21"
_symmetry_group_IT_number 36
_symmetry_cell_setting 'orthorhombic'
loop_
_space_group_symop_operation_xyz
x,y,z
-x,-y,1/2+z
x,-y,1/2+z
-x,y,z
1/2+x,1/2+y,z
1/2-x,1/2-y,1/2+z
1/2+x,1/2-y,1/2+z
1/2-x,1/2+y,z
loop_
_atom_site_type_symbol
_atom_site_label
_atom_site_fract_x
_atom_site_fract_y
_atom_site_fract_z
Si Si1 0.910479 0.273728 0.538730
Si Si2 0.408034 0.479926 0.213276
Si Si3 0.675700 0.220461 0.550500
Si Si4 0.091469 0.901385 0.220752
Si Si5 0.091546 0.860246 0.720359
Si Si6 0.667700 0.288385 0.823772
O O1 0.863907 0.294403 0.311734
O O2 0.894467 0.232058 0.502946
O O3 0.000000 0.281881 0.510283
O O4 0.882827 0.286242 0.816680
O O5 0.376647 0.500232 0.462313
O O6 0.500000 0.479360 0.213597
O O7 0.374884 0.440598 0.214834
O O8 0.692580 0.262278 0.589446
O O9 0.756688 0.201666 0.490555
O O10 0.120880 0.882025 0.475670
O O11 0.000000 0.903323 0.219546
O O12 0.120836 0.880341 0.973005
O O13 0.129863 0.822488 0.704773
O O14 0.000000 0.855659 0.718682
#
# Coordination Sequence:
#
# PCOD8174475 Si02
#       6
#     8   8   8   8   8   8
#     4  10  19  30  44  60  75  94 125 165 204 242
#     4   9  15  24  40  53  68  96 124 152 190 228
#     4  10  20  31  44  58  78  97 129 168 194 252
#     4   9  18  29  36  56  79  94 124 161 194 234
#     4  10  20  28  41  56  78 103 124 160 205 251
#     4  10  20  32  43  59  76 104 129 158 209 251
#
# _framework density 13.89404
#
# number of rings (size 3 to 8) (size 9 to 14) (size 15 to 20)
#    1.000    1.333    1.667    2.000    2.333    4.000 
#    0.000    0.000    0.000    0.000    0.000    0.000 
#    0.000    0.000    0.000    0.000    0.000    0.000 
#
# Total GULP energy -297453.031518 kJ/mol
# GULP energy per Si atom -12393.876313 kJ/mol
# Density = 1.386242 g / cm^3
# Si number density = 13.894040 Si / 1000 Ang^3
#
#
#
# Elastic Constant Matrix: (Units=GPa)
#
#
# Indices 1 2 3 4 5 6 
#
# 1 42.4051 -0.1080 13.1949 0.0000 0.0000 0.0000
# 2 -0.1080 57.0925 18.8510 0.0000 0.0000 0.0000
# 3 13.1949 18.8510 104.3663 0.0000 0.0000 0.0000
# 4 0.0000 0.0000 0.0000 20.0967 0.0000 0.0000
# 5 0.0000 0.0000 0.0000 0.0000 13.7783 0.0000
# 6 0.0000 0.0000 0.0000 0.0000 0.0000 6.6096
#
#
#
# Elastic Compliance Matrix: (Units=1/GPa)
#
#
# Indices 1 2 3 4 5 6 
#
# 1 0.024618 0.001142 -0.003319 0.000000 0.000000 0.000000
# 2 0.001142 0.018679 -0.003518 0.000000 0.000000 0.000000
# 3 -0.003319 -0.003518 0.010637 0.000000 0.000000 0.000000
# 4 0.000000 0.000000 0.000000 0.049759 0.000000 0.000000
# 5 0.000000 0.000000 0.000000 0.000000 0.072578 0.000000
# 6 0.000000 0.000000 0.000000 0.000000 0.000000 0.151295
#
#
# Mechanical properties :
#
#
# Convention : Reuss Voigt Hill
#
# Bulk Modulus (GPa) = 23.50494 29.74886 26.62690
# Shear Modulus (GPa) = 14.15884 19.55865 16.85875
#
# Velocity S-wave (km/s) = 3.19573 3.75600 3.48714
# Velocity P-wave (km/s) = 5.52910 6.34569 5.95142
#
# Compressibility (1/GPa) = 0.04254426
#
# Stress axis : x y z
#
# Youngs Moduli (GPa) = 40.62122 53.53527 94.01402
#
# Poissons Ratio (x) = -0.06116 0.31201
# Poissons Ratio (y) = -0.04640 0.33077
# Poissons Ratio (z) = 0.13481 0.18835
#
# Static dielectric constant tensor:
#      x y z
#    x 2.333680 0.000000 0.000000 
#    y 0.000000 2.540400 0.000000 
#    z 0.000000 0.000000 2.917990 
# 
# 
# High freq. dielectric constant tensor:
#      x y z
#    x 1.479980 0.000000 0.000000 
#    y 0.000000 1.495620 0.000000 
#    z 0.000000 0.000000 1.552060 
# 
# From -- ./inp_files/894.got.cif
#   From: 2010.03.12/outbox.cif.g09.slc.cpg/sg36_1_cif.got.tgz:894.got - 2010.04.14 02:13:53.
