data_PCOD8174883
_publ_section_title
;
Structure prediction by ZEFSAII (Michael W. Deem and Ramdas Pophale) SiO2 
 PCOD8174883
Probable space group: C M C 21
;
_chemical_formula_sum "Si O2"
_cell_formula_units_Z 64
_cell_length_a 9.223410
_cell_length_b 16.055380
_cell_length_c 21.694401
_cell_angle_alpha 90.000000
_cell_angle_beta 90.000000
_cell_angle_gamma 90.000000
_cell_volume 3212.623018
_symmetry_space_group_name_H-M "C M C 21"
_symmetry_group_IT_number 36
_symmetry_cell_setting 'orthorhombic'
loop_
_space_group_symop_operation_xyz
x,y,z
-x,-y,1/2+z
x,-y,1/2+z
-x,y,z
1/2+x,1/2+y,z
1/2-x,1/2-y,1/2+z
1/2+x,1/2-y,1/2+z
1/2-x,1/2+y,z
loop_
_atom_site_type_symbol
_atom_site_label
_atom_site_fract_x
_atom_site_fract_y
_atom_site_fract_z
Si Si1 0.842369 0.823654 0.544580
Si Si2 0.662387 0.051004 0.515783
Si Si3 0.345244 0.554730 0.940184
Si Si4 0.835914 0.574395 0.128327
Si Si5 0.833998 0.860525 0.315866
Si Si6 0.671506 0.176842 0.342932
Si Si7 0.329481 0.983205 0.761447
Si Si8 0.671429 0.693831 0.471910
O O1 0.874150 0.906789 0.507011
O O2 0.765605 0.847572 0.609219
O O3 0.729069 0.778722 0.500120
O O4 0.000000 0.779073 0.556753
O O5 0.500000 0.083850 0.504766
O O6 0.774719 0.126787 0.522788
O O7 0.709776 0.006510 0.451026
O O8 0.669856 0.996664 0.576895
O O9 0.500000 0.509331 0.922674
O O10 0.308558 0.622654 0.888446
O O11 0.778226 0.537374 0.192311
O O12 0.000000 0.607863 0.136138
O O13 0.788324 0.763231 0.306064
O O14 0.000000 0.873159 0.295844
O O15 0.741156 0.928335 0.278755
O O16 0.500000 0.177806 0.357012
O O17 0.718233 0.094971 0.304153
O O18 0.759143 0.173670 0.406111
O O19 0.500000 0.996623 0.765235
O O20 0.500000 0.696675 0.466077
#
# Coordination Sequence:
#
# PCOD8174883 Si02
#       8
#     8   8   8   8   8   8   8   8
#     4  10  19  35  59  83 112 149 187 232 293 353
#     4  10  20  34  55  80 112 150 189 234 292 351
#     4   9  17  32  54  80 110 141 180 228 283 347
#     4   9  20  40  59  81 114 153 198 244 291 351
#     4  10  20  36  58  84 118 155 195 241 292 354
#     4  10  21  40  62  88 121 161 199 242 302 363
#     4  10  22  40  62  85 118 160 204 249 298 354
#     4  12  23  35  55  87 121 149 190 244 297 357
#
# _framework density 19.921417000000002
#
# number of rings (size 3 to 8) (size 9 to 14) (size 15 to 20)
#    0.000    2.000    1.250    2.625    0.000    5.000 
#    2.250    0.000    0.000    0.000    0.000    0.000 
#    0.000    0.000    0.000    0.000    0.000    0.000 
#
# Total GULP energy -396439.678232 kJ/mol
# GULP energy per Si atom -12388.739945 kJ/mol
# Density = 1.987608 g / cm^3
# Si number density = 19.921417 Si / 1000 Ang^3
#
#
#
# Elastic Constant Matrix: (Units=GPa)
#
#
# Indices 1 2 3 4 5 6 
#
# 1 109.2010 42.6706 34.1210 0.0000 0.0000 0.0000
# 2 42.6706 81.4315 20.7993 0.0000 0.0000 0.0000
# 3 34.1210 20.7993 60.1302 0.0000 0.0000 0.0000
# 4 0.0000 0.0000 0.0000 18.2771 0.0000 0.0000
# 5 0.0000 0.0000 0.0000 0.0000 21.4376 0.0000
# 6 0.0000 0.0000 0.0000 0.0000 0.0000 28.3223
#
#
#
# Elastic Compliance Matrix: (Units=1/GPa)
#
#
# Indices 1 2 3 4 5 6 
#
# 1 0.012986 -0.005400 -0.005501 0.000000 0.000000 0.000000
# 2 -0.005400 0.015716 -0.002372 0.000000 0.000000 0.000000
# 3 -0.005501 -0.002372 0.020573 0.000000 0.000000 0.000000
# 4 0.000000 0.000000 0.000000 0.054713 0.000000 0.000000
# 5 0.000000 0.000000 0.000000 0.000000 0.046647 0.000000
# 6 0.000000 0.000000 0.000000 0.000000 0.000000 0.035308
#
#
# Mechanical properties :
#
#
# Convention : Reuss Voigt Hill
#
# Bulk Modulus (GPa) = 43.99741 49.54936 46.77339
# Shear Modulus (GPa) = 22.72054 23.81886 23.26970
#
# Velocity S-wave (km/s) = 3.38080 3.46156 3.42142
# Velocity P-wave (km/s) = 6.11336 6.39554 6.25604
#
# Compressibility (1/GPa) = 0.02272861
#
# Stress axis : x y z
#
# Youngs Moduli (GPa) = 77.00393 63.63090 48.60787
#
# Poissons Ratio (x) = 0.34359 0.26741
# Poissons Ratio (y) = 0.41580 0.11530
# Poissons Ratio (z) = 0.42362 0.15093
#
# Static dielectric constant tensor:
#      x y z
#    x 3.925910 0.000000 0.000000 
#    y 0.000000 3.718670 0.000000 
#    z 0.000000 0.000000 3.458310 
# 
# 
# High freq. dielectric constant tensor:
#      x y z
#    x 1.780350 0.000000 0.000000 
#    y 0.000000 1.774960 0.000000 
#    z 0.000000 0.000000 1.756240 
# 
# From -- ./inp_files/15750.got.cif
#   From: 2010.03.12/outbox.cif.g09.slc.cpg/sg36_8_cif.got.tgz:15750.got - 2010.04.14 02:13:53.
