data_PCOD8174079
_publ_section_title
;
Structure prediction by ZEFSAII (Michael W. Deem and Ramdas Pophale) SiO2 
 PCOD8174079
Probable space group: C M M 2
;
_chemical_formula_sum "Si O2"
_cell_formula_units_Z 48
_cell_length_a 15.131566
_cell_length_b 14.449571
_cell_length_c 10.071194
_cell_angle_alpha 90.000000
_cell_angle_beta 90.000000
_cell_angle_gamma 90.000000
_cell_volume 2202.012559
_symmetry_space_group_name_H-M "C M M 2"
_symmetry_group_IT_number 35
_symmetry_cell_setting 'orthorhombic'
loop_
_space_group_symop_operation_xyz
x,y,z
-x,-y,z
-x,y,z
x,-y,z
1/2+x,1/2+y,z
1/2-x,1/2-y,z
1/2-x,1/2+y,z
1/2+x,1/2-y,z
loop_
_atom_site_type_symbol
_atom_site_label
_atom_site_fract_x
_atom_site_fract_y
_atom_site_fract_z
Si Si1 0.715684 0.110398 0.044020
Si Si2 0.355029 0.898092 0.317538
Si Si3 0.103164 0.607872 0.793523
Si Si4 0.597303 0.773810 0.546880
Si Si5 0.403229 0.609483 0.132085
Si Si6 0.340585 0.399169 0.417912
O O1 0.657426 0.145105 0.169997
O O2 0.817300 0.150312 0.051620
O O3 0.719624 0.000000 0.054017
O O4 0.665240 0.143861 0.912809
O O5 0.411195 0.829904 0.408775
O O6 0.260444 0.908403 0.383275
O O7 0.400307 0.000000 0.311292
O O8 0.119337 0.500000 0.765404
O O9 0.136678 0.662498 0.663664
O O10 0.000000 0.625760 0.827048
O O11 0.500000 0.742784 0.589060
O O12 0.652202 0.679148 0.531049
O O13 0.500000 0.647551 0.082479
O O14 0.401066 0.500000 0.112905
O O15 0.395106 0.632687 0.288217
O O16 0.374711 0.500000 0.469011
#
# Coordination Sequence:
#
# PCOD8174079 Si02
#       6
#     8   8   8   8   8   8
#     4   8  15  29  50  77 109 148 188 225 276 337
#     4   9  18  33  54  81 111 142 183 233 279 332
#     4   9  18  32  49  75 116 159 192 226 276 336
#     4  11  21  31  50  82 116 150 188 232 282 334
#     4   8  13  24  47  80 112 139 175 227 282 334
#     4   9  18  33  53  78 111 149 187 231 283 335
#
# _framework density 21.798242999999999
#
# number of rings (size 3 to 8) (size 9 to 14) (size 15 to 20)
#    0.000    3.000    0.000    3.500    0.000    2.667 
#    0.000    1.667    0.000    8.000    0.000   19.833 
#    0.000   49.333    0.000    0.333    0.000    0.667 
#
# Total GULP energy -297371.958289 kJ/mol
# GULP energy per Si atom -12390.498262 kJ/mol
# Density = 2.174863 g / cm^3
# Si number density = 21.798243 Si / 1000 Ang^3
#
#
#
# Elastic Constant Matrix: (Units=GPa)
#
#
# Indices 1 2 3 4 5 6 
#
# 1 85.4436 21.6071 53.9523 0.0000 0.0000 0.0000
# 2 21.6071 83.3278 58.2945 0.0000 0.0000 0.0000
# 3 53.9523 58.2945 137.0006 0.0000 0.0000 0.0000
# 4 0.0000 0.0000 0.0000 21.2010 0.0000 0.0000
# 5 0.0000 0.0000 0.0000 0.0000 30.1377 0.0000
# 6 0.0000 0.0000 0.0000 0.0000 0.0000 60.1819
#
#
#
# Elastic Compliance Matrix: (Units=1/GPa)
#
#
# Indices 1 2 3 4 5 6 
#
# 1 0.015585 0.000359 -0.006290 0.000000 0.000000 0.000000
# 2 0.000359 0.017096 -0.007416 0.000000 0.000000 0.000000
# 3 -0.006290 -0.007416 0.012932 0.000000 0.000000 0.000000
# 4 0.000000 0.000000 0.000000 0.047168 0.000000 0.000000
# 5 0.000000 0.000000 0.000000 0.000000 0.033181 0.000000
# 6 0.000000 0.000000 0.000000 0.000000 0.000000 0.016616
#
#
# Mechanical properties :
#
#
# Convention : Reuss Voigt Hill
#
# Bulk Modulus (GPa) = 52.85768 63.71999 58.28884
# Shear Modulus (GPa) = 28.47759 33.76535 31.12147
#
# Velocity S-wave (km/s) = 3.61836 3.94000 3.78260
# Velocity P-wave (km/s) = 6.46204 7.07059 6.77315
#
# Compressibility (1/GPa) = 0.01891873
#
# Stress axis : x y z
#
# Youngs Moduli (GPa) = 64.16551 58.49484 77.32807
#
# Poissons Ratio (x) = -0.02103 0.48642
# Poissons Ratio (y) = -0.02307 0.57345
# Poissons Ratio (z) = 0.40362 0.43379
#
# Static dielectric constant tensor:
#      x y z
#    x 4.064980 0.000000 0.000000 
#    y 0.000000 4.228050 0.000000 
#    z 0.000000 0.000000 3.894870 
# 
# 
# High freq. dielectric constant tensor:
#      x y z
#    x 1.854340 0.000000 0.000000 
#    y 0.000000 1.844710 0.000000 
#    z 0.000000 0.000000 1.821270 
# 
# From -- ./inp_files/12873.got.cif
#   From: 2010.03.12/outbox.cif.g09.slc.cpg/sg35_7_cif.got.tgz:12873.got - 2010.04.14 02:02:04.
