data_PCOD8174321
_publ_section_title
;
Structure prediction by ZEFSAII (Michael W. Deem and Ramdas Pophale) SiO2 
 PCOD8174321
Probable space group: C M C 21
;
_chemical_formula_sum "Si O2"
_cell_formula_units_Z 64
_cell_length_a 8.821851
_cell_length_b 28.761988
_cell_length_c 12.622819
_cell_angle_alpha 90.000000
_cell_angle_beta 90.000000
_cell_angle_gamma 90.000000
_cell_volume 3202.838010
_symmetry_space_group_name_H-M "C M C 21"
_symmetry_group_IT_number 36
_symmetry_cell_setting 'orthorhombic'
loop_
_space_group_symop_operation_xyz
x,y,z
-x,-y,1/2+z
x,-y,1/2+z
-x,y,z
1/2+x,1/2+y,z
1/2-x,1/2-y,1/2+z
1/2+x,1/2-y,1/2+z
1/2-x,1/2+y,z
loop_
_atom_site_type_symbol
_atom_site_label
_atom_site_fract_x
_atom_site_fract_y
_atom_site_fract_z
Si Si1 0.677396 0.986291 0.467920
Si Si2 0.828310 0.353437 0.422046
Si Si3 0.319707 0.835227 0.728494
Si Si4 0.677078 0.574840 0.542809
Si Si5 0.327377 0.926594 0.262321
Si Si6 0.176410 0.089731 0.096191
Si Si7 0.673620 0.767840 0.545623
Si Si8 0.819623 0.173702 0.454522
O O1 0.500000 0.986522 0.487020
O O2 0.718985 0.961408 0.357255
O O3 0.752985 0.960598 0.569187
O O4 0.739444 0.038773 0.465042
O O5 0.807107 0.372893 0.302934
O O6 0.704168 0.377867 0.494925
O O7 0.807276 0.298003 0.436084
O O8 0.000000 0.367473 0.460824
O O9 0.500000 0.837750 0.727396
O O10 0.255350 0.886220 0.697729
O O11 0.256566 0.796439 0.644724
O O12 0.259421 0.821219 0.842093
O O13 0.500000 0.568639 0.526322
O O14 0.717548 0.564869 0.664565
O O15 0.731241 0.626428 0.511633
O O16 0.500000 0.935565 0.225981
O O17 0.000000 0.083835 0.120091
O O18 0.500000 0.759905 0.573541
O O19 0.744059 0.716835 0.525487
O O20 0.000000 0.176458 0.439086
#
# Coordination Sequence:
#
# PCOD8174321 Si02
#       8
#     8   8   8   8   8   8   8   8
#     4  10  21  39  61  82 107 143 188 233 276 330
#     4   8  15  31  55  82 110 143 184 227 271 322
#     4  10  20  36  58  83 112 149 191 233 280 334
#     4  11  24  38  54  80 115 150 183 225 278 334
#     4   9  19  36  58  82 108 141 182 229 280 331
#     4  10  18  31  55  85 113 140 176 226 279 330
#     4   8  16  34  58  80 108 147 188 230 276 326
#     4  10  22  39  55  78 115 153 188 231 282 331
#
# _framework density 19.982278999999998
#
# number of rings (size 3 to 8) (size 9 to 14) (size 15 to 20)
#    0.000    2.500    0.000    3.750    0.000    5.500 
#    0.000    5.625    0.000    0.000    0.000    0.000 
#    0.000    0.000    0.000    0.000    0.000    0.000 
#
# Total GULP energy -396611.006463 kJ/mol
# GULP energy per Si atom -12394.093952 kJ/mol
# Density = 1.993680 g / cm^3
# Si number density = 19.982279 Si / 1000 Ang^3
#
#
#
# Elastic Constant Matrix: (Units=GPa)
#
#
# Indices 1 2 3 4 5 6 
#
# 1 69.8085 41.7830 30.6352 0.0000 0.0000 0.0000
# 2 41.7830 145.8554 49.6539 0.0000 0.0000 0.0000
# 3 30.6352 49.6539 93.4254 0.0000 0.0000 0.0000
# 4 0.0000 0.0000 0.0000 25.9236 0.0000 0.0000
# 5 0.0000 0.0000 0.0000 0.0000 31.2547 0.0000
# 6 0.0000 0.0000 0.0000 0.0000 0.0000 24.7908
#
#
#
# Elastic Compliance Matrix: (Units=1/GPa)
#
#
# Indices 1 2 3 4 5 6 
#
# 1 0.018410 -0.003930 -0.003948 0.000000 0.000000 0.000000
# 2 -0.003930 0.009209 -0.003606 0.000000 0.000000 0.000000
# 3 -0.003948 -0.003606 0.013915 0.000000 0.000000 0.000000
# 4 0.000000 0.000000 0.000000 0.038575 0.000000 0.000000
# 5 0.000000 0.000000 0.000000 0.000000 0.031995 0.000000
# 6 0.000000 0.000000 0.000000 0.000000 0.000000 0.040338
#
#
# Mechanical properties :
#
#
# Convention : Reuss Voigt Hill
#
# Bulk Modulus (GPa) = 53.86142 61.47040 57.66591
# Shear Modulus (GPa) = 27.53332 28.86163 28.19747
#
# Velocity S-wave (km/s) = 3.71602 3.80460 3.76057
# Velocity P-wave (km/s) = 6.73979 7.08020 6.91209
#
# Compressibility (1/GPa) = 0.01856616
#
# Stress axis : x y z
#
# Youngs Moduli (GPa) = 54.31947 108.58391 71.86531
#
# Poissons Ratio (x) = 0.42670 0.28373
# Poissons Ratio (y) = 0.21346 0.25915
# Poissons Ratio (z) = 0.21446 0.39156
#
# Static dielectric constant tensor:
#      x y z
#    x 3.397880 0.000000 0.000000 
#    y 0.000000 3.990920 0.000000 
#    z 0.000000 0.000000 3.455710 
# 
# 
# High freq. dielectric constant tensor:
#      x y z
#    x 1.763840 0.000000 0.000000 
#    y 0.000000 1.785600 0.000000 
#    z 0.000000 0.000000 1.761020 
# 
# From -- ./inp_files/7071.got.cif
#   From: 2010.03.12/outbox.cif.g09.slc.cpg/sg36_4_cif.got.tgz:7071.got - 2010.04.14 02:13:53.
