data_PCOD8174663
_publ_section_title
;
Structure prediction by ZEFSAII (Michael W. Deem and Ramdas Pophale) SiO2 
 PCOD8174663
Probable space group: C M C 21
;
_chemical_formula_sum "Si O2"
_cell_formula_units_Z 48
_cell_length_a 9.212716
_cell_length_b 30.214612
_cell_length_c 9.509862
_cell_angle_alpha 90.000000
_cell_angle_beta 90.000000
_cell_angle_gamma 90.000000
_cell_volume 2647.152247
_symmetry_space_group_name_H-M "C M C 21"
_symmetry_group_IT_number 36
_symmetry_cell_setting 'orthorhombic'
loop_
_space_group_symop_operation_xyz
x,y,z
-x,-y,1/2+z
x,-y,1/2+z
-x,y,z
1/2+x,1/2+y,z
1/2-x,1/2-y,1/2+z
1/2+x,1/2-y,1/2+z
1/2-x,1/2+y,z
loop_
_atom_site_type_symbol
_atom_site_label
_atom_site_fract_x
_atom_site_fract_y
_atom_site_fract_z
Si Si1 0.828492 0.963325 0.502760
Si Si2 0.830035 0.383857 0.001264
Si Si3 0.169796 0.112136 0.211272
Si Si4 0.326874 0.453039 0.183192
Si Si5 0.667704 0.783057 0.975225
Si Si6 0.168116 0.787681 0.695035
O O1 0.773734 0.920613 0.589546
O O2 0.771367 0.962217 0.342389
O O3 0.000000 0.963455 0.499752
O O4 0.773664 0.007031 0.583197
O O5 0.751583 0.409116 0.128219
O O6 0.803638 0.332195 0.034399
O O7 0.000000 0.395625 0.995663
O O8 0.758737 0.397452 0.852903
O O9 0.199108 0.161448 0.153238
O O10 0.000000 0.104343 0.246098
O O11 0.500000 0.446563 0.178414
O O12 0.500000 0.775703 0.942777
O O13 0.728791 0.745705 0.078856
O O14 0.752046 0.774306 0.834549
O O15 0.000000 0.779377 0.721152
#
# Coordination Sequence:
#
# PCOD8174663 Si02
#       6
#     8   8   8   8   8   8
#     4   9  18  32  53  78 100 124 159 207 254 291
#     4  10  20  34  50  71 102 136 166 199 243 291
#     4   9  17  33  55  76  98 126 164 207 248 291
#     4  10  19  33  53  75  98 127 164 203 246 294
#     4   9  19  34  50  72 103 133 162 202 248 290
#     4   9  18  32  51  74  99 130 167 204 243 291
#
# _framework density 18.132694000000001
#
# number of rings (size 3 to 8) (size 9 to 14) (size 15 to 20)
#    0.000    2.667    0.000    1.500    0.000    5.333 
#    0.000    5.833    0.000    0.000    0.000    0.000 
#    0.000    0.000    0.000    0.000    0.000    0.000 
#
# Total GULP energy -297583.932693 kJ/mol
# GULP energy per Si atom -12399.330529 kJ/mol
# Density = 1.809142 g / cm^3
# Si number density = 18.132694 Si / 1000 Ang^3
#
#
#
# Elastic Constant Matrix: (Units=GPa)
#
#
# Indices 1 2 3 4 5 6 
#
# 1 41.2874 32.3964 35.0982 0.0000 0.0000 0.0000
# 2 32.3964 97.6176 62.1178 0.0000 0.0000 0.0000
# 3 35.0982 62.1178 109.3727 0.0000 0.0000 0.0000
# 4 0.0000 0.0000 0.0000 50.1287 0.0000 0.0000
# 5 0.0000 0.0000 0.0000 0.0000 23.1269 0.0000
# 6 0.0000 0.0000 0.0000 0.0000 0.0000 27.7289
#
#
#
# Elastic Compliance Matrix: (Units=1/GPa)
#
#
# Indices 1 2 3 4 5 6 
#
# 1 0.036320 -0.007261 -0.007531 0.000000 0.000000 0.000000
# 2 -0.007261 0.017493 -0.007605 0.000000 0.000000 0.000000
# 3 -0.007531 -0.007605 0.015879 0.000000 0.000000 0.000000
# 4 0.000000 0.000000 0.000000 0.019949 0.000000 0.000000
# 5 0.000000 0.000000 0.000000 0.000000 0.043240 0.000000
# 6 0.000000 0.000000 0.000000 0.000000 0.000000 0.036063
#
#
# Mechanical properties :
#
#
# Convention : Reuss Voigt Hill
#
# Bulk Modulus (GPa) = 40.16469 56.38919 48.27694
# Shear Modulus (GPa) = 22.51856 28.10792 25.31324
#
# Velocity S-wave (km/s) = 3.52785 3.94143 3.74036
# Velocity P-wave (km/s) = 6.22839 7.20269 6.73319
#
# Compressibility (1/GPa) = 0.02489749
#
# Stress axis : x y z
#
# Youngs Moduli (GPa) = 27.53273 57.16501 62.97540
#
# Poissons Ratio (x) = 0.41508 0.47430
# Poissons Ratio (y) = 0.19992 0.47893
# Poissons Ratio (z) = 0.20736 0.43474
#
# Static dielectric constant tensor:
#      x y z
#    x 3.144950 0.000000 0.000000 
#    y 0.000000 3.528060 0.000000 
#    z 0.000000 0.000000 3.468280 
# 
# 
# High freq. dielectric constant tensor:
#      x y z
#    x 1.679710 0.000000 0.000000 
#    y 0.000000 1.714690 0.000000 
#    z 0.000000 0.000000 1.701890 
# 
# From -- ./inp_files/2637.got.cif
#   From: 2010.03.12/outbox.cif.g09.slc.cpg/sg36_2_cif.got.tgz:2637.got - 2010.04.14 02:13:53.
