data_PCOD8174224
_publ_section_title
;
Structure prediction by ZEFSAII (Michael W. Deem and Ramdas Pophale) SiO2 
 PCOD8174224
Probable space group: C M C 21
;
_chemical_formula_sum "Si O2"
_cell_formula_units_Z 64
_cell_length_a 14.514270
_cell_length_b 12.594335
_cell_length_c 17.991362
_cell_angle_alpha 90.000000
_cell_angle_beta 90.000000
_cell_angle_gamma 90.000000
_cell_volume 3288.777410
_symmetry_space_group_name_H-M "C M C 21"
_symmetry_group_IT_number 36
_symmetry_cell_setting 'orthorhombic'
loop_
_space_group_symop_operation_xyz
x,y,z
-x,-y,1/2+z
x,-y,1/2+z
-x,y,z
1/2+x,1/2+y,z
1/2-x,1/2-y,1/2+z
1/2+x,1/2-y,1/2+z
1/2-x,1/2+y,z
loop_
_atom_site_type_symbol
_atom_site_label
_atom_site_fract_x
_atom_site_fract_y
_atom_site_fract_z
Si Si1 0.789021 0.475933 0.477240
Si Si2 0.892965 0.288568 0.400477
Si Si3 0.898694 0.399332 0.259050
Si Si4 0.398694 0.100668 0.366506
Si Si5 0.789021 0.475933 0.648316
Si Si6 0.107035 0.711432 0.225078
Si Si7 0.602369 0.571144 0.647510
Si Si8 0.602369 0.428856 0.978046
O O1 0.828065 0.364900 0.448805
O O2 0.829751 0.578884 0.434323
O O3 0.815814 0.489538 0.562778
O O4 0.677965 0.478879 0.465431
O O5 0.869116 0.300614 0.312289
O O6 0.874344 0.168362 0.423660
O O7 0.000000 0.320747 0.414519
O O8 0.899765 0.500000 0.312778
O O9 0.829751 0.421116 0.191232
O O10 0.000000 0.379273 0.225064
O O11 0.500000 0.120727 0.400492
O O12 0.369116 0.199386 0.313267
O O13 0.828065 0.364900 0.676750
O O14 0.677965 0.478879 0.660124
O O15 0.125656 0.831639 0.201896
O O16 0.000000 0.679253 0.211037
O O17 0.500000 0.525397 0.664810
O O18 0.606951 0.613430 0.562778
O O19 0.500000 0.474603 0.960746
#
# Coordination Sequence:
#
# PCOD8174224 Si02
#       8
#     8   8   8   8   8   8   8   8
#     4  10  18  27  45  70  92 116 147 185 227 264
#     4   9  17  31  50  68  89 119 151 183 220 263
#     4   8  15  27  43  66  93 117 144 180 222 266
#     4   8  15  27  43  66  93 117 144 180 222 266
#     4  10  18  27  45  70  92 116 147 185 227 264
#     4   9  17  31  50  68  89 119 151 183 220 263
#     4   9  18  31  46  66  90 117 153 189 218 258
#     4   9  18  31  46  66  90 117 153 189 218 258
#
# _framework density 19.460118999999999
#
# number of rings (size 3 to 8) (size 9 to 14) (size 15 to 20)
#    0.000    3.000    0.000    3.000    0.000    4.000 
#    0.000    0.000    0.000    9.750    0.000    7.000 
#    0.000    0.000    0.000    0.000    0.000    0.000 
#
# Total GULP energy -396553.166929 kJ/mol
# GULP energy per Si atom -12392.286467 kJ/mol
# Density = 1.941583 g / cm^3
# Si number density = 19.460119 Si / 1000 Ang^3
#
#
#
# Elastic Constant Matrix: (Units=GPa)
#
#
# Indices 1 2 3 4 5 6 
#
# 1 112.9735 27.2326 36.7195 0.0000 0.0000 0.0000
# 2 27.2326 30.8662 4.4692 0.0000 0.0000 0.0000
# 3 36.7195 4.4692 68.0355 0.0000 0.0000 0.0000
# 4 0.0000 0.0000 0.0000 17.1749 0.0000 0.0000
# 5 0.0000 0.0000 0.0000 0.0000 22.7830 0.0000
# 6 0.0000 0.0000 0.0000 0.0000 0.0000 27.7760
#
#
#
# Elastic Compliance Matrix: (Units=1/GPa)
#
#
# Indices 1 2 3 4 5 6 
#
# 1 0.013698 -0.011121 -0.006662 0.000000 0.000000 0.000000
# 2 -0.011121 0.041737 0.003260 0.000000 0.000000 0.000000
# 3 -0.006662 0.003260 0.018080 0.000000 0.000000 0.000000
# 4 0.000000 0.000000 0.000000 0.058225 0.000000 0.000000
# 5 0.000000 0.000000 0.000000 0.000000 0.043892 0.000000
# 6 0.000000 0.000000 0.000000 0.000000 0.000000 0.036002
#
#
# Mechanical properties :
#
#
# Convention : Reuss Voigt Hill
#
# Bulk Modulus (GPa) = 22.48737 38.74642 30.61690
# Shear Modulus (GPa) = 19.56929 23.11037 21.33983
#
# Velocity S-wave (km/s) = 3.17458 3.44986 3.31508
# Velocity P-wave (km/s) = 5.00179 5.98520 5.51546
#
# Compressibility (1/GPa) = 0.04446940
#
# Stress axis : x y z
#
# Youngs Moduli (GPa) = 73.00490 23.95943 55.31046
#
# Poissons Ratio (x) = 0.26644 0.36849
# Poissons Ratio (y) = 0.81185 -0.18032
# Poissons Ratio (z) = 0.48638 -0.07811
#
# Static dielectric constant tensor:
#      x y z
#    x 3.747620 0.000000 0.000000 
#    y 0.000000 3.119470 0.000000 
#    z 0.000000 0.000000 3.774780 
# 
# 
# High freq. dielectric constant tensor:
#      x y z
#    x 1.767610 0.000000 0.000000 
#    y 0.000000 1.711490 0.000000 
#    z 0.000000 0.000000 1.753360 
# 
# From -- ./inp_files/14777.got.cif
#   From: 2010.03.12/outbox.cif.g09.slc.cpg/sg36_8_cif.got.tgz:14777.got - 2010.04.14 02:13:53.
