data_PCOD8174515
_publ_section_title
;
Structure prediction by ZEFSAII (Michael W. Deem and Ramdas Pophale) SiO2 
 PCOD8174515
Probable space group: C M C 21
;
_chemical_formula_sum "Si O2"
_cell_formula_units_Z 48
_cell_length_a 8.897665
_cell_length_b 19.314040
_cell_length_c 15.646372
_cell_angle_alpha 90.000000
_cell_angle_beta 90.000000
_cell_angle_gamma 90.000000
_cell_volume 2688.826802
_symmetry_space_group_name_H-M "C M C 21"
_symmetry_group_IT_number 36
_symmetry_cell_setting 'orthorhombic'
loop_
_space_group_symop_operation_xyz
x,y,z
-x,-y,1/2+z
x,-y,1/2+z
-x,y,z
1/2+x,1/2+y,z
1/2-x,1/2-y,1/2+z
1/2+x,1/2-y,1/2+z
1/2-x,1/2+y,z
loop_
_atom_site_type_symbol
_atom_site_label
_atom_site_fract_x
_atom_site_fract_y
_atom_site_fract_z
Si Si1 0.672297 0.049364 0.165010
Si Si2 0.177675 0.037120 0.809685
Si Si3 0.674500 0.301087 0.482611
Si Si4 0.674209 0.053246 0.975731
Si Si5 0.823170 0.709145 0.150062
Si Si6 0.823096 0.193972 0.796773
O O1 0.500000 0.042552 0.195733
O O2 0.723383 0.129644 0.165273
O O3 0.780565 0.009464 0.229024
O O4 0.690019 0.017054 0.069044
O O5 0.262709 0.008324 0.895550
O O6 0.237203 0.115188 0.790882
O O7 0.000000 0.034157 0.825008
O O8 0.500000 0.294579 0.503070
O O9 0.719385 0.380725 0.478425
O O10 0.762748 0.262964 0.558829
O O11 0.714357 0.270528 0.388728
O O12 0.500000 0.073659 0.960929
O O13 0.750927 0.757530 0.223684
O O14 0.000000 0.716271 0.147874
O O15 0.000000 0.190803 0.783717
#
# Coordination Sequence:
#
# PCOD8174515 Si02
#       6
#     8   8   8   8   8   8
#     4   9  18  31  49  71  93 123 159 194 233 279
#     4  10  19  31  50  73  97 125 156 197 242 280
#     4   9  16  28  47  71  95 120 155 195 236 280
#     4   9  17  31  50  69  92 126 164 195 228 280
#     4   9  17  32  51  68  91 125 161 193 229 279
#     4   8  16  31  49  68  92 123 155 188 232 280
#
# _framework density 17.851651
#
# number of rings (size 3 to 8) (size 9 to 14) (size 15 to 20)
#    0.000    3.000    0.000    3.500    0.000    3.333 
#    0.000    6.667    0.000    6.000    0.000    0.000 
#    0.000    0.000    0.000    0.000    0.000    0.000 
#
# Total GULP energy -297357.332563 kJ/mol
# GULP energy per Si atom -12389.888857 kJ/mol
# Density = 1.781102 g / cm^3
# Si number density = 17.851651 Si / 1000 Ang^3
#
#
#
# Elastic Constant Matrix: (Units=GPa)
#
#
# Indices 1 2 3 4 5 6 
#
# 1 34.4439 18.4287 33.1101 0.0000 0.0000 0.0000
# 2 18.4287 35.0846 27.3046 0.0000 0.0000 0.0000
# 3 33.1101 27.3046 113.0368 0.0000 0.0000 0.0000
# 4 0.0000 0.0000 0.0000 29.1038 0.0000 0.0000
# 5 0.0000 0.0000 0.0000 0.0000 35.0759 0.0000
# 6 0.0000 0.0000 0.0000 0.0000 0.0000 13.4355
#
#
#
# Elastic Compliance Matrix: (Units=1/GPa)
#
#
# Indices 1 2 3 4 5 6 
#
# 1 0.047786 -0.017496 -0.009771 0.000000 0.000000 0.000000
# 2 -0.017496 0.041507 -0.004901 0.000000 0.000000 0.000000
# 3 -0.009771 -0.004901 0.012893 0.000000 0.000000 0.000000
# 4 0.000000 0.000000 0.000000 0.034360 0.000000 0.000000
# 5 0.000000 0.000000 0.000000 0.000000 0.028510 0.000000
# 6 0.000000 0.000000 0.000000 0.000000 0.000000 0.074430
#
#
# Mechanical properties :
#
#
# Convention : Reuss Voigt Hill
#
# Bulk Modulus (GPa) = 26.42071 37.80577 32.11324
# Shear Modulus (GPa) = 15.80082 22.43782 19.11932
#
# Velocity S-wave (km/s) = 2.97832 3.54913 3.27618
# Velocity P-wave (km/s) = 5.16328 6.16594 5.68675
#
# Compressibility (1/GPa) = 0.03784910
#
# Stress axis : x y z
#
# Youngs Moduli (GPa) = 20.92643 24.09218 77.56321
#
# Poissons Ratio (x) = 0.42152 0.75787
# Poissons Ratio (y) = 0.36613 0.38017
# Poissons Ratio (z) = 0.20447 0.11809
#
# Static dielectric constant tensor:
#      x y z
#    x 3.177880 0.000000 0.000000 
#    y 0.000000 3.052800 0.000000 
#    z 0.000000 0.000000 3.996290 
# 
# 
# High freq. dielectric constant tensor:
#      x y z
#    x 1.682250 0.000000 0.000000 
#    y 0.000000 1.637270 0.000000 
#    z 0.000000 0.000000 1.715450 
# 
# From -- ./inp_files/6725.got.cif
#   From: 2010.03.12/outbox.cif.g09.slc.cpg/sg36_4_cif.got.tgz:6725.got - 2010.04.14 02:13:53.
