data_PCOD8174696
_publ_section_title
;
Structure prediction by ZEFSAII (Michael W. Deem and Ramdas Pophale) SiO2 
 PCOD8174696
Probable space group: C M C 21
;
_chemical_formula_sum "Si O2"
_cell_formula_units_Z 60
_cell_length_a 22.283018
_cell_length_b 22.253101
_cell_length_c 5.092484
_cell_angle_alpha 90.000000
_cell_angle_beta 90.000000
_cell_angle_gamma 90.000000
_cell_volume 2525.190945
_symmetry_space_group_name_H-M "C M C 21"
_symmetry_group_IT_number 36
_symmetry_cell_setting 'orthorhombic'
loop_
_space_group_symop_operation_xyz
x,y,z
-x,-y,1/2+z
x,-y,1/2+z
-x,y,z
1/2+x,1/2+y,z
1/2-x,1/2-y,1/2+z
1/2+x,1/2-y,1/2+z
1/2-x,1/2+y,z
loop_
_atom_site_type_symbol
_atom_site_label
_atom_site_fract_x
_atom_site_fract_y
_atom_site_fract_z
Si Si1 0.256253 0.959841 0.247860
Si Si2 0.500000 0.540092 0.830471
Si Si3 0.071882 0.464690 0.628029
Si Si4 0.751977 0.669292 0.754192
Si Si5 0.931741 0.742650 0.630588
Si Si6 0.067777 0.332159 0.647653
Si Si7 0.184884 0.206635 0.253571
Si Si8 0.121970 0.962841 0.184169
O O1 0.288191 0.894490 0.227945
O O2 0.186967 0.935236 0.245133
O O3 0.272215 0.995172 0.512877
O O4 0.500000 0.482695 0.629249
O O5 0.437588 0.576699 0.765661
O O6 0.097215 0.494651 0.363469
O O7 0.099012 0.397691 0.654045
O O8 0.000000 0.463631 0.620249
O O9 0.800572 0.722182 0.737871
O O10 0.701346 0.678209 0.531885
O O11 0.720291 0.669440 0.036408
O O12 0.904648 0.713729 0.361244
O O13 0.887206 0.797385 0.708382
O O14 0.000000 0.767368 0.597495
O O15 0.929381 0.692285 0.854790
O O16 0.000000 0.341478 0.745323
O O17 0.118010 0.021397 0.376408
#
# Coordination Sequence:
#
# PCOD8174696 Si02
#       8
#     8   4   8   8   8   8   8   8
#     4  10  19  33  56  85 113 145 182 230 284 340
#     4   8  12  20  34  54  84 122 164 204 236 290
#     4   9  15  23  37  58  89 129 173 222 266 316
#     4  10  21  38  61  88 115 148 193 242 289 343
#     4  10  19  33  55  80 109 143 184 237 291 345
#     4   9  17  28  45  72 100 135 180 222 273 335
#     4  10  21  38  61  86 114 151 193 243 292 334
#     4   8  14  23  39  63  91 127 166 203 247 301
#
# _framework density 23.760579
#
# number of rings (size 3 to 8) (size 9 to 14) (size 15 to 20)
#    0.000    2.667    0.000    2.400    0.000    3.200 
#    0.000    0.000    2.933    4.800    3.467    0.000 
#    0.000    0.000    0.000    0.000    0.000    0.000 
#
# Total GULP energy -371706.714973 kJ/mol
# GULP energy per Si atom -12390.223832 kJ/mol
# Density = 2.370650 g / cm^3
# Si number density = 23.760579 Si / 1000 Ang^3
#
#
#
# Elastic Constant Matrix: (Units=GPa)
#
#
# Indices 1 2 3 4 5 6 
#
# 1 20.9427 -7.6093 -0.9539 0.0000 0.0000 0.0000
# 2 -7.6093 89.3238 17.8062 0.0000 0.0000 0.0000
# 3 -0.9539 17.8062 121.5391 0.0000 0.0000 0.0000
# 4 0.0000 0.0000 0.0000 11.2670 0.0000 0.0000
# 5 0.0000 0.0000 0.0000 0.0000 16.4042 0.0000
# 6 0.0000 0.0000 0.0000 0.0000 0.0000 9.5264
#
#
#
# Elastic Compliance Matrix: (Units=1/GPa)
#
#
# Indices 1 2 3 4 5 6 
#
# 1 0.049281 0.004245 -0.000235 0.000000 0.000000 0.000000
# 2 0.004245 0.011898 -0.001710 0.000000 0.000000 0.000000
# 3 -0.000235 -0.001710 0.008476 0.000000 0.000000 0.000000
# 4 0.000000 0.000000 0.000000 0.088755 0.000000 0.000000
# 5 0.000000 0.000000 0.000000 0.000000 0.060960 0.000000
# 6 0.000000 0.000000 0.000000 0.000000 0.000000 0.104971
#
#
# Mechanical properties :
#
#
# Convention : Reuss Voigt Hill
#
# Bulk Modulus (GPa) = 13.46702 27.81017 20.63859
# Shear Modulus (GPa) = 14.51410 22.27704 18.39557
#
# Velocity S-wave (km/s) = 2.47422 3.06529 2.78547
# Velocity P-wave (km/s) = 3.72054 4.92521 4.36464
#
# Compressibility (1/GPa) = 0.07425549
#
# Stress axis : x y z
#
# Youngs Moduli (GPa) = 20.29176 84.04997 117.97391
#
# Poissons Ratio (x) = -0.35679 0.02774
# Poissons Ratio (y) = -0.08614 0.20171
# Poissons Ratio (z) = 0.00477 0.14371
#
# Static dielectric constant tensor:
#      x y z
#    x 4.422850 0.000000 0.000000 
#    y 0.000000 3.807210 0.000000 
#    z 0.000000 0.000000 4.312420 
# 
# 
# High freq. dielectric constant tensor:
#      x y z
#    x 1.935810 0.000000 0.000000 
#    y 0.000000 1.896550 0.000000 
#    z 0.000000 0.000000 1.958730 
# 
# From -- ./inp_files/1771.got.cif
#   From: 2010.03.12/outbox.cif.g09.slc.cpg/sg36_1_cif.got.tgz:1771.got - 2010.04.14 02:13:53.
