data_PCOD8174552
_publ_section_title
;
Structure prediction by ZEFSAII (Michael W. Deem and Ramdas Pophale) SiO2 
 PCOD8174552
Probable space group: C M C 21
;
_chemical_formula_sum "Si O2"
_cell_formula_units_Z 64
_cell_length_a 9.078241
_cell_length_b 15.412514
_cell_length_c 23.728409
_cell_angle_alpha 90.000000
_cell_angle_beta 90.000000
_cell_angle_gamma 90.000000
_cell_volume 3320.043786
_symmetry_space_group_name_H-M "C M C 21"
_symmetry_group_IT_number 36
_symmetry_cell_setting 'orthorhombic'
loop_
_space_group_symop_operation_xyz
x,y,z
-x,-y,1/2+z
x,-y,1/2+z
-x,y,z
1/2+x,1/2+y,z
1/2-x,1/2-y,1/2+z
1/2+x,1/2-y,1/2+z
1/2-x,1/2+y,z
loop_
_atom_site_type_symbol
_atom_site_label
_atom_site_fract_x
_atom_site_fract_y
_atom_site_fract_z
Si Si1 0.675038 0.882225 0.520210
Si Si2 0.332861 0.709948 0.831014
Si Si3 0.670669 0.966330 0.336606
Si Si4 0.670110 0.027403 0.709814
Si Si5 0.674067 0.382176 0.639767
Si Si6 0.668775 0.234441 0.454087
Si Si7 0.672170 0.226651 0.720800
Si Si8 0.326405 0.955373 0.950440
O O1 0.500000 0.883182 0.527334
O O2 0.750286 0.872696 0.580014
O O3 0.719991 0.801887 0.481266
O O4 0.737528 0.969607 0.490813
O O5 0.500000 0.696559 0.811914
O O6 0.265153 0.618373 0.847078
O O7 0.321089 0.768864 0.886383
O O8 0.249708 0.754687 0.778876
O O9 0.500000 0.939966 0.343107
O O10 0.697585 0.004331 0.274096
O O11 0.722494 0.033006 0.385038
O O12 0.500000 0.014970 0.692310
O O13 0.717206 0.128530 0.702893
O O14 0.770708 0.969350 0.669873
O O15 0.500000 0.388755 0.632391
O O16 0.719863 0.295532 0.673616
O O17 0.500000 0.254164 0.472936
O O18 0.722113 0.138647 0.473550
O O19 0.500000 0.229849 0.732694
O O20 0.500000 0.962145 0.952611
#
# Coordination Sequence:
#
# PCOD8174552 Si02
#       8
#     8   8   8   8   8   8   8   8
#     4  11  23  41  62  83 113 154 200 242 282 342
#     4  10  19  31  56  89 121 148 184 241 292 331
#     4   9  17  34  59  83 118 158 192 229 281 351
#     4   9  19  36  60  86 113 149 194 234 276 340
#     4  11  24  41  61  84 116 154 194 242 293 341
#     4  10  21  37  58  86 117 152 191 237 292 341
#     4   9  21  40  59  81 115 159 193 226 284 354
#     4   9  19  36  59  84 113 154 194 229 282 350
#
# _framework density 19.276855000000001
#
# number of rings (size 3 to 8) (size 9 to 14) (size 15 to 20)
#    0.000    2.250    1.250    1.875    1.750    4.500 
#    0.000    6.875    0.000    0.000    0.000    0.000 
#    0.000    0.000    0.000    0.000    0.000    0.000 
#
# Total GULP energy -396736.971068 kJ/mol
# GULP energy per Si atom -12398.030346 kJ/mol
# Density = 1.923298 g / cm^3
# Si number density = 19.276855 Si / 1000 Ang^3
#
#
#
# Elastic Constant Matrix: (Units=GPa)
#
#
# Indices 1 2 3 4 5 6 
#
# 1 59.0431 37.3208 43.3939 0.0000 0.0000 0.0000
# 2 37.3208 109.0263 51.9860 0.0000 0.0000 0.0000
# 3 43.3939 51.9860 109.3045 0.0000 0.0000 0.0000
# 4 0.0000 0.0000 0.0000 18.0342 0.0000 0.0000
# 5 0.0000 0.0000 0.0000 0.0000 32.8679 0.0000
# 6 0.0000 0.0000 0.0000 0.0000 0.0000 23.7555
#
#
#
# Elastic Compliance Matrix: (Units=1/GPa)
#
#
# Indices 1 2 3 4 5 6 
#
# 1 0.025964 -0.005138 -0.007864 0.000000 0.000000 0.000000
# 2 -0.005138 0.012879 -0.004086 0.000000 0.000000 0.000000
# 3 -0.007864 -0.004086 0.014214 0.000000 0.000000 0.000000
# 4 0.000000 0.000000 0.000000 0.055450 0.000000 0.000000
# 5 0.000000 0.000000 0.000000 0.000000 0.030425 0.000000
# 6 0.000000 0.000000 0.000000 0.000000 0.000000 0.042095
#
#
# Mechanical properties :
#
#
# Convention : Reuss Voigt Hill
#
# Bulk Modulus (GPa) = 52.96117 60.30836 56.63476
# Shear Modulus (GPa) = 22.57367 24.57640 23.57504
#
# Velocity S-wave (km/s) = 3.42574 3.57447 3.50089
# Velocity P-wave (km/s) = 6.57124 6.95623 6.76647
#
# Compressibility (1/GPa) = 0.01888176
#
# Stress axis : x y z
#
# Youngs Moduli (GPa) = 38.51447 77.64597 70.35366
#
# Poissons Ratio (x) = 0.39895 0.55327
# Poissons Ratio (y) = 0.19789 0.28743
# Poissons Ratio (z) = 0.30288 0.31722
#
# Static dielectric constant tensor:
#      x y z
#    x 3.398060 0.000000 0.000000 
#    y 0.000000 3.732280 0.000000 
#    z 0.000000 0.000000 3.629420 
# 
# 
# High freq. dielectric constant tensor:
#      x y z
#    x 1.736890 0.000000 0.000000 
#    y 0.000000 1.752580 0.000000 
#    z 0.000000 0.000000 1.751850 
# 
# From -- ./inp_files/16556.got.cif
#   From: 2010.03.12/outbox.cif.g09.slc.cpg/sg36_9_cif.got.tgz:16556.got - 2010.04.14 02:13:53.
