data_PCOD8174493
_publ_section_title
;
Structure prediction by ZEFSAII (Michael W. Deem and Ramdas Pophale) SiO2 
 PCOD8174493
Probable space group: C M C 21
;
_chemical_formula_sum "Si O2"
_cell_formula_units_Z 64
_cell_length_a 8.858153
_cell_length_b 14.279303
_cell_length_c 28.656386
_cell_angle_alpha 90.000000
_cell_angle_beta 90.000000
_cell_angle_gamma 90.000000
_cell_volume 3624.696137
_symmetry_space_group_name_H-M "C M C 21"
_symmetry_group_IT_number 36
_symmetry_cell_setting 'orthorhombic'
loop_
_space_group_symop_operation_xyz
x,y,z
-x,-y,1/2+z
x,-y,1/2+z
-x,y,z
1/2+x,1/2+y,z
1/2-x,1/2-y,1/2+z
1/2+x,1/2-y,1/2+z
1/2-x,1/2+y,z
loop_
_atom_site_type_symbol
_atom_site_label
_atom_site_fract_x
_atom_site_fract_y
_atom_site_fract_z
Si Si1 0.820275 0.505037 0.670940
Si Si2 0.179726 0.505036 0.527679
Si Si3 0.678959 0.000118 0.922738
Si Si4 0.819866 0.858699 0.099309
Si Si5 0.821444 0.649083 0.849456
Si Si6 0.822567 0.351485 0.599310
Si Si7 0.678959 0.999892 0.775882
Si Si8 0.821446 0.649080 0.349163
O O1 0.742805 0.592713 0.645817
O O2 0.771289 0.408953 0.645246
O O3 0.756179 0.500330 0.723522
O O4 0.000000 0.519109 0.668773
O O5 0.243824 0.500326 0.475097
O O6 0.257188 0.592716 0.552800
O O7 0.228722 0.408957 0.553375
O O8 0.000000 0.519103 0.529845
O O9 0.500000 0.002577 0.924309
O O10 0.731978 0.906924 0.895393
O O11 0.735536 0.092273 0.895097
O O12 0.754262 0.752671 0.099310
O O13 0.000000 0.862797 0.099308
O O14 0.768004 0.593083 0.803227
O O15 0.750017 0.750007 0.849310
O O16 0.000000 0.659140 0.850147
O O17 0.000000 0.341163 0.599306
O O18 0.500000 0.997444 0.774314
O O19 0.735525 0.907734 0.803522
O O20 0.000000 0.659162 0.348471
#
# Coordination Sequence:
#
# PCOD8174493 Si02
#       8
#     8   8   8   8   8   8   8   8
#     4   9  17  33  52  67  87 126 167 190 217 277
#     4   9  17  33  52  67  87 126 167 190 217 277
#     4   8  16  31  50  68  92 125 161 192 224 271
#     4  10  19  31  46  71 100 119 143 194 246 276
#     4   9  17  31  49  71  96 124 155 192 232 273
#     4   8  16  29  46  65  88 117 151 186 228 276
#     4   8  16  31  50  68  92 125 161 192 224 271
#     4   9  17  31  49  71  96 124 155 192 232 273
#
# _framework density 17.656652999999999
#
# number of rings (size 3 to 8) (size 9 to 14) (size 15 to 20)
#    0.000    3.250    0.000    2.625    0.000    2.000 
#    0.000   12.500    0.000    0.000    0.000    0.000 
#    0.000    0.000    0.000    0.000    0.000    0.000 
#
# Total GULP energy -396626.075541 kJ/mol
# GULP energy per Si atom -12394.564861 kJ/mol
# Density = 1.761647 g / cm^3
# Si number density = 17.656653 Si / 1000 Ang^3
#
#
#
# Elastic Constant Matrix: (Units=GPa)
#
#
# Indices 1 2 3 4 5 6 
#
# 1 27.5966 31.0769 26.2928 0.0000 0.0000 0.0000
# 2 31.0769 192.2387 99.2180 0.0000 0.0000 0.0000
# 3 26.2928 99.2180 195.6176 0.0000 0.0000 0.0000
# 4 0.0000 0.0000 0.0000 13.7335 0.0000 0.0000
# 5 0.0000 0.0000 0.0000 0.0000 17.0704 0.0000
# 6 0.0000 0.0000 0.0000 0.0000 0.0000 29.8795
#
#
#
# Elastic Compliance Matrix: (Units=1/GPa)
#
#
# Indices 1 2 3 4 5 6 
#
# 1 0.045777 -0.005723 -0.003250 0.000000 0.000000 0.000000
# 2 -0.005723 0.007762 -0.003168 0.000000 0.000000 0.000000
# 3 -0.003250 -0.003168 0.007156 0.000000 0.000000 0.000000
# 4 0.000000 0.000000 0.000000 0.072815 0.000000 0.000000
# 5 0.000000 0.000000 0.000000 0.000000 0.058581 0.000000
# 6 0.000000 0.000000 0.000000 0.000000 0.000000 0.033468
#
#
# Mechanical properties :
#
#
# Convention : Reuss Voigt Hill
#
# Bulk Modulus (GPa) = 27.46238 80.95868 54.21053
# Shear Modulus (GPa) = 19.08560 29.39437 24.23999
#
# Velocity S-wave (km/s) = 3.29132 4.08459 3.70922
# Velocity P-wave (km/s) = 5.48006 8.25811 7.00812
#
# Compressibility (1/GPa) = 0.03641345
#
# Stress axis : x y z
#
# Youngs Moduli (GPa) = 21.84481 128.83471 139.75188
#
# Poissons Ratio (x) = 0.73729 0.45424
# Poissons Ratio (y) = 0.12501 0.44269
# Poissons Ratio (z) = 0.07100 0.40811
#
# Static dielectric constant tensor:
#      x y z
#    x 2.860350 0.000000 0.000000 
#    y 0.000000 3.658320 0.000000 
#    z 0.000000 0.000000 3.716010 
# 
# 
# High freq. dielectric constant tensor:
#      x y z
#    x 1.643230 0.000000 0.000000 
#    y 0.000000 1.687890 0.000000 
#    z 0.000000 0.000000 1.690890 
# 
# From -- ./inp_files/17339.got.cif
#   From: 2010.03.12/outbox.cif.g09.slc.cpg/sg36_9_cif.got.tgz:17339.got - 2010.04.14 02:13:53.
