data_PCOD8174819
_publ_section_title
;
Structure prediction by ZEFSAII (Michael W. Deem and Ramdas Pophale) SiO2 
 PCOD8174819
Probable space group: C M C 21
;
_chemical_formula_sum "Si O2"
_cell_formula_units_Z 64
_cell_length_a 8.862883
_cell_length_b 22.736503
_cell_length_c 16.505915
_cell_angle_alpha 90.000000
_cell_angle_beta 90.000000
_cell_angle_gamma 90.000000
_cell_volume 3326.122875
_symmetry_space_group_name_H-M "C M C 21"
_symmetry_group_IT_number 36
_symmetry_cell_setting 'orthorhombic'
loop_
_space_group_symop_operation_xyz
x,y,z
-x,-y,1/2+z
x,-y,1/2+z
-x,y,z
1/2+x,1/2+y,z
1/2-x,1/2-y,1/2+z
1/2+x,1/2-y,1/2+z
1/2-x,1/2+y,z
loop_
_atom_site_type_symbol
_atom_site_label
_atom_site_fract_x
_atom_site_fract_y
_atom_site_fract_z
Si Si1 0.333246 0.569640 0.591930
Si Si2 0.836349 0.051855 0.017284
Si Si3 0.177764 0.847582 0.951418
Si Si4 0.820613 0.601365 0.290471
Si Si5 0.822106 0.530015 0.749481
Si Si6 0.173288 0.611103 0.886452
Si Si7 0.320706 0.783918 0.491244
Si Si8 0.326478 0.651358 0.138069
O O1 0.500000 0.581393 0.629587
O O2 0.342073 0.516985 0.528767
O O3 0.277806 0.624546 0.538455
O O4 0.215151 0.551803 0.660058
O O5 0.808368 0.086095 0.101247
O O6 0.000000 0.072825 0.981831
O O7 0.698127 0.064029 0.957703
O O8 0.267120 0.878533 0.878978
O O9 0.227257 0.780039 0.960700
O O10 0.000000 0.854402 0.934548
O O11 0.758819 0.535019 0.271659
O O12 0.756524 0.648033 0.224812
O O13 0.000000 0.603265 0.286546
O O14 0.751453 0.581379 0.807255
O O15 0.000000 0.527463 0.760892
O O16 0.241736 0.672649 0.919725
O O17 0.000000 0.621449 0.868421
O O18 0.500000 0.790194 0.502337
O O19 0.246503 0.800266 0.577760
O O20 0.500000 0.669112 0.152611
#
# Coordination Sequence:
#
# PCOD8174819 Si02
#       8
#     8   8   8   8   8   8   8   8
#     4  10  20  35  54  78 111 147 181 224 280 336
#     4   9  17  30  51  79 106 134 174 220 270 328
#     4  10  22  39  58  81 114 154 192 233 282 334
#     4  11  22  36  57  85 115 146 187 235 286 341
#     4  10  21  35  53  82 114 143 182 229 281 339
#     4   9  18  33  54  78 105 140 179 222 270 323
#     4   9  19  38  59  79 111 149 189 231 277 331
#     4  10  19  34  58  84 110 143 186 230 278 334
#
# _framework density 19.241622
#
# number of rings (size 3 to 8) (size 9 to 14) (size 15 to 20)
#    0.000    2.250    1.250    1.500    0.000    3.000 
#    2.250    0.000    0.000    0.000    0.000    0.000 
#    0.000    0.000    0.000    0.000    0.000    0.000 
#
# Total GULP energy -396551.742388 kJ/mol
# GULP energy per Si atom -12392.241950 kJ/mol
# Density = 1.919783 g / cm^3
# Si number density = 19.241622 Si / 1000 Ang^3
#
#
#
# Elastic Constant Matrix: (Units=GPa)
#
#
# Indices 1 2 3 4 5 6 
#
# 1 41.5907 30.4418 28.2860 0.0000 0.0000 0.0000
# 2 30.4418 112.3112 65.9631 0.0000 0.0000 0.0000
# 3 28.2860 65.9631 103.7499 0.0000 0.0000 0.0000
# 4 0.0000 0.0000 0.0000 27.6639 0.0000 0.0000
# 5 0.0000 0.0000 0.0000 0.0000 29.3286 0.0000
# 6 0.0000 0.0000 0.0000 0.0000 0.0000 18.4179
#
#
#
# Elastic Compliance Matrix: (Units=1/GPa)
#
#
# Indices 1 2 3 4 5 6 
#
# 1 0.031572 -0.005589 -0.005054 0.000000 0.000000 0.000000
# 2 -0.005589 0.015200 -0.008140 0.000000 0.000000 0.000000
# 3 -0.005054 -0.008140 0.016192 0.000000 0.000000 0.000000
# 4 0.000000 0.000000 0.000000 0.036148 0.000000 0.000000
# 5 0.000000 0.000000 0.000000 0.000000 0.034096 0.000000
# 6 0.000000 0.000000 0.000000 0.000000 0.000000 0.054295
#
#
# Mechanical properties :
#
#
# Convention : Reuss Voigt Hill
#
# Bulk Modulus (GPa) = 39.37477 56.33705 47.85591
# Shear Modulus (GPa) = 21.41007 23.94615 22.67811
#
# Velocity S-wave (km/s) = 3.33933 3.53157 3.43679
# Velocity P-wave (km/s) = 5.94776 6.78024 6.37760
#
# Compressibility (1/GPa) = 0.02539698
#
# Stress axis : x y z
#
# Youngs Moduli (GPa) = 31.67353 65.79156 61.75972
#
# Poissons Ratio (x) = 0.36772 0.31214
# Poissons Ratio (y) = 0.17703 0.50272
# Poissons Ratio (z) = 0.16008 0.53554
#
# Static dielectric constant tensor:
#      x y z
#    x 3.424340 0.000000 0.000000 
#    y 0.000000 3.605240 0.000000 
#    z 0.000000 0.000000 3.440460 
# 
# 
# High freq. dielectric constant tensor:
#      x y z
#    x 1.736460 0.000000 0.000000 
#    y 0.000000 1.743200 0.000000 
#    z 0.000000 0.000000 1.743850 
# 
# From -- ./inp_files/10873.got.cif
#   From: 2010.03.12/outbox.cif.g09.slc.cpg/sg36_6_cif.got.tgz:10873.got - 2010.04.14 02:13:53.
