data_PCOD8174971
_publ_section_title
;
Structure prediction by ZEFSAII (Michael W. Deem and Ramdas Pophale) SiO2 
 PCOD8174971
Probable space group: C M C 21
;
_chemical_formula_sum "Si O2"
_cell_formula_units_Z 56
_cell_length_a 31.858829
_cell_length_b 5.625405
_cell_length_c 12.613512
_cell_angle_alpha 90.000000
_cell_angle_beta 90.000000
_cell_angle_gamma 90.000000
_cell_volume 2260.578686
_symmetry_space_group_name_H-M "C M C 21"
_symmetry_group_IT_number 36
_symmetry_cell_setting 'orthorhombic'
loop_
_space_group_symop_operation_xyz
x,y,z
-x,-y,1/2+z
x,-y,1/2+z
-x,y,z
1/2+x,1/2+y,z
1/2-x,1/2-y,1/2+z
1/2+x,1/2-y,1/2+z
1/2-x,1/2+y,z
loop_
_atom_site_type_symbol
_atom_site_label
_atom_site_fract_x
_atom_site_fract_y
_atom_site_fract_z
Si Si1 0.234456 0.886793 0.936130
Si Si2 0.911926 0.112157 0.846818
Si Si3 0.408256 0.089061 0.552875
Si Si4 0.000000 0.059422 0.758532
Si Si5 0.734147 0.127918 0.192940
Si Si6 0.144735 0.254743 0.425178
Si Si7 0.642133 0.961646 0.731468
Si Si8 0.000000 0.556499 0.633182
O O1 0.247080 0.629856 0.989604
O O2 0.248333 0.872267 0.813303
O O3 0.184322 0.909226 0.953720
O O4 0.960489 0.054394 0.835283
O O5 0.894983 0.270970 0.750537
O O6 0.886930 0.869677 0.843918
O O7 0.902152 0.217900 0.962739
O O8 0.457903 0.042840 0.563463
O O9 0.382688 0.846241 0.524047
O O10 0.382874 0.161042 0.660209
O O11 0.000000 0.314855 0.700917
O O12 0.000000 0.815266 0.690581
O O13 0.749901 0.377912 0.138907
O O14 0.683905 0.140392 0.176452
O O15 0.160554 0.462313 0.346312
#
# Coordination Sequence:
#
# PCOD8174971 Si02
#       8
#     8   8   8   4   8   8   8   4
#     4  10  19  37  66  98 135 192 241 296 357 427
#     4  11  25  44  72 106 142 195 243 314 371 466
#     4  11  27  45  71 110 149 187 244 321 371 451
#     4  12  27  49  82 105 138 200 242 294 387 452
#     4  10  19  36  65  96 133 189 240 293 352 431
#     4  11  24  41  72 104 146 194 250 302 377 442
#     4  11  22  43  69 101 143 193 247 299 376 443
#     4  12  27  53  76 107 146 192 240 300 375 452
#
# _framework density 24.77242
#
# number of rings (size 3 to 8) (size 9 to 14) (size 15 to 20)
#    0.000    1.143    4.286    3.000    6.000    1.714 
#    0.000    1.429    0.000    0.000    0.000    0.000 
#    0.000    0.000    0.000    0.000    0.000    0.000 
#
# Total GULP energy -346924.931017 kJ/mol
# GULP energy per Si atom -12390.176108 kJ/mol
# Density = 2.471604 g / cm^3
# Si number density = 24.772420 Si / 1000 Ang^3
#
#
#
# Elastic Constant Matrix: (Units=GPa)
#
#
# Indices 1 2 3 4 5 6 
#
# 1 202.7343 41.0823 28.7949 0.0000 0.0000 0.0000
# 2 41.0823 149.7403 33.0986 0.0000 0.0000 0.0000
# 3 28.7949 33.0986 55.4863 0.0000 0.0000 0.0000
# 4 0.0000 0.0000 0.0000 30.1348 0.0000 0.0000
# 5 0.0000 0.0000 0.0000 0.0000 36.3644 0.0000
# 6 0.0000 0.0000 0.0000 0.0000 0.0000 36.2892
#
#
#
# Elastic Compliance Matrix: (Units=1/GPa)
#
#
# Indices 1 2 3 4 5 6 
#
# 1 0.005453 -0.001003 -0.002232 0.000000 0.000000 0.000000
# 2 -0.001003 0.007877 -0.004178 0.000000 0.000000 0.000000
# 3 -0.002232 -0.004178 0.021673 0.000000 0.000000 0.000000
# 4 0.000000 0.000000 0.000000 0.033184 0.000000 0.000000
# 5 0.000000 0.000000 0.000000 0.000000 0.027499 0.000000
# 6 0.000000 0.000000 0.000000 0.000000 0.000000 0.027556
#
#
# Mechanical properties :
#
#
# Convention : Reuss Voigt Hill
#
# Bulk Modulus (GPa) = 49.56054 68.21251 58.88653
# Shear Modulus (GPa) = 34.53186 40.89002 37.71094
#
# Velocity S-wave (km/s) = 3.73763 4.06720 3.90589
# Velocity P-wave (km/s) = 6.21903 7.04639 6.64560
#
# Compressibility (1/GPa) = 0.02017734
#
# Stress axis : x y z
#
# Youngs Moduli (GPa) = 183.39496 126.95323 46.14034
#
# Poissons Ratio (x) = 0.12730 0.10297
# Poissons Ratio (y) = 0.18389 0.19279
# Poissons Ratio (z) = 0.40926 0.53046
#
# Static dielectric constant tensor:
#      x y z
#    x 4.526740 0.000000 0.000000 
#    y 0.000000 4.879220 0.000000 
#    z 0.000000 0.000000 4.313670 
# 
# 
# High freq. dielectric constant tensor:
#      x y z
#    x 2.000130 0.000000 0.000000 
#    y 0.000000 1.987330 0.000000 
#    z 0.000000 0.000000 1.999470 
# 
# From -- ./inp_files/13189.got.cif
#   From: 2010.03.12/outbox.cif.g09.slc.cpg/sg36_7_cif.got.tgz:13189.got - 2010.04.14 02:13:53.
