data_PCOD8174044
_publ_section_title
;
Structure prediction by ZEFSAII (Michael W. Deem and Ramdas Pophale) SiO2 
 PCOD8174044
Probable space group: C M M 2
;
_chemical_formula_sum "Si O2"
_cell_formula_units_Z 48
_cell_length_a 10.052246
_cell_length_b 16.750907
_cell_length_c 13.420111
_cell_angle_alpha 90.000000
_cell_angle_beta 90.000000
_cell_angle_gamma 90.000000
_cell_volume 2259.735163
_symmetry_space_group_name_H-M "C M M 2"
_symmetry_group_IT_number 35
_symmetry_cell_setting 'orthorhombic'
loop_
_space_group_symop_operation_xyz
x,y,z
-x,-y,z
-x,y,z
x,-y,z
1/2+x,1/2+y,z
1/2-x,1/2-y,z
1/2-x,1/2+y,z
1/2+x,1/2-y,z
loop_
_atom_site_type_symbol
_atom_site_label
_atom_site_fract_x
_atom_site_fract_y
_atom_site_fract_z
Si Si1 0.282507 0.094252 0.287500
Si Si2 0.242404 0.838206 0.705729
Si Si3 0.347498 0.090358 0.892257
Si Si4 0.152600 0.678142 0.093913
Si Si5 0.000000 0.907971 0.355735
Si Si6 0.500000 0.325298 0.555673
Si Si7 0.000000 0.339648 0.426019
Si Si8 0.000000 0.410594 0.618895
O O1 0.324345 0.107554 0.173349
O O2 0.370408 0.152020 0.357290
O O3 0.132657 0.126803 0.304562
O O4 0.300250 0.000000 0.312903
O O5 0.250000 0.750000 0.750629
O O6 0.240414 0.894739 0.803492
O O7 0.123497 0.842481 0.627741
O O8 0.373034 0.859136 0.645578
O O9 0.500000 0.106966 0.854059
O O10 0.333573 0.000000 0.928417
O O11 0.311319 0.145609 0.984968
O O12 0.250000 0.750000 0.120787
O O13 0.000000 0.707327 0.097349
O O14 0.000000 0.894402 0.473952
O O15 0.000000 0.000000 0.333482
O O16 0.500000 0.241766 0.493569
O O17 0.000000 0.415760 0.499440
O O18 0.000000 0.500000 0.665664
#
# Coordination Sequence:
#
# PCOD8174044 Si02
#       8
#     8   8   8   8   4   4   4   4
#     4  11  24  43  69 100 137 182 235 290 351 425
#     4  12  23  44  65 101 137 181 231 291 361 416
#     4  10  22  44  74 102 135 180 235 292 351 424
#     4  11  25  44  70 106 138 179 227 289 357 427
#     4  10  26  44  63  93 141 189 226 289 354 412
#     4  12  28  42  65 101 144 184 236 293 362 411
#     4  12  24  42  65 101 132 186 241 290 347 414
#     4  12  24  42  69  97 131 181 243 288 341 423
#
# _framework density 21.241427000000002
#
# number of rings (size 3 to 8) (size 9 to 14) (size 15 to 20)
#    0.000    0.833    3.333    3.250    3.500    3.333 
#    1.500    0.000    0.000    0.000    0.000    0.000 
#    0.000    0.000    0.000    0.000    0.000    0.000 
#
# Total GULP energy -297487.850486 kJ/mol
# GULP energy per Si atom -12395.327104 kJ/mol
# Density = 2.119308 g / cm^3
# Si number density = 21.241427 Si / 1000 Ang^3
#
#
#
# Elastic Constant Matrix: (Units=GPa)
#
#
# Indices 1 2 3 4 5 6 
#
# 1 160.3596 47.2385 65.5985 0.0000 0.0000 0.0000
# 2 47.2385 71.9449 26.2871 0.0000 0.0000 0.0000
# 3 65.5985 26.2871 132.6242 0.0000 0.0000 0.0000
# 4 0.0000 0.0000 0.0000 94.7905 0.0000 0.0000
# 5 0.0000 0.0000 0.0000 0.0000 42.2144 0.0000
# 6 0.0000 0.0000 0.0000 0.0000 0.0000 23.9537
#
#
#
# Elastic Compliance Matrix: (Units=1/GPa)
#
#
# Indices 1 2 3 4 5 6 
#
# 1 0.009062 -0.004649 -0.003561 0.000000 0.000000 0.000000
# 2 -0.004649 0.017370 -0.001143 0.000000 0.000000 0.000000
# 3 -0.003561 -0.001143 0.009528 0.000000 0.000000 0.000000
# 4 0.000000 0.000000 0.000000 0.010550 0.000000 0.000000
# 5 0.000000 0.000000 0.000000 0.000000 0.023689 0.000000
# 6 0.000000 0.000000 0.000000 0.000000 0.000000 0.041747
#
#
# Mechanical properties :
#
#
# Convention : Reuss Voigt Hill
#
# Bulk Modulus (GPa) = 57.95925 71.46409 64.71167
# Shear Modulus (GPa) = 36.65612 47.24537 41.95074
#
# Velocity S-wave (km/s) = 4.15865 4.72127 4.44886
# Velocity P-wave (km/s) = 7.09960 7.96475 7.54459
#
# Compressibility (1/GPa) = 0.01725350
#
# Stress axis : x y z
#
# Youngs Moduli (GPa) = 110.34927 57.57117 104.95423
#
# Poissons Ratio (x) = 0.26765 0.37372
# Poissons Ratio (y) = 0.51302 0.11999
# Poissons Ratio (z) = 0.39293 0.06582
#
# Static dielectric constant tensor:
#      x y z
#    x 4.017090 0.000000 0.000000 
#    y 0.000000 3.667500 0.000000 
#    z 0.000000 0.000000 3.937890 
# 
# 
# High freq. dielectric constant tensor:
#      x y z
#    x 1.831770 0.000000 0.000000 
#    y 0.000000 1.830510 0.000000 
#    z 0.000000 0.000000 1.849100 
# 
# From -- ./inp_files/15304.got.cif
#   From: 2010.03.12/outbox.cif.g09.slc.cpg/sg35_8_cif.got.tgz:15304.got - 2010.04.14 02:02:04.
