data_PCOD8174157
_publ_section_title
;
Structure prediction by ZEFSAII (Michael W. Deem and Ramdas Pophale) SiO2 
 PCOD8174157
Probable space group: C M M 2
;
_chemical_formula_sum "Si O2"
_cell_formula_units_Z 64
_cell_length_a 30.471041
_cell_length_b 9.278575
_cell_length_c 15.191149
_cell_angle_alpha 90.000000
_cell_angle_beta 90.000000
_cell_angle_gamma 90.000000
_cell_volume 4294.960732
_symmetry_space_group_name_H-M "C M M 2"
_symmetry_group_IT_number 35
_symmetry_cell_setting 'orthorhombic'
loop_
_space_group_symop_operation_xyz
x,y,z
-x,-y,z
-x,y,z
x,-y,z
1/2+x,1/2+y,z
1/2-x,1/2-y,z
1/2-x,1/2+y,z
1/2+x,1/2-y,z
loop_
_atom_site_type_symbol
_atom_site_label
_atom_site_fract_x
_atom_site_fract_y
_atom_site_fract_z
Si Si1 0.052177 0.160300 0.993820
Si Si2 0.447751 0.161564 0.830350
Si Si3 0.548598 0.328538 0.187455
Si Si4 0.791540 0.662975 0.317350
Si Si5 0.050028 0.832562 0.660116
Si Si6 0.122982 0.166808 0.521573
Si Si7 0.791714 0.337197 0.526815
Si Si8 0.877269 0.831050 0.318926
O O1 0.071659 0.263076 0.917916
O O2 0.000000 0.152774 0.987293
O O3 0.071691 0.000000 0.979802
O O4 0.064963 0.221943 0.090473
O O5 0.500000 0.162568 0.834140
O O6 0.431790 0.245898 0.743908
O O7 0.429106 0.000000 0.826281
O O8 0.500000 0.265871 0.208122
O O9 0.546120 0.500000 0.187099
O O10 0.581774 0.273512 0.262074
O O11 0.791072 0.500000 0.280475
O O12 0.750000 0.750000 0.279005
O O13 0.789483 0.661972 0.422116
O O14 0.835093 0.744139 0.285232
O O15 0.079652 0.793093 0.576285
O O16 0.000000 0.789136 0.636812
O O17 0.053120 0.000000 0.684406
O O18 0.163630 0.259871 0.557741
O O19 0.112152 0.203134 0.420424
O O20 0.136028 0.000000 0.532251
O O21 0.790815 0.500000 0.563937
O O22 0.750000 0.250000 0.565056
O O23 0.868320 0.000000 0.304239
#
# Coordination Sequence:
#
# PCOD8174157 Si02
#       8
#     8   8   8   8   8   8   8   8
#     4   8  13  23  39  56  74  98 128 162 200 239
#     4   9  16  25  38  56  75  96 126 166 209 245
#     4   8  14  24  39  59  81 107 139 169 195 228
#     4   9  16  26  40  57  76  99 129 165 205 244
#     4   9  17  28  40  55  78 109 141 169 197 231
#     4   9  17  27  39  57  81 108 138 169 198 230
#     4   9  16  26  41  58  76  99 128 164 205 244
#     4   9  16  26  40  58  81 108 137 168 198 229
#
# _framework density 14.901185
#
# number of rings (size 3 to 8) (size 9 to 14) (size 15 to 20)
#    0.000    3.250    0.000    1.875    0.000    5.500 
#    0.000    3.125    0.000    1.125    0.000    3.500 
#    0.000    1.000    0.000    4.750    0.000    4.375 
#
# Total GULP energy -396669.905389 kJ/mol
# GULP energy per Si atom -12395.934543 kJ/mol
# Density = 1.486727 g / cm^3
# Si number density = 14.901185 Si / 1000 Ang^3
#
#
#
# Elastic Constant Matrix: (Units=GPa)
#
#
# Indices 1 2 3 4 5 6 
#
# 1 91.7181 47.8648 51.7944 0.0000 0.0000 0.0000
# 2 47.8648 80.8044 41.5760 0.0000 0.0000 0.0000
# 3 51.7944 41.5760 79.0416 0.0000 0.0000 0.0000
# 4 0.0000 0.0000 0.0000 10.9625 0.0000 0.0000
# 5 0.0000 0.0000 0.0000 0.0000 1.7709 0.0000
# 6 0.0000 0.0000 0.0000 0.0000 0.0000 19.9391
#
#
#
# Elastic Compliance Matrix: (Units=1/GPa)
#
#
# Indices 1 2 3 4 5 6 
#
# 1 0.019777 -0.006920 -0.009320 0.000000 0.000000 0.000000
# 2 -0.006920 0.019389 -0.005664 0.000000 0.000000 0.000000
# 3 -0.009320 -0.005664 0.021738 0.000000 0.000000 0.000000
# 4 0.000000 0.000000 0.000000 0.091220 0.000000 0.000000
# 5 0.000000 0.000000 0.000000 0.000000 0.564696 0.000000
# 6 0.000000 0.000000 0.000000 0.000000 0.000000 0.050153
#
#
# Mechanical properties :
#
#
# Convention : Reuss Voigt Hill
#
# Bulk Modulus (GPa) = 58.49130 59.33719 58.91424
# Shear Modulus (GPa) = 6.12385 13.88976 10.00681
#
# Velocity S-wave (km/s) = 2.02942 3.05638 2.59423
# Velocity P-wave (km/s) = 6.69548 7.23617 6.97107
#
# Compressibility (1/GPa) = 0.01709656
#
# Stress axis : x y z
#
# Youngs Moduli (GPa) = 50.56321 51.57590 46.00241
#
# Poissons Ratio (x) = 0.35690 0.42873
# Poissons Ratio (y) = 0.34989 0.26056
# Poissons Ratio (z) = 0.47124 0.29213
#
# Static dielectric constant tensor:
#      x y z
#    x 2.786570 0.000000 0.000000 
#    y 0.000000 2.952330 0.000000 
#    z 0.000000 0.000000 2.788050 
# 
# 
# High freq. dielectric constant tensor:
#      x y z
#    x 1.542720 0.000000 0.000000 
#    y 0.000000 1.567290 0.000000 
#    z 0.000000 0.000000 1.541780 
# 
# From -- ./inp_files/16176.got.cif
#   From: 2010.03.12/outbox.cif.g09.slc.cpg/sg35_9_cif.got.tgz:16176.got - 2010.04.14 02:02:04.
