data_PCOD8174225
_publ_section_title
;
Structure prediction by ZEFSAII (Michael W. Deem and Ramdas Pophale) SiO2 
 PCOD8174225
Probable space group: C M C 21
;
_chemical_formula_sum "Si O2"
_cell_formula_units_Z 64
_cell_length_a 19.017230
_cell_length_b 25.322097
_cell_length_c 8.249847
_cell_angle_alpha 90.000000
_cell_angle_beta 90.000000
_cell_angle_gamma 90.000000
_cell_volume 3972.764499
_symmetry_space_group_name_H-M "C M C 21"
_symmetry_group_IT_number 36
_symmetry_cell_setting 'orthorhombic'
loop_
_space_group_symop_operation_xyz
x,y,z
-x,-y,1/2+z
x,-y,1/2+z
-x,y,z
1/2+x,1/2+y,z
1/2-x,1/2-y,1/2+z
1/2+x,1/2-y,1/2+z
1/2-x,1/2+y,z
loop_
_atom_site_type_symbol
_atom_site_label
_atom_site_fract_x
_atom_site_fract_y
_atom_site_fract_z
Si Si1 0.579632 0.276097 0.327130
Si Si2 0.081200 0.725819 0.658815
Si Si3 0.669610 0.870819 0.033582
Si Si4 0.309846 0.234851 0.917747
Si Si5 0.639367 0.831592 0.694642
Si Si6 0.916195 0.457551 0.186044
Si Si7 0.419502 0.934198 0.541149
Si Si8 0.709280 0.316826 0.174136
O O1 0.500000 0.293895 0.290204
O O2 0.591829 0.270495 0.520336
O O3 0.592374 0.218825 0.245580
O O4 0.630960 0.321885 0.251774
O O5 0.116940 0.671607 0.608477
O O6 0.115776 0.743600 0.827418
O O7 0.000000 0.714299 0.690949
O O8 0.682626 0.856666 0.844665
O O9 0.629751 0.926188 0.051955
O O10 0.743869 0.869227 0.137359
O O11 0.247815 0.223985 0.793018
O O12 0.309809 0.187588 0.050195
O O13 0.293300 0.290400 0.998563
O O14 0.591186 0.877684 0.622219
O O15 0.886187 0.439279 0.361226
O O16 0.000000 0.447561 0.159908
O O17 0.895002 0.518825 0.160633
O O18 0.500000 0.943378 0.505482
#
# Coordination Sequence:
#
# PCOD8174225 Si02
#       8
#     8   8   8   8   8   8   8   8
#     4   9  18  30  44  62  84 111 144 180 216 257
#     4   9  17  28  42  60  83 110 142 179 213 248
#     4  10  19  30  43  60  83 113 147 183 214 250
#     4  10  18  28  42  60  82 110 144 179 213 251
#     4  10  19  29  44  63  85 113 146 178 212 251
#     4  10  20  32  45  62  85 114 148 182 215 249
#     4  10  19  30  44  62  85 114 146 181 216 248
#     4  10  18  29  43  59  81 109 143 180 216 254
#
# _framework density 16.109688999999999
#
# number of rings (size 3 to 8) (size 9 to 14) (size 15 to 20)
#    0.000    2.250    0.000    6.000    0.000    6.000 
#    0.000    0.000    0.000    0.000    0.000    0.000 
#    0.000    0.000    0.000   10.125    0.000    8.125 
#
# Total GULP energy -396493.253120 kJ/mol
# GULP energy per Si atom -12390.414160 kJ/mol
# Density = 1.607302 g / cm^3
# Si number density = 16.109689 Si / 1000 Ang^3
#
#
#
# Elastic Constant Matrix: (Units=GPa)
#
#
# Indices 1 2 3 4 5 6 
#
# 1 81.0836 19.2738 28.9579 0.0000 0.0000 0.0000
# 2 19.2738 40.9847 13.2523 0.0000 0.0000 0.0000
# 3 28.9579 13.2523 83.5075 0.0000 0.0000 0.0000
# 4 0.0000 0.0000 0.0000 19.5159 0.0000 0.0000
# 5 0.0000 0.0000 0.0000 0.0000 25.3265 0.0000
# 6 0.0000 0.0000 0.0000 0.0000 0.0000 16.6082
#
#
#
# Elastic Compliance Matrix: (Units=1/GPa)
#
#
# Indices 1 2 3 4 5 6 
#
# 1 0.015267 -0.005764 -0.004380 0.000000 0.000000 0.000000
# 2 -0.005764 0.027895 -0.002428 0.000000 0.000000 0.000000
# 3 -0.004380 -0.002428 0.013879 0.000000 0.000000 0.000000
# 4 0.000000 0.000000 0.000000 0.051240 0.000000 0.000000
# 5 0.000000 0.000000 0.000000 0.000000 0.039484 0.000000
# 6 0.000000 0.000000 0.000000 0.000000 0.000000 0.060211
#
#
# Mechanical properties :
#
#
# Convention : Reuss Voigt Hill
#
# Bulk Modulus (GPa) = 31.34945 36.50490 33.92717
# Shear Modulus (GPa) = 20.51265 21.89624 21.20445
#
# Velocity S-wave (km/s) = 3.57222 3.69073 3.63196
# Velocity P-wave (km/s) = 6.04290 6.39307 6.22045
#
# Compressibility (1/GPa) = 0.03189849
#
# Stress axis : x y z
#
# Youngs Moduli (GPa) = 65.50059 35.84887 72.05131
#
# Poissons Ratio (x) = 0.20662 0.31555
# Poissons Ratio (y) = 0.37751 0.17495
# Poissons Ratio (z) = 0.28686 0.08705
#
# Static dielectric constant tensor:
#      x y z
#    x 3.058220 0.000000 0.000000 
#    y 0.000000 2.738740 0.000000 
#    z 0.000000 0.000000 3.421620 
# 
# 
# High freq. dielectric constant tensor:
#      x y z
#    x 1.597060 0.000000 0.000000 
#    y 0.000000 1.568590 0.000000 
#    z 0.000000 0.000000 1.644720 
# 
# From -- ./inp_files/4999.got.cif
#   From: 2010.03.12/outbox.cif.g09.slc.cpg/sg36_3_cif.got.tgz:4999.got - 2010.04.14 02:13:53.
