data_PCOD8174160
_publ_section_title
;
Structure prediction by ZEFSAII (Michael W. Deem and Ramdas Pophale) SiO2 
 PCOD8174160
Probable space group: C M M 2
;
_chemical_formula_sum "Si O2"
_cell_formula_units_Z 48
_cell_length_a 7.673231
_cell_length_b 20.037290
_cell_length_c 17.182950
_cell_angle_alpha 90.000000
_cell_angle_beta 90.000000
_cell_angle_gamma 90.000000
_cell_volume 2641.891532
_symmetry_space_group_name_H-M "C M M 2"
_symmetry_group_IT_number 35
_symmetry_cell_setting 'orthorhombic'
loop_
_space_group_symop_operation_xyz
x,y,z
-x,-y,z
-x,y,z
x,-y,z
1/2+x,1/2+y,z
1/2-x,1/2-y,z
1/2-x,1/2+y,z
1/2+x,1/2-y,z
loop_
_atom_site_type_symbol
_atom_site_label
_atom_site_fract_x
_atom_site_fract_y
_atom_site_fract_z
Si Si1 0.703723 0.323265 0.480170
Si Si2 0.000000 0.578480 0.729083
Si Si3 0.705035 0.323371 0.307572
Si Si4 0.792800 0.074093 0.182790
Si Si5 0.297808 0.422211 0.612726
Si Si6 0.000000 0.579875 0.902567
Si Si7 0.693375 0.420583 0.010480
O O1 0.500000 0.330782 0.472199
O O2 0.750000 0.250000 0.513224
O O3 0.787463 0.333369 0.394155
O O4 0.770984 0.380076 0.538856
O O5 0.176653 0.600257 0.684703
O O6 0.000000 0.610100 0.815387
O O7 0.000000 0.500000 0.738425
O O8 0.500000 0.333637 0.311002
O O9 0.750000 0.250000 0.276194
O O10 0.787833 0.376775 0.247917
O O11 0.000000 0.071573 0.188234
O O12 0.716029 0.000000 0.197424
O O13 0.741638 0.100660 0.096767
O O14 0.500000 0.406803 0.633481
O O15 0.271773 0.500000 0.592498
O O16 0.171743 0.607162 0.946601
O O17 0.000000 0.500000 0.902521
O O18 0.500000 0.391695 0.992301
O O19 0.685283 0.500000 0.008205
#
# Coordination Sequence:
#
# PCOD8174160 Si02
#       7
#     8   4   8   8   8   4   8
#     4   9  18  30  47  69  92 123 160 198 235 275
#     4   9  18  30  46  69  97 127 152 189 242 287
#     4   9  17  30  45  65  94 122 155 195 231 273
#     4   8  14  26  45  66  90 122 158 193 229 271
#     4   9  18  32  48  69  98 126 157 195 237 287
#     4   9  16  26  42  67  95 121 151 185 232 287
#     4   8  14  25  41  63  92 122 152 190 230 271
#
# _framework density 18.168800000000001
#
# number of rings (size 3 to 8) (size 9 to 14) (size 15 to 20)
#    0.000    3.333    0.000    1.000    1.167    1.333 
#    1.500    6.667    0.000    0.000    0.000    1.167 
#    0.000    0.000    0.000    0.000    0.000    0.000 
#
# Total GULP energy -297425.569345 kJ/mol
# GULP energy per Si atom -12392.732056 kJ/mol
# Density = 1.812745 g / cm^3
# Si number density = 18.168800 Si / 1000 Ang^3
#
#
#
# Elastic Constant Matrix: (Units=GPa)
#
#
# Indices 1 2 3 4 5 6 
#
# 1 67.2058 23.4203 55.0943 0.0000 0.0000 0.0000
# 2 23.4203 69.0405 68.6487 0.0000 0.0000 0.0000
# 3 55.0943 68.6487 162.7736 0.0000 0.0000 0.0000
# 4 0.0000 0.0000 0.0000 9.1149 0.0000 0.0000
# 5 0.0000 0.0000 0.0000 0.0000 16.8571 0.0000
# 6 0.0000 0.0000 0.0000 0.0000 0.0000 15.1903
#
#
#
# Elastic Compliance Matrix: (Units=1/GPa)
#
#
# Indices 1 2 3 4 5 6 
#
# 1 0.020594 -0.000095 -0.006931 0.000000 0.000000 0.000000
# 2 -0.000095 0.024945 -0.010488 0.000000 0.000000 0.000000
# 3 -0.006931 -0.010488 0.012913 0.000000 0.000000 0.000000
# 4 0.000000 0.000000 0.000000 0.109710 0.000000 0.000000
# 5 0.000000 0.000000 0.000000 0.000000 0.059322 0.000000
# 6 0.000000 0.000000 0.000000 0.000000 0.000000 0.065832
#
#
# Mechanical properties :
#
#
# Convention : Reuss Voigt Hill
#
# Bulk Modulus (GPa) = 42.69004 65.92739 54.30871
# Shear Modulus (GPa) = 14.87419 18.35622 16.61520
#
# Velocity S-wave (km/s) = 2.86434 3.18199 3.02734
# Velocity P-wave (km/s) = 5.87253 7.06151 6.49429
#
# Compressibility (1/GPa) = 0.02342467
#
# Stress axis : x y z
#
# Youngs Moduli (GPa) = 48.55704 40.08763 77.44278
#
# Poissons Ratio (x) = 0.00380 0.53673
# Poissons Ratio (y) = 0.00460 0.81225
# Poissons Ratio (z) = 0.33653 0.42046
#
# Static dielectric constant tensor:
#      x y z
#    x 3.341320 0.000000 0.000000 
#    y 0.000000 3.097120 0.000000 
#    z 0.000000 0.000000 3.771510 
# 
# 
# High freq. dielectric constant tensor:
#      x y z
#    x 1.699880 0.000000 0.000000 
#    y 0.000000 1.657380 0.000000 
#    z 0.000000 0.000000 1.701710 
# 
# From -- ./inp_files/15212.got.cif
#   From: 2010.03.12/outbox.cif.g09.slc.cpg/sg35_8_cif.got.tgz:15212.got - 2010.04.14 02:02:04.
