data_PCOD8174881
_publ_section_title
;
Structure prediction by ZEFSAII (Michael W. Deem and Ramdas Pophale) SiO2 
 PCOD8174881
Probable space group: C M C 21
;
_chemical_formula_sum "Si O2"
_cell_formula_units_Z 64
_cell_length_a 9.013068
_cell_length_b 22.578073
_cell_length_c 16.113959
_cell_angle_alpha 90.000000
_cell_angle_beta 90.000000
_cell_angle_gamma 90.000000
_cell_volume 3279.153711
_symmetry_space_group_name_H-M "C M C 21"
_symmetry_group_IT_number 36
_symmetry_cell_setting 'orthorhombic'
loop_
_space_group_symop_operation_xyz
x,y,z
-x,-y,1/2+z
x,-y,1/2+z
-x,y,z
1/2+x,1/2+y,z
1/2-x,1/2-y,1/2+z
1/2+x,1/2-y,1/2+z
1/2-x,1/2+y,z
loop_
_atom_site_type_symbol
_atom_site_label
_atom_site_fract_x
_atom_site_fract_y
_atom_site_fract_z
Si Si1 0.827966 0.357478 0.938870
Si Si2 0.662298 0.658596 0.142390
Si Si3 0.328531 0.219341 0.597145
Si Si4 0.175837 0.510206 0.459758
Si Si5 0.676924 0.954972 0.285299
Si Si6 0.675098 0.038816 0.134192
Si Si7 0.824396 0.829192 0.255816
Si Si8 0.664697 0.278693 0.816112
O O1 0.767416 0.422561 0.959591
O O2 0.739746 0.333568 0.861031
O O3 0.000000 0.360228 0.914971
O O4 0.792846 0.314497 0.013718
O O5 0.500000 0.630131 0.125017
O O6 0.702490 0.710577 0.076140
O O7 0.781528 0.606976 0.148359
O O8 0.656046 0.700244 0.222321
O O9 0.500000 0.209084 0.624925
O O10 0.217794 0.191445 0.663951
O O11 0.231147 0.478946 0.375117
O O12 0.240853 0.481097 0.544502
O O13 0.000000 0.507321 0.463396
O O14 0.500000 0.948146 0.281976
O O15 0.752627 0.892301 0.273411
O O16 0.732657 0.998606 0.211005
O O17 0.500000 0.034981 0.132514
O O18 0.760783 0.781588 0.322215
O O19 0.000000 0.833237 0.265902
O O20 0.500000 0.266103 0.851486
#
# Coordination Sequence:
#
# PCOD8174881 Si02
#       8
#     8   8   8   8   8   8   8   8
#     4  10  19  35  59  83 109 141 182 227 271 327
#     4   9  19  35  53  76 108 144 178 216 271 328
#     4   9  19  36  57  81 112 146 176 220 282 334
#     4   9  19  34  54  82 110 142 186 228 271 332
#     4  10  20  36  56  77 109 148 181 224 283 332
#     4  10  20  35  57  81 107 145 188 227 270 326
#     4  11  22  36  56  81 107 140 187 230 270 329
#     4  10  21  37  56  79 110 144 178 224 282 334
#
# _framework density 19.517230999999999
#
# number of rings (size 3 to 8) (size 9 to 14) (size 15 to 20)
#    0.000    2.250    0.000    3.750    0.000    7.500 
#    0.000    4.375    0.000    0.000    0.000    0.000 
#    0.000    0.000    0.000    0.000    0.000    0.000 
#
# Total GULP energy -396662.409848 kJ/mol
# GULP energy per Si atom -12395.700308 kJ/mol
# Density = 1.947281 g / cm^3
# Si number density = 19.517231 Si / 1000 Ang^3
#
#
#
# Elastic Constant Matrix: (Units=GPa)
#
#
# Indices 1 2 3 4 5 6 
#
# 1 46.8570 29.4655 19.7417 0.0000 0.0000 0.0000
# 2 29.4655 142.1463 40.3068 0.0000 0.0000 0.0000
# 3 19.7417 40.3068 83.7575 0.0000 0.0000 0.0000
# 4 0.0000 0.0000 0.0000 32.4122 0.0000 0.0000
# 5 0.0000 0.0000 0.0000 0.0000 17.9533 0.0000
# 6 0.0000 0.0000 0.0000 0.0000 0.0000 29.0349
#
#
#
# Elastic Compliance Matrix: (Units=1/GPa)
#
#
# Indices 1 2 3 4 5 6 
#
# 1 0.025670 -0.004175 -0.004041 0.000000 0.000000 0.000000
# 2 -0.004175 0.008826 -0.003263 0.000000 0.000000 0.000000
# 3 -0.004041 -0.003263 0.014462 0.000000 0.000000 0.000000
# 4 0.000000 0.000000 0.000000 0.030853 0.000000 0.000000
# 5 0.000000 0.000000 0.000000 0.000000 0.055700 0.000000
# 6 0.000000 0.000000 0.000000 0.000000 0.000000 0.034441
#
#
# Mechanical properties :
#
#
# Convention : Reuss Voigt Hill
#
# Bulk Modulus (GPa) = 38.46366 50.19876 44.33121
# Shear Modulus (GPa) = 24.80448 28.09654 26.45051
#
# Velocity S-wave (km/s) = 3.56884 3.79829 3.68535
# Velocity P-wave (km/s) = 6.06073 6.70910 6.39314
#
# Compressibility (1/GPa) = 0.02599856
#
# Stress axis : x y z
#
# Youngs Moduli (GPa) = 38.95658 113.30453 69.14650
#
# Poissons Ratio (x) = 0.47307 0.27943
# Poissons Ratio (y) = 0.16265 0.22564
# Poissons Ratio (z) = 0.15743 0.36973
#
# Static dielectric constant tensor:
#      x y z
#    x 3.348280 0.000000 0.000000 
#    y 0.000000 3.703230 0.000000 
#    z 0.000000 0.000000 3.735790 
# 
# 
# High freq. dielectric constant tensor:
#      x y z
#    x 1.736140 0.000000 0.000000 
#    y 0.000000 1.775460 0.000000 
#    z 0.000000 0.000000 1.757420 
# 
# From -- ./inp_files/11115.got.cif
#   From: 2010.03.12/outbox.cif.g09.slc.cpg/sg36_6_cif.got.tgz:11115.got - 2010.04.14 02:13:53.
