data_PCOD8174511
_publ_section_title
;
Structure prediction by ZEFSAII (Michael W. Deem and Ramdas Pophale) SiO2 
 PCOD8174511
Probable space group: C M C 21
;
_chemical_formula_sum "Si O2"
_cell_formula_units_Z 64
_cell_length_a 8.942572
_cell_length_b 28.343880
_cell_length_c 14.106263
_cell_angle_alpha 90.000000
_cell_angle_beta 90.000000
_cell_angle_gamma 90.000000
_cell_volume 3575.474811
_symmetry_space_group_name_H-M "C M C 21"
_symmetry_group_IT_number 36
_symmetry_cell_setting 'orthorhombic'
loop_
_space_group_symop_operation_xyz
x,y,z
-x,-y,1/2+z
x,-y,1/2+z
-x,y,z
1/2+x,1/2+y,z
1/2-x,1/2-y,1/2+z
1/2+x,1/2-y,1/2+z
1/2-x,1/2+y,z
loop_
_atom_site_type_symbol
_atom_site_label
_atom_site_fract_x
_atom_site_fract_y
_atom_site_fract_z
Si Si1 0.675322 0.752393 0.777550
Si Si2 0.325004 0.499645 0.977830
Si Si3 0.825338 0.430172 0.611089
Si Si4 0.323938 0.322212 0.126041
Si Si5 0.823155 0.677781 0.119374
Si Si6 0.175231 0.500106 0.277962
Si Si7 0.174732 0.929600 0.144909
Si Si8 0.178138 0.251328 0.988413
O O1 0.500000 0.755240 0.789848
O O2 0.720061 0.704260 0.723381
O O3 0.730193 0.797621 0.717124
O O4 0.745332 0.753162 0.882012
O O5 0.500000 0.505426 0.961872
O O6 0.262766 0.547986 0.022405
O O7 0.285636 0.456508 0.047756
O O8 0.249320 0.488568 0.878094
O O9 0.773839 0.376399 0.622731
O O10 0.784094 0.456757 0.708301
O O11 0.000000 0.434629 0.588631
O O12 0.500000 0.317996 0.105599
O O13 0.271198 0.376017 0.133827
O O14 0.236837 0.298136 0.039855
O O15 0.740765 0.703254 0.032969
O O16 0.000000 0.683901 0.105138
O O17 0.238029 0.451787 0.233623
O O18 0.000000 0.494432 0.292919
O O19 0.000000 0.932890 0.168193
O O20 0.000000 0.250363 0.992338
#
# Coordination Sequence:
#
# PCOD8174511 Si02
#       8
#     8   8   8   8   8   8   8   8
#     4   8  16  31  50  70  96 129 161 197 245 298
#     4  10  20  34  52  75 105 137 169 207 254 308
#     4   9  19  35  54  75  99 131 173 217 257 299
#     4   9  18  35  54  71  97 134 170 205 251 301
#     4   9  18  35  54  71  97 134 170 205 251 301
#     4  10  20  34  53  77 104 133 169 212 256 303
#     4   9  19  35  54  75 100 134 174 213 255 303
#     4  10  19  31  49  76 104 130 166 208 249 297
#
# _framework density 17.899722000000001
#
# number of rings (size 3 to 8) (size 9 to 14) (size 15 to 20)
#    0.000    2.750    0.000    1.875    0.000    4.000 
#    0.000    7.500    0.000    0.000    0.000    0.000 
#    0.000    0.000    0.000    0.000    0.000    0.000 
#
# Total GULP energy -396816.163516 kJ/mol
# GULP energy per Si atom -12400.505110 kJ/mol
# Density = 1.785898 g / cm^3
# Si number density = 17.899722 Si / 1000 Ang^3
#
#
#
# Elastic Constant Matrix: (Units=GPa)
#
#
# Indices 1 2 3 4 5 6 
#
# 1 48.9406 30.8139 33.7127 0.0000 0.0000 0.0000
# 2 30.8139 145.5121 46.2448 0.0000 0.0000 0.0000
# 3 33.7127 46.2448 123.0830 0.0000 0.0000 0.0000
# 4 0.0000 0.0000 0.0000 11.1603 0.0000 0.0000
# 5 0.0000 0.0000 0.0000 0.0000 31.5404 0.0000
# 6 0.0000 0.0000 0.0000 0.0000 0.0000 26.9463
#
#
#
# Elastic Compliance Matrix: (Units=1/GPa)
#
#
# Indices 1 2 3 4 5 6 
#
# 1 0.026928 -0.003814 -0.005943 0.000000 0.000000 0.000000
# 2 -0.003814 0.008344 -0.002091 0.000000 0.000000 0.000000
# 3 -0.005943 -0.002091 0.010538 0.000000 0.000000 0.000000
# 4 0.000000 0.000000 0.000000 0.089603 0.000000 0.000000
# 5 0.000000 0.000000 0.000000 0.000000 0.031705 0.000000
# 6 0.000000 0.000000 0.000000 0.000000 0.000000 0.037111
#
#
# Mechanical properties :
#
#
# Convention : Reuss Voigt Hill
#
# Bulk Modulus (GPa) = 45.21617 59.89761 52.55689
# Shear Modulus (GPa) = 21.24993 27.71369 24.48181
#
# Velocity S-wave (km/s) = 3.44926 3.93908 3.70228
# Velocity P-wave (km/s) = 6.41708 7.36369 6.90662
#
# Compressibility (1/GPa) = 0.02211598
#
# Stress axis : x y z
#
# Youngs Moduli (GPa) = 37.13646 119.84300 94.89665
#
# Poissons Ratio (x) = 0.45704 0.56394
# Poissons Ratio (y) = 0.14162 0.19839
# Poissons Ratio (z) = 0.22069 0.25054
#
# Static dielectric constant tensor:
#      x y z
#    x 3.184330 0.000000 0.000000 
#    y 0.000000 3.409840 0.000000 
#    z 0.000000 0.000000 3.459730 
# 
# 
# High freq. dielectric constant tensor:
#      x y z
#    x 1.683290 0.000000 0.000000 
#    y 0.000000 1.695210 0.000000 
#    z 0.000000 0.000000 1.696660 
# 
# From -- ./inp_files/11192.got.cif
#   From: 2010.03.12/outbox.cif.g09.slc.cpg/sg36_6_cif.got.tgz:11192.got - 2010.04.14 02:13:53.
