data_PCOD8174650
_publ_section_title
;
Structure prediction by ZEFSAII (Michael W. Deem and Ramdas Pophale) SiO2 
 PCOD8174650
Probable space group: C M C 21
;
_chemical_formula_sum "Si O2"
_cell_formula_units_Z 64
_cell_length_a 8.695389
_cell_length_b 22.918305
_cell_length_c 16.729614
_cell_angle_alpha 90.000000
_cell_angle_beta 90.000000
_cell_angle_gamma 90.000000
_cell_volume 3333.937323
_symmetry_space_group_name_H-M "C M C 21"
_symmetry_group_IT_number 36
_symmetry_cell_setting 'orthorhombic'
loop_
_space_group_symop_operation_xyz
x,y,z
-x,-y,1/2+z
x,-y,1/2+z
-x,y,z
1/2+x,1/2+y,z
1/2-x,1/2-y,1/2+z
1/2+x,1/2-y,1/2+z
1/2-x,1/2+y,z
loop_
_atom_site_type_symbol
_atom_site_label
_atom_site_fract_x
_atom_site_fract_y
_atom_site_fract_z
Si Si1 0.683559 0.905751 0.202330
Si Si2 0.666972 0.699353 0.263139
Si Si3 0.683570 0.035865 0.236401
Si Si4 0.317682 0.150606 0.536228
Si Si5 0.675870 0.398102 0.883383
Si Si6 0.814768 0.277651 0.498102
Si Si7 0.328815 0.821224 0.332220
Si Si8 0.674844 0.139062 0.132589
O O1 0.500000 0.901950 0.204090
O O2 0.742812 0.876481 0.120168
O O3 0.752095 0.872587 0.281042
O O4 0.740821 0.972070 0.210934
O O5 0.500000 0.679429 0.227436
O O6 0.688968 0.667345 0.348066
O O7 0.665483 0.767984 0.271245
O O8 0.807449 0.684030 0.205672
O O9 0.500000 0.040137 0.243134
O O10 0.751301 0.054790 0.322331
O O11 0.746989 0.078046 0.164674
O O12 0.500000 0.155081 0.534749
O O13 0.264694 0.105077 0.467582
O O14 0.249933 0.215182 0.524310
O O15 0.500000 0.416195 0.899167
O O16 0.745679 0.299567 0.413094
O O17 0.750945 0.329226 0.556108
O O18 0.000000 0.272087 0.497788
O O19 0.500000 0.841673 0.356682
O O20 0.500000 0.127551 0.111565
#
# Coordination Sequence:
#
# PCOD8174650 Si02
#       8
#     8   8   8   8   8   8   8   8
#     4   9  19  34  53  79 109 142 182 227 270 318
#     4   9  16  29  51  73  97 130 169 209 258 319
#     4   9  18  36  55  78 108 138 181 227 265 314
#     4  11  21  34  55  83 111 139 178 228 277 322
#     4  10  19  34  56  80 105 140 179 219 267 324
#     4  10  19  33  51  77 108 140 176 215 269 331
#     4   9  16  30  50  73 103 138 174 213 262 321
#     4   9  18  30  49  75 103 131 165 214 262 309
#
# _framework density 19.196521000000001
#
# number of rings (size 3 to 8) (size 9 to 14) (size 15 to 20)
#    0.000    2.500    1.250    1.500    0.000    2.000 
#    2.250    1.250    0.000    2.250    0.000    0.000 
#    0.000    0.000    0.000    0.000    0.000    0.000 
#
# Total GULP energy -396424.516754 kJ/mol
# GULP energy per Si atom -12388.266149 kJ/mol
# Density = 1.915283 g / cm^3
# Si number density = 19.196521 Si / 1000 Ang^3
#
#
#
# Elastic Constant Matrix: (Units=GPa)
#
#
# Indices 1 2 3 4 5 6 
#
# 1 34.8600 25.5942 22.1616 0.0000 0.0000 0.0000
# 2 25.5942 142.2939 93.1989 0.0000 0.0000 0.0000
# 3 22.1616 93.1989 136.8431 0.0000 0.0000 0.0000
# 4 0.0000 0.0000 0.0000 30.2307 0.0000 0.0000
# 5 0.0000 0.0000 0.0000 0.0000 20.9046 0.0000
# 6 0.0000 0.0000 0.0000 0.0000 0.0000 17.8992
#
#
#
# Elastic Compliance Matrix: (Units=1/GPa)
#
#
# Indices 1 2 3 4 5 6 
#
# 1 0.033476 -0.004460 -0.002384 0.000000 0.000000 0.000000
# 2 -0.004460 0.013281 -0.008323 0.000000 0.000000 0.000000
# 3 -0.002384 -0.008323 0.013362 0.000000 0.000000 0.000000
# 4 0.000000 0.000000 0.000000 0.033079 0.000000 0.000000
# 5 0.000000 0.000000 0.000000 0.000000 0.047836 0.000000
# 6 0.000000 0.000000 0.000000 0.000000 0.000000 0.055868
#
#
# Mechanical properties :
#
#
# Convention : Reuss Voigt Hill
#
# Bulk Modulus (GPa) = 33.57299 66.21182 49.89240
# Shear Modulus (GPa) = 21.08224 25.34305 23.21265
#
# Velocity S-wave (km/s) = 3.31755 3.63738 3.48114
# Velocity P-wave (km/s) = 5.67468 7.22545 6.49650
#
# Compressibility (1/GPa) = 0.02978585
#
# Stress axis : x y z
#
# Youngs Moduli (GPa) = 29.87196 75.29333 74.83705
#
# Poissons Ratio (x) = 0.33580 0.17841
# Poissons Ratio (y) = 0.13322 0.62288
# Poissons Ratio (z) = 0.07121 0.62668
#
# Static dielectric constant tensor:
#      x y z
#    x 3.251560 0.000000 0.000000 
#    y 0.000000 3.553070 0.000000 
#    z 0.000000 0.000000 3.696530 
# 
# 
# High freq. dielectric constant tensor:
#      x y z
#    x 1.709730 0.000000 0.000000 
#    y 0.000000 1.741130 0.000000 
#    z 0.000000 0.000000 1.751410 
# 
# From -- ./inp_files/11043.got.cif
#   From: 2010.03.12/outbox.cif.g09.slc.cpg/sg36_6_cif.got.tgz:11043.got - 2010.04.14 02:13:53.
