data_PCOD8174526
_publ_section_title
;
Structure prediction by ZEFSAII (Michael W. Deem and Ramdas Pophale) SiO2 
 PCOD8174526
Probable space group: C M C 21
;
_chemical_formula_sum "Si O2"
_cell_formula_units_Z 64
_cell_length_a 13.423686
_cell_length_b 22.844019
_cell_length_c 11.757151
_cell_angle_alpha 90.000000
_cell_angle_beta 90.000000
_cell_angle_gamma 90.000000
_cell_volume 3605.341383
_symmetry_space_group_name_H-M "C M C 21"
_symmetry_group_IT_number 36
_symmetry_cell_setting 'orthorhombic'
loop_
_space_group_symop_operation_xyz
x,y,z
-x,-y,1/2+z
x,-y,1/2+z
-x,y,z
1/2+x,1/2+y,z
1/2-x,1/2-y,1/2+z
1/2+x,1/2-y,1/2+z
1/2-x,1/2+y,z
loop_
_atom_site_type_symbol
_atom_site_label
_atom_site_fract_x
_atom_site_fract_y
_atom_site_fract_z
Si Si1 0.610237 0.287900 0.307420
Si Si2 0.883566 0.185922 0.548207
Si Si3 0.613544 0.894161 0.278129
Si Si4 0.108463 0.344842 0.860741
Si Si5 0.777589 0.399632 0.043487
Si Si6 0.304631 0.802950 0.442204
Si Si7 0.386372 0.011562 0.968750
Si Si8 0.615477 0.884504 0.626800
O O1 0.500000 0.314634 0.335226
O O2 0.642589 0.301436 0.179062
O O3 0.604421 0.218963 0.310227
O O4 0.690529 0.309827 0.399511
O O5 0.837580 0.120384 0.529141
O O6 0.836698 0.235694 0.464954
O O7 0.000000 0.182717 0.522801
O O8 0.500000 0.897681 0.234641
O O9 0.688288 0.900291 0.173425
O O10 0.626767 0.832698 0.344596
O O11 0.638655 0.948353 0.360654
O O12 0.151112 0.385331 0.757952
O O13 0.000000 0.368603 0.892546
O O14 0.169311 0.346649 0.976807
O O15 0.806170 0.459262 0.977614
O O16 0.315386 0.839437 0.557930
O O17 0.500000 0.987605 0.961457
O O18 0.373364 0.049638 0.082545
O O19 0.500000 0.863329 0.615227
#
# Coordination Sequence:
#
# PCOD8174526 Si02
#       8
#     8   8   8   8   8   8   8   8
#     4  10  20  34  52  79 115 148 185 221 267 336
#     4  11  22  37  56  79 112 153 191 223 269 336
#     4  10  21  35  54  85 115 141 181 232 283 334
#     4  10  19  31  50  78 110 146 179 216 268 332
#     4  12  22  34  54  80 114 148 184 228 278 328
#     4  11  18  35  58  80 108 144 183 227 277 328
#     4   9  20  35  52  78 109 142 178 225 282 334
#     4   9  18  33  56  79 105 144 183 218 272 344
#
# _framework density 17.751439999999999
#
# number of rings (size 3 to 8) (size 9 to 14) (size 15 to 20)
#    0.000    1.750    3.750    3.000    1.750    0.000 
#    0.000    0.000    0.000    4.500    0.000    0.000 
#    0.000    0.000    0.000    0.000    0.000    0.000 
#
# Total GULP energy -396537.822843 kJ/mol
# GULP energy per Si atom -12391.806964 kJ/mol
# Density = 1.771104 g / cm^3
# Si number density = 17.751440 Si / 1000 Ang^3
#
#
#
# Elastic Constant Matrix: (Units=GPa)
#
#
# Indices 1 2 3 4 5 6 
#
# 1 80.6292 40.5883 34.0290 0.0000 0.0000 0.0000
# 2 40.5883 88.7680 23.9804 0.0000 0.0000 0.0000
# 3 34.0290 23.9804 77.7029 0.0000 0.0000 0.0000
# 4 0.0000 0.0000 0.0000 21.8656 0.0000 0.0000
# 5 0.0000 0.0000 0.0000 0.0000 23.7428 0.0000
# 6 0.0000 0.0000 0.0000 0.0000 0.0000 29.2307
#
#
#
# Elastic Compliance Matrix: (Units=1/GPa)
#
#
# Indices 1 2 3 4 5 6 
#
# 1 0.018314 -0.006772 -0.005931 0.000000 0.000000 0.000000
# 2 -0.006772 0.014794 -0.001600 0.000000 0.000000 0.000000
# 3 -0.005931 -0.001600 0.015961 0.000000 0.000000 0.000000
# 4 0.000000 0.000000 0.000000 0.045734 0.000000 0.000000
# 5 0.000000 0.000000 0.000000 0.000000 0.042118 0.000000
# 6 0.000000 0.000000 0.000000 0.000000 0.000000 0.034211
#
#
# Mechanical properties :
#
#
# Convention : Reuss Voigt Hill
#
# Bulk Modulus (GPa) = 48.86673 49.36618 49.11645
# Shear Modulus (GPa) = 24.20629 24.86797 24.53713
#
# Velocity S-wave (km/s) = 3.69673 3.74692 3.72191
# Velocity P-wave (km/s) = 6.76825 6.82563 6.79700
#
# Compressibility (1/GPa) = 0.02046382
#
# Stress axis : x y z
#
# Youngs Moduli (GPa) = 54.60188 67.59526 62.65442
#
# Poissons Ratio (x) = 0.45775 0.37158
# Poissons Ratio (y) = 0.36976 0.10025
# Poissons Ratio (z) = 0.32382 0.10815
#
# Static dielectric constant tensor:
#      x y z
#    x 3.327900 0.000000 0.000000 
#    y 0.000000 3.224030 0.000000 
#    z 0.000000 0.000000 3.370470 
# 
# 
# High freq. dielectric constant tensor:
#      x y z
#    x 1.661720 0.000000 0.000000 
#    y 0.000000 1.677770 0.000000 
#    z 0.000000 0.000000 1.695260 
# 
# From -- ./inp_files/8001.got.cif
#   From: 2010.03.12/outbox.cif.g09.slc.cpg/sg36_5_cif.got.tgz:8001.got - 2010.04.14 02:13:53.
