data_PCOD8174103
_publ_section_title
;
Structure prediction by ZEFSAII (Michael W. Deem and Ramdas Pophale) SiO2 
 PCOD8174103
Probable space group: C M M 2
;
_chemical_formula_sum "Si O2"
_cell_formula_units_Z 64
_cell_length_a 8.757664
_cell_length_b 19.027361
_cell_length_c 20.569583
_cell_angle_alpha 90.000000
_cell_angle_beta 90.000000
_cell_angle_gamma 90.000000
_cell_volume 3427.617286
_symmetry_space_group_name_H-M "C M M 2"
_symmetry_group_IT_number 35
_symmetry_cell_setting 'orthorhombic'
loop_
_space_group_symop_operation_xyz
x,y,z
-x,-y,z
-x,y,z
x,-y,z
1/2+x,1/2+y,z
1/2-x,1/2-y,z
1/2-x,1/2+y,z
1/2+x,1/2-y,z
loop_
_atom_site_type_symbol
_atom_site_label
_atom_site_fract_x
_atom_site_fract_y
_atom_site_fract_z
Si Si1 0.672510 0.418128 0.044220
Si Si2 0.824722 0.583781 0.698769
Si Si3 0.821422 0.323914 0.941277
Si Si4 0.822461 0.080493 0.193380
Si Si5 0.179380 0.824601 0.806006
Si Si6 0.180765 0.577563 0.558579
Si Si7 0.681392 0.920007 0.418374
Si Si8 0.179934 0.326655 0.301136
O O1 0.500000 0.392822 0.029391
O O2 0.687848 0.500000 0.029809
O O3 0.791251 0.378819 0.998372
O O4 0.714378 0.401930 0.118670
O O5 0.806060 0.500000 0.700875
O O6 0.715593 0.617897 0.751734
O O7 0.770487 0.613447 0.627135
O O8 0.000000 0.605034 0.712940
O O9 0.750000 0.250000 0.962239
O O10 0.000000 0.314825 0.930274
O O11 0.747604 0.351264 0.874278
O O12 0.720392 0.132319 0.235629
O O13 0.000000 0.093322 0.208375
O O14 0.778189 0.000000 0.209119
O O15 0.250000 0.750000 0.785566
O O16 0.000000 0.815895 0.813552
O O17 0.252461 0.500000 0.557071
O O18 0.230757 0.612590 0.489527
O O19 0.000000 0.571160 0.560639
O O20 0.500000 0.921649 0.412873
O O21 0.749137 0.869944 0.362412
O O22 0.743056 0.000000 0.409603
O O23 0.250000 0.250000 0.300188
O O24 0.000000 0.319161 0.306458
#
# Coordination Sequence:
#
# PCOD8174103 Si02
#       8
#     8   8   8   8   8   8   8   8
#     4   9  19  37  59  82 108 136 167 207 256 307
#     4   9  17  31  53  80 107 135 170 212 257 307
#     4  11  22  37  57  79 105 137 174 214 255 304
#     4   9  19  37  59  80 104 135 170 210 257 309
#     4  11  22  37  55  74 102 139 177 216 258 306
#     4   7  11  23  46  74 101 129 164 208 256 306
#     4   8  14  27  49  75  99 128 170 215 259 308
#     4  11  22  34  50  74 106 141 176 217 259 303
#
# _framework density 18.671862999999998
#
# number of rings (size 3 to 8) (size 9 to 14) (size 15 to 20)
#    0.000    2.625    0.000    6.000    0.000    2.750 
#    0.000    1.875    0.000    3.000    0.000    3.500 
#    0.000    0.000    0.000    0.000    0.000    0.000 
#
# Total GULP energy -396587.207831 kJ/mol
# GULP energy per Si atom -12393.350245 kJ/mol
# Density = 1.862936 g / cm^3
# Si number density = 18.671863 Si / 1000 Ang^3
#
#
#
# Elastic Constant Matrix: (Units=GPa)
#
#
# Indices 1 2 3 4 5 6 
#
# 1 86.3647 34.6329 46.0921 0.0000 0.0000 0.0000
# 2 34.6329 79.5127 69.2278 0.0000 0.0000 0.0000
# 3 46.0921 69.2278 141.4355 0.0000 0.0000 0.0000
# 4 0.0000 0.0000 0.0000 5.4095 0.0000 0.0000
# 5 0.0000 0.0000 0.0000 0.0000 19.8202 0.0000
# 6 0.0000 0.0000 0.0000 0.0000 0.0000 15.9796
#
#
#
# Elastic Compliance Matrix: (Units=1/GPa)
#
#
# Indices 1 2 3 4 5 6 
#
# 1 0.014674 -0.003882 -0.002882 0.000000 0.000000 0.000000
# 2 -0.003882 0.022943 -0.009965 0.000000 0.000000 0.000000
# 3 -0.002882 -0.009965 0.012887 0.000000 0.000000 0.000000
# 4 0.000000 0.000000 0.000000 0.184861 0.000000 0.000000
# 5 0.000000 0.000000 0.000000 0.000000 0.050454 0.000000
# 6 0.000000 0.000000 0.000000 0.000000 0.000000 0.062580
#
#
# Mechanical properties :
#
#
# Convention : Reuss Voigt Hill
#
# Bulk Modulus (GPa) = 58.66387 67.46872 63.06630
# Shear Modulus (GPa) = 12.90198 18.73254 15.81726
#
# Velocity S-wave (km/s) = 2.63151 3.17085 2.91369
# Velocity P-wave (km/s) = 6.38120 7.04401 6.72078
#
# Compressibility (1/GPa) = 0.01704627
#
# Stress axis : x y z
#
# Youngs Moduli (GPa) = 68.14968 43.58533 77.59818
#
# Poissons Ratio (x) = 0.16921 0.22361
# Poissons Ratio (y) = 0.26458 0.77325
# Poissons Ratio (z) = 0.19638 0.43432
#
# Static dielectric constant tensor:
#      x y z
#    x 3.165680 0.000000 0.000000 
#    y 0.000000 3.229520 0.000000 
#    z 0.000000 0.000000 3.769370 
# 
# 
# High freq. dielectric constant tensor:
#      x y z
#    x 1.701120 0.000000 0.000000 
#    y 0.000000 1.702150 0.000000 
#    z 0.000000 0.000000 1.745150 
# 
# From -- ./inp_files/18401.got.cif
#   From: 2010.03.12/outbox.cif.g09.slc.cpg/sg35_10_cif.got.tgz:18401.got - 2010.04.14 02:02:04.
