data_PCOD8174998
_publ_section_title
;
Structure prediction by ZEFSAII (Michael W. Deem and Ramdas Pophale) SiO2 
 PCOD8174998
Probable space group: C M C 21
;
_chemical_formula_sum "Si O2"
_cell_formula_units_Z 56
_cell_length_a 32.542469
_cell_length_b 15.626441
_cell_length_c 5.194219
_cell_angle_alpha 90.000000
_cell_angle_beta 90.000000
_cell_angle_gamma 90.000000
_cell_volume 2641.379682
_symmetry_space_group_name_H-M "C M C 21"
_symmetry_group_IT_number 36
_symmetry_cell_setting 'orthorhombic'
loop_
_space_group_symop_operation_xyz
x,y,z
-x,-y,1/2+z
x,-y,1/2+z
-x,y,z
1/2+x,1/2+y,z
1/2-x,1/2-y,1/2+z
1/2+x,1/2-y,1/2+z
1/2-x,1/2+y,z
loop_
_atom_site_type_symbol
_atom_site_label
_atom_site_fract_x
_atom_site_fract_y
_atom_site_fract_z
Si Si1 0.953995 0.914356 0.614440
Si Si2 0.623958 0.823951 0.989588
Si Si3 0.547252 0.943333 0.996455
Si Si4 0.300529 0.945848 0.008545
Si Si5 0.854993 0.779719 0.983311
Si Si6 0.761279 0.797315 0.044682
Si Si7 0.078771 0.900038 0.114334
O O1 0.936432 0.856402 0.381766
O O2 0.000000 0.943438 0.547773
O O3 0.925580 0.998325 0.659810
O O4 0.950826 0.864660 0.884832
O O5 0.578158 0.863110 0.983034
O O6 0.657398 0.895715 0.059805
O O7 0.626611 0.753074 0.213468
O O8 0.635198 0.787165 0.709395
O O9 0.500000 0.909690 0.989379
O O10 0.556045 0.994608 0.257495
O O11 0.260195 0.889031 0.058119
O O12 0.299170 0.022160 0.214914
O O13 0.807659 0.802011 0.946367
O O14 0.875225 0.871185 0.053206
O O15 0.762578 0.758508 0.331553
#
# Coordination Sequence:
#
# PCOD8174998 Si02
#       7
#     8   8   8   8   8   8   8
#     4  10  19  38  62  84 118 163 211 262 304 353
#     4  12  23  41  66  90 128 161 205 252 313 369
#     4  10  21  40  63  90 124 163 203 251 311 361
#     4  12  24  41  67 100 123 156 221 266 301 367
#     4  12  24  41  62  89 126 168 200 247 314 389
#     4  12  23  46  67  90 130 177 200 255 325 395
#     4  10  20  35  57  87 115 154 208 249 304 364
#
# _framework density 21.201042000000001
#
# number of rings (size 3 to 8) (size 9 to 14) (size 15 to 20)
#    0.000    0.857    2.857    6.429    0.000    0.000 
#    5.143    5.714    0.000    0.000    0.000    0.000 
#    0.000    0.000    0.000    0.000    0.000    0.000 
#
# Total GULP energy -347110.792361 kJ/mol
# GULP energy per Si atom -12396.814013 kJ/mol
# Density = 2.115279 g / cm^3
# Si number density = 21.201042 Si / 1000 Ang^3
#
#
#
# Elastic Constant Matrix: (Units=GPa)
#
#
# Indices 1 2 3 4 5 6 
#
# 1 124.3490 30.9223 6.5654 0.0000 0.0000 0.0000
# 2 30.9223 39.3192 -3.3430 0.0000 0.0000 0.0000
# 3 6.5654 -3.3430 135.5668 0.0000 0.0000 0.0000
# 4 0.0000 0.0000 0.0000 31.5604 0.0000 0.0000
# 5 0.0000 0.0000 0.0000 0.0000 25.2229 0.0000
# 6 0.0000 0.0000 0.0000 0.0000 0.0000 25.7447
#
#
#
# Elastic Compliance Matrix: (Units=1/GPa)
#
#
# Indices 1 2 3 4 5 6 
#
# 1 0.010060 -0.007970 -0.000684 0.000000 0.000000 0.000000
# 2 -0.007970 0.031800 0.001170 0.000000 0.000000 0.000000
# 3 -0.000684 0.001170 0.007438 0.000000 0.000000 0.000000
# 4 0.000000 0.000000 0.000000 0.031685 0.000000 0.000000
# 5 0.000000 0.000000 0.000000 0.000000 0.039646 0.000000
# 6 0.000000 0.000000 0.000000 0.000000 0.000000 0.038843
#
#
# Mechanical properties :
#
#
# Convention : Reuss Voigt Hill
#
# Bulk Modulus (GPa) = 29.12744 40.83602 34.98173
# Shear Modulus (GPa) = 26.89861 34.17830 30.53845
#
# Velocity S-wave (km/s) = 3.56580 4.01946 3.79941
# Velocity P-wave (km/s) = 5.54272 6.39097 5.98190
#
# Compressibility (1/GPa) = 0.03433189
#
# Stress axis : x y z
#
# Youngs Moduli (GPa) = 99.40552 31.44652 134.43743
#
# Poissons Ratio (x) = 0.25062 0.09192
# Poissons Ratio (y) = 0.79222 -0.15731
# Poissons Ratio (z) = 0.06796 -0.03680
#
# Static dielectric constant tensor:
#      x y z
#    x 3.953920 0.000000 0.000000 
#    y 0.000000 3.482440 0.000000 
#    z 0.000000 0.000000 4.590800 
# 
# 
# High freq. dielectric constant tensor:
#      x y z
#    x 1.833940 0.000000 0.000000 
#    y 0.000000 1.797620 0.000000 
#    z 0.000000 0.000000 1.870930 
# 
# From -- ./inp_files/1854.got.cif
#   From: 2010.03.12/outbox.cif.g09.slc.cpg/sg36_1_cif.got.tgz:1854.got - 2010.04.14 02:13:53.
