data_PCOD8174070
_publ_section_title
;
Structure prediction by ZEFSAII (Michael W. Deem and Ramdas Pophale) SiO2 
 PCOD8174070
Probable space group: C M M 2
;
_chemical_formula_sum "Si O2"
_cell_formula_units_Z 32
_cell_length_a 33.742122
_cell_length_b 8.025109
_cell_length_c 4.933295
_cell_angle_alpha 90.000000
_cell_angle_beta 90.000000
_cell_angle_gamma 90.000000
_cell_volume 1335.858374
_symmetry_space_group_name_H-M "C M M 2"
_symmetry_group_IT_number 35
_symmetry_cell_setting 'orthorhombic'
loop_
_space_group_symop_operation_xyz
x,y,z
-x,-y,z
-x,y,z
x,-y,z
1/2+x,1/2+y,z
1/2-x,1/2-y,z
1/2-x,1/2+y,z
1/2+x,1/2-y,z
loop_
_atom_site_type_symbol
_atom_site_label
_atom_site_fract_x
_atom_site_fract_y
_atom_site_fract_z
Si Si1 0.044443 0.689869 0.727380
Si Si2 0.735047 0.500000 0.371511
Si Si3 0.288156 0.000000 0.876932
Si Si4 0.412205 0.311187 0.225429
Si Si5 0.325300 0.684838 0.064879
O O1 0.043940 0.500000 0.632127
O O2 0.073988 0.791035 0.534323
O O3 0.000000 0.764594 0.714377
O O4 0.060565 0.698812 0.032882
O O5 0.773955 0.500000 0.186498
O O6 0.708295 0.335540 0.301781
O O7 0.749657 0.500000 0.682685
O O8 0.313548 0.828734 0.846992
O O9 0.418119 0.500000 0.132655
O O10 0.366219 0.259479 0.205022
O O11 0.329432 0.500000 0.919850
#
# Coordination Sequence:
#
# PCOD8174070 Si02
#       5
#     8   4   4   8   8
#     4  11  25  43  69 105 145 185 234 291 349 421
#     4  10  26  46  68 104 139 176 243 288 356 426
#     4  12  24  46  74  98 135 194 227 294 364 418
#     4  11  24  45  72 102 141 188 234 293 352 421
#     4   9  25  48  68 108 139 183 238 296 351 430
#
# _framework density 23.954633999999999
#
# number of rings (size 3 to 8) (size 9 to 14) (size 15 to 20)
#    0.750    0.750    0.000    3.000    3.500   13.000 
#    2.250    0.000    0.000    0.000    0.000    0.000 
#    0.000    0.000    0.000    0.000    0.000    0.000 
#
# Total GULP energy -198364.569414 kJ/mol
# GULP energy per Si atom -12397.785588 kJ/mol
# Density = 2.390011 g / cm^3
# Si number density = 23.954634 Si / 1000 Ang^3
#
#
#
# Elastic Constant Matrix: (Units=GPa)
#
#
# Indices 1 2 3 4 5 6 
#
# 1 98.1458 28.2416 13.6748 0.0000 0.0000 0.0000
# 2 28.2416 109.4736 22.6166 0.0000 0.0000 0.0000
# 3 13.6748 22.6166 74.7364 0.0000 0.0000 0.0000
# 4 0.0000 0.0000 0.0000 28.1860 0.0000 0.0000
# 5 0.0000 0.0000 0.0000 0.0000 41.7626 0.0000
# 6 0.0000 0.0000 0.0000 0.0000 0.0000 30.7613
#
#
#
# Elastic Compliance Matrix: (Units=1/GPa)
#
#
# Indices 1 2 3 4 5 6 
#
# 1 0.011113 -0.002610 -0.001244 0.000000 0.000000 0.000000
# 2 -0.002610 0.010357 -0.002657 0.000000 0.000000 0.000000
# 3 -0.001244 -0.002657 0.014412 0.000000 0.000000 0.000000
# 4 0.000000 0.000000 0.000000 0.035479 0.000000 0.000000
# 5 0.000000 0.000000 0.000000 0.000000 0.023945 0.000000
# 6 0.000000 0.000000 0.000000 0.000000 0.000000 0.032508
#
#
# Mechanical properties :
#
#
# Convention : Reuss Voigt Hill
#
# Bulk Modulus (GPa) = 43.74178 45.71355 44.72766
# Shear Modulus (GPa) = 33.68032 34.66350 34.17191
#
# Velocity S-wave (km/s) = 3.75374 3.80813 3.78104
# Velocity P-wave (km/s) = 6.08994 6.20167 6.14606
#
# Compressibility (1/GPa) = 0.02286144
#
# Stress axis : x y z
#
# Youngs Moduli (GPa) = 89.98279 96.55505 69.38744
#
# Poissons Ratio (x) = 0.25201 0.08629
# Poissons Ratio (y) = 0.23486 0.18433
# Poissons Ratio (z) = 0.11190 0.25651
#
# Static dielectric constant tensor:
#      x y z
#    x 4.355090 0.000000 0.000000 
#    y 0.000000 4.277880 0.000000 
#    z 0.000000 0.000000 3.686650 
# 
# 
# High freq. dielectric constant tensor:
#      x y z
#    x 1.959340 0.000000 0.000000 
#    y 0.000000 1.952720 0.000000 
#    z 0.000000 0.000000 1.921560 
# 
# From -- ./inp_files/616.got.cif
#   From: 2010.03.12/outbox.cif.g09.slc.cpg/sg35_1_cif.got.tgz:616.got - 2010.04.14 02:02:04.
