data_PCOD8174007
_publ_section_title
;
Structure prediction by ZEFSAII (Michael W. Deem and Ramdas Pophale) SiO2 
 PCOD8174007
Probable space group: C M M 2
;
_chemical_formula_sum "Si O2"
_cell_formula_units_Z 48
_cell_length_a 17.843900
_cell_length_b 7.776078
_cell_length_c 17.207124
_cell_angle_alpha 90.000000
_cell_angle_beta 90.000000
_cell_angle_gamma 90.000000
_cell_volume 2387.584096
_symmetry_space_group_name_H-M "C M M 2"
_symmetry_group_IT_number 35
_symmetry_cell_setting 'orthorhombic'
loop_
_space_group_symop_operation_xyz
x,y,z
-x,-y,z
-x,y,z
x,-y,z
1/2+x,1/2+y,z
1/2-x,1/2-y,z
1/2-x,1/2+y,z
1/2+x,1/2-y,z
loop_
_atom_site_type_symbol
_atom_site_label
_atom_site_fract_x
_atom_site_fract_y
_atom_site_fract_z
Si Si1 0.910721 0.000000 0.651820
Si Si2 0.663641 0.202441 0.924358
Si Si3 0.915024 0.300117 0.083692
Si Si4 0.332500 0.307113 0.233557
Si Si5 0.915233 0.204854 0.381115
Si Si6 0.088951 0.000000 0.828316
Si Si7 0.411045 0.190814 0.548075
O O1 0.881973 0.000000 0.739884
O O2 0.878503 0.830308 0.608625
O O3 0.000000 0.000000 0.649806
O O4 0.750000 0.250000 0.918500
O O5 0.618542 0.323199 0.865530
O O6 0.649646 0.000000 0.905103
O O7 0.635716 0.249246 0.010409
O O8 0.909832 0.500000 0.102025
O O9 0.885860 0.203638 0.159257
O O10 0.000000 0.242263 0.066044
O O11 0.327055 0.500000 0.260937
O O12 0.250000 0.250000 0.209810
O O13 0.367619 0.213485 0.309290
O O14 0.879846 0.275336 0.461350
O O15 0.000000 0.271707 0.370153
O O16 0.914407 0.000000 0.383884
O O17 0.000000 0.000000 0.834567
O O18 0.500000 0.210400 0.544936
O O19 0.386944 0.000000 0.575797
#
# Coordination Sequence:
#
# PCOD8174007 Si02
#       7
#     4   8   8   8   8   4   8
#     4   9  18  34  54  85 125 152 187 247 303 360
#     4  11  23  42  66  94 126 169 211 256 310 385
#     4  10  22  39  60  87 120 152 196 256 306 354
#     4  11  23  36  53  79 113 161 202 245 294 356
#     4   9  17  32  53  78 109 146 194 250 300 350
#     4  11  24  40  66  99 128 166 207 261 326 372
#     4   9  16  28  52  83 114 150 191 241 302 360
#
# _framework density 20.104004
#
# number of rings (size 3 to 8) (size 9 to 14) (size 15 to 20)
#    0.000    2.000    1.667    2.000    1.167    5.333 
#    0.000    3.333    0.000    1.000    0.000    0.000 
#    0.000    0.000    0.000    0.000    0.000    0.000 
#
# Total GULP energy -297542.647756 kJ/mol
# GULP energy per Si atom -12397.610323 kJ/mol
# Density = 2.005825 g / cm^3
# Si number density = 20.104004 Si / 1000 Ang^3
#
#
#
# Elastic Constant Matrix: (Units=GPa)
#
#
# Indices 1 2 3 4 5 6 
#
# 1 79.4990 26.6261 38.0475 0.0000 0.0000 0.0000
# 2 26.6261 109.9855 67.1466 0.0000 0.0000 0.0000
# 3 38.0475 67.1466 159.3217 0.0000 0.0000 0.0000
# 4 0.0000 0.0000 0.0000 14.5092 0.0000 0.0000
# 5 0.0000 0.0000 0.0000 0.0000 9.1993 0.0000
# 6 0.0000 0.0000 0.0000 0.0000 0.0000 15.2129
#
#
#
# Elastic Compliance Matrix: (Units=1/GPa)
#
#
# Indices 1 2 3 4 5 6 
#
# 1 0.014484 -0.001878 -0.002668 0.000000 0.000000 0.000000
# 2 -0.001878 0.012485 -0.004814 0.000000 0.000000 0.000000
# 3 -0.002668 -0.004814 0.008942 0.000000 0.000000 0.000000
# 4 0.000000 0.000000 0.000000 0.068922 0.000000 0.000000
# 5 0.000000 0.000000 0.000000 0.000000 0.108704 0.000000
# 6 0.000000 0.000000 0.000000 0.000000 0.000000 0.065734
#
#
# Mechanical properties :
#
#
# Convention : Reuss Voigt Hill
#
# Bulk Modulus (GPa) = 58.15958 68.04965 63.10461
# Shear Modulus (GPa) = 16.46246 22.25001 19.35624
#
# Velocity S-wave (km/s) = 2.86469 3.33039 3.10628
# Velocity P-wave (km/s) = 6.31934 6.97932 6.65751
#
# Compressibility (1/GPa) = 0.01719407
#
# Stress axis : x y z
#
# Youngs Moduli (GPa) = 69.03980 80.09340 111.82768
#
# Poissons Ratio (x) = 0.15041 0.29831
# Poissons Ratio (y) = 0.12965 0.53829
# Poissons Ratio (z) = 0.18417 0.38553
#
# Static dielectric constant tensor:
#      x y z
#    x 2.894740 0.000000 0.000000 
#    y 0.000000 3.775340 0.000000 
#    z 0.000000 0.000000 3.738760 
# 
# 
# High freq. dielectric constant tensor:
#      x y z
#    x 1.758120 0.000000 0.000000 
#    y 0.000000 1.790200 0.000000 
#    z 0.000000 0.000000 1.788380 
# 
# From -- ./inp_files/15266.got.cif
#   From: 2010.03.12/outbox.cif.g09.slc.cpg/sg35_8_cif.got.tgz:15266.got - 2010.04.14 02:02:04.
