data_PCOD8174012
_publ_section_title
;
Structure prediction by ZEFSAII (Michael W. Deem and Ramdas Pophale) SiO2 
 PCOD8174012
Probable space group: C M M 2
;
_chemical_formula_sum "Si O2"
_cell_formula_units_Z 64
_cell_length_a 9.007974
_cell_length_b 18.445725
_cell_length_c 20.563657
_cell_angle_alpha 90.000000
_cell_angle_beta 90.000000
_cell_angle_gamma 90.000000
_cell_volume 3416.828689
_symmetry_space_group_name_H-M "C M M 2"
_symmetry_group_IT_number 35
_symmetry_cell_setting 'orthorhombic'
loop_
_space_group_symop_operation_xyz
x,y,z
-x,-y,z
-x,y,z
x,-y,z
1/2+x,1/2+y,z
1/2-x,1/2-y,z
1/2-x,1/2+y,z
1/2+x,1/2-y,z
loop_
_atom_site_type_symbol
_atom_site_label
_atom_site_fract_x
_atom_site_fract_y
_atom_site_fract_z
Si Si1 0.676274 0.918929 0.095720
Si Si2 0.828390 0.084623 0.859746
Si Si3 0.675310 0.920733 0.475954
Si Si4 0.826594 0.673607 0.215385
Si Si5 0.823980 0.671782 0.971948
Si Si6 0.673668 0.174341 0.359972
Si Si7 0.673021 0.673444 0.731363
Si Si8 0.672848 0.915449 0.620967
O O1 0.500000 0.923499 0.094783
O O2 0.733446 0.884814 0.163530
O O3 0.743293 0.000000 0.088587
O O4 0.732314 0.868428 0.037000
O O5 0.723400 0.122396 0.911865
O O6 0.792047 0.119708 0.790473
O O7 0.000000 0.096658 0.878945
O O8 0.788257 0.000000 0.855971
O O9 0.500000 0.926532 0.467227
O O10 0.743908 0.874842 0.416752
O O11 0.710883 0.889215 0.547491
O O12 0.747193 0.000000 0.470187
O O13 0.750000 0.750000 0.202613
O O14 0.792968 0.642729 0.287800
O O15 0.000000 0.687172 0.205284
O O16 0.750000 0.750000 0.967301
O O17 0.000000 0.681801 0.970899
O O18 0.500000 0.184846 0.370545
O O19 0.750000 0.250000 0.367798
O O20 0.500000 0.688310 0.723209
O O21 0.750000 0.750000 0.744397
O O22 0.730909 0.635490 0.666544
O O23 0.500000 0.903909 0.636592
O O24 0.715019 0.000000 0.630113
#
# Coordination Sequence:
#
# PCOD8174012 Si02
#       8
#     8   8   8   8   8   8   8   8
#     4   9  18  32  50  75 104 131 166 213 258 300
#     4  10  22  40  60  82 108 136 168 210 257 304
#     4   8  15  29  49  73 100 129 165 209 252 296
#     4   9  17  30  49  71  97 131 168 207 251 299
#     4  11  22  36  56  80 107 140 175 212 255 303
#     4   9  17  29  47  71  98 130 167 206 250 299
#     4  11  23  38  56  79 107 137 171 212 256 303
#     4   9  18  34  55  77 103 136 172 212 259 309
#
# _framework density 18.730819
#
# number of rings (size 3 to 8) (size 9 to 14) (size 15 to 20)
#    0.000    2.500    0.000    3.000    0.000    4.500 
#    0.000    5.000    0.000    3.000    0.000    3.500 
#    0.000    0.000    0.000    0.000    0.000    0.000 
#
# Total GULP energy -396730.906483 kJ/mol
# GULP energy per Si atom -12397.840828 kJ/mol
# Density = 1.868819 g / cm^3
# Si number density = 18.730819 Si / 1000 Ang^3
#
#
#
# Elastic Constant Matrix: (Units=GPa)
#
#
# Indices 1 2 3 4 5 6 
#
# 1 48.8361 45.8439 46.2018 0.0000 0.0000 0.0000
# 2 45.8439 131.2894 82.8460 0.0000 0.0000 0.0000
# 3 46.2018 82.8460 153.0016 0.0000 0.0000 0.0000
# 4 0.0000 0.0000 0.0000 41.2891 0.0000 0.0000
# 5 0.0000 0.0000 0.0000 0.0000 15.8217 0.0000
# 6 0.0000 0.0000 0.0000 0.0000 0.0000 20.0455
#
#
#
# Elastic Compliance Matrix: (Units=1/GPa)
#
#
# Indices 1 2 3 4 5 6 
#
# 1 0.033483 -0.008068 -0.005742 0.000000 0.000000 0.000000
# 2 -0.008068 0.013514 -0.004881 0.000000 0.000000 0.000000
# 3 -0.005742 -0.004881 0.010913 0.000000 0.000000 0.000000
# 4 0.000000 0.000000 0.000000 0.024219 0.000000 0.000000
# 5 0.000000 0.000000 0.000000 0.000000 0.063204 0.000000
# 6 0.000000 0.000000 0.000000 0.000000 0.000000 0.049886
#
#
# Mechanical properties :
#
#
# Convention : Reuss Voigt Hill
#
# Bulk Modulus (GPa) = 48.71658 75.87894 62.29776
# Shear Modulus (GPa) = 20.88157 25.98029 23.43093
#
# Velocity S-wave (km/s) = 3.34252 3.72833 3.54068
# Velocity P-wave (km/s) = 6.40014 7.68974 7.07439
#
# Compressibility (1/GPa) = 0.02052689
#
# Stress axis : x y z
#
# Youngs Moduli (GPa) = 29.86593 73.99643 91.63539
#
# Poissons Ratio (x) = 0.59703 0.52618
# Poissons Ratio (y) = 0.24097 0.44729
# Poissons Ratio (z) = 0.17149 0.36119
#
# Static dielectric constant tensor:
#      x y z
#    x 3.180960 0.000000 0.000000 
#    y 0.000000 3.476280 0.000000 
#    z 0.000000 0.000000 3.774430 
# 
# 
# High freq. dielectric constant tensor:
#      x y z
#    x 1.699480 0.000000 0.000000 
#    y 0.000000 1.730100 0.000000 
#    z 0.000000 0.000000 1.745570 
# 
# From -- ./inp_files/18439.got.cif
#   From: 2010.03.12/outbox.cif.g09.slc.cpg/sg35_10_cif.got.tgz:18439.got - 2010.04.14 02:02:04.
