data_PCOD8174031
_publ_section_title
;
Structure prediction by ZEFSAII (Michael W. Deem and Ramdas Pophale) SiO2 
 PCOD8174031
Probable space group: C M M 2
;
_chemical_formula_sum "Si O2"
_cell_formula_units_Z 64
_cell_length_a 8.660101
_cell_length_b 30.716347
_cell_length_c 11.855518
_cell_angle_alpha 90.000000
_cell_angle_beta 90.000000
_cell_angle_gamma 90.000000
_cell_volume 3153.646833
_symmetry_space_group_name_H-M "C M M 2"
_symmetry_group_IT_number 35
_symmetry_cell_setting 'orthorhombic'
loop_
_space_group_symop_operation_xyz
x,y,z
-x,-y,z
-x,y,z
x,-y,z
1/2+x,1/2+y,z
1/2-x,1/2-y,z
1/2-x,1/2+y,z
1/2+x,1/2-y,z
loop_
_atom_site_type_symbol
_atom_site_label
_atom_site_fract_x
_atom_site_fract_y
_atom_site_fract_z
Si Si1 0.822034 0.450134 0.989860
Si Si2 0.817845 0.204946 0.985209
Si Si3 0.180666 0.177514 0.740303
Si Si4 0.176844 0.950784 0.528977
Si Si5 0.318292 0.878658 0.377538
Si Si6 0.318974 0.794425 0.511622
Si Si7 0.319041 0.623874 0.134170
Si Si8 0.178159 0.584685 0.745524
O O1 0.782029 0.500000 0.018030
O O2 0.787865 0.442165 0.858389
O O3 0.000000 0.439599 0.017862
O O4 0.712928 0.420124 0.065437
O O5 0.750000 0.250000 0.033027
O O6 0.760186 0.165051 0.061777
O O7 0.000000 0.207254 0.988407
O O8 0.758887 0.197431 0.857862
O O9 0.272242 0.201507 0.641837
O O10 0.213073 0.126425 0.740369
O O11 0.000000 0.185400 0.722246
O O12 0.232749 0.920196 0.428221
O O13 0.280995 0.945511 0.639932
O O14 0.000000 0.939859 0.559007
O O15 0.194878 0.000000 0.485152
O O16 0.500000 0.884281 0.395555
O O17 0.256125 0.835471 0.440778
O O18 0.279821 0.875411 0.246895
O O19 0.500000 0.791494 0.501012
O O20 0.250000 0.750000 0.460115
O O21 0.500000 0.626619 0.161881
O O22 0.000000 0.599372 0.737374
#
# Coordination Sequence:
#
# PCOD8174031 Si02
#       8
#     8   8   8   8   8   8   8   8
#     4  10  22  40  63  92 125 163 205 249 302 364
#     4  10  23  40  61  91 124 160 202 249 303 362
#     4  11  21  37  62  92 128 164 202 250 305 367
#     4  11  24  41  64  94 126 163 205 251 307 367
#     4  11  25  44  65  90 120 161 210 256 307 366
#     4  11  24  41  63  93 125 161 205 252 308 369
#     4  11  24  43  64  89 121 160 207 258 310 361
#     4  11  21  36  62  94 128 165 202 248 307 369
#
# _framework density 20.293966000000001
#
# number of rings (size 3 to 8) (size 9 to 14) (size 15 to 20)
#    0.000    1.250    2.500    3.000    0.000    7.750 
#    0.000    2.500    0.000    0.000    0.000    0.000 
#    0.000    0.000    0.000    0.000    0.000    0.000 
#
# Total GULP energy -397000.058917 kJ/mol
# GULP energy per Si atom -12406.251841 kJ/mol
# Density = 2.024778 g / cm^3
# Si number density = 20.293966 Si / 1000 Ang^3
#
#
#
# Elastic Constant Matrix: (Units=GPa)
#
#
# Indices 1 2 3 4 5 6 
#
# 1 42.0843 29.6729 19.9323 0.0000 0.0000 0.0000
# 2 29.6729 148.2152 48.5417 0.0000 0.0000 0.0000
# 3 19.9323 48.5417 116.0686 0.0000 0.0000 0.0000
# 4 0.0000 0.0000 0.0000 11.6835 0.0000 0.0000
# 5 0.0000 0.0000 0.0000 0.0000 32.0851 0.0000
# 6 0.0000 0.0000 0.0000 0.0000 0.0000 34.0305
#
#
#
# Elastic Compliance Matrix: (Units=1/GPa)
#
#
# Indices 1 2 3 4 5 6 
#
# 1 0.028488 -0.004752 -0.002905 0.000000 0.000000 0.000000
# 2 -0.004752 0.008610 -0.002785 0.000000 0.000000 0.000000
# 3 -0.002905 -0.002785 0.010279 0.000000 0.000000 0.000000
# 4 0.000000 0.000000 0.000000 0.085591 0.000000 0.000000
# 5 0.000000 0.000000 0.000000 0.000000 0.031167 0.000000
# 6 0.000000 0.000000 0.000000 0.000000 0.000000 0.029385
#
#
# Mechanical properties :
#
#
# Convention : Reuss Voigt Hill
#
# Bulk Modulus (GPa) = 37.74424 55.85130 46.79777
# Shear Modulus (GPa) = 22.39780 29.44123 25.91952
#
# Velocity S-wave (km/s) = 3.32575 3.81299 3.57768
# Velocity P-wave (km/s) = 5.77812 6.85318 6.33848
#
# Compressibility (1/GPa) = 0.02649411
#
# Stress axis : x y z
#
# Youngs Moduli (GPa) = 35.10226 116.13868 97.28426
#
# Poissons Ratio (x) = 0.55189 0.28260
# Poissons Ratio (y) = 0.16681 0.27093
# Poissons Ratio (z) = 0.10197 0.32344
#
# Static dielectric constant tensor:
#      x y z
#    x 3.659930 0.000000 0.000000 
#    y 0.000000 3.908330 0.000000 
#    z 0.000000 0.000000 3.662850 
# 
# 
# High freq. dielectric constant tensor:
#      x y z
#    x 1.794850 0.000000 0.000000 
#    y 0.000000 1.806530 0.000000 
#    z 0.000000 0.000000 1.789410 
# 
# From -- ./inp_files/11995.got.cif
#   From: 2010.03.12/outbox.cif.g09.slc.cpg/sg35_6_cif.got.tgz:11995.got - 2010.04.14 02:02:04.
