data_PCOD8174479
_publ_section_title
;
Structure prediction by ZEFSAII (Michael W. Deem and Ramdas Pophale) SiO2 
 PCOD8174479
Probable space group: C M C 21
;
_chemical_formula_sum "Si O2"
_cell_formula_units_Z 64
_cell_length_a 9.490362
_cell_length_b 17.671863
_cell_length_c 20.508503
_cell_angle_alpha 90.000000
_cell_angle_beta 90.000000
_cell_angle_gamma 90.000000
_cell_volume 3439.529789
_symmetry_space_group_name_H-M "C M C 21"
_symmetry_group_IT_number 36
_symmetry_cell_setting 'orthorhombic'
loop_
_space_group_symop_operation_xyz
x,y,z
-x,-y,1/2+z
x,-y,1/2+z
-x,y,z
1/2+x,1/2+y,z
1/2-x,1/2-y,1/2+z
1/2+x,1/2-y,1/2+z
1/2-x,1/2+y,z
loop_
_atom_site_type_symbol
_atom_site_label
_atom_site_fract_x
_atom_site_fract_y
_atom_site_fract_z
Si Si1 0.838062 0.920868 0.788350
Si Si2 0.342250 0.972086 0.046345
Si Si3 0.835382 0.255475 0.309897
Si Si4 0.659519 0.503610 0.662133
Si Si5 0.842379 0.556134 0.405681
Si Si6 0.841536 0.266362 0.930538
Si Si7 0.341213 0.205033 0.573555
Si Si8 0.837535 0.820302 0.192718
O O1 0.813984 0.831655 0.790917
O O2 0.758871 0.965139 0.846230
O O3 0.000000 0.943533 0.796066
O O4 0.778188 0.952025 0.720089
O O5 0.500000 0.003197 0.054670
O O6 0.243825 0.016827 0.096550
O O7 0.337783 0.883794 0.061457
O O8 0.290219 0.985469 0.971912
O O9 0.769551 0.272935 0.381429
O O10 0.750003 0.304404 0.257870
O O11 0.000000 0.278145 0.310383
O O12 0.500000 0.480569 0.647519
O O13 0.672496 0.590709 0.681458
O O14 0.840483 0.645017 0.417493
O O15 0.000000 0.529402 0.388157
O O16 0.000000 0.235002 0.918202
O O17 0.797130 0.252253 0.006262
O O18 0.500000 0.229432 0.594034
O O19 0.232913 0.224931 0.631829
O O20 0.000000 0.793862 0.199896
#
# Coordination Sequence:
#
# PCOD8174479 Si02
#       8
#     8   8   8   8   8   8   8   8
#     4   9  18  31  46  66  91 118 149 183 219 261
#     4   8  14  25  42  65  90 114 143 180 221 263
#     4  10  19  30  46  67  92 120 149 184 222 263
#     4   9  18  31  46  66  91 118 149 183 219 261
#     4   8  14  25  42  65  90 114 143 180 221 263
#     4   8  14  26  44  65  89 115 144 181 223 265
#     4   8  14  26  44  65  89 115 144 181 223 265
#     4  10  19  30  46  67  92 120 149 184 222 263
#
# _framework density 18.607195000000001
#
# number of rings (size 3 to 8) (size 9 to 14) (size 15 to 20)
#    0.000    3.250    0.000    2.250    0.000    2.500 
#    0.000    5.000    0.000    1.500    0.000    3.500 
#    0.000    0.000    0.000    0.000    0.000    0.000 
#
# Total GULP energy -396591.723169 kJ/mol
# GULP energy per Si atom -12393.491349 kJ/mol
# Density = 1.856484 g / cm^3
# Si number density = 18.607195 Si / 1000 Ang^3
#
#
#
# Elastic Constant Matrix: (Units=GPa)
#
#
# Indices 1 2 3 4 5 6 
#
# 1 72.9476 3.6777 13.5607 0.0000 0.0000 0.0000
# 2 3.6777 4.8377 -1.5165 0.0000 0.0000 0.0000
# 3 13.5607 -1.5165 26.4414 0.0000 0.0000 0.0000
# 4 0.0000 0.0000 0.0000 23.3361 0.0000 0.0000
# 5 0.0000 0.0000 0.0000 0.0000 44.2598 0.0000
# 6 0.0000 0.0000 0.0000 0.0000 0.0000 13.4525
#
#
#
# Elastic Compliance Matrix: (Units=1/GPa)
#
#
# Indices 1 2 3 4 5 6 
#
# 1 0.016177 -0.015172 -0.009167 0.000000 0.000000 0.000000
# 2 -0.015172 0.224723 0.020670 0.000000 0.000000 0.000000
# 3 -0.009167 0.020670 0.043706 0.000000 0.000000 0.000000
# 4 0.000000 0.000000 0.000000 0.042852 0.000000 0.000000
# 5 0.000000 0.000000 0.000000 0.000000 0.022594 0.000000
# 6 0.000000 0.000000 0.000000 0.000000 0.000000 0.074336
#
#
# Mechanical properties :
#
#
# Convention : Reuss Voigt Hill
#
# Bulk Modulus (GPa) = 3.60661 15.07449 9.34055
# Shear Modulus (GPa) = 9.53926 22.11000 15.82463
#
# Velocity S-wave (km/s) = 2.26667 3.45084 2.91942
# Velocity P-wave (km/s) = 2.96528 4.89865 4.04905
#
# Compressibility (1/GPa) = 0.27726897
#
# Stress axis : x y z
#
# Youngs Moduli (GPa) = 61.81430 4.44992 22.88001
#
# Poissons Ratio (x) = 0.06751 0.20974
# Poissons Ratio (y) = 0.93786 -0.47293
# Poissons Ratio (z) = 0.56665 -0.09198
#
# Static dielectric constant tensor:
#      x y z
#    x 3.597380 0.000000 0.000000 
#    y 0.000000 2.834170 0.000000 
#    z 0.000000 0.000000 3.874670 
# 
# 
# High freq. dielectric constant tensor:
#      x y z
#    x 1.721710 0.000000 0.000000 
#    y 0.000000 1.659850 0.000000 
#    z 0.000000 0.000000 1.738390 
# 
# From -- ./inp_files/14083.got.cif
#   From: 2010.03.12/outbox.cif.g09.slc.cpg/sg36_8_cif.got.tgz:14083.got - 2010.04.14 02:13:53.
