data_PCOD8174106
_publ_section_title
;
Structure prediction by ZEFSAII (Michael W. Deem and Ramdas Pophale) SiO2 
 PCOD8174106
Probable space group: C M M 2
;
_chemical_formula_sum "Si O2"
_cell_formula_units_Z 56
_cell_length_a 9.250677
_cell_length_b 18.710266
_cell_length_c 17.991121
_cell_angle_alpha 90.000000
_cell_angle_beta 90.000000
_cell_angle_gamma 90.000000
_cell_volume 3113.950492
_symmetry_space_group_name_H-M "C M M 2"
_symmetry_group_IT_number 35
_symmetry_cell_setting 'orthorhombic'
loop_
_space_group_symop_operation_xyz
x,y,z
-x,-y,z
-x,y,z
x,-y,z
1/2+x,1/2+y,z
1/2-x,1/2-y,z
1/2-x,1/2+y,z
1/2+x,1/2-y,z
loop_
_atom_site_type_symbol
_atom_site_label
_atom_site_fract_x
_atom_site_fract_y
_atom_site_fract_z
Si Si1 0.327178 0.326068 0.968210
Si Si2 0.340379 0.084893 0.680011
Si Si3 0.831277 0.178206 0.407634
Si Si4 0.328958 0.579720 0.107764
Si Si5 0.669546 0.916653 0.846350
Si Si6 0.669345 0.581267 0.540971
Si Si7 0.830806 0.177317 0.240171
O O1 0.500000 0.316213 0.964063
O O2 0.250000 0.250000 0.972920
O O3 0.271922 0.368648 0.896823
O O4 0.276998 0.371494 0.039665
O O5 0.500000 0.115544 0.665101
O O6 0.288900 0.107020 0.762399
O O7 0.238132 0.116173 0.615216
O O8 0.342219 0.000000 0.677139
O O9 0.750000 0.250000 0.427729
O O10 0.776701 0.119533 0.466129
O O11 0.794386 0.152154 0.324078
O O12 0.000000 0.193175 0.416081
O O13 0.500000 0.573559 0.106854
O O14 0.261127 0.500000 0.101507
O O15 0.276393 0.615347 0.184875
O O16 0.500000 0.902027 0.861827
O O17 0.704793 0.000000 0.860154
O O18 0.500000 0.588269 0.551011
O O19 0.719886 0.500000 0.532159
O O20 0.750000 0.250000 0.219606
O O21 0.000000 0.192276 0.229648
#
# Coordination Sequence:
#
# PCOD8174106 Si02
#       7
#     8   8   8   8   8   8   8
#     4  11  22  35  52  74 102 134 168 205 246 295
#     4   8  15  29  49  72  97 126 159 195 240 293
#     4   9  18  31  47  69  96 128 163 197 238 286
#     4   9  18  32  51  76 101 125 159 202 244 288
#     4   9  18  34  55  77 101 129 164 206 250 298
#     4   9  17  29  46  70  98 125 159 203 243 281
#     4   9  17  31  51  71  95 128 162 197 238 286
#
# _framework density 17.983588000000001
#
# number of rings (size 3 to 8) (size 9 to 14) (size 15 to 20)
#    0.000    2.857    0.000    2.143    0.000    2.571 
#    0.000    5.714    0.000    3.857    0.000    4.000 
#    0.000    0.000    0.000    0.000    0.000    0.000 
#
# Total GULP energy -347097.813189 kJ/mol
# GULP energy per Si atom -12396.350471 kJ/mol
# Density = 1.794266 g / cm^3
# Si number density = 17.983588 Si / 1000 Ang^3
#
#
#
# Elastic Constant Matrix: (Units=GPa)
#
#
# Indices 1 2 3 4 5 6 
#
# 1 45.9564 44.1160 51.6618 0.0000 0.0000 0.0000
# 2 44.1160 110.6394 85.1146 0.0000 0.0000 0.0000
# 3 51.6618 85.1146 162.9645 0.0000 0.0000 0.0000
# 4 0.0000 0.0000 0.0000 16.5441 0.0000 0.0000
# 5 0.0000 0.0000 0.0000 0.0000 24.2367 0.0000
# 6 0.0000 0.0000 0.0000 0.0000 0.0000 23.5089
#
#
#
# Elastic Compliance Matrix: (Units=1/GPa)
#
#
# Indices 1 2 3 4 5 6 
#
# 1 0.039772 -0.010296 -0.007231 0.000000 0.000000 0.000000
# 2 -0.010296 0.017775 -0.006020 0.000000 0.000000 0.000000
# 3 -0.007231 -0.006020 0.011572 0.000000 0.000000 0.000000
# 4 0.000000 0.000000 0.000000 0.060444 0.000000 0.000000
# 5 0.000000 0.000000 0.000000 0.000000 0.041260 0.000000
# 6 0.000000 0.000000 0.000000 0.000000 0.000000 0.042537
#
#
# Mechanical properties :
#
#
# Convention : Reuss Voigt Hill
#
# Bulk Modulus (GPa) = 45.39995 75.70502 60.55249
# Shear Modulus (GPa) = 18.67107 22.10249 20.38678
#
# Velocity S-wave (km/s) = 3.22565 3.50957 3.37060
# Velocity P-wave (km/s) = 6.25884 7.65577 6.99228
#
# Compressibility (1/GPa) = 0.02202645
#
# Stress axis : x y z
#
# Youngs Moduli (GPa) = 25.14354 56.26026 86.41214
#
# Poissons Ratio (x) = 0.57925 0.62482
# Poissons Ratio (y) = 0.25888 0.52016
# Poissons Ratio (z) = 0.18180 0.33866
#
# Static dielectric constant tensor:
#      x y z
#    x 3.214720 0.000000 0.000000 
#    y 0.000000 3.328400 0.000000 
#    z 0.000000 0.000000 3.662640 
# 
# 
# High freq. dielectric constant tensor:
#      x y z
#    x 1.678430 0.000000 0.000000 
#    y 0.000000 1.678360 0.000000 
#    z 0.000000 0.000000 1.713730 
# 
# From -- ./inp_files/18241.got.cif
#   From: 2010.03.12/outbox.cif.g09.slc.cpg/sg35_10_cif.got.tgz:18241.got - 2010.04.14 02:02:04.
