data_PCOD8174342
_publ_section_title
;
Structure prediction by ZEFSAII (Michael W. Deem and Ramdas Pophale) SiO2 
 PCOD8174342
Probable space group: C M C 21
;
_chemical_formula_sum "Si O2"
_cell_formula_units_Z 64
_cell_length_a 17.848702
_cell_length_b 19.624487
_cell_length_c 8.914165
_cell_angle_alpha 90.000000
_cell_angle_beta 90.000000
_cell_angle_gamma 90.000000
_cell_volume 3122.379019
_symmetry_space_group_name_H-M "C M C 21"
_symmetry_group_IT_number 36
_symmetry_cell_setting 'orthorhombic'
loop_
_space_group_symop_operation_xyz
x,y,z
-x,-y,1/2+z
x,-y,1/2+z
-x,y,z
1/2+x,1/2+y,z
1/2-x,1/2-y,1/2+z
1/2+x,1/2-y,1/2+z
1/2-x,1/2+y,z
loop_
_atom_site_type_symbol
_atom_site_label
_atom_site_fract_x
_atom_site_fract_y
_atom_site_fract_z
Si Si1 0.158278 0.088442 0.808480
Si Si2 0.785473 0.704027 0.075323
Si Si3 0.682534 0.524852 0.517092
Si Si4 0.344857 0.263214 0.365608
Si Si5 0.915674 0.470673 0.836412
Si Si6 0.917565 0.649452 0.552106
Si Si7 0.734906 0.074227 0.235333
Si Si8 0.664362 0.112100 0.835095
O O1 0.135398 0.072594 0.633836
O O2 0.122548 0.159293 0.867978
O O3 0.248823 0.090423 0.824069
O O4 0.130652 0.027122 0.919369
O O5 0.826056 0.754483 0.189888
O O6 0.740675 0.647714 0.173971
O O7 0.728195 0.744686 0.969907
O O8 0.846120 0.664839 0.971939
O O9 0.737129 0.484248 0.626803
O O10 0.732669 0.569607 0.403977
O O11 0.401864 0.205976 0.423204
O O12 0.855629 0.432269 0.730917
O O13 0.888102 0.547375 0.867301
O O14 0.000000 0.471652 0.766279
O O15 0.916679 0.427651 0.990171
O O16 0.858171 0.653213 0.685892
O O17 0.000000 0.665882 0.615461
#
# Coordination Sequence:
#
# PCOD8174342 Si02
#       8
#     8   8   8   8   8   8   8   8
#     4  10  20  32  56  83 111 148 176 243 294 350
#     4  11  23  35  56  83 110 149 194 257 291 347
#     4  10  18  32  53  78 115 137 179 226 299 342
#     4  11  22  38  56  83 112 150 201 236 309 347
#     4  11  22  33  54  80 112 160 202 233 273 328
#     4  11  25  41  56  77 116 163 204 242 281 349
#     4  11  18  34  49  76 114 151 178 236 280 327
#     4  11  21  37  51  80 110 152 204 243 285 322
#
# _framework density 20.497192999999999
#
# number of rings (size 3 to 8) (size 9 to 14) (size 15 to 20)
#    0.000    1.250    6.250    2.625    3.500    0.000 
#    0.000    1.875    0.000    0.000    0.000    0.875 
#    0.000    0.000    0.000    0.000    0.000    0.000 
#
# Total GULP energy -396544.715634 kJ/mol
# GULP energy per Si atom -12392.022364 kJ/mol
# Density = 2.045054 g / cm^3
# Si number density = 20.497193 Si / 1000 Ang^3
#
#
#
# Elastic Constant Matrix: (Units=GPa)
#
#
# Indices 1 2 3 4 5 6 
#
# 1 21.6997 10.5904 5.2906 0.0000 0.0000 0.0000
# 2 10.5904 89.3903 30.0131 0.0000 0.0000 0.0000
# 3 5.2906 30.0131 121.3404 0.0000 0.0000 0.0000
# 4 0.0000 0.0000 0.0000 44.6570 0.0000 0.0000
# 5 0.0000 0.0000 0.0000 0.0000 14.4607 0.0000
# 6 0.0000 0.0000 0.0000 0.0000 0.0000 13.4862
#
#
#
# Elastic Compliance Matrix: (Units=1/GPa)
#
#
# Indices 1 2 3 4 5 6 
#
# 1 0.048976 -0.005546 -0.000764 0.000000 0.000000 0.000000
# 2 -0.005546 0.012828 -0.002931 0.000000 0.000000 0.000000
# 3 -0.000764 -0.002931 0.009000 0.000000 0.000000 0.000000
# 4 0.000000 0.000000 0.000000 0.022393 0.000000 0.000000
# 5 0.000000 0.000000 0.000000 0.000000 0.069153 0.000000
# 6 0.000000 0.000000 0.000000 0.000000 0.000000 0.074150
#
#
# Mechanical properties :
#
#
# Convention : Reuss Voigt Hill
#
# Bulk Modulus (GPa) = 19.11226 36.02429 27.56827
# Shear Modulus (GPa) = 18.35387 26.95655 22.65521
#
# Velocity S-wave (km/s) = 2.99563 3.63041 3.32819
# Velocity P-wave (km/s) = 4.61623 5.93183 5.31489
#
# Compressibility (1/GPa) = 0.05232245
#
# Stress axis : x y z
#
# Youngs Moduli (GPa) = 20.41799 77.95385 111.11613
#
# Poissons Ratio (x) = 0.43233 0.08486
# Poissons Ratio (y) = 0.11324 0.32570
# Poissons Ratio (z) = 0.01559 0.22850
#
# Static dielectric constant tensor:
#      x y z
#    x 3.151810 0.000000 0.000000 
#    y 0.000000 4.089530 0.000000 
#    z 0.000000 0.000000 4.156400 
# 
# 
# High freq. dielectric constant tensor:
#      x y z
#    x 1.724410 0.000000 0.000000 
#    y 0.000000 1.811340 0.000000 
#    z 0.000000 0.000000 1.820220 
# 
# From -- ./inp_files/4925.got.cif
#   From: 2010.03.12/outbox.cif.g09.slc.cpg/sg36_3_cif.got.tgz:4925.got - 2010.04.14 02:13:53.
