data_PCOD8174295
_publ_section_title
;
Structure prediction by ZEFSAII (Michael W. Deem and Ramdas Pophale) SiO2 
 PCOD8174295
Probable space group: C M C 21
;
_chemical_formula_sum "Si O2"
_cell_formula_units_Z 64
_cell_length_a 9.195034
_cell_length_b 20.841245
_cell_length_c 19.183495
_cell_angle_alpha 90.000000
_cell_angle_beta 90.000000
_cell_angle_gamma 90.000000
_cell_volume 3676.247411
_symmetry_space_group_name_H-M "C M C 21"
_symmetry_group_IT_number 36
_symmetry_cell_setting 'orthorhombic'
loop_
_space_group_symop_operation_xyz
x,y,z
-x,-y,1/2+z
x,-y,1/2+z
-x,y,z
1/2+x,1/2+y,z
1/2-x,1/2-y,1/2+z
1/2+x,1/2-y,1/2+z
1/2-x,1/2+y,z
loop_
_atom_site_type_symbol
_atom_site_label
_atom_site_fract_x
_atom_site_fract_y
_atom_site_fract_z
Si Si1 0.831660 0.500897 0.646990
Si Si2 0.331873 0.066085 0.937152
Si Si3 0.167099 0.503880 0.301748
Si Si4 0.668546 0.371367 0.646662
Si Si5 0.828058 0.134885 0.303521
Si Si6 0.326802 0.814419 0.931136
Si Si7 0.169703 0.183881 0.002841
Si Si8 0.670812 0.938188 0.010701
O O1 0.794657 0.523585 0.725169
O O2 0.750304 0.436127 0.626604
O O3 0.788603 0.557670 0.593031
O O4 0.000000 0.484113 0.638182
O O5 0.500000 0.076894 0.956023
O O6 0.245695 0.128374 0.959370
O O7 0.307976 0.054777 0.854560
O O8 0.268940 0.002721 0.974881
O O9 0.269465 0.563723 0.320166
O O10 0.000000 0.528376 0.306122
O O11 0.500000 0.389080 0.647455
O O12 0.713273 0.345712 0.723593
O O13 0.705316 0.319806 0.585945
O O14 0.749296 0.184957 0.355228
O O15 0.000000 0.136872 0.316112
O O16 0.500000 0.816391 0.921321
O O17 0.275916 0.751732 0.973319
O O18 0.263656 0.874420 0.975825
O O19 0.000000 0.175435 0.990022
O O20 0.500000 0.934674 0.998235
#
# Coordination Sequence:
#
# PCOD8174295 Si02
#       8
#     8   8   8   8   8   8   8   8
#     4   9  16  28  49  75  97 126 168 207 246 293
#     4  10  18  31  51  75 102 129 162 210 253 290
#     4   9  17  30  49  74 103 132 166 205 250 300
#     4   9  18  32  48  72 102 129 161 201 251 299
#     4  10  19  31  50  75 102 130 164 208 251 295
#     4  10  20  36  53  71 101 137 171 206 246 298
#     4  10  21  35  52  74 102 137 170 203 247 301
#     4   9  16  29  50  74  97 124 164 208 246 286
#
# _framework density 17.409056
#
# number of rings (size 3 to 8) (size 9 to 14) (size 15 to 20)
#    0.000    2.500    2.500    0.375    0.000    1.500 
#    0.000    1.875    0.000    4.500    0.000    0.000 
#    0.000    0.000    0.000    0.000    0.000    0.000 
#
# Total GULP energy -396648.740078 kJ/mol
# GULP energy per Si atom -12395.273127 kJ/mol
# Density = 1.736943 g / cm^3
# Si number density = 17.409056 Si / 1000 Ang^3
#
#
#
# Elastic Constant Matrix: (Units=GPa)
#
#
# Indices 1 2 3 4 5 6 
#
# 1 36.9046 33.3239 37.3978 0.0000 0.0000 0.0000
# 2 33.3239 115.8860 75.1886 0.0000 0.0000 0.0000
# 3 37.3978 75.1886 142.7399 0.0000 0.0000 0.0000
# 4 0.0000 0.0000 0.0000 28.5314 0.0000 0.0000
# 5 0.0000 0.0000 0.0000 0.0000 22.4973 0.0000
# 6 0.0000 0.0000 0.0000 0.0000 0.0000 21.6897
#
#
#
# Elastic Compliance Matrix: (Units=1/GPa)
#
#
# Indices 1 2 3 4 5 6 
#
# 1 0.040530 -0.007239 -0.006806 0.000000 0.000000 0.000000
# 2 -0.007239 0.014403 -0.005690 0.000000 0.000000 0.000000
# 3 -0.006806 -0.005690 0.011786 0.000000 0.000000 0.000000
# 4 0.000000 0.000000 0.000000 0.035049 0.000000 0.000000
# 5 0.000000 0.000000 0.000000 0.000000 0.044450 0.000000
# 6 0.000000 0.000000 0.000000 0.000000 0.000000 0.046105
#
#
# Mechanical properties :
#
#
# Convention : Reuss Voigt Hill
#
# Bulk Modulus (GPa) = 36.69815 65.26124 50.97969
# Shear Modulus (GPa) = 20.75763 24.51835 22.63799
#
# Velocity S-wave (km/s) = 3.45678 3.75689 3.60996
# Velocity P-wave (km/s) = 6.08754 7.50915 6.83540
#
# Compressibility (1/GPa) = 0.02724933
#
# Stress axis : x y z
#
# Youngs Moduli (GPa) = 24.67290 69.43209 84.84624
#
# Poissons Ratio (x) = 0.50263 0.57744
# Poissons Ratio (y) = 0.17861 0.48277
# Poissons Ratio (z) = 0.16792 0.39506
#
# Static dielectric constant tensor:
#      x y z
#    x 3.098440 0.000000 0.000000 
#    y 0.000000 3.064070 0.000000 
#    z 0.000000 0.000000 3.700220 
# 
# 
# High freq. dielectric constant tensor:
#      x y z
#    x 1.655210 0.000000 0.000000 
#    y 0.000000 1.637900 0.000000 
#    z 0.000000 0.000000 1.694840 
# 
# From -- ./inp_files/15712.got.cif
#   From: 2010.03.12/outbox.cif.g09.slc.cpg/sg36_8_cif.got.tgz:15712.got - 2010.04.14 02:13:53.
