data_PCOD8174682
_publ_section_title
;
Structure prediction by ZEFSAII (Michael W. Deem and Ramdas Pophale) SiO2 
 PCOD8174682
Probable space group: C M C 21
;
_chemical_formula_sum "Si O2"
_cell_formula_units_Z 64
_cell_length_a 9.207596
_cell_length_b 23.729491
_cell_length_c 14.329086
_cell_angle_alpha 90.000000
_cell_angle_beta 90.000000
_cell_angle_gamma 90.000000
_cell_volume 3130.784445
_symmetry_space_group_name_H-M "C M C 21"
_symmetry_group_IT_number 36
_symmetry_cell_setting 'orthorhombic'
loop_
_space_group_symop_operation_xyz
x,y,z
-x,-y,1/2+z
x,-y,1/2+z
-x,y,z
1/2+x,1/2+y,z
1/2-x,1/2-y,1/2+z
1/2+x,1/2-y,1/2+z
1/2-x,1/2+y,z
loop_
_atom_site_type_symbol
_atom_site_label
_atom_site_fract_x
_atom_site_fract_y
_atom_site_fract_z
Si Si1 0.833651 0.000304 0.598400
Si Si2 0.332723 0.768944 0.023497
Si Si3 0.165330 0.683127 0.329567
Si Si4 0.829674 0.206797 0.713167
Si Si5 0.167332 0.662905 0.028577
Si Si6 0.167946 0.081934 0.758077
Si Si7 0.666789 0.045001 0.930960
Si Si8 0.830426 0.885200 0.695963
O O1 0.737557 0.998205 0.504794
O O2 0.795790 0.949491 0.669679
O O3 0.000000 0.995728 0.566032
O O4 0.801607 0.057822 0.654052
O O5 0.500000 0.754498 0.044515
O O6 0.319357 0.814869 0.941409
O O7 0.252282 0.714128 0.980812
O O8 0.256785 0.790382 0.116704
O O9 0.213136 0.742657 0.282616
O O10 0.268982 0.631392 0.297834
O O11 0.000000 0.669436 0.301201
O O12 0.785695 0.147350 0.761344
O O13 0.000000 0.206635 0.689626
O O14 0.188635 0.608044 0.967146
O O15 0.000000 0.678588 0.043705
O O16 0.241406 0.656491 0.129140
O O17 0.257613 0.043564 0.830543
O O18 0.000000 0.074005 0.784588
O O19 0.500000 0.027837 0.919748
O O20 0.000000 0.871744 0.689552
#
# Coordination Sequence:
#
# PCOD8174682 Si02
#       8
#     8   8   8   8   8   8   8   8
#     4   9  20  39  61  85 113 149 196 243 285 338
#     4  11  22  35  54  83 116 153 191 230 280 342
#     4  10  21  36  54  80 116 151 184 227 286 347
#     4  10  21  38  59  83 114 154 192 236 288 341
#     4  10  19  33  54  80 113 148 185 233 283 334
#     4  10  21  40  63  85 115 156 197 240 290 344
#     4  10  21  36  59  90 117 150 194 242 294 343
#     4  10  19  33  56  82 106 139 187 237 280 329
#
# _framework density 20.442160000000001
#
# number of rings (size 3 to 8) (size 9 to 14) (size 15 to 20)
#    0.000    2.000    1.250    2.250    0.000    5.000 
#    2.250    0.000    0.000    0.000    0.000    0.000 
#    0.000    0.000    0.000    0.000    0.000    0.000 
#
# Total GULP energy -396805.796449 kJ/mol
# GULP energy per Si atom -12400.181139 kJ/mol
# Density = 2.039563 g / cm^3
# Si number density = 20.442160 Si / 1000 Ang^3
#
#
#
# Elastic Constant Matrix: (Units=GPa)
#
#
# Indices 1 2 3 4 5 6 
#
# 1 90.2866 14.1797 39.2777 0.0000 0.0000 0.0000
# 2 14.1797 36.1508 3.8491 0.0000 0.0000 0.0000
# 3 39.2777 3.8491 85.4941 0.0000 0.0000 0.0000
# 4 0.0000 0.0000 0.0000 22.0571 0.0000 0.0000
# 5 0.0000 0.0000 0.0000 0.0000 34.9328 0.0000
# 6 0.0000 0.0000 0.0000 0.0000 0.0000 25.1941
#
#
#
# Elastic Compliance Matrix: (Units=1/GPa)
#
#
# Indices 1 2 3 4 5 6 
#
# 1 0.014715 -0.005076 -0.006532 0.000000 0.000000 0.000000
# 2 -0.005076 0.029546 0.001002 0.000000 0.000000 0.000000
# 3 -0.006532 0.001002 0.014652 0.000000 0.000000 0.000000
# 4 0.000000 0.000000 0.000000 0.045337 0.000000 0.000000
# 5 0.000000 0.000000 0.000000 0.000000 0.028626 0.000000
# 6 0.000000 0.000000 0.000000 0.000000 0.000000 0.039692
#
#
# Mechanical properties :
#
#
# Convention : Reuss Voigt Hill
#
# Bulk Modulus (GPa) = 26.52424 36.28270 31.40347
# Shear Modulus (GPa) = 24.23101 26.74513 25.48807
#
# Velocity S-wave (km/s) = 3.44662 3.62101 3.53489
# Velocity P-wave (km/s) = 5.37051 5.93884 5.66181
#
# Compressibility (1/GPa) = 0.03770136
#
# Stress axis : x y z
#
# Youngs Moduli (GPa) = 67.96007 33.84524 68.24843
#
# Poissons Ratio (x) = 0.17180 0.44577
# Poissons Ratio (y) = 0.34497 -0.06837
# Poissons Ratio (z) = 0.44389 -0.03391
#
# Static dielectric constant tensor:
#      x y z
#    x 3.686190 0.000000 0.000000 
#    y 0.000000 3.598570 0.000000 
#    z 0.000000 0.000000 3.569400 
# 
# 
# High freq. dielectric constant tensor:
#      x y z
#    x 1.798950 0.000000 0.000000 
#    y 0.000000 1.785030 0.000000 
#    z 0.000000 0.000000 1.796040 
# 
# From -- ./inp_files/10894.got.cif
#   From: 2010.03.12/outbox.cif.g09.slc.cpg/sg36_6_cif.got.tgz:10894.got - 2010.04.14 02:13:53.
