data_PCOD8174066
_publ_section_title
;
Structure prediction by ZEFSAII (Michael W. Deem and Ramdas Pophale) SiO2 
 PCOD8174066
Probable space group: C M M 2
;
_chemical_formula_sum "Si O2"
_cell_formula_units_Z 48
_cell_length_a 7.591504
_cell_length_b 15.820840
_cell_length_c 18.814543
_cell_angle_alpha 90.000000
_cell_angle_beta 90.000000
_cell_angle_gamma 90.000000
_cell_volume 2259.701311
_symmetry_space_group_name_H-M "C M M 2"
_symmetry_group_IT_number 35
_symmetry_cell_setting 'orthorhombic'
loop_
_space_group_symop_operation_xyz
x,y,z
-x,-y,z
-x,y,z
x,-y,z
1/2+x,1/2+y,z
1/2-x,1/2-y,z
1/2-x,1/2+y,z
1/2+x,1/2-y,z
loop_
_atom_site_type_symbol
_atom_site_label
_atom_site_fract_x
_atom_site_fract_y
_atom_site_fract_z
Si Si1 0.291198 0.905368 0.916050
Si Si2 0.806640 0.000000 0.671894
Si Si3 0.792095 0.656101 0.428972
Si Si4 0.500000 0.593317 0.168767
Si Si5 0.695181 0.000000 0.518041
Si Si6 0.294654 0.156138 0.767165
Si Si7 0.500000 0.601340 0.324392
Si Si8 0.293417 0.155126 0.068523
O O1 0.500000 0.907621 0.915065
O O2 0.219411 0.854055 0.847578
O O3 0.214559 0.000000 0.912737
O O4 0.225853 0.861822 0.988355
O O5 0.682975 0.000000 0.603486
O O6 0.787287 0.915395 0.717875
O O7 0.000000 0.000000 0.638867
O O8 0.750000 0.750000 0.458754
O O9 0.722628 0.587253 0.487479
O O10 0.678163 0.638965 0.358589
O O11 0.000000 0.648263 0.411646
O O12 0.500000 0.500000 0.197723
O O13 0.500000 0.641632 0.244243
O O14 0.677608 0.602618 0.123134
O O15 0.500000 0.000000 0.487795
O O16 0.500000 0.139591 0.766246
O O17 0.250000 0.250000 0.738981
O O18 0.500000 0.500000 0.331479
O O19 0.500000 0.133065 0.078038
O O20 0.250000 0.250000 0.088008
#
# Coordination Sequence:
#
# PCOD8174066 Si02
#       8
#     8   4   8   4   4   8   4   8
#     4   9  18  35  62  90 119 170 219 272 331 379
#     4  12  26  42  64  98 132 173 214 260 331 387
#     4  11  23  42  70 104 134 173 223 266 322 392
#     4  11  26  44  64  98 128 176 219 266 342 394
#     4  10  24  44  70  98 134 171 212 265 322 386
#     4  11  22  41  64  90 131 170 219 274 324 388
#     4  11  24  44  70  95 137 175 216 272 330 391
#     4  11  22  41  63  91 132 172 221 276 330 393
#
# _framework density 21.241745000000002
#
# number of rings (size 3 to 8) (size 9 to 14) (size 15 to 20)
#    0.000    1.333    3.333    2.250    1.167    3.000 
#    3.000    3.333    0.000    0.000    0.000    0.000 
#    0.000    0.000    0.000    0.000    0.000    0.000 
#
# Total GULP energy -297479.323437 kJ/mol
# GULP energy per Si atom -12394.971810 kJ/mol
# Density = 2.119340 g / cm^3
# Si number density = 21.241745 Si / 1000 Ang^3
#
#
#
# Elastic Constant Matrix: (Units=GPa)
#
#
# Indices 1 2 3 4 5 6 
#
# 1 100.2431 22.2571 39.7294 0.0000 0.0000 0.0000
# 2 22.2571 144.7178 50.4570 0.0000 0.0000 0.0000
# 3 39.7294 50.4570 148.8102 0.0000 0.0000 0.0000
# 4 0.0000 0.0000 0.0000 15.1793 0.0000 0.0000
# 5 0.0000 0.0000 0.0000 0.0000 26.9722 0.0000
# 6 0.0000 0.0000 0.0000 0.0000 0.0000 23.6187
#
#
#
# Elastic Compliance Matrix: (Units=1/GPa)
#
#
# Indices 1 2 3 4 5 6 
#
# 1 0.011232 -0.000773 -0.002737 0.000000 0.000000 0.000000
# 2 -0.000773 0.007890 -0.002469 0.000000 0.000000 0.000000
# 3 -0.002737 -0.002469 0.008288 0.000000 0.000000 0.000000
# 4 0.000000 0.000000 0.000000 0.065879 0.000000 0.000000
# 5 0.000000 0.000000 0.000000 0.000000 0.037075 0.000000
# 6 0.000000 0.000000 0.000000 0.000000 0.000000 0.042339
#
#
# Mechanical properties :
#
#
# Convention : Reuss Voigt Hill
#
# Bulk Modulus (GPa) = 64.71555 68.73980 66.72767
# Shear Modulus (GPa) = 26.34201 31.90921 29.12561
#
# Velocity S-wave (km/s) = 3.52533 3.88002 3.70692
# Velocity P-wave (km/s) = 6.86316 7.24594 7.05715
#
# Compressibility (1/GPa) = 0.01545224
#
# Stress axis : x y z
#
# Youngs Moduli (GPa) = 89.03114 126.74816 120.66188
#
# Poissons Ratio (x) = 0.09802 0.33019
# Poissons Ratio (y) = 0.06885 0.29788
# Poissons Ratio (z) = 0.24364 0.31290
#
# Static dielectric constant tensor:
#      x y z
#    x 3.619200 0.000000 0.000000 
#    y 0.000000 4.003440 0.000000 
#    z 0.000000 0.000000 3.734650 
# 
# 
# High freq. dielectric constant tensor:
#      x y z
#    x 1.832200 0.000000 0.000000 
#    y 0.000000 1.843780 0.000000 
#    z 0.000000 0.000000 1.824000 
# 
# From -- ./inp_files/17972.got.cif
#   From: 2010.03.12/outbox.cif.g09.slc.cpg/sg35_9_cif.got.tgz:17972.got - 2010.04.14 02:02:04.
