data_PCOD8174101
_publ_section_title
;
Structure prediction by ZEFSAII (Michael W. Deem and Ramdas Pophale) SiO2 
 PCOD8174101
Probable space group: C M M 2
;
_chemical_formula_sum "Si O2"
_cell_formula_units_Z 32
_cell_length_a 10.567452
_cell_length_b 17.578087
_cell_length_c 7.752976
_cell_angle_alpha 90.000000
_cell_angle_beta 90.000000
_cell_angle_gamma 90.000000
_cell_volume 1440.158636
_symmetry_space_group_name_H-M "C M M 2"
_symmetry_group_IT_number 35
_symmetry_cell_setting 'orthorhombic'
loop_
_space_group_symop_operation_xyz
x,y,z
-x,-y,z
-x,y,z
x,-y,z
1/2+x,1/2+y,z
1/2-x,1/2-y,z
1/2-x,1/2+y,z
1/2+x,1/2-y,z
loop_
_atom_site_type_symbol
_atom_site_label
_atom_site_fract_x
_atom_site_fract_y
_atom_site_fract_z
Si Si1 0.743567 0.838857 0.042420
Si Si2 0.768717 0.589826 0.391981
Si Si3 0.000000 0.089822 0.521661
Si Si4 0.500000 0.409186 0.916736
Si Si5 0.359748 0.811846 0.688395
O O1 0.750000 0.750000 0.085183
O O2 0.682536 0.880849 0.206924
O O3 0.657983 0.852826 0.873407
O O4 0.880487 0.874411 0.012180
O O5 0.781620 0.500000 0.402352
O O6 0.624524 0.618926 0.422533
O O7 0.855532 0.624577 0.541195
O O8 0.000000 0.118176 0.718859
O O9 0.000000 0.000000 0.523759
O O10 0.500000 0.500000 0.937874
O O11 0.500000 0.773918 0.682999
O O12 0.250000 0.750000 0.660620
#
# Coordination Sequence:
#
# PCOD8174101 Si02
#       5
#     8   8   4   4   8
#     4  11  25  41  68 105 145 185 237 293 356 422
#     4  11  23  43  69 102 142 186 235 288 354 425
#     4   9  19  37  69 106 137 181 235 291 347 413
#     4  11  21  43  75 106 142 189 245 295 350 423
#     4  11  27  47  72 101 139 185 235 291 359 426
#
# _framework density 22.219774000000001
#
# number of rings (size 3 to 8) (size 9 to 14) (size 15 to 20)
#    0.000    1.250    2.500    2.250    8.750    3.500 
#    4.500    0.000    0.000    0.000    0.000    0.000 
#    0.000    0.000    0.000    0.000    0.000    0.000 
#
# Total GULP energy -198421.322156 kJ/mol
# GULP energy per Si atom -12401.332635 kJ/mol
# Density = 2.216920 g / cm^3
# Si number density = 22.219774 Si / 1000 Ang^3
#
#
#
# Elastic Constant Matrix: (Units=GPa)
#
#
# Indices 1 2 3 4 5 6 
#
# 1 126.5598 55.8205 38.1954 0.0000 0.0000 0.0000
# 2 55.8205 115.2932 65.8276 0.0000 0.0000 0.0000
# 3 38.1954 65.8276 186.2910 0.0000 0.0000 0.0000
# 4 0.0000 0.0000 0.0000 42.6615 0.0000 0.0000
# 5 0.0000 0.0000 0.0000 0.0000 -8.2583 0.0000
# 6 0.0000 0.0000 0.0000 0.0000 0.0000 32.0078
#
#
#
# Elastic Compliance Matrix: (Units=1/GPa)
#
#
# Indices 1 2 3 4 5 6 
#
# 1 0.010074 -0.004633 -0.000428 0.000000 0.000000 0.000000
# 2 -0.004633 0.012996 -0.003642 0.000000 0.000000 0.000000
# 3 -0.000428 -0.003642 0.006743 0.000000 0.000000 0.000000
# 4 0.000000 0.000000 0.000000 0.023440 0.000000 0.000000
# 5 0.000000 0.000000 0.000000 0.000000 -0.121091 0.000000
# 6 0.000000 0.000000 0.000000 0.000000 0.000000 0.031242
#
#
# Mechanical properties :
#
#
# Convention : Reuss Voigt Hill
#
# Bulk Modulus (GPa) = 80.60800 83.09233 81.85017
# Shear Modulus (GPa) = -332.18600 31.16890 -150.50855
#
# Velocity S-wave (km/s) = -12.24029 3.74940 -8.23914
# Velocity P-wave (km/s) = 12.78319 7.49806 7.32083
#
# Compressibility (1/GPa) = 0.01240572
#
# Stress axis : x y z
#
# Youngs Moduli (GPa) = 99.26472 76.94507 148.30431
#
# Poissons Ratio (x) = 0.35648 0.06354
# Poissons Ratio (y) = 0.45988 0.54020
# Poissons Ratio (z) = 0.04253 0.28027
#
# Static dielectric constant tensor:
#      x y z
#    x 4.000810 0.000000 0.000000 
#    y 0.000000 3.731960 0.000000 
#    z 0.000000 0.000000 4.337390 
# 
# 
# High freq. dielectric constant tensor:
#      x y z
#    x 1.863230 0.000000 0.000000 
#    y 0.000000 1.869680 0.000000 
#    z 0.000000 0.000000 1.892620 
# 
# From -- ./inp_files/5681.got.cif
#   From: 2010.03.12/outbox.cif.g09.slc.cpg/sg35_3_cif.got.tgz:5681.got - 2010.04.14 02:02:04.
