data_PCOD8174608
_publ_section_title
;
Structure prediction by ZEFSAII (Michael W. Deem and Ramdas Pophale) SiO2 
 PCOD8174608
Probable space group: C M C 21
;
_chemical_formula_sum "Si O2"
_cell_formula_units_Z 64
_cell_length_a 9.352901
_cell_length_b 16.299716
_cell_length_c 21.059702
_cell_angle_alpha 90.000000
_cell_angle_beta 90.000000
_cell_angle_gamma 90.000000
_cell_volume 3210.543779
_symmetry_space_group_name_H-M "C M C 21"
_symmetry_group_IT_number 36
_symmetry_cell_setting 'orthorhombic'
loop_
_space_group_symop_operation_xyz
x,y,z
-x,-y,1/2+z
x,-y,1/2+z
-x,y,z
1/2+x,1/2+y,z
1/2-x,1/2-y,1/2+z
1/2+x,1/2-y,1/2+z
1/2-x,1/2+y,z
loop_
_atom_site_type_symbol
_atom_site_label
_atom_site_fract_x
_atom_site_fract_y
_atom_site_fract_z
Si Si1 0.166693 0.851840 0.760980
Si Si2 0.343980 0.816958 0.540582
Si Si3 0.333174 0.814327 0.109476
Si Si4 0.166249 0.022972 0.825221
Si Si5 0.156030 0.424993 0.655900
Si Si6 0.159938 0.921789 0.462492
Si Si7 0.335511 0.169386 0.757787
Si Si8 0.161022 0.962124 0.083647
O O1 0.268109 0.857556 0.699703
O O2 0.196063 0.760058 0.789809
O O3 0.000000 0.856130 0.740319
O O4 0.208322 0.929248 0.805949
O O5 0.500000 0.774708 0.526259
O O6 0.228179 0.768136 0.580668
O O7 0.374327 0.894100 0.585217
O O8 0.271144 0.847322 0.474873
O O9 0.500000 0.819415 0.095639
O O10 0.298029 0.821510 0.183691
O O11 0.251689 0.882032 0.067743
O O12 0.207066 0.030352 0.899212
O O13 0.245731 0.094891 0.786987
O O14 0.000000 0.037151 0.812751
O O15 0.265240 0.500471 0.647368
O O16 0.000000 0.451961 0.684343
O O17 0.000000 0.885611 0.454029
O O18 0.162218 0.982632 0.521566
O O19 0.500000 0.145934 0.767993
O O20 0.000000 0.939382 0.103287
#
# Coordination Sequence:
#
# PCOD8174608 Si02
#       8
#     8   8   8   8   8   8   8   8
#     4  10  20  37  59  83 114 158 198 235 293 359
#     4  10  20  34  56  83 111 146 187 233 287 345
#     4  11  21  35  56  85 121 151 186 239 298 358
#     4  10  22  40  62  84 113 155 203 247 290 347
#     4  10  19  32  53  82 112 142 183 232 286 345
#     4   9  20  40  59  78 110 152 194 237 290 348
#     4  10  22  38  58  88 123 157 195 240 299 359
#     4  10  20  34  55  81 112 149 190 235 291 355
#
# _framework density 19.934318000000001
#
# number of rings (size 3 to 8) (size 9 to 14) (size 15 to 20)
#    0.000    2.000    1.250    2.250    0.000    6.000 
#    2.250    0.000    0.000    0.000    0.000    0.000 
#    0.000    0.000    0.000    0.000    0.000    0.000 
#
# Total GULP energy -396457.588458 kJ/mol
# GULP energy per Si atom -12389.299639 kJ/mol
# Density = 1.988895 g / cm^3
# Si number density = 19.934318 Si / 1000 Ang^3
#
#
#
# Elastic Constant Matrix: (Units=GPa)
#
#
# Indices 1 2 3 4 5 6 
#
# 1 119.8466 44.5759 26.5625 0.0000 0.0000 0.0000
# 2 44.5759 95.1362 13.8754 0.0000 0.0000 0.0000
# 3 26.5625 13.8754 29.1324 0.0000 0.0000 0.0000
# 4 0.0000 0.0000 0.0000 13.8185 0.0000 0.0000
# 5 0.0000 0.0000 0.0000 0.0000 22.0494 0.0000
# 6 0.0000 0.0000 0.0000 0.0000 0.0000 33.9313
#
#
#
# Elastic Compliance Matrix: (Units=1/GPa)
#
#
# Indices 1 2 3 4 5 6 
#
# 1 0.011889 -0.004287 -0.008798 0.000000 0.000000 0.000000
# 2 -0.004287 0.012842 -0.002207 0.000000 0.000000 0.000000
# 3 -0.008798 -0.002207 0.043399 0.000000 0.000000 0.000000
# 4 0.000000 0.000000 0.000000 0.072367 0.000000 0.000000
# 5 0.000000 0.000000 0.000000 0.000000 0.045353 0.000000
# 6 0.000000 0.000000 0.000000 0.000000 0.000000 0.029471
#
#
# Mechanical properties :
#
#
# Convention : Reuss Voigt Hill
#
# Bulk Modulus (GPa) = 26.63496 46.01586 36.32541
# Shear Modulus (GPa) = 19.34832 24.56659 21.95746
#
# Velocity S-wave (km/s) = 3.11883 3.51433 3.32247
# Velocity P-wave (km/s) = 5.13418 6.29295 5.74287
#
# Compressibility (1/GPa) = 0.03754464
#
# Stress axis : x y z
#
# Youngs Moduli (GPa) = 84.11489 77.86974 23.04194
#
# Poissons Ratio (x) = 0.33384 0.20272
# Poissons Ratio (y) = 0.36062 0.05086
# Poissons Ratio (z) = 0.74003 0.17190
#
# Static dielectric constant tensor:
#      x y z
#    x 3.990060 0.000000 0.000000 
#    y 0.000000 3.729420 0.000000 
#    z 0.000000 0.000000 3.394360 
# 
# 
# High freq. dielectric constant tensor:
#      x y z
#    x 1.790060 0.000000 0.000000 
#    y 0.000000 1.776940 0.000000 
#    z 0.000000 0.000000 1.748170 
# 
# From -- ./inp_files/15662.got.cif
#   From: 2010.03.12/outbox.cif.g09.slc.cpg/sg36_8_cif.got.tgz:15662.got - 2010.04.14 02:13:53.
