data_PCOD8174556
_publ_section_title
;
Structure prediction by ZEFSAII (Michael W. Deem and Ramdas Pophale) SiO2 
 PCOD8174556
Probable space group: C M C 21
;
_chemical_formula_sum "Si O2"
_cell_formula_units_Z 64
_cell_length_a 9.060947
_cell_length_b 29.590136
_cell_length_c 13.962206
_cell_angle_alpha 90.000000
_cell_angle_beta 90.000000
_cell_angle_gamma 90.000000
_cell_volume 3743.472031
_symmetry_space_group_name_H-M "C M C 21"
_symmetry_group_IT_number 36
_symmetry_cell_setting 'orthorhombic'
loop_
_space_group_symop_operation_xyz
x,y,z
-x,-y,1/2+z
x,-y,1/2+z
-x,y,z
1/2+x,1/2+y,z
1/2-x,1/2-y,1/2+z
1/2+x,1/2-y,1/2+z
1/2-x,1/2+y,z
loop_
_atom_site_type_symbol
_atom_site_label
_atom_site_fract_x
_atom_site_fract_y
_atom_site_fract_z
Si Si1 0.325325 0.905958 0.209680
Si Si2 0.328434 0.747326 0.276027
Si Si3 0.669126 0.493331 0.211479
Si Si4 0.673302 0.322049 0.615828
Si Si5 0.668776 0.562414 0.882824
Si Si6 0.329842 0.751352 0.493679
Si Si7 0.672738 0.681570 0.654602
Si Si8 0.674929 0.577315 0.095964
O O1 0.500000 0.904154 0.207494
O O2 0.266347 0.902291 0.320127
O O3 0.258935 0.865425 0.147559
O O4 0.265880 0.953056 0.163637
O O5 0.500000 0.759562 0.260779
O O6 0.285083 0.702859 0.215039
O O7 0.290507 0.737311 0.385873
O O8 0.231030 0.789806 0.244537
O O9 0.500000 0.487874 0.176679
O O10 0.678885 0.486749 0.328092
O O11 0.732371 0.541676 0.176133
O O12 0.500000 0.323796 0.599414
O O13 0.739781 0.295426 0.525623
O O14 0.739452 0.372940 0.618637
O O15 0.500000 0.579925 0.882678
O O16 0.728767 0.560101 0.991175
O O17 0.500000 0.764173 0.505857
O O18 0.288517 0.708208 0.557657
O O19 0.500000 0.672442 0.667028
O O20 0.500000 0.579367 0.100250
#
# Coordination Sequence:
#
# PCOD8174556 Si02
#       8
#     8   8   8   8   8   8   8   8
#     4  10  19  32  49  71  98 126 160 203 247 291
#     4   9  18  33  49  71 103 131 161 205 252 295
#     4   8  16  31  49  70  98 126 157 201 244 287
#     4   9  18  31  50  76 101 129 166 207 246 292
#     4   8  16  30  49  72  97 123 159 201 241 289
#     4   9  19  33  48  69  99 133 166 202 247 299
#     4  10  19  32  50  71  96 130 168 205 246 296
#     4   9  16  30  52  76  98 126 165 204 241 291
#
# _framework density 17.096428
#
# number of rings (size 3 to 8) (size 9 to 14) (size 15 to 20)
#    0.750    2.250    0.000    1.125    1.750    1.000 
#    0.000    2.500    0.000    6.000    0.000    0.000 
#    0.000    0.000    0.000    0.000    0.000    0.000 
#
# Total GULP energy -396521.526599 kJ/mol
# GULP energy per Si atom -12391.297706 kJ/mol
# Density = 1.705752 g / cm^3
# Si number density = 17.096428 Si / 1000 Ang^3
#
#
#
# Elastic Constant Matrix: (Units=GPa)
#
#
# Indices 1 2 3 4 5 6 
#
# 1 58.8307 37.8588 24.1425 0.0000 0.0000 0.0000
# 2 37.8588 138.0206 57.4588 0.0000 0.0000 0.0000
# 3 24.1425 57.4588 95.6497 0.0000 0.0000 0.0000
# 4 0.0000 0.0000 0.0000 19.6555 0.0000 0.0000
# 5 0.0000 0.0000 0.0000 0.0000 16.9296 0.0000
# 6 0.0000 0.0000 0.0000 0.0000 0.0000 21.8456
#
#
#
# Elastic Compliance Matrix: (Units=1/GPa)
#
#
# Indices 1 2 3 4 5 6 
#
# 1 0.021067 -0.004754 -0.002462 0.000000 0.000000 0.000000
# 2 -0.004754 0.010734 -0.005248 0.000000 0.000000 0.000000
# 3 -0.002462 -0.005248 0.014229 0.000000 0.000000 0.000000
# 4 0.000000 0.000000 0.000000 0.050876 0.000000 0.000000
# 5 0.000000 0.000000 0.000000 0.000000 0.059068 0.000000
# 6 0.000000 0.000000 0.000000 0.000000 0.000000 0.045776
#
#
# Mechanical properties :
#
#
# Convention : Reuss Voigt Hill
#
# Bulk Modulus (GPa) = 47.38763 59.04683 53.21723
# Shear Modulus (GPa) = 21.39374 23.22219 22.30797
#
# Velocity S-wave (km/s) = 3.54129 3.68952 3.61616
# Velocity P-wave (km/s) = 6.67076 7.26379 6.97358
#
# Compressibility (1/GPa) = 0.02110256
#
# Stress axis : x y z
#
# Youngs Moduli (GPa) = 47.46663 93.16011 70.27917
#
# Poissons Ratio (x) = 0.44288 0.17301
# Poissons Ratio (y) = 0.22565 0.36885
# Poissons Ratio (z) = 0.11685 0.48894
#
# Static dielectric constant tensor:
#      x y z
#    x 3.014510 0.000000 0.000000 
#    y 0.000000 3.287240 0.000000 
#    z 0.000000 0.000000 3.181190 
# 
# 
# High freq. dielectric constant tensor:
#      x y z
#    x 1.644000 0.000000 0.000000 
#    y 0.000000 1.652060 0.000000 
#    z 0.000000 0.000000 1.645890 
# 
# From -- ./inp_files/11199.got.cif
#   From: 2010.03.12/outbox.cif.g09.slc.cpg/sg36_6_cif.got.tgz:11199.got - 2010.04.14 02:13:53.
