data_PCOD8174309
_publ_section_title
;
Structure prediction by ZEFSAII (Michael W. Deem and Ramdas Pophale) SiO2 
 PCOD8174309
Probable space group: C M C 21
;
_chemical_formula_sum "Si O2"
_cell_formula_units_Z 64
_cell_length_a 8.749250
_cell_length_b 23.164817
_cell_length_c 16.446436
_cell_angle_alpha 90.000000
_cell_angle_beta 90.000000
_cell_angle_gamma 90.000000
_cell_volume 3333.277718
_symmetry_space_group_name_H-M "C M C 21"
_symmetry_group_IT_number 36
_symmetry_cell_setting 'orthorhombic'
loop_
_space_group_symop_operation_xyz
x,y,z
-x,-y,1/2+z
x,-y,1/2+z
-x,y,z
1/2+x,1/2+y,z
1/2-x,1/2-y,1/2+z
1/2+x,1/2-y,1/2+z
1/2-x,1/2+y,z
loop_
_atom_site_type_symbol
_atom_site_label
_atom_site_fract_x
_atom_site_fract_y
_atom_site_fract_z
Si Si1 0.320452 0.593400 0.253810
Si Si2 0.834187 0.867036 0.177535
Si Si3 0.834294 0.200847 0.839863
Si Si4 0.181565 0.776652 0.053869
Si Si5 0.322820 0.309876 0.872389
Si Si6 0.318131 0.349621 0.586784
Si Si7 0.316070 0.534076 0.785823
Si Si8 0.679391 0.896063 0.430968
O O1 0.500000 0.586596 0.244009
O O2 0.277500 0.627796 0.336357
O O3 0.258043 0.626367 0.173851
O O4 0.251777 0.529363 0.265712
O O5 0.859681 0.827834 0.254770
O O6 0.746780 0.827312 0.111653
O O7 0.752822 0.925432 0.211168
O O8 0.000000 0.884005 0.140228
O O9 0.771911 0.264054 0.820340
O O10 0.711044 0.167517 0.894895
O O11 0.000000 0.202573 0.885130
O O12 0.257130 0.715074 0.071695
O O13 0.000000 0.769990 0.067084
O O14 0.223595 0.801209 0.965621
O O15 0.500000 0.298150 0.857562
O O16 0.500000 0.348140 0.583176
O O17 0.254899 0.395451 0.520405
O O18 0.500000 0.538238 0.790394
O O19 0.252848 0.554955 0.873259
O O20 0.500000 0.906922 0.438257
#
# Coordination Sequence:
#
# PCOD8174309 Si02
#       8
#     8   8   8   8   8   8   8   8
#     4   9  20  37  56  83 114 149 191 235 277 328
#     4   8  16  30  51  77 102 135 177 221 264 319
#     4  10  18  31  53  78 106 140 180 222 270 327
#     4  10  19  32  51  80 113 143 179 223 280 339
#     4  10  19  32  51  78 115 147 175 220 277 332
#     4  11  21  35  56  83 113 145 187 232 282 335
#     4   9  18  38  60  79 109 146 192 232 271 331
#     4  11  21  35  56  82 110 143 185 231 281 331
#
# _framework density 19.200320000000001
#
# number of rings (size 3 to 8) (size 9 to 14) (size 15 to 20)
#    0.000    2.250    1.250    3.375    0.000    0.000 
#    2.250    5.000    0.000    0.000    0.000    0.000 
#    0.000    0.000    0.000    0.000    0.000    0.000 
#
# Total GULP energy -396483.163105 kJ/mol
# GULP energy per Si atom -12390.098847 kJ/mol
# Density = 1.915662 g / cm^3
# Si number density = 19.200320 Si / 1000 Ang^3
#
#
#
# Elastic Constant Matrix: (Units=GPa)
#
#
# Indices 1 2 3 4 5 6 
#
# 1 53.9282 36.1176 30.7362 0.0000 0.0000 0.0000
# 2 36.1176 159.0853 80.1718 0.0000 0.0000 0.0000
# 3 30.7362 80.1718 107.4824 0.0000 0.0000 0.0000
# 4 0.0000 0.0000 0.0000 12.4260 0.0000 0.0000
# 5 0.0000 0.0000 0.0000 0.0000 14.2497 0.0000
# 6 0.0000 0.0000 0.0000 0.0000 0.0000 17.2098
#
#
#
# Elastic Compliance Matrix: (Units=1/GPa)
#
#
# Indices 1 2 3 4 5 6 
#
# 1 0.023049 -0.003062 -0.004307 0.000000 0.000000 0.000000
# 2 -0.003062 0.010479 -0.006941 0.000000 0.000000 0.000000
# 3 -0.004307 -0.006941 0.015712 0.000000 0.000000 0.000000
# 4 0.000000 0.000000 0.000000 0.080477 0.000000 0.000000
# 5 0.000000 0.000000 0.000000 0.000000 0.070177 0.000000
# 6 0.000000 0.000000 0.000000 0.000000 0.000000 0.058107
#
#
# Mechanical properties :
#
#
# Convention : Reuss Voigt Hill
#
# Bulk Modulus (GPa) = 48.49526 68.28301 58.38913
# Shear Modulus (GPa) = 17.03615 20.34178 18.68897
#
# Velocity S-wave (km/s) = 2.98196 3.25845 3.12327
# Velocity P-wave (km/s) = 6.09660 7.05672 6.59416
#
# Compressibility (1/GPa) = 0.02062057
#
# Stress axis : x y z
#
# Youngs Moduli (GPa) = 43.38608 95.42961 63.64368
#
# Poissons Ratio (x) = 0.29224 0.27411
# Poissons Ratio (y) = 0.13286 0.44172
# Poissons Ratio (z) = 0.18686 0.66234
#
# Static dielectric constant tensor:
#      x y z
#    x 3.419860 0.000000 0.000000 
#    y 0.000000 4.105100 0.000000 
#    z 0.000000 0.000000 3.717750 
# 
# 
# High freq. dielectric constant tensor:
#      x y z
#    x 1.717870 0.000000 0.000000 
#    y 0.000000 1.742780 0.000000 
#    z 0.000000 0.000000 1.749350 
# 
# From -- ./inp_files/14060.got.cif
#   From: 2010.03.12/outbox.cif.g09.slc.cpg/sg36_8_cif.got.tgz:14060.got - 2010.04.14 02:13:53.
