data_PCOD8174289
_publ_section_title
;
Structure prediction by ZEFSAII (Michael W. Deem and Ramdas Pophale) SiO2 
 PCOD8174289
Probable space group: C M C 21
;
_chemical_formula_sum "Si O2"
_cell_formula_units_Z 60
_cell_length_a 19.489498
_cell_length_b 28.685269
_cell_length_c 5.237132
_cell_angle_alpha 90.000000
_cell_angle_beta 90.000000
_cell_angle_gamma 90.000000
_cell_volume 2927.878834
_symmetry_space_group_name_H-M "C M C 21"
_symmetry_group_IT_number 36
_symmetry_cell_setting 'orthorhombic'
loop_
_space_group_symop_operation_xyz
x,y,z
-x,-y,1/2+z
x,-y,1/2+z
-x,y,z
1/2+x,1/2+y,z
1/2-x,1/2-y,1/2+z
1/2+x,1/2-y,1/2+z
1/2-x,1/2+y,z
loop_
_atom_site_type_symbol
_atom_site_label
_atom_site_fract_x
_atom_site_fract_y
_atom_site_fract_z
Si Si1 0.323396 0.394103 0.651280
Si Si2 0.500000 0.024995 0.567198
Si Si3 0.818611 0.789257 0.607562
Si Si4 0.227961 0.936595 0.156152
Si Si5 0.082389 0.358981 0.590333
Si Si6 0.837822 0.267570 0.607998
Si Si7 0.124010 0.411763 0.099500
Si Si8 0.108152 0.014341 0.140450
O O1 0.348823 0.341423 0.621366
O O2 0.272584 0.408541 0.422687
O O3 0.386071 0.430297 0.620704
O O4 0.293790 0.400928 0.933600
O O5 0.434568 0.052244 0.660171
O O6 0.500000 0.019179 0.260102
O O7 0.845355 0.767061 0.346384
O O8 0.736109 0.792754 0.616594
O O9 0.847430 0.760535 0.846097
O O10 0.308272 0.944541 0.104526
O O11 0.181735 0.984306 0.157759
O O12 0.101672 0.305010 0.629847
O O13 0.119363 0.373896 0.326790
O O14 0.000000 0.364485 0.580945
O O15 0.114331 0.387440 0.826025
O O16 0.065852 0.002813 0.395438
#
# Coordination Sequence:
#
# PCOD8174289 Si02
#       8
#     8   4   8   8   8   8   8   8
#     4  10  18  31  48  70  98 129 158 200 243 309
#     4  12  26  40  52  70  96 126 164 220 286 312
#     4  10  19  33  49  75 103 122 157 196 265 316
#     4  10  19  30  50  71  95 126 172 204 244 291
#     4  12  23  41  60  74  97 129 181 219 264 311
#     4  10  21  33  52  75  98 125 154 212 256 311
#     4  12  23  39  55  71  93 128 170 221 262 306
#     4   8  16  27  41  64  93 119 162 195 226 279
#
# _framework density 20.492650000000001
#
# number of rings (size 3 to 8) (size 9 to 14) (size 15 to 20)
#    0.000    1.600    1.333    4.800    0.000    5.333 
#    0.000    0.000    0.000    0.000    0.000    0.000 
#    0.000    0.000    0.000    0.000    0.000  120.000 
#
# Total GULP energy -371694.240464 kJ/mol
# GULP energy per Si atom -12389.808015 kJ/mol
# Density = 2.044601 g / cm^3
# Si number density = 20.492650 Si / 1000 Ang^3
#
#
#
# Elastic Constant Matrix: (Units=GPa)
#
#
# Indices 1 2 3 4 5 6 
#
# 1 35.9037 5.5748 -2.8145 0.0000 0.0000 0.0000
# 2 5.5748 102.0743 17.2195 0.0000 0.0000 0.0000
# 3 -2.8145 17.2195 128.1934 0.0000 0.0000 0.0000
# 4 0.0000 0.0000 0.0000 33.5861 0.0000 0.0000
# 5 0.0000 0.0000 0.0000 0.0000 -1.8520 0.0000
# 6 0.0000 0.0000 0.0000 0.0000 0.0000 18.4374
#
#
#
# Elastic Compliance Matrix: (Units=1/GPa)
#
#
# Indices 1 2 3 4 5 6 
#
# 1 0.028180 -0.001682 0.000845 0.000000 0.000000 0.000000
# 2 -0.001682 0.010124 -0.001397 0.000000 0.000000 0.000000
# 3 0.000845 -0.001397 0.008007 0.000000 0.000000 0.000000
# 4 0.000000 0.000000 0.000000 0.029774 0.000000 0.000000
# 5 0.000000 0.000000 0.000000 0.000000 -0.539954 0.000000
# 6 0.000000 0.000000 0.000000 0.000000 0.000000 0.054237
#
#
# Mechanical properties :
#
#
# Convention : Reuss Voigt Hill
#
# Bulk Modulus (GPa) = 23.89881 34.01458 28.95669
# Shear Modulus (GPa) = -12.78065 26.44708 6.83322
#
# Velocity S-wave (km/s) = -2.50005 3.59634 1.82803
# Velocity P-wave (km/s) = 1.83134 5.82060 4.31469
#
# Compressibility (1/GPa) = 0.04184309
#
# Stress axis : x y z
#
# Youngs Moduli (GPa) = 35.48671 98.77259 124.89251
#
# Poissons Ratio (x) = 0.16609 -0.10548
# Poissons Ratio (y) = 0.05967 0.17446
# Poissons Ratio (z) = -0.02997 0.13797
#
# Static dielectric constant tensor:
#      x y z
#    x 3.244630 0.000000 0.000000 
#    y 0.000000 3.646600 0.000000 
#    z 0.000000 0.000000 4.402500 
# 
# 
# High freq. dielectric constant tensor:
#      x y z
#    x 1.754430 0.000000 0.000000 
#    y 0.000000 1.798850 0.000000 
#    z 0.000000 0.000000 1.839270 
# 
# From -- ./inp_files/1444.got.cif
#   From: 2010.03.12/outbox.cif.g09.slc.cpg/sg36_1_cif.got.tgz:1444.got - 2010.04.14 02:13:53.
