data_PCOD8174487
_publ_section_title
;
Structure prediction by ZEFSAII (Michael W. Deem and Ramdas Pophale) SiO2 
 PCOD8174487
Probable space group: C M C 21
;
_chemical_formula_sum "Si O2"
_cell_formula_units_Z 64
_cell_length_a 9.054367
_cell_length_b 20.926578
_cell_length_c 19.254854
_cell_angle_alpha 90.000000
_cell_angle_beta 90.000000
_cell_angle_gamma 90.000000
_cell_volume 3648.350378
_symmetry_space_group_name_H-M "C M C 21"
_symmetry_group_IT_number 36
_symmetry_cell_setting 'orthorhombic'
loop_
_space_group_symop_operation_xyz
x,y,z
-x,-y,1/2+z
x,-y,1/2+z
-x,y,z
1/2+x,1/2+y,z
1/2-x,1/2-y,1/2+z
1/2+x,1/2-y,1/2+z
1/2-x,1/2+y,z
loop_
_atom_site_type_symbol
_atom_site_label
_atom_site_fract_x
_atom_site_fract_y
_atom_site_fract_z
Si Si1 0.325608 0.685329 0.925380
Si Si2 0.673122 0.428637 0.936215
Si Si3 0.826448 0.939903 0.497902
Si Si4 0.824486 0.690308 0.507631
Si Si5 0.830582 0.122497 0.291836
Si Si6 0.174095 0.245388 0.633081
Si Si7 0.671948 0.621254 0.137571
Si Si8 0.827997 0.753128 0.288690
O O1 0.500000 0.682087 0.934685
O O2 0.279574 0.692897 0.844384
O O3 0.255869 0.620209 0.956140
O O4 0.267488 0.746932 0.967099
O O5 0.500000 0.420235 0.953235
O O6 0.700811 0.429104 0.852562
O O7 0.739128 0.494244 0.967872
O O8 0.762861 0.371780 0.970405
O O9 0.790123 0.932832 0.580209
O O10 0.000000 0.941310 0.484535
O O11 0.756392 0.694332 0.584721
O O12 0.000000 0.685769 0.511527
O O13 0.788618 0.095093 0.215007
O O14 0.743438 0.186308 0.309319
O O15 0.000000 0.142855 0.291739
O O16 0.233288 0.316528 0.619493
O O17 0.214260 0.224032 0.711632
O O18 0.000000 0.244018 0.619030
O O19 0.500000 0.640636 0.131504
O O20 0.000000 0.739588 0.295038
#
# Coordination Sequence:
#
# PCOD8174487 Si02
#       8
#     8   8   8   8   8   8   8   8
#     4   9  16  29  51  75  95 125 168 204 241 294
#     4  10  20  33  49  74 105 133 165 212 259 295
#     4   9  17  31  51  73 100 132 170 211 248 297
#     4  11  20  33  54  74  99 134 170 205 246 305
#     4   9  17  28  46  73 101 127 164 210 254 300
#     4  10  19  30  48  77 107 129 162 214 259 294
#     4   9  16  30  50  72  98 134 174 205 248 309
#     4   9  17  30  49  74 101 130 165 205 251 300
#
# _framework density 17.542175
#
# number of rings (size 3 to 8) (size 9 to 14) (size 15 to 20)
#    0.000    2.500    2.500    0.750    0.000    0.500 
#    0.000    1.875    0.000    6.000    0.000    1.750 
#    0.000    0.000    0.000    0.000    0.000    0.000 
#
# Total GULP energy -396626.136289 kJ/mol
# GULP energy per Si atom -12394.566759 kJ/mol
# Density = 1.750225 g / cm^3
# Si number density = 17.542175 Si / 1000 Ang^3
#
#
#
# Elastic Constant Matrix: (Units=GPa)
#
#
# Indices 1 2 3 4 5 6 
#
# 1 37.7746 27.8949 34.2099 0.0000 0.0000 0.0000
# 2 27.8949 113.6504 76.7894 0.0000 0.0000 0.0000
# 3 34.2099 76.7894 151.0347 0.0000 0.0000 0.0000
# 4 0.0000 0.0000 0.0000 29.1073 0.0000 0.0000
# 5 0.0000 0.0000 0.0000 0.0000 20.5988 0.0000
# 6 0.0000 0.0000 0.0000 0.0000 0.0000 19.6420
#
#
#
# Elastic Compliance Matrix: (Units=1/GPa)
#
#
# Indices 1 2 3 4 5 6 
#
# 1 0.035029 -0.004931 -0.005427 0.000000 0.000000 0.000000
# 2 -0.004931 0.014097 -0.006051 0.000000 0.000000 0.000000
# 3 -0.005427 -0.006051 0.010927 0.000000 0.000000 0.000000
# 4 0.000000 0.000000 0.000000 0.034356 0.000000 0.000000
# 5 0.000000 0.000000 0.000000 0.000000 0.048546 0.000000
# 6 0.000000 0.000000 0.000000 0.000000 0.000000 0.050911
#
#
# Mechanical properties :
#
#
# Convention : Reuss Voigt Hill
#
# Bulk Modulus (GPa) = 36.71645 64.47201 50.59423
# Shear Modulus (GPa) = 21.20785 24.77401 22.99093
#
# Velocity S-wave (km/s) = 3.48079 3.76207 3.62416
# Velocity P-wave (km/s) = 6.09347 7.46346 6.81299
#
# Compressibility (1/GPa) = 0.02723575
#
# Stress axis : x y z
#
# Youngs Moduli (GPa) = 28.54777 70.93582 91.52026
#
# Poissons Ratio (x) = 0.34976 0.49671
# Poissons Ratio (y) = 0.14076 0.55375
# Poissons Ratio (z) = 0.15494 0.42920
#
# Static dielectric constant tensor:
#      x y z
#    x 3.065130 0.000000 0.000000 
#    y 0.000000 3.189160 0.000000 
#    z 0.000000 0.000000 3.763040 
# 
# 
# High freq. dielectric constant tensor:
#      x y z
#    x 1.654160 0.000000 0.000000 
#    y 0.000000 1.644820 0.000000 
#    z 0.000000 0.000000 1.700310 
# 
# From -- ./inp_files/15646.got.cif
#   From: 2010.03.12/outbox.cif.g09.slc.cpg/sg36_8_cif.got.tgz:15646.got - 2010.04.14 02:13:53.
