data_PCOD8174214
_publ_section_title
;
Structure prediction by ZEFSAII (Michael W. Deem and Ramdas Pophale) SiO2 
 PCOD8174214
Probable space group: C M C 21
;
_chemical_formula_sum "Si O2"
_cell_formula_units_Z 64
_cell_length_a 8.646450
_cell_length_b 22.902221
_cell_length_c 16.600725
_cell_angle_alpha 90.000000
_cell_angle_beta 90.000000
_cell_angle_gamma 90.000000
_cell_volume 3287.323852
_symmetry_space_group_name_H-M "C M C 21"
_symmetry_group_IT_number 36
_symmetry_cell_setting 'orthorhombic'
loop_
_space_group_symop_operation_xyz
x,y,z
-x,-y,1/2+z
x,-y,1/2+z
-x,y,z
1/2+x,1/2+y,z
1/2-x,1/2-y,1/2+z
1/2+x,1/2-y,1/2+z
1/2-x,1/2+y,z
loop_
_atom_site_type_symbol
_atom_site_label
_atom_site_fract_x
_atom_site_fract_y
_atom_site_fract_z
Si Si1 0.822513 0.892718 0.296390
Si Si2 0.327993 0.927922 0.587829
Si Si3 0.170967 0.451902 0.158032
Si Si4 0.679796 0.596863 0.372848
Si Si5 0.682452 0.287305 0.190010
Si Si6 0.679998 0.631611 0.546935
Si Si7 0.681732 0.972796 0.421919
Si Si8 0.814937 0.658308 0.216568
O O1 0.804011 0.935783 0.220815
O O2 0.767323 0.829153 0.264308
O O3 0.711891 0.916555 0.365897
O O4 0.000000 0.892425 0.325234
O O5 0.500000 0.908619 0.561159
O O6 0.243897 0.951763 0.507382
O O7 0.248569 0.874770 0.636646
O O8 0.334842 0.978919 0.653523
O O9 0.218506 0.424549 0.071970
O O10 0.000000 0.428768 0.183536
O O11 0.500000 0.592272 0.353011
O O12 0.709568 0.638459 0.451269
O O13 0.738276 0.530918 0.387817
O O14 0.762541 0.627910 0.298663
O O15 0.500000 0.281910 0.188709
O O16 0.735346 0.313209 0.102377
O O17 0.753748 0.223725 0.208149
O O18 0.500000 0.618998 0.563915
O O19 0.500000 0.985914 0.428836
O O20 0.000000 0.656679 0.215802
#
# Coordination Sequence:
#
# PCOD8174214 Si02
#       8
#     8   8   8   8   8   8   8   8
#     4  10  20  35  54  81 111 146 184 226 276 335
#     4   9  19  33  52  79 109 138 179 229 277 328
#     4  10  17  30  53  81 109 140 178 227 277 328
#     4  11  22  36  56  86 118 148 184 234 292 342
#     4   8  17  36  59  78 105 148 194 226 268 335
#     4   9  18  34  55  80 109 146 187 228 277 338
#     4  11  21  36  55  83 114 144 185 234 284 340
#     4  10  20  38  60  80 109 154 195 232 279 334
#
# _framework density 19.468724000000002
#
# number of rings (size 3 to 8) (size 9 to 14) (size 15 to 20)
#    0.000    2.250    1.250    3.000    0.000    1.500 
#    2.250    5.000    0.000    0.000    0.000    0.000 
#    0.000    0.000    0.000    0.000    0.000    0.000 
#
# Total GULP energy -396479.722952 kJ/mol
# GULP energy per Si atom -12389.991342 kJ/mol
# Density = 1.942441 g / cm^3
# Si number density = 19.468724 Si / 1000 Ang^3
#
#
#
# Elastic Constant Matrix: (Units=GPa)
#
#
# Indices 1 2 3 4 5 6 
#
# 1 35.6897 21.9164 12.9262 0.0000 0.0000 0.0000
# 2 21.9164 140.6535 71.7363 0.0000 0.0000 0.0000
# 3 12.9262 71.7363 107.0125 0.0000 0.0000 0.0000
# 4 0.0000 0.0000 0.0000 29.7642 0.0000 0.0000
# 5 0.0000 0.0000 0.0000 0.0000 23.8794 0.0000
# 6 0.0000 0.0000 0.0000 0.0000 0.0000 18.4816
#
#
#
# Elastic Compliance Matrix: (Units=1/GPa)
#
#
# Indices 1 2 3 4 5 6 
#
# 1 0.031026 -0.004442 -0.000770 0.000000 0.000000 0.000000
# 2 -0.004442 0.011439 -0.007132 0.000000 0.000000 0.000000
# 3 -0.000770 -0.007132 0.014219 0.000000 0.000000 0.000000
# 4 0.000000 0.000000 0.000000 0.033597 0.000000 0.000000
# 5 0.000000 0.000000 0.000000 0.000000 0.041877 0.000000
# 6 0.000000 0.000000 0.000000 0.000000 0.000000 0.054108
#
#
# Mechanical properties :
#
#
# Convention : Reuss Voigt Hill
#
# Bulk Modulus (GPa) = 31.25359 55.16816 43.21088
# Shear Modulus (GPa) = 22.56133 26.21016 24.38574
#
# Velocity S-wave (km/s) = 3.40788 3.67314 3.54299
# Velocity P-wave (km/s) = 5.61898 6.81084 6.24342
#
# Compressibility (1/GPa) = 0.03199632
#
# Stress axis : x y z
#
# Youngs Moduli (GPa) = 32.23128 87.41954 70.33066
#
# Poissons Ratio (x) = 0.38828 0.05417
# Poissons Ratio (y) = 0.14316 0.50158
# Poissons Ratio (z) = 0.02483 0.62345
#
# Static dielectric constant tensor:
#      x y z
#    x 3.345010 0.000000 0.000000 
#    y 0.000000 3.765310 0.000000 
#    z 0.000000 0.000000 3.728390 
# 
# 
# High freq. dielectric constant tensor:
#      x y z
#    x 1.733850 0.000000 0.000000 
#    y 0.000000 1.747520 0.000000 
#    z 0.000000 0.000000 1.763030 
# 
# From -- ./inp_files/14075.got.cif
#   From: 2010.03.12/outbox.cif.g09.slc.cpg/sg36_8_cif.got.tgz:14075.got - 2010.04.14 02:13:53.
