data_PCOD8174202
_publ_section_title
;
Structure prediction by ZEFSAII (Michael W. Deem and Ramdas Pophale) SiO2 
 PCOD8174202
Probable space group: C M C 21
;
_chemical_formula_sum "Si O2"
_cell_formula_units_Z 64
_cell_length_a 9.153352
_cell_length_b 19.326345
_cell_length_c 21.886505
_cell_angle_alpha 90.000000
_cell_angle_beta 90.000000
_cell_angle_gamma 90.000000
_cell_volume 3871.741090
_symmetry_space_group_name_H-M "C M C 21"
_symmetry_group_IT_number 36
_symmetry_cell_setting 'orthorhombic'
loop_
_space_group_symop_operation_xyz
x,y,z
-x,-y,1/2+z
x,-y,1/2+z
-x,y,z
1/2+x,1/2+y,z
1/2-x,1/2-y,1/2+z
1/2+x,1/2-y,1/2+z
1/2-x,1/2+y,z
loop_
_atom_site_type_symbol
_atom_site_label
_atom_site_fract_x
_atom_site_fract_y
_atom_site_fract_z
Si Si1 0.667296 0.763789 0.756050
Si Si2 0.826816 0.669804 0.977537
Si Si3 0.831038 0.592995 0.203720
Si Si4 0.331968 0.057864 0.737507
Si Si5 0.170364 0.336714 0.339068
Si Si6 0.163436 0.120560 0.085435
Si Si7 0.668190 0.653405 0.651061
Si Si8 0.836016 0.730398 0.553941
O O1 0.500000 0.765823 0.776575
O O2 0.725682 0.841290 0.742413
O O3 0.755302 0.732040 0.812518
O O4 0.688744 0.718252 0.695686
O O5 0.781378 0.650775 0.908670
O O6 0.000000 0.672385 0.987299
O O7 0.756343 0.611216 0.022293
O O8 0.757095 0.745234 0.994320
O O9 0.808388 0.524341 0.244580
O O10 0.742221 0.582601 0.141225
O O11 0.000000 0.604651 0.185899
O O12 0.500000 0.075517 0.722421
O O13 0.283799 0.095172 0.800471
O O14 0.234743 0.085002 0.681557
O O15 0.000000 0.322671 0.335194
O O16 0.155369 0.203045 0.099286
O O17 0.000000 0.089861 0.077173
O O18 0.500000 0.639752 0.635314
O O19 0.754014 0.668148 0.588219
O O20 0.000000 0.706858 0.535000
#
# Coordination Sequence:
#
# PCOD8174202 Si02
#       8
#     8   8   8   8   8   8   8   8
#     4   9  17  27  44  67  90 118 153 190 230 274
#     4   9  16  28  46  68  92 120 157 197 236 283
#     4  10  18  31  49  70  97 128 160 195 236 283
#     4   9  19  32  47  68  99 131 159 193 234 281
#     4   9  18  31  47  69  93 122 158 196 237 280
#     4   9  18  28  45  71  94 118 150 196 239 278
#     4  10  17  28  46  69  96 122 151 189 233 280
#     4   9  17  27  44  70  93 117 148 192 237 275
#
# _framework density 16.530031000000001
#
# number of rings (size 3 to 8) (size 9 to 14) (size 15 to 20)
#    0.750    2.000    1.250    1.125    0.000    2.500 
#    0.000    0.000    0.000    1.500    0.000    7.000 
#    0.000    0.000    0.000    0.000    0.000    0.000 
#
# Total GULP energy -396580.684282 kJ/mol
# GULP energy per Si atom -12393.146384 kJ/mol
# Density = 1.649241 g / cm^3
# Si number density = 16.530031 Si / 1000 Ang^3
#
#
#
# Elastic Constant Matrix: (Units=GPa)
#
#
# Indices 1 2 3 4 5 6 
#
# 1 86.1059 26.1207 48.0439 0.0000 0.0000 0.0000
# 2 26.1207 79.9084 35.8623 0.0000 0.0000 0.0000
# 3 48.0439 35.8623 103.2855 0.0000 0.0000 0.0000
# 4 0.0000 0.0000 0.0000 16.7926 0.0000 0.0000
# 5 0.0000 0.0000 0.0000 0.0000 24.9281 0.0000
# 6 0.0000 0.0000 0.0000 0.0000 0.0000 19.9246
#
#
#
# Elastic Compliance Matrix: (Units=1/GPa)
#
#
# Indices 1 2 3 4 5 6 
#
# 1 0.016016 -0.002241 -0.006672 0.000000 0.000000 0.000000
# 2 -0.002241 0.015138 -0.004214 0.000000 0.000000 0.000000
# 3 -0.006672 -0.004214 0.014248 0.000000 0.000000 0.000000
# 4 0.000000 0.000000 0.000000 0.059550 0.000000 0.000000
# 5 0.000000 0.000000 0.000000 0.000000 0.040115 0.000000
# 6 0.000000 0.000000 0.000000 0.000000 0.000000 0.050189
#
#
# Mechanical properties :
#
#
# Convention : Reuss Voigt Hill
#
# Bulk Modulus (GPa) = 52.22144 54.37262 53.29703
# Shear Modulus (GPa) = 21.94008 22.94725 22.44366
#
# Velocity S-wave (km/s) = 3.64715 3.72992 3.68876
# Velocity P-wave (km/s) = 7.02823 7.17735 7.10318
#
# Compressibility (1/GPa) = 0.01914922
#
# Stress axis : x y z
#
# Youngs Moduli (GPa) = 62.43723 66.05901 70.18343
#
# Poissons Ratio (x) = 0.14805 0.46825
# Poissons Ratio (y) = 0.13993 0.29573
# Poissons Ratio (z) = 0.41657 0.27835
#
# Static dielectric constant tensor:
#      x y z
#    x 3.166140 0.000000 0.000000 
#    y 0.000000 2.867650 0.000000 
#    z 0.000000 0.000000 2.930630 
# 
# 
# High freq. dielectric constant tensor:
#      x y z
#    x 1.646400 0.000000 0.000000 
#    y 0.000000 1.604090 0.000000 
#    z 0.000000 0.000000 1.613300 
# 
# From -- ./inp_files/16736.got.cif
#   From: 2010.03.12/outbox.cif.g09.slc.cpg/sg36_9_cif.got.tgz:16736.got - 2010.04.14 02:13:53.
