data_PCOD8174331
_publ_section_title
;
Structure prediction by ZEFSAII (Michael W. Deem and Ramdas Pophale) SiO2 
 PCOD8174331
Probable space group: C M C 21
;
_chemical_formula_sum "Si O2"
_cell_formula_units_Z 48
_cell_length_a 13.364336
_cell_length_b 12.765857
_cell_length_c 17.817749
_cell_angle_alpha 90.000000
_cell_angle_beta 90.000000
_cell_angle_gamma 90.000000
_cell_volume 3039.836308
_symmetry_space_group_name_H-M "C M C 21"
_symmetry_group_IT_number 36
_symmetry_cell_setting 'orthorhombic'
loop_
_space_group_symop_operation_xyz
x,y,z
-x,-y,1/2+z
x,-y,1/2+z
-x,y,z
1/2+x,1/2+y,z
1/2-x,1/2-y,1/2+z
1/2+x,1/2-y,1/2+z
1/2-x,1/2+y,z
loop_
_atom_site_type_symbol
_atom_site_label
_atom_site_fract_x
_atom_site_fract_y
_atom_site_fract_z
Si Si1 0.114682 0.826953 0.058960
Si Si2 0.244438 0.046619 0.837970
Si Si3 0.885385 0.969592 0.471595
Si Si4 0.736031 0.280617 0.448444
Si Si5 0.115127 0.170530 0.728951
Si Si6 0.615759 0.859037 0.841836
O O1 0.129639 0.948883 0.038889
O O2 0.150546 0.809812 0.143928
O O3 0.000000 0.792668 0.048424
O O4 0.178005 0.755315 0.003789
O O5 0.284965 0.152315 0.879618
O O6 0.184583 0.079493 0.763187
O O7 0.334840 0.969169 0.817114
O O8 0.167532 0.988295 0.895163
O O9 0.000000 0.951256 0.451246
O O10 0.838132 0.857644 0.495113
O O11 0.670847 0.184539 0.416045
O O12 0.127511 0.278642 0.773509
O O13 0.000000 0.132134 0.731081
O O14 0.500000 0.878935 0.861332
#
# Coordination Sequence:
#
# PCOD8174331 Si02
#       6
#     8   8   8   8   8   8
#     4  10  19  32  49  75 104 127 162 207 250 291
#     4   9  18  30  52  72  93 123 171 203 238 282
#     4   9  17  30  50  72  97 123 160 205 239 289
#     4   9  17  31  48  73  94 128 161 199 246 292
#     4   9  19  33  51  71  99 135 164 198 247 302
#     4  10  18  32  50  71  97 130 168 200 244 298
#
# _framework density 15.790324
#
# number of rings (size 3 to 8) (size 9 to 14) (size 15 to 20)
#    1.000    1.667    1.667    1.000    0.000    2.000 
#    0.000    0.000    0.000    2.000    0.000    0.000 
#    0.000    0.000    0.000    0.000    0.000    0.000 
#
# Total GULP energy -297425.756877 kJ/mol
# GULP energy per Si atom -12392.739870 kJ/mol
# Density = 1.575438 g / cm^3
# Si number density = 15.790324 Si / 1000 Ang^3
#
#
#
# Elastic Constant Matrix: (Units=GPa)
#
#
# Indices 1 2 3 4 5 6 
#
# 1 95.2701 53.5974 53.9593 0.0000 0.0000 0.0000
# 2 53.5974 71.7470 30.2666 0.0000 0.0000 0.0000
# 3 53.9593 30.2666 101.7226 0.0000 0.0000 0.0000
# 4 0.0000 0.0000 0.0000 17.3791 0.0000 0.0000
# 5 0.0000 0.0000 0.0000 0.0000 25.8239 0.0000
# 6 0.0000 0.0000 0.0000 0.0000 0.0000 33.7975
#
#
#
# Elastic Compliance Matrix: (Units=1/GPa)
#
#
# Indices 1 2 3 4 5 6 
#
# 1 0.022633 -0.013543 -0.007976 0.000000 0.000000 0.000000
# 2 -0.013543 0.024042 0.000030 0.000000 0.000000 0.000000
# 3 -0.007976 0.000030 0.014053 0.000000 0.000000 0.000000
# 4 0.000000 0.000000 0.000000 0.057540 0.000000 0.000000
# 5 0.000000 0.000000 0.000000 0.000000 0.038724 0.000000
# 6 0.000000 0.000000 0.000000 0.000000 0.000000 0.029588
#
#
# Mechanical properties :
#
#
# Convention : Reuss Voigt Hill
#
# Bulk Modulus (GPa) = 56.33711 60.48736 58.41224
# Shear Modulus (GPa) = 21.23375 24.12786 22.68081
#
# Velocity S-wave (km/s) = 3.67104 3.91322 3.79406
# Velocity P-wave (km/s) = 7.32969 7.66861 7.50106
#
# Compressibility (1/GPa) = 0.01775029
#
# Stress axis : x y z
#
# Youngs Moduli (GPa) = 44.18312 41.59393 71.16077
#
# Poissons Ratio (x) = 0.56330 0.56760
# Poissons Ratio (y) = 0.59836 -0.00216
# Poissons Ratio (z) = 0.35242 -0.00127
#
# Static dielectric constant tensor:
#      x y z
#    x 2.907290 0.000000 0.000000 
#    y 0.000000 2.895960 0.000000 
#    z 0.000000 0.000000 2.873370 
# 
# 
# High freq. dielectric constant tensor:
#      x y z
#    x 1.600670 0.000000 0.000000 
#    y 0.000000 1.599500 0.000000 
#    z 0.000000 0.000000 1.592360 
# 
# From -- ./inp_files/14270.got.cif
#   From: 2010.03.12/outbox.cif.g09.slc.cpg/sg36_8_cif.got.tgz:14270.got - 2010.04.14 02:13:53.
