data_PCOD8174406
_publ_section_title
;
Structure prediction by ZEFSAII (Michael W. Deem and Ramdas Pophale) SiO2 
 PCOD8174406
Probable space group: C M C 21
;
_chemical_formula_sum "Si O2"
_cell_formula_units_Z 48
_cell_length_a 17.902350
_cell_length_b 13.609471
_cell_length_c 11.338496
_cell_angle_alpha 90.000000
_cell_angle_beta 90.000000
_cell_angle_gamma 90.000000
_cell_volume 2762.528322
_symmetry_space_group_name_H-M "C M C 21"
_symmetry_group_IT_number 36
_symmetry_cell_setting 'orthorhombic'
loop_
_space_group_symop_operation_xyz
x,y,z
-x,-y,1/2+z
x,-y,1/2+z
-x,y,z
1/2+x,1/2+y,z
1/2-x,1/2-y,1/2+z
1/2+x,1/2-y,1/2+z
1/2-x,1/2+y,z
loop_
_atom_site_type_symbol
_atom_site_label
_atom_site_fract_x
_atom_site_fract_y
_atom_site_fract_z
Si Si1 0.413567 0.190888 0.500000
Si Si2 0.085783 0.103548 0.894008
Si Si3 0.808122 0.573465 0.653317
Si Si4 0.819620 0.383903 0.789497
Si Si5 0.697002 0.431199 0.961169
Si Si6 0.168755 0.817200 0.179870
O O1 0.500000 0.166112 0.511532
O O2 0.399395 0.307746 0.486155
O O3 0.372683 0.149881 0.616015
O O4 0.382080 0.135276 0.386636
O O5 0.102629 0.140139 0.761253
O O6 0.000000 0.069449 0.898160
O O7 0.136676 0.012531 0.929715
O O8 0.842189 0.486979 0.731149
O O9 0.765734 0.525258 0.539378
O O10 0.746337 0.634621 0.727691
O O11 0.824148 0.299948 0.689907
O O12 0.735225 0.386093 0.843639
O O13 0.656806 0.346378 0.041594
#
# Coordination Sequence:
#
# PCOD8174406 Si02
#       6
#     8   8   8   8   8   8
#     4   9  20  35  52  78 107 143 177 215 274 319
#     4  10  19  35  56  78 113 143 174 221 273 324
#     4   9  19  31  54  78 100 139 180 221 253 312
#     4  10  18  34  53  80 104 142 175 225 262 311
#     4   9  18  33  50  81 105 138 180 215 262 319
#     4   9  20  32  53  79 107 137 180 221 260 319
#
# _framework density 17.375388000000001
#
# number of rings (size 3 to 8) (size 9 to 14) (size 15 to 20)
#    1.000    1.667    1.667    0.000    2.333    1.333 
#    0.000    0.000    0.000    0.000    0.000    0.000 
#    0.000    0.000    0.000    0.000    0.000    0.000 
#
# Total GULP energy -297371.590727 kJ/mol
# GULP energy per Si atom -12390.482947 kJ/mol
# Density = 1.733584 g / cm^3
# Si number density = 17.375388 Si / 1000 Ang^3
#
#
#
# Elastic Constant Matrix: (Units=GPa)
#
#
# Indices 1 2 3 4 5 6 
#
# 1 100.4022 35.3954 19.6753 0.0000 0.0000 0.0000
# 2 35.3954 68.5776 27.6550 0.0000 0.0000 0.0000
# 3 19.6753 27.6550 52.1469 0.0000 0.0000 0.0000
# 4 0.0000 0.0000 0.0000 32.5774 0.0000 0.0000
# 5 0.0000 0.0000 0.0000 0.0000 19.7560 0.0000
# 6 0.0000 0.0000 0.0000 0.0000 0.0000 28.6652
#
#
#
# Elastic Compliance Matrix: (Units=1/GPa)
#
#
# Indices 1 2 3 4 5 6 
#
# 1 0.012282 -0.005686 -0.001618 0.000000 0.000000 0.000000
# 2 -0.005686 0.021182 -0.009088 0.000000 0.000000 0.000000
# 3 -0.001618 -0.009088 0.024607 0.000000 0.000000 0.000000
# 4 0.000000 0.000000 0.000000 0.030696 0.000000 0.000000
# 5 0.000000 0.000000 0.000000 0.000000 0.050617 0.000000
# 6 0.000000 0.000000 0.000000 0.000000 0.000000 0.034886
#
#
# Mechanical properties :
#
#
# Convention : Reuss Voigt Hill
#
# Bulk Modulus (GPa) = 39.54884 42.95313 41.25098
# Shear Modulus (GPa) = 23.20371 25.42646 24.31508
#
# Velocity S-wave (km/s) = 3.65833 3.82954 3.74491
# Velocity P-wave (km/s) = 6.37615 6.65794 6.51857
#
# Compressibility (1/GPa) = 0.02528519
#
# Stress axis : x y z
#
# Youngs Moduli (GPa) = 81.42167 47.21032 40.63933
#
# Poissons Ratio (x) = 0.26846 0.06577
# Poissons Ratio (y) = 0.46300 0.36932
# Poissons Ratio (z) = 0.13176 0.42904
#
# Static dielectric constant tensor:
#      x y z
#    x 3.098750 0.000000 0.000000 
#    y 0.000000 3.119740 0.000000 
#    z 0.000000 0.000000 3.092930 
# 
# 
# High freq. dielectric constant tensor:
#      x y z
#    x 1.659260 0.000000 0.000000 
#    y 0.000000 1.665220 0.000000 
#    z 0.000000 0.000000 1.654650 
# 
# From -- ./inp_files/8916.got.cif
#   From: 2010.03.12/outbox.cif.g09.slc.cpg/sg36_5_cif.got.tgz:8916.got - 2010.04.14 02:13:53.
