data_PCOD8174291
_publ_section_title
;
Structure prediction by ZEFSAII (Michael W. Deem and Ramdas Pophale) SiO2 
 PCOD8174291
Probable space group: C M C 21
;
_chemical_formula_sum "Si O2"
_cell_formula_units_Z 56
_cell_length_a 17.669167
_cell_length_b 17.120127
_cell_length_c 9.371235
_cell_angle_alpha 90.000000
_cell_angle_beta 90.000000
_cell_angle_gamma 90.000000
_cell_volume 2834.783434
_symmetry_space_group_name_H-M "C M C 21"
_symmetry_group_IT_number 36
_symmetry_cell_setting 'orthorhombic'
loop_
_space_group_symop_operation_xyz
x,y,z
-x,-y,1/2+z
x,-y,1/2+z
-x,y,z
1/2+x,1/2+y,z
1/2-x,1/2-y,1/2+z
1/2+x,1/2-y,1/2+z
1/2-x,1/2+y,z
loop_
_atom_site_type_symbol
_atom_site_label
_atom_site_fract_x
_atom_site_fract_y
_atom_site_fract_z
Si Si1 0.331152 0.541186 0.340780
Si Si2 0.586049 0.895661 0.461683
Si Si3 0.812735 0.458495 0.008649
Si Si4 0.677617 0.753574 0.550194
Si Si5 0.586054 0.842208 0.145773
Si Si6 0.815491 0.798848 0.733336
Si Si7 0.665573 0.585675 0.638467
O O1 0.239125 0.540440 0.365927
O O2 0.348200 0.612985 0.233568
O O3 0.365737 0.460857 0.275874
O O4 0.373527 0.554780 0.492089
O O5 0.500000 0.915021 0.507098
O O6 0.607184 0.811651 0.529678
O O7 0.593012 0.893078 0.290460
O O8 0.642241 0.960494 0.525067
O O9 0.873110 0.387517 0.015298
O O10 0.754654 0.439979 0.139006
O O11 0.743528 0.798912 0.630658
O O12 0.707332 0.723595 0.396207
O O13 0.654077 0.678931 0.648311
O O14 0.500000 0.829751 0.100017
O O15 0.621105 0.757162 0.169215
#
# Coordination Sequence:
#
# PCOD8174291 Si02
#       7
#     8   8   8   8   8   8   8
#     4   9  19  29  50  75 102 129 170 223 268 306
#     4  10  21  33  51  78 111 150 177 214 277 337
#     4  10  18  31  50  73 110 134 179 215 263 322
#     4  10  20  32  54  74 107 136 184 223 263 326
#     4  10  19  32  51  74 108 147 181 220 273 337
#     4  10  18  34  50  78 102 137 179 229 271 318
#     4   9  18  31  48  78  99 131 174 220 264 310
#
# _framework density 19.754595999999999
#
# number of rings (size 3 to 8) (size 9 to 14) (size 15 to 20)
#    0.857    1.429    1.429    2.143    2.000    0.000 
#    0.000    0.000    0.000    6.000    0.000    0.000 
#    0.000    0.000    0.000    0.000    0.000    0.143 
#
# Total GULP energy -346894.120481 kJ/mol
# GULP energy per Si atom -12389.075731 kJ/mol
# Density = 1.970963 g / cm^3
# Si number density = 19.754596 Si / 1000 Ang^3
#
#
#
# Elastic Constant Matrix: (Units=GPa)
#
#
# Indices 1 2 3 4 5 6 
#
# 1 26.1946 17.5966 1.8056 0.0000 0.0000 0.0000
# 2 17.5966 115.4884 18.4928 0.0000 0.0000 0.0000
# 3 1.8056 18.4928 34.0514 0.0000 0.0000 0.0000
# 4 0.0000 0.0000 0.0000 36.6587 0.0000 0.0000
# 5 0.0000 0.0000 0.0000 0.0000 11.0333 0.0000
# 6 0.0000 0.0000 0.0000 0.0000 0.0000 22.9663
#
#
#
# Elastic Compliance Matrix: (Units=1/GPa)
#
#
# Indices 1 2 3 4 5 6 
#
# 1 0.042588 -0.006711 0.001386 0.000000 0.000000 0.000000
# 2 -0.006711 0.010541 -0.005369 0.000000 0.000000 0.000000
# 3 0.001386 -0.005369 0.032210 0.000000 0.000000 0.000000
# 4 0.000000 0.000000 0.000000 0.027279 0.000000 0.000000
# 5 0.000000 0.000000 0.000000 0.000000 0.090635 0.000000
# 6 0.000000 0.000000 0.000000 0.000000 0.000000 0.043542
#
#
# Mechanical properties :
#
#
# Convention : Reuss Voigt Hill
#
# Bulk Modulus (GPa) = 15.63672 27.94715 21.79193
# Shear Modulus (GPa) = 17.27119 23.32094 20.29607
#
# Velocity S-wave (km/s) = 2.96004 3.43962 3.20880
# Velocity P-wave (km/s) = 4.42890 5.47289 4.97833
#
# Compressibility (1/GPa) = 0.06395204
#
# Stress axis : x y z
#
# Youngs Moduli (GPa) = 23.48053 94.86663 31.04668
#
# Poissons Ratio (x) = 0.63665 -0.04304
# Poissons Ratio (y) = 0.15758 0.16668
# Poissons Ratio (z) = -0.03255 0.50932
#
# Static dielectric constant tensor:
#      x y z
#    x 3.219740 0.000000 0.000000 
#    y 0.000000 3.660470 0.000000 
#    z 0.000000 0.000000 3.394210 
# 
# 
# High freq. dielectric constant tensor:
#      x y z
#    x 1.723030 0.000000 0.000000 
#    y 0.000000 1.780690 0.000000 
#    z 0.000000 0.000000 1.750780 
# 
# From -- ./inp_files/5289.got.cif
#   From: 2010.03.12/outbox.cif.g09.slc.cpg/sg36_3_cif.got.tgz:5289.got - 2010.04.14 02:13:53.
