data_PCOD8174369
_publ_section_title
;
Structure prediction by ZEFSAII (Michael W. Deem and Ramdas Pophale) SiO2 
 PCOD8174369
Probable space group: C M C 21
;
_chemical_formula_sum "Si O2"
_cell_formula_units_Z 48
_cell_length_a 8.846213
_cell_length_b 20.044182
_cell_length_c 14.186003
_cell_angle_alpha 90.000000
_cell_angle_beta 90.000000
_cell_angle_gamma 90.000000
_cell_volume 2515.392589
_symmetry_space_group_name_H-M "C M C 21"
_symmetry_group_IT_number 36
_symmetry_cell_setting 'orthorhombic'
loop_
_space_group_symop_operation_xyz
x,y,z
-x,-y,1/2+z
x,-y,1/2+z
-x,y,z
1/2+x,1/2+y,z
1/2-x,1/2-y,1/2+z
1/2+x,1/2-y,1/2+z
1/2-x,1/2+y,z
loop_
_atom_site_type_symbol
_atom_site_label
_atom_site_fract_x
_atom_site_fract_y
_atom_site_fract_z
Si Si1 0.671193 0.558945 0.503590
Si Si2 0.820253 0.856788 0.699928
Si Si3 0.179949 0.194766 0.999992
Si Si4 0.319986 0.491632 0.200479
Si Si5 0.322344 0.825729 0.893320
Si Si6 0.828421 0.071906 0.886931
O O1 0.500000 0.586848 0.496121
O O2 0.727674 0.553254 0.611198
O O3 0.780939 0.605612 0.444399
O O4 0.678340 0.484278 0.465958
O O5 0.762739 0.817084 0.607037
O O6 0.754637 0.819694 0.791415
O O7 0.000000 0.856037 0.707542
O O8 0.757473 0.932724 0.695606
O O9 0.000000 0.188309 0.000331
O O10 0.235032 0.265888 0.960819
O O11 0.249112 0.137938 0.930488
O O12 0.500000 0.497067 0.207579
O O13 0.248394 0.454300 0.291368
O O14 0.500000 0.821944 0.878164
O O15 0.000000 0.089420 0.860351
#
# Coordination Sequence:
#
# PCOD8174369 Si02
#       6
#     8   8   8   8   8   8
#     4  10  18  32  57  83 103 134 184 231 262 303
#     4  10  18  35  60  80 100 139 190 230 264 310
#     4   9  19  34  53  77 110 145 176 219 272 321
#     4   9  16  27  54  88 104 123 176 237 269 293
#     4  11  23  36  51  80 119 149 169 209 279 341
#     4   9  15  28  53  82 104 128 179 236 266 292
#
# _framework density 19.082509999999999
#
# number of rings (size 3 to 8) (size 9 to 14) (size 15 to 20)
#    0.000    2.333    3.333    0.500    0.000    1.333 
#    0.000    4.167    0.000    2.000    0.000    0.000 
#    0.000    0.000    0.000    0.000    0.000    0.000 
#
# Total GULP energy -297513.878081 kJ/mol
# GULP energy per Si atom -12396.411587 kJ/mol
# Density = 1.903908 g / cm^3
# Si number density = 19.082510 Si / 1000 Ang^3
#
#
#
# Elastic Constant Matrix: (Units=GPa)
#
#
# Indices 1 2 3 4 5 6 
#
# 1 21.9656 17.1876 19.1402 0.0000 0.0000 0.0000
# 2 17.1876 81.1166 37.6230 0.0000 0.0000 0.0000
# 3 19.1402 37.6230 151.2008 0.0000 0.0000 0.0000
# 4 0.0000 0.0000 0.0000 34.9731 0.0000 0.0000
# 5 0.0000 0.0000 0.0000 0.0000 20.7655 0.0000
# 6 0.0000 0.0000 0.0000 0.0000 0.0000 13.9345
#
#
#
# Elastic Compliance Matrix: (Units=1/GPa)
#
#
# Indices 1 2 3 4 5 6 
#
# 1 0.057500 -0.009957 -0.004801 0.000000 0.000000 0.000000
# 2 -0.009957 0.015660 -0.002636 0.000000 0.000000 0.000000
# 3 -0.004801 -0.002636 0.007878 0.000000 0.000000 0.000000
# 4 0.000000 0.000000 0.000000 0.028593 0.000000 0.000000
# 5 0.000000 0.000000 0.000000 0.000000 0.048157 0.000000
# 6 0.000000 0.000000 0.000000 0.000000 0.000000 0.071764
#
#
# Mechanical properties :
#
#
# Convention : Reuss Voigt Hill
#
# Bulk Modulus (GPa) = 21.62183 44.68717 33.15450
# Shear Modulus (GPa) = 17.87258 25.95676 21.91467
#
# Velocity S-wave (km/s) = 3.06370 3.69214 3.39251
# Velocity P-wave (km/s) = 4.88573 6.45326 5.72341
#
# Compressibility (1/GPa) = 0.04624955
#
# Stress axis : x y z
#
# Youngs Moduli (GPa) = 17.39120 63.85533 126.94357
#
# Poissons Ratio (x) = 0.63579 0.60950
# Poissons Ratio (y) = 0.17316 0.33467
# Poissons Ratio (z) = 0.08350 0.16835
#
# Static dielectric constant tensor:
#      x y z
#    x 2.917440 0.000000 0.000000 
#    y 0.000000 3.511190 0.000000 
#    z 0.000000 0.000000 3.838120 
# 
# 
# High freq. dielectric constant tensor:
#      x y z
#    x 1.677830 0.000000 0.000000 
#    y 0.000000 1.738120 0.000000 
#    z 0.000000 0.000000 1.764450 
# 
# From -- ./inp_files/10350.got.cif
#   From: 2010.03.12/outbox.cif.g09.slc.cpg/sg36_6_cif.got.tgz:10350.got - 2010.04.14 02:13:53.
