data_PCOD8174258
_publ_section_title
;
Structure prediction by ZEFSAII (Michael W. Deem and Ramdas Pophale) SiO2 
 PCOD8174258
Probable space group: C M C 21
;
_chemical_formula_sum "Si O2"
_cell_formula_units_Z 64
_cell_length_a 17.587948
_cell_length_b 30.103059
_cell_length_c 5.434843
_cell_angle_alpha 90.000000
_cell_angle_beta 90.000000
_cell_angle_gamma 90.000000
_cell_volume 2877.483259
_symmetry_space_group_name_H-M "C M C 21"
_symmetry_group_IT_number 36
_symmetry_cell_setting 'orthorhombic'
loop_
_space_group_symop_operation_xyz
x,y,z
-x,-y,1/2+z
x,-y,1/2+z
-x,y,z
1/2+x,1/2+y,z
1/2-x,1/2-y,1/2+z
1/2+x,1/2-y,1/2+z
1/2-x,1/2+y,z
loop_
_atom_site_type_symbol
_atom_site_label
_atom_site_fract_x
_atom_site_fract_y
_atom_site_fract_z
Si Si1 0.306503 0.389887 0.852900
Si Si2 0.832483 0.386923 0.550130
Si Si3 0.632532 0.726972 0.657780
Si Si4 0.845314 0.985781 0.919256
Si Si5 0.725359 0.178616 0.682444
Si Si6 0.174986 0.520511 0.871816
Si Si7 0.913573 0.821341 0.656822
Si Si8 0.913807 0.318518 0.826866
O O1 0.228664 0.408375 0.734301
O O2 0.342588 0.433395 0.974010
O O3 0.362963 0.366175 0.658956
O O4 0.285216 0.354903 0.060137
O O5 0.792575 0.342588 0.444644
O O6 0.849327 0.426917 0.360557
O O7 0.905496 0.366589 0.691597
O O8 0.725153 0.724035 0.696060
O O9 0.606908 0.708815 0.392813
O O10 0.605909 0.777988 0.644804
O O11 0.595294 0.703543 0.896019
O O12 0.888420 0.993364 0.656939
O O13 0.765412 0.011913 0.872456
O O14 0.645006 0.185234 0.550849
O O15 0.138672 0.500125 0.622148
O O16 0.000000 0.836623 0.682895
O O17 0.000000 0.315065 0.926401
#
# Coordination Sequence:
#
# PCOD8174258 Si02
#       8
#     8   8   8   8   8   8   8   8
#     4  10  20  35  57  93 125 160 213 272 321 376
#     4  11  21  38  62  92 125 162 212 272 320 381
#     4  11  25  44  68  94 125 172 230 269 316 379
#     4  10  18  29  53  85 122 154 203 261 317 367
#     4  10  23  38  66  92 126 167 218 274 319 378
#     4  10  19  32  59  90 119 152 205 264 318 369
#     4  11  23  41  65  92 130 173 220 273 328 386
#     4  11  27  43  62  94 136 176 211 263 337 398
#
# _framework density 22.241661000000001
#
# number of rings (size 3 to 8) (size 9 to 14) (size 15 to 20)
#    0.000    1.500    3.750    2.625    5.250    0.500 
#    0.000    0.000    0.000    1.500    0.000    0.000 
#    0.000    0.000    0.000    0.000    0.000    0.000 
#
# Total GULP energy -396472.070725 kJ/mol
# GULP energy per Si atom -12389.752210 kJ/mol
# Density = 2.219104 g / cm^3
# Si number density = 22.241661 Si / 1000 Ang^3
#
#
#
# Elastic Constant Matrix: (Units=GPa)
#
#
# Indices 1 2 3 4 5 6 
#
# 1 88.0457 28.4766 13.7229 0.0000 0.0000 0.0000
# 2 28.4766 91.9439 12.9293 0.0000 0.0000 0.0000
# 3 13.7229 12.9293 117.7187 0.0000 0.0000 0.0000
# 4 0.0000 0.0000 0.0000 27.4904 0.0000 0.0000
# 5 0.0000 0.0000 0.0000 0.0000 19.0715 0.0000
# 6 0.0000 0.0000 0.0000 0.0000 0.0000 12.0352
#
#
#
# Elastic Compliance Matrix: (Units=1/GPa)
#
#
# Indices 1 2 3 4 5 6 
#
# 1 0.012753 -0.003800 -0.001069 0.000000 0.000000 0.000000
# 2 -0.003800 0.012179 -0.000895 0.000000 0.000000 0.000000
# 3 -0.001069 -0.000895 0.008718 0.000000 0.000000 0.000000
# 4 0.000000 0.000000 0.000000 0.036376 0.000000 0.000000
# 5 0.000000 0.000000 0.000000 0.000000 0.052434 0.000000
# 6 0.000000 0.000000 0.000000 0.000000 0.000000 0.083090
#
#
# Mechanical properties :
#
#
# Convention : Reuss Voigt Hill
#
# Bulk Modulus (GPa) = 45.20262 45.32954 45.26608
# Shear Modulus (GPa) = 22.27655 27.89141 25.08398
#
# Velocity S-wave (km/s) = 3.16819 3.54505 3.36191
# Velocity P-wave (km/s) = 5.80954 6.09764 5.95533
#
# Compressibility (1/GPa) = 0.02212261
#
# Stress axis : x y z
#
# Youngs Moduli (GPa) = 78.41115 82.11000 114.70843
#
# Poissons Ratio (x) = 0.31198 0.12267
# Poissons Ratio (y) = 0.29793 0.10263
# Poissons Ratio (z) = 0.08385 0.07346
#
# Static dielectric constant tensor:
#      x y z
#    x 3.682050 0.000000 0.000000 
#    y 0.000000 4.133420 0.000000 
#    z 0.000000 0.000000 4.353840 
# 
# 
# High freq. dielectric constant tensor:
#      x y z
#    x 1.821700 0.000000 0.000000 
#    y 0.000000 1.881810 0.000000 
#    z 0.000000 0.000000 1.887920 
# 
# From -- ./inp_files/1237.got.cif
#   From: 2010.03.12/outbox.cif.g09.slc.cpg/sg36_1_cif.got.tgz:1237.got - 2010.04.14 02:13:53.
