data_PCOD8174433
_publ_section_title
;
Structure prediction by ZEFSAII (Michael W. Deem and Ramdas Pophale) SiO2 
 PCOD8174433
Probable space group: C M C 21
;
_chemical_formula_sum "Si O2"
_cell_formula_units_Z 64
_cell_length_a 8.917163
_cell_length_b 23.797400
_cell_length_c 15.368922
_cell_angle_alpha 90.000000
_cell_angle_beta 90.000000
_cell_angle_gamma 90.000000
_cell_volume 3261.366623
_symmetry_space_group_name_H-M "C M C 21"
_symmetry_group_IT_number 36
_symmetry_cell_setting 'orthorhombic'
loop_
_space_group_symop_operation_xyz
x,y,z
-x,-y,1/2+z
x,-y,1/2+z
-x,y,z
1/2+x,1/2+y,z
1/2-x,1/2-y,1/2+z
1/2+x,1/2-y,1/2+z
1/2-x,1/2+y,z
loop_
_atom_site_type_symbol
_atom_site_label
_atom_site_fract_x
_atom_site_fract_y
_atom_site_fract_z
Si Si1 0.676335 0.106452 0.960460
Si Si2 0.825168 0.499624 0.713203
Si Si3 0.823230 0.123550 0.449634
Si Si4 0.823383 0.620336 0.151587
Si Si5 0.178056 0.301969 0.804807
Si Si6 0.324405 0.182256 0.799663
Si Si7 0.823011 0.999965 0.894029
Si Si8 0.827917 0.613943 0.626591
O O1 0.500000 0.095188 0.954278
O O2 0.730577 0.146405 0.882694
O O3 0.755704 0.045999 0.959137
O O4 0.721048 0.135641 0.052406
O O5 0.761471 0.441460 0.675083
O O6 0.733125 0.515325 0.798462
O O7 0.797541 0.548002 0.642239
O O8 0.000000 0.496672 0.738935
O O9 0.744871 0.170001 0.390577
O O10 0.777184 0.135340 0.549025
O O11 0.000000 0.130093 0.439659
O O12 0.766206 0.061891 0.421254
O O13 0.758219 0.665951 0.219027
O O14 0.000000 0.618643 0.161507
O O15 0.229242 0.238387 0.798194
O O16 0.000000 0.304914 0.809990
O O17 0.500000 0.196322 0.807135
O O18 0.286203 0.147918 0.713167
O O19 0.000000 0.003279 0.898171
O O20 0.000000 0.624436 0.600464
#
# Coordination Sequence:
#
# PCOD8174433 Si02
#       8
#     8   8   8   8   8   8   8   8
#     4  10  20  39  64  87 116 155 195 239 292 357
#     4  10  18  35  61  88 117 151 192 239 293 355
#     4  11  24  40  59  87 122 161 198 244 302 350
#     4   9  19  35  61  90 112 145 196 243 285 343
#     4  11  23  40  62  87 117 156 205 250 292 352
#     4  10  22  40  61  87 120 155 196 245 300 351
#     4  11  22  35  56  89 124 155 191 239 298 353
#     4  10  21  38  62  91 118 154 199 243 296 357
#
# _framework density 19.623676
#
# number of rings (size 3 to 8) (size 9 to 14) (size 15 to 20)
#    0.000    1.750    2.500    1.875    0.000    5.000 
#    0.000    3.125    0.000    0.000    0.000    0.000 
#    0.000    0.000    0.000    0.000    0.000    0.000 
#
# Total GULP energy -396895.996445 kJ/mol
# GULP energy per Si atom -12402.999889 kJ/mol
# Density = 1.957901 g / cm^3
# Si number density = 19.623676 Si / 1000 Ang^3
#
#
#
# Elastic Constant Matrix: (Units=GPa)
#
#
# Indices 1 2 3 4 5 6 
#
# 1 50.0578 37.9333 31.4908 0.0000 0.0000 0.0000
# 2 37.9333 120.8423 46.8933 0.0000 0.0000 0.0000
# 3 31.4908 46.8933 127.4745 0.0000 0.0000 0.0000
# 4 0.0000 0.0000 0.0000 16.7653 0.0000 0.0000
# 5 0.0000 0.0000 0.0000 0.0000 17.0650 0.0000
# 6 0.0000 0.0000 0.0000 0.0000 0.0000 31.7458
#
#
#
# Elastic Compliance Matrix: (Units=1/GPa)
#
#
# Indices 1 2 3 4 5 6 
#
# 1 0.028108 -0.007149 -0.004314 0.000000 0.000000 0.000000
# 2 -0.007149 0.011472 -0.002454 0.000000 0.000000 0.000000
# 3 -0.004314 -0.002454 0.009813 0.000000 0.000000 0.000000
# 4 0.000000 0.000000 0.000000 0.059647 0.000000 0.000000
# 5 0.000000 0.000000 0.000000 0.000000 0.058600 0.000000
# 6 0.000000 0.000000 0.000000 0.000000 0.000000 0.031500
#
#
# Mechanical properties :
#
#
# Convention : Reuss Voigt Hill
#
# Bulk Modulus (GPa) = 46.38424 59.00102 52.69263
# Shear Modulus (GPa) = 21.35284 25.25234 23.30259
#
# Velocity S-wave (km/s) = 3.30224 3.59113 3.44971
# Velocity P-wave (km/s) = 6.18287 6.87943 6.54043
#
# Compressibility (1/GPa) = 0.02155904
#
# Stress axis : x y z
#
# Youngs Moduli (GPa) = 35.57646 87.17055 101.90510
#
# Poissons Ratio (x) = 0.62323 0.43959
# Poissons Ratio (y) = 0.25435 0.25006
# Poissons Ratio (z) = 0.15347 0.21390
#
# Static dielectric constant tensor:
#      x y z
#    x 3.345690 0.000000 0.000000 
#    y 0.000000 3.639820 0.000000 
#    z 0.000000 0.000000 3.725650 
# 
# 
# High freq. dielectric constant tensor:
#      x y z
#    x 1.744950 0.000000 0.000000 
#    y 0.000000 1.764510 0.000000 
#    z 0.000000 0.000000 1.777440 
# 
# From -- ./inp_files/10918.got.cif
#   From: 2010.03.12/outbox.cif.g09.slc.cpg/sg36_6_cif.got.tgz:10918.got - 2010.04.14 02:13:53.
