data_PCOD8174805
_publ_section_title
;
Structure prediction by ZEFSAII (Michael W. Deem and Ramdas Pophale) SiO2 
 PCOD8174805
Probable space group: C M C 21
;
_chemical_formula_sum "Si O2"
_cell_formula_units_Z 64
_cell_length_a 8.857827
_cell_length_b 20.000792
_cell_length_c 19.654862
_cell_angle_alpha 90.000000
_cell_angle_beta 90.000000
_cell_angle_gamma 90.000000
_cell_volume 3482.125233
_symmetry_space_group_name_H-M "C M C 21"
_symmetry_group_IT_number 36
_symmetry_cell_setting 'orthorhombic'
loop_
_space_group_symop_operation_xyz
x,y,z
-x,-y,1/2+z
x,-y,1/2+z
-x,y,z
1/2+x,1/2+y,z
1/2-x,1/2-y,1/2+z
1/2+x,1/2-y,1/2+z
1/2-x,1/2+y,z
loop_
_atom_site_type_symbol
_atom_site_label
_atom_site_fract_x
_atom_site_fract_y
_atom_site_fract_z
Si Si1 0.173724 0.542810 0.647950
Si Si2 0.325419 0.829948 0.064661
Si Si3 0.676385 0.442371 0.824006
Si Si4 0.821439 0.089742 0.174034
Si Si5 0.677145 0.773616 0.664820
Si Si6 0.324910 0.731618 0.816688
Si Si7 0.678360 0.671614 0.419881
Si Si8 0.325193 0.583947 0.783854
O O1 0.198541 0.592672 0.584768
O O2 0.266539 0.475247 0.632218
O O3 0.227770 0.580652 0.715753
O O4 0.000000 0.523459 0.657231
O O5 0.500000 0.809451 0.068054
O O6 0.234153 0.784182 0.116154
O O7 0.264872 0.818295 0.989553
O O8 0.500000 0.429101 0.822580
O O9 0.740752 0.418255 0.751206
O O10 0.741731 0.396878 0.884864
O O11 0.714543 0.521158 0.833574
O O12 0.752279 0.156671 0.142246
O O13 0.000000 0.093662 0.169760
O O14 0.500000 0.780049 0.656124
O O15 0.722566 0.755750 0.741816
O O16 0.500000 0.748043 0.831555
O O17 0.217359 0.766631 0.870977
O O18 0.293055 0.652330 0.823622
O O19 0.500000 0.669732 0.433311
O O20 0.500000 0.579512 0.760938
#
# Coordination Sequence:
#
# PCOD8174805 Si02
#       8
#     8   8   8   8   8   8   8   8
#     4  10  20  34  54  82 113 146 187 239 287 337
#     4  11  24  40  57  80 115 156 196 240 293 347
#     4   8  16  31  53  80 107 139 181 228 274 328
#     4  10  19  34  57  84 115 147 185 234 286 341
#     4  11  21  35  58  88 117 149 192 241 289 343
#     4  10  20  34  56  85 117 149 186 237 290 344
#     4  11  22  37  57  81 113 152 196 239 286 347
#     4   9  17  33  56  82 111 144 185 232 283 339
#
# _framework density 18.379580000000001
#
# number of rings (size 3 to 8) (size 9 to 14) (size 15 to 20)
#    0.000    2.000    2.500    2.625    0.000    2.500 
#    0.000    1.875    0.000    4.500    0.000    0.000 
#    0.000    0.000    0.000    0.000    0.000    0.000 
#
# Total GULP energy -396802.274770 kJ/mol
# GULP energy per Si atom -12400.071087 kJ/mol
# Density = 1.833775 g / cm^3
# Si number density = 18.379580 Si / 1000 Ang^3
#
#
#
# Elastic Constant Matrix: (Units=GPa)
#
#
# Indices 1 2 3 4 5 6 
#
# 1 72.8616 45.1712 32.9719 0.0000 0.0000 0.0000
# 2 45.1712 125.0361 32.0138 0.0000 0.0000 0.0000
# 3 32.9719 32.0138 68.9043 0.0000 0.0000 0.0000
# 4 0.0000 0.0000 0.0000 24.5336 0.0000 0.0000
# 5 0.0000 0.0000 0.0000 0.0000 25.7294 0.0000
# 6 0.0000 0.0000 0.0000 0.0000 0.0000 31.4049
#
#
#
# Elastic Compliance Matrix: (Units=1/GPa)
#
#
# Indices 1 2 3 4 5 6 
#
# 1 0.020410 -0.005531 -0.007197 0.000000 0.000000 0.000000
# 2 -0.005531 0.010576 -0.002267 0.000000 0.000000 0.000000
# 3 -0.007197 -0.002267 0.019010 0.000000 0.000000 0.000000
# 4 0.000000 0.000000 0.000000 0.040760 0.000000 0.000000
# 5 0.000000 0.000000 0.000000 0.000000 0.038866 0.000000
# 6 0.000000 0.000000 0.000000 0.000000 0.000000 0.031842
#
#
# Mechanical properties :
#
#
# Convention : Reuss Voigt Hill
#
# Bulk Modulus (GPa) = 49.98355 54.12397 52.05376
# Shear Modulus (GPa) = 25.23663 26.77659 26.00661
#
# Velocity S-wave (km/s) = 3.70953 3.82103 3.76569
# Velocity P-wave (km/s) = 6.75290 6.99849 6.87679
#
# Compressibility (1/GPa) = 0.02000658
#
# Stress axis : x y z
#
# Youngs Moduli (GPa) = 48.99465 94.55100 52.60339
#
# Poissons Ratio (x) = 0.52295 0.37859
# Poissons Ratio (y) = 0.27098 0.11927
# Poissons Ratio (z) = 0.35261 0.21437
#
# Static dielectric constant tensor:
#      x y z
#    x 3.330070 0.000000 0.000000 
#    y 0.000000 3.682380 0.000000 
#    z 0.000000 0.000000 3.228650 
# 
# 
# High freq. dielectric constant tensor:
#      x y z
#    x 1.711730 0.000000 0.000000 
#    y 0.000000 1.729890 0.000000 
#    z 0.000000 0.000000 1.679500 
# 
# From -- ./inp_files/13819.got.cif
#   From: 2010.03.12/outbox.cif.g09.slc.cpg/sg36_7_cif.got.tgz:13819.got - 2010.04.14 02:13:53.
