data_PCOD8174357
_publ_section_title
;
Structure prediction by ZEFSAII (Michael W. Deem and Ramdas Pophale) SiO2 
 PCOD8174357
Probable space group: C M C 21
;
_chemical_formula_sum "Si O2"
_cell_formula_units_Z 64
_cell_length_a 8.950759
_cell_length_b 24.020700
_cell_length_c 15.545684
_cell_angle_alpha 90.000000
_cell_angle_beta 90.000000
_cell_angle_gamma 90.000000
_cell_volume 3342.376419
_symmetry_space_group_name_H-M "C M C 21"
_symmetry_group_IT_number 36
_symmetry_cell_setting 'orthorhombic'
loop_
_space_group_symop_operation_xyz
x,y,z
-x,-y,1/2+z
x,-y,1/2+z
-x,y,z
1/2+x,1/2+y,z
1/2-x,1/2-y,1/2+z
1/2+x,1/2-y,1/2+z
1/2-x,1/2+y,z
loop_
_atom_site_type_symbol
_atom_site_label
_atom_site_fract_x
_atom_site_fract_y
_atom_site_fract_z
Si Si1 0.676362 0.629936 0.452210
Si Si2 0.677432 0.441457 0.790715
Si Si3 0.322702 0.132076 0.628881
Si Si4 0.676488 0.632162 0.136105
Si Si5 0.177622 0.067915 0.784962
Si Si6 0.175312 0.860232 0.446414
Si Si7 0.177336 0.250203 0.195582
Si Si8 0.176035 0.748644 0.889401
O O1 0.500000 0.623735 0.465849
O O2 0.734320 0.590439 0.375495
O O3 0.759639 0.610610 0.538356
O O4 0.722614 0.692847 0.430503
O O5 0.500000 0.439261 0.788313
O O6 0.743533 0.411357 0.705270
O O7 0.733898 0.504657 0.793418
O O8 0.500000 0.126983 0.630621
O O9 0.256228 0.093722 0.702857
O O10 0.268080 0.195699 0.643196
O O11 0.500000 0.634784 0.149360
O O12 0.742481 0.694127 0.152590
O O13 0.716916 0.612820 0.039154
O O14 0.233224 0.099659 0.870791
O O15 0.000000 0.071734 0.773925
O O16 0.249800 0.799952 0.444137
O O17 0.000000 0.850989 0.438473
O O18 0.238928 0.254332 0.292534
O O19 0.000000 0.247966 0.197670
O O20 0.000000 0.740246 0.890593
#
# Coordination Sequence:
#
# PCOD8174357 Si02
#       8
#     8   8   8   8   8   8   8   8
#     4  10  20  35  58  85 110 137 178 227 272 319
#     4   9  18  34  56  79 106 140 179 225 270 311
#     4  11  22  36  56  80 110 147 181 217 271 331
#     4   9  16  30  53  79 104 136 176 217 264 319
#     4  10  21  36  54  80 109 140 183 229 267 307
#     4  10  20  32  51  80 111 138 173 220 266 315
#     4   9  16  29  51  77 104 138 176 210 257 325
#     4  10  18  32  55  80 108 142 176 213 265 327
#
# _framework density 19.148053000000001
#
# number of rings (size 3 to 8) (size 9 to 14) (size 15 to 20)
#    0.000    2.250    2.500    1.125    0.000    2.500 
#    0.000    4.375    0.000    3.000    0.000    0.000 
#    0.000    0.000    0.000    0.000    0.000    0.000 
#
# Total GULP energy -396782.940877 kJ/mol
# GULP energy per Si atom -12399.466902 kJ/mol
# Density = 1.910447 g / cm^3
# Si number density = 19.148053 Si / 1000 Ang^3
#
#
#
# Elastic Constant Matrix: (Units=GPa)
#
#
# Indices 1 2 3 4 5 6 
#
# 1 23.6125 29.0348 31.4786 0.0000 0.0000 0.0000
# 2 29.0348 154.4504 83.9808 0.0000 0.0000 0.0000
# 3 31.4786 83.9808 176.5469 0.0000 0.0000 0.0000
# 4 0.0000 0.0000 0.0000 14.9139 0.0000 0.0000
# 5 0.0000 0.0000 0.0000 0.0000 18.6927 0.0000
# 6 0.0000 0.0000 0.0000 0.0000 0.0000 21.5272
#
#
#
# Elastic Compliance Matrix: (Units=1/GPa)
#
#
# Indices 1 2 3 4 5 6 
#
# 1 0.061451 -0.007546 -0.007367 0.000000 0.000000 0.000000
# 2 -0.007546 0.009660 -0.003250 0.000000 0.000000 0.000000
# 3 -0.007367 -0.003250 0.008524 0.000000 0.000000 0.000000
# 4 0.000000 0.000000 0.000000 0.067052 0.000000 0.000000
# 5 0.000000 0.000000 0.000000 0.000000 0.053497 0.000000
# 6 0.000000 0.000000 0.000000 0.000000 0.000000 0.046453
#
#
# Mechanical properties :
#
#
# Convention : Reuss Voigt Hill
#
# Bulk Modulus (GPa) = 23.09016 71.51091 47.30054
# Shear Modulus (GPa) = 16.81247 25.03446 20.92346
#
# Velocity S-wave (km/s) = 2.96636 3.61974 3.30922
# Velocity P-wave (km/s) = 4.88030 7.40928 6.27355
#
# Compressibility (1/GPa) = 0.04330849
#
# Stress axis : x y z
#
# Youngs Moduli (GPa) = 16.27318 103.51801 117.32100
#
# Poissons Ratio (x) = 0.78117 0.86432
# Poissons Ratio (y) = 0.12280 0.38126
# Poissons Ratio (z) = 0.11989 0.33640
#
# Static dielectric constant tensor:
#      x y z
#    x 3.006860 0.000000 0.000000 
#    y 0.000000 3.656150 0.000000 
#    z 0.000000 0.000000 3.718520 
# 
# 
# High freq. dielectric constant tensor:
#      x y z
#    x 1.695070 0.000000 0.000000 
#    y 0.000000 1.745210 0.000000 
#    z 0.000000 0.000000 1.763380 
# 
# From -- ./inp_files/11034.got.cif
#   From: 2010.03.12/outbox.cif.g09.slc.cpg/sg36_6_cif.got.tgz:11034.got - 2010.04.14 02:13:53.
