data_PCOD8174737
_publ_section_title
;
Structure prediction by ZEFSAII (Michael W. Deem and Ramdas Pophale) SiO2 
 PCOD8174737
Probable space group: C M C 21
;
_chemical_formula_sum "Si O2"
_cell_formula_units_Z 64
_cell_length_a 8.829677
_cell_length_b 28.867965
_cell_length_c 12.706763
_cell_angle_alpha 90.000000
_cell_angle_beta 90.000000
_cell_angle_gamma 90.000000
_cell_volume 3238.887897
_symmetry_space_group_name_H-M "C M C 21"
_symmetry_group_IT_number 36
_symmetry_cell_setting 'orthorhombic'
loop_
_space_group_symop_operation_xyz
x,y,z
-x,-y,1/2+z
x,-y,1/2+z
-x,y,z
1/2+x,1/2+y,z
1/2-x,1/2-y,1/2+z
1/2+x,1/2-y,1/2+z
1/2-x,1/2+y,z
loop_
_atom_site_type_symbol
_atom_site_label
_atom_site_fract_x
_atom_site_fract_y
_atom_site_fract_z
Si Si1 0.823870 0.688564 0.024960
Si Si2 0.177307 0.625448 0.524208
Si Si3 0.679756 0.911852 0.600484
Si Si4 0.178922 0.432478 0.831578
Si Si5 0.167489 0.086763 0.717243
Si Si6 0.179298 0.468199 0.400299
Si Si7 0.832248 0.812758 0.311984
Si Si8 0.822995 0.277261 0.118256
O O1 0.773224 0.641468 0.082729
O O2 0.718145 0.730170 0.061004
O O3 0.000000 0.699777 0.043961
O O4 0.791957 0.682691 0.902250
O O5 0.224597 0.611269 0.405065
O O6 0.257171 0.589024 0.602405
O O7 0.223924 0.678824 0.544978
O O8 0.000000 0.618345 0.541647
O O9 0.500000 0.916150 0.599280
O O10 0.748340 0.927072 0.713870
O O11 0.746956 0.944421 0.506708
O O12 0.237661 0.479065 0.889125
O O13 0.000000 0.435146 0.818509
O O14 0.270089 0.057632 0.795404
O O15 0.154391 0.138332 0.757839
O O16 0.000000 0.064476 0.709038
O O17 0.000000 0.465405 0.405478
O O18 0.769667 0.776516 0.226842
O O19 0.000000 0.796602 0.351098
O O20 0.000000 0.279125 0.143627
#
# Coordination Sequence:
#
# PCOD8174737 Si02
#       8
#     8   8   8   8   8   8   8   8
#     4  11  21  35  57  83 117 154 191 237 292 351
#     4   9  19  36  58  83 112 149 190 237 285 337
#     4   9  19  34  53  86 120 147 186 239 292 341
#     4   9  19  34  57  86 115 147 190 238 287 341
#     4  10  20  34  55  80 110 146 185 236 287 339
#     4  10  19  33  58  85 110 143 189 238 282 339
#     4  10  20  36  56  79 108 146 193 242 291 339
#     4  10  21  36  56  84 116 150 196 241 290 351
#
# _framework density 19.759868000000001
#
# number of rings (size 3 to 8) (size 9 to 14) (size 15 to 20)
#    0.000    2.250    1.250    1.500    1.750    2.500 
#    0.000    3.125    0.000    3.750    0.000    0.000 
#    0.000    0.000    0.000    0.000    0.000    0.000 
#
# Total GULP energy -396694.045827 kJ/mol
# GULP energy per Si atom -12396.688932 kJ/mol
# Density = 1.971489 g / cm^3
# Si number density = 19.759868 Si / 1000 Ang^3
#
#
#
# Elastic Constant Matrix: (Units=GPa)
#
#
# Indices 1 2 3 4 5 6 
#
# 1 34.0070 25.2507 16.4402 0.0000 0.0000 0.0000
# 2 25.2507 102.5149 65.6650 0.0000 0.0000 0.0000
# 3 16.4402 65.6650 132.3662 0.0000 0.0000 0.0000
# 4 0.0000 0.0000 0.0000 10.5441 0.0000 0.0000
# 5 0.0000 0.0000 0.0000 0.0000 19.7742 0.0000
# 6 0.0000 0.0000 0.0000 0.0000 0.0000 18.0433
#
#
#
# Elastic Compliance Matrix: (Units=1/GPa)
#
#
# Indices 1 2 3 4 5 6 
#
# 1 0.035989 -0.008797 -0.000106 0.000000 0.000000 0.000000
# 2 -0.008797 0.016448 -0.007067 0.000000 0.000000 0.000000
# 3 -0.000106 -0.007067 0.011074 0.000000 0.000000 0.000000
# 4 0.000000 0.000000 0.000000 0.094840 0.000000 0.000000
# 5 0.000000 0.000000 0.000000 0.000000 0.050571 0.000000
# 6 0.000000 0.000000 0.000000 0.000000 0.000000 0.055422
#
#
# Mechanical properties :
#
#
# Convention : Reuss Voigt Hill
#
# Bulk Modulus (GPa) = 31.67446 53.73333 42.70389
# Shear Modulus (GPa) = 16.29690 20.44113 18.36901
#
# Velocity S-wave (km/s) = 2.87496 3.21982 3.05226
# Velocity P-wave (km/s) = 5.20432 6.40899 5.83781
#
# Compressibility (1/GPa) = 0.03157118
#
# Stress axis : x y z
#
# Youngs Moduli (GPa) = 27.78662 60.79702 90.30255
#
# Poissons Ratio (x) = 0.53480 0.00958
# Poissons Ratio (y) = 0.24443 0.63818
# Poissons Ratio (z) = 0.00295 0.42966
#
# Static dielectric constant tensor:
#      x y z
#    x 3.499530 0.000000 0.000000 
#    y 0.000000 3.675090 0.000000 
#    z 0.000000 0.000000 3.848480 
# 
# 
# High freq. dielectric constant tensor:
#      x y z
#    x 1.743520 0.000000 0.000000 
#    y 0.000000 1.766530 0.000000 
#    z 0.000000 0.000000 1.776410 
# 
# From -- ./inp_files/7079.got.cif
#   From: 2010.03.12/outbox.cif.g09.slc.cpg/sg36_4_cif.got.tgz:7079.got - 2010.04.14 02:13:53.
