data_PCOD8174802
_publ_section_title
;
Structure prediction by ZEFSAII (Michael W. Deem and Ramdas Pophale) SiO2 
 PCOD8174802
Probable space group: C M C 21
;
_chemical_formula_sum "Si O2"
_cell_formula_units_Z 64
_cell_length_a 8.936420
_cell_length_b 19.913495
_cell_length_c 19.509812
_cell_angle_alpha 90.000000
_cell_angle_beta 90.000000
_cell_angle_gamma 90.000000
_cell_volume 3471.875520
_symmetry_space_group_name_H-M "C M C 21"
_symmetry_group_IT_number 36
_symmetry_cell_setting 'orthorhombic'
loop_
_space_group_symop_operation_xyz
x,y,z
-x,-y,1/2+z
x,-y,1/2+z
-x,y,z
1/2+x,1/2+y,z
1/2-x,1/2-y,1/2+z
1/2+x,1/2-y,1/2+z
1/2-x,1/2+y,z
loop_
_atom_site_type_symbol
_atom_site_label
_atom_site_fract_x
_atom_site_fract_y
_atom_site_fract_z
Si Si1 0.671869 0.323900 0.635460
Si Si2 0.673878 0.657797 0.756449
Si Si3 0.176604 0.479082 0.259707
Si Si4 0.826537 0.422535 0.022116
Si Si5 0.174988 0.024053 0.119879
Si Si6 0.827744 0.593939 0.363979
Si Si7 0.326603 0.693468 0.600085
Si Si8 0.325804 0.290825 0.789338
O O1 0.500000 0.303115 0.624694
O O2 0.705693 0.397497 0.605713
O O3 0.773477 0.270650 0.594862
O O4 0.711923 0.324119 0.715981
O O5 0.500000 0.653140 0.773119
O O6 0.754435 0.591342 0.783594
O O7 0.704989 0.665150 0.675660
O O8 0.741091 0.720458 0.797561
O O9 0.239252 0.500102 0.186619
O O10 0.225932 0.533199 0.316009
O O11 0.000000 0.471500 0.254233
O O12 0.733664 0.483259 0.054875
O O13 0.767228 0.350627 0.047128
O O14 0.000000 0.429323 0.042190
O O15 0.800994 0.428360 0.941443
O O16 0.000000 0.009467 0.131094
O O17 0.730156 0.659543 0.348373
O O18 0.000000 0.611940 0.349621
O O19 0.500000 0.689685 0.580552
O O20 0.500000 0.277336 0.798937
#
# Coordination Sequence:
#
# PCOD8174802 Si02
#       8
#     8   8   8   8   8   8   8   8
#     4   9  19  34  55  83 114 144 182 232 285 336
#     4  10  20  34  55  84 117 146 185 236 283 332
#     4  11  21  35  58  85 114 150 192 237 287 340
#     4  11  23  39  58  81 115 156 193 234 286 345
#     4  11  21  36  57  86 117 146 188 238 287 341
#     4  10  23  40  57  82 116 153 193 235 287 346
#     4  10  20  34  55  83 113 145 187 234 279 335
#     4  10  19  34  57  84 112 146 188 232 284 339
#
# _framework density 18.433841000000001
#
# number of rings (size 3 to 8) (size 9 to 14) (size 15 to 20)
#    0.000    1.750    2.500    2.250    0.000    4.000 
#    0.000    1.250    0.000    3.000    0.000    0.000 
#    0.000    0.000    0.000    0.000    0.000    0.000 
#
# Total GULP energy -396972.457238 kJ/mol
# GULP energy per Si atom -12405.389289 kJ/mol
# Density = 1.839188 g / cm^3
# Si number density = 18.433841 Si / 1000 Ang^3
#
#
#
# Elastic Constant Matrix: (Units=GPa)
#
#
# Indices 1 2 3 4 5 6 
#
# 1 81.3942 55.6987 23.7753 0.0000 0.0000 0.0000
# 2 55.6987 133.5336 38.7270 0.0000 0.0000 0.0000
# 3 23.7753 38.7270 57.1055 0.0000 0.0000 0.0000
# 4 0.0000 0.0000 0.0000 23.7300 0.0000 0.0000
# 5 0.0000 0.0000 0.0000 0.0000 22.9805 0.0000
# 6 0.0000 0.0000 0.0000 0.0000 0.0000 38.3926
#
#
#
# Elastic Compliance Matrix: (Units=1/GPa)
#
#
# Indices 1 2 3 4 5 6 
#
# 1 0.017576 -0.006484 -0.002920 0.000000 0.000000 0.000000
# 2 -0.006484 0.011715 -0.005245 0.000000 0.000000 0.000000
# 3 -0.002920 -0.005245 0.022284 0.000000 0.000000 0.000000
# 4 0.000000 0.000000 0.000000 0.042141 0.000000 0.000000
# 5 0.000000 0.000000 0.000000 0.000000 0.043515 0.000000
# 6 0.000000 0.000000 0.000000 0.000000 0.000000 0.026047
#
#
# Mechanical properties :
#
#
# Convention : Reuss Voigt Hill
#
# Bulk Modulus (GPa) = 44.89092 56.49280 50.69186
# Shear Modulus (GPa) = 24.99985 27.27610 26.13797
#
# Velocity S-wave (km/s) = 3.68665 3.85083 3.76963
# Velocity P-wave (km/s) = 6.52128 7.10525 6.81952
#
# Compressibility (1/GPa) = 0.02227622
#
# Stress axis : x y z
#
# Youngs Moduli (GPa) = 56.89517 85.36419 44.87522
#
# Poissons Ratio (x) = 0.55353 0.13104
# Poissons Ratio (y) = 0.36893 0.23536
# Poissons Ratio (z) = 0.16615 0.44771
#
# Static dielectric constant tensor:
#      x y z
#    x 3.488430 0.000000 0.000000 
#    y 0.000000 3.600970 0.000000 
#    z 0.000000 0.000000 3.123340 
# 
# 
# High freq. dielectric constant tensor:
#      x y z
#    x 1.728290 0.000000 0.000000 
#    y 0.000000 1.729050 0.000000 
#    z 0.000000 0.000000 1.683930 
# 
# From -- ./inp_files/13919.got.cif
#   From: 2010.03.12/outbox.cif.g09.slc.cpg/sg36_7_cif.got.tgz:13919.got - 2010.04.14 02:13:53.
