data_PCOD8174149
_publ_section_title
;
Structure prediction by ZEFSAII (Michael W. Deem and Ramdas Pophale) SiO2 
 PCOD8174149
Probable space group: C M M 2
;
_chemical_formula_sum "Si O2"
_cell_formula_units_Z 56
_cell_length_a 19.630819
_cell_length_b 13.725257
_cell_length_c 9.651037
_cell_angle_alpha 90.000000
_cell_angle_beta 90.000000
_cell_angle_gamma 90.000000
_cell_volume 2600.356454
_symmetry_space_group_name_H-M "C M M 2"
_symmetry_group_IT_number 35
_symmetry_cell_setting 'orthorhombic'
loop_
_space_group_symop_operation_xyz
x,y,z
-x,-y,z
-x,y,z
x,-y,z
1/2+x,1/2+y,z
1/2-x,1/2-y,z
1/2-x,1/2+y,z
1/2+x,1/2-y,z
loop_
_atom_site_type_symbol
_atom_site_label
_atom_site_fract_x
_atom_site_fract_y
_atom_site_fract_z
Si Si1 0.177590 0.222501 0.032870
Si Si2 0.714919 0.115759 0.566592
Si Si3 0.074014 0.613250 0.670915
Si Si4 0.163982 0.884776 0.761436
Si Si5 0.577862 0.888901 0.995268
Si Si6 0.074683 0.884242 0.513681
Si Si7 0.692790 0.384687 0.318499
O O1 0.250000 0.250000 0.967857
O O2 0.196105 0.163469 0.169924
O O3 0.145052 0.156969 0.912273
O O4 0.129112 0.314198 0.070965
O O5 0.638646 0.160407 0.589358
O O6 0.765491 0.151708 0.689325
O O7 0.743701 0.148602 0.416363
O O8 0.711866 0.000000 0.573911
O O9 0.070523 0.500000 0.635155
O O10 0.087348 0.627283 0.832746
O O11 0.000000 0.659476 0.628403
O O12 0.102280 0.849225 0.662898
O O13 0.166545 0.000000 0.776252
O O14 0.500000 0.867786 0.040420
O O15 0.597625 0.000000 0.035878
O O16 0.123215 0.848982 0.390192
O O17 0.000000 0.839843 0.488691
O O18 0.073468 0.000000 0.514128
O O19 0.694359 0.500000 0.299033
#
# Coordination Sequence:
#
# PCOD8174149 Si02
#       7
#     8   8   8   8   8   8   8
#     4  12  24  35  54  87 117 151 198 248 297 344
#     4   8  14  29  53  79 112 153 189 228 285 352
#     4   8  13  25  51  83 108 137 186 244 293 336
#     4   9  18  33  55  84 116 147 182 229 288 352
#     4   9  20  39  59  81 115 158 202 250 301 348
#     4   8  15  32  58  84 111 146 182 215 266 342
#     4   9  19  35  54  80 119 159 187 222 283 353
#
# _framework density 21.535509999999999
#
# number of rings (size 3 to 8) (size 9 to 14) (size 15 to 20)
#    0.000    3.000    0.000    3.857    0.000    3.429 
#    0.000    5.714    0.000    5.143    0.000    6.000 
#    0.000   10.286    0.000    0.000    0.000    0.000 
#
# Total GULP energy -346985.380841 kJ/mol
# GULP energy per Si atom -12392.335030 kJ/mol
# Density = 2.148649 g / cm^3
# Si number density = 21.535510 Si / 1000 Ang^3
#
#
#
# Elastic Constant Matrix: (Units=GPa)
#
#
# Indices 1 2 3 4 5 6 
#
# 1 160.0263 23.2703 27.4991 0.0000 0.0000 0.0000
# 2 23.2703 54.4137 22.0624 0.0000 0.0000 0.0000
# 3 27.4991 22.0624 94.0521 0.0000 0.0000 0.0000
# 4 0.0000 0.0000 0.0000 6.1468 0.0000 0.0000
# 5 0.0000 0.0000 0.0000 0.0000 13.6558 0.0000
# 6 0.0000 0.0000 0.0000 0.0000 0.0000 21.4044
#
#
#
# Elastic Compliance Matrix: (Units=1/GPa)
#
#
# Indices 1 2 3 4 5 6 
#
# 1 0.006838 -0.002336 -0.001451 0.000000 0.000000 0.000000
# 2 -0.002336 0.021107 -0.004268 0.000000 0.000000 0.000000
# 3 -0.001451 -0.004268 0.012058 0.000000 0.000000 0.000000
# 4 0.000000 0.000000 0.000000 0.162687 0.000000 0.000000
# 5 0.000000 0.000000 0.000000 0.000000 0.073229 0.000000
# 6 0.000000 0.000000 0.000000 0.000000 0.000000 0.046719
#
#
# Mechanical properties :
#
#
# Convention : Reuss Voigt Hill
#
# Bulk Modulus (GPa) = 41.85459 50.46173 46.15816
# Shear Modulus (GPa) = 14.42110 23.95210 19.18660
#
# Velocity S-wave (km/s) = 2.59055 3.33861 2.98808
# Velocity P-wave (km/s) = 5.33154 6.19229 5.77796
#
# Compressibility (1/GPa) = 0.02389224
#
# Stress axis : x y z
#
# Youngs Moduli (GPa) = 146.24056 47.37709 82.93252
#
# Poissons Ratio (x) = 0.11067 0.12037
# Poissons Ratio (y) = 0.34160 0.35398
# Poissons Ratio (z) = 0.21225 0.20222
#
# Static dielectric constant tensor:
#      x y z
#    x 4.517440 0.000000 0.000000 
#    y 0.000000 3.704760 0.000000 
#    z 0.000000 0.000000 3.557180 
# 
# 
# High freq. dielectric constant tensor:
#      x y z
#    x 1.850790 0.000000 0.000000 
#    y 0.000000 1.846800 0.000000 
#    z 0.000000 0.000000 1.816270 
# 
# From -- ./inp_files/9281.got.cif
#   From: 2010.03.12/outbox.cif.g09.slc.cpg/sg35_5_cif.got.tgz:9281.got - 2010.04.14 02:02:04.
