data_PCOD8174299
_publ_section_title
;
Structure prediction by ZEFSAII (Michael W. Deem and Ramdas Pophale) SiO2 
 PCOD8174299
Probable space group: C M C 21
;
_chemical_formula_sum "Si O2"
_cell_formula_units_Z 64
_cell_length_a 8.877587
_cell_length_b 27.171601
_cell_length_c 13.112193
_cell_angle_alpha 90.000000
_cell_angle_beta 90.000000
_cell_angle_gamma 90.000000
_cell_volume 3162.900273
_symmetry_space_group_name_H-M "C M C 21"
_symmetry_group_IT_number 36
_symmetry_cell_setting 'orthorhombic'
loop_
_space_group_symop_operation_xyz
x,y,z
-x,-y,1/2+z
x,-y,1/2+z
-x,y,z
1/2+x,1/2+y,z
1/2-x,1/2-y,1/2+z
1/2+x,1/2-y,1/2+z
1/2-x,1/2+y,z
loop_
_atom_site_type_symbol
_atom_site_label
_atom_site_fract_x
_atom_site_fract_y
_atom_site_fract_z
Si Si1 0.675277 0.549193 0.149960
Si Si2 0.320462 0.915314 0.852477
Si Si3 0.168986 0.306485 0.833448
Si Si4 0.319832 0.376809 0.477000
Si Si5 0.675130 0.732630 0.990548
Si Si6 0.832675 0.770821 0.171506
Si Si7 0.675765 0.559114 0.566882
Si Si8 0.324966 0.624520 0.751833
O O1 0.500000 0.559508 0.169307
O O2 0.758925 0.552719 0.258262
O O3 0.703944 0.495492 0.106024
O O4 0.742057 0.587170 0.065313
O O5 0.500000 0.917699 0.849551
O O6 0.254000 0.859997 0.835640
O O7 0.263297 0.934858 0.960888
O O8 0.252827 0.265425 0.902274
O O9 0.168406 0.282893 0.722410
O O10 0.000000 0.314187 0.875740
O O11 0.500000 0.377629 0.478690
O O12 0.254945 0.321972 0.498867
O O13 0.262517 0.392877 0.363017
O O14 0.500000 0.725928 0.967071
O O15 0.702936 0.766411 0.088613
O O16 0.794161 0.816807 0.244745
O O17 0.000000 0.779718 0.124522
O O18 0.500000 0.569666 0.546425
O O19 0.744423 0.595698 0.654265
O O20 0.500000 0.611947 0.749816
#
# Coordination Sequence:
#
# PCOD8174299 Si02
#       8
#     8   8   8   8   8   8   8   8
#     4  10  22  38  61  88 112 143 189 242 286 330
#     4  11  23  39  58  81 117 153 185 227 280 345
#     4   9  18  33  52  75 105 147 183 211 260 327
#     4   9  17  32  56  84 111 143 186 233 281 332
#     4  10  18  31  52  77 107 143 182 220 264 322
#     4  10  18  31  52  77 107 143 182 220 264 322
#     4  10  22  38  61  88 112 143 189 242 286 330
#     4   9  17  32  56  84 111 143 186 233 281 332
#
# _framework density 20.234593
#
# number of rings (size 3 to 8) (size 9 to 14) (size 15 to 20)
#    0.000    2.250    1.250    1.875    1.750    0.500 
#    0.000    1.875    0.000    1.500    0.000    0.000 
#    0.000    0.000    0.000    0.000    0.000    0.000 
#
# Total GULP energy -396495.940820 kJ/mol
# GULP energy per Si atom -12390.498151 kJ/mol
# Density = 2.018854 g / cm^3
# Si number density = 20.234593 Si / 1000 Ang^3
#
#
#
# Elastic Constant Matrix: (Units=GPa)
#
#
# Indices 1 2 3 4 5 6 
#
# 1 30.8132 28.6762 33.1070 0.0000 0.0000 0.0000
# 2 28.6762 101.0897 43.9318 0.0000 0.0000 0.0000
# 3 33.1070 43.9318 148.7286 0.0000 0.0000 0.0000
# 4 0.0000 0.0000 0.0000 35.9781 0.0000 0.0000
# 5 0.0000 0.0000 0.0000 0.0000 22.8516 0.0000
# 6 0.0000 0.0000 0.0000 0.0000 0.0000 14.1656
#
#
#
# Elastic Compliance Matrix: (Units=1/GPa)
#
#
# Indices 1 2 3 4 5 6 
#
# 1 0.051571 -0.011060 -0.008213 0.000000 0.000000 0.000000
# 2 -0.011060 0.013721 -0.001591 0.000000 0.000000 0.000000
# 3 -0.008213 -0.001591 0.009022 0.000000 0.000000 0.000000
# 4 0.000000 0.000000 0.000000 0.027795 0.000000 0.000000
# 5 0.000000 0.000000 0.000000 0.000000 0.043761 0.000000
# 6 0.000000 0.000000 0.000000 0.000000 0.000000 0.070594
#
#
# Mechanical properties :
#
#
# Convention : Reuss Voigt Hill
#
# Bulk Modulus (GPa) = 30.68794 54.67348 42.68071
# Shear Modulus (GPa) = 18.58377 26.26015 22.42196
#
# Velocity S-wave (km/s) = 3.03383 3.60639 3.33243
# Velocity P-wave (km/s) = 5.24129 6.66482 5.99545
#
# Compressibility (1/GPa) = 0.03258609
#
# Stress axis : x y z
#
# Youngs Moduli (GPa) = 19.39085 72.88090 110.84306
#
# Poissons Ratio (x) = 0.80606 0.91032
# Poissons Ratio (y) = 0.21446 0.17635
# Poissons Ratio (z) = 0.15925 0.11595
#
# Static dielectric constant tensor:
#      x y z
#    x 3.169680 0.000000 0.000000 
#    y 0.000000 3.867240 0.000000 
#    z 0.000000 0.000000 3.802950 
# 
# 
# High freq. dielectric constant tensor:
#      x y z
#    x 1.731140 0.000000 0.000000 
#    y 0.000000 1.801280 0.000000 
#    z 0.000000 0.000000 1.803440 
# 
# From -- ./inp_files/7182.got.cif
#   From: 2010.03.12/outbox.cif.g09.slc.cpg/sg36_4_cif.got.tgz:7182.got - 2010.04.14 02:13:53.
