data_PCOD8174543
_publ_section_title
;
Structure prediction by ZEFSAII (Michael W. Deem and Ramdas Pophale) SiO2 
 PCOD8174543
Probable space group: C M C 21
;
_chemical_formula_sum "Si O2"
_cell_formula_units_Z 64
_cell_length_a 9.510887
_cell_length_b 24.001650
_cell_length_c 14.365152
_cell_angle_alpha 90.000000
_cell_angle_beta 90.000000
_cell_angle_gamma 90.000000
_cell_volume 3279.233530
_symmetry_space_group_name_H-M "C M C 21"
_symmetry_group_IT_number 36
_symmetry_cell_setting 'orthorhombic'
loop_
_space_group_symop_operation_xyz
x,y,z
-x,-y,1/2+z
x,-y,1/2+z
-x,y,z
1/2+x,1/2+y,z
1/2-x,1/2-y,1/2+z
1/2+x,1/2-y,1/2+z
1/2-x,1/2+y,z
loop_
_atom_site_type_symbol
_atom_site_label
_atom_site_fract_x
_atom_site_fract_y
_atom_site_fract_z
Si Si1 0.660514 0.447042 0.715990
Si Si2 0.340452 0.029209 0.387362
Si Si3 0.841675 0.402593 0.394997
Si Si4 0.837520 0.186815 0.800062
Si Si5 0.841198 0.171040 0.595840
Si Si6 0.840514 0.133911 0.056827
Si Si7 0.160749 0.251581 0.979509
Si Si8 0.837417 0.043634 0.572680
O O1 0.500000 0.456230 0.749041
O O2 0.759564 0.439101 0.804983
O O3 0.675764 0.388332 0.661460
O O4 0.707365 0.498859 0.650899
O O5 0.500000 0.052256 0.396169
O O6 0.261098 0.037357 0.483830
O O7 0.342906 0.965002 0.357588
O O8 0.758735 0.366083 0.320628
O O9 0.764350 0.402032 0.494162
O O10 0.000000 0.379538 0.406771
O O11 0.809076 0.203529 0.692954
O O12 0.000000 0.169090 0.813920
O O13 0.800404 0.236555 0.872204
O O14 0.747870 0.195147 0.512495
O O15 0.813941 0.105647 0.612518
O O16 0.000000 0.181668 0.564284
O O17 0.803840 0.199248 0.046906
O O18 0.000000 0.124059 0.020847
O O19 0.000000 0.269269 0.987828
O O20 0.000000 0.033520 0.543998
#
# Coordination Sequence:
#
# PCOD8174543 Si02
#       8
#     8   8   8   8   8   8   8   8
#     4  10  20  36  60  84 109 147 193 236 277 330
#     4  11  23  35  51  82 121 154 181 223 287 348
#     4  10  19  31  52  82 113 144 181 226 276 330
#     4   9  19  37  60  83 109 145 193 238 279 330
#     4  10  21  38  59  84 112 147 192 238 279 330
#     4   9  18  35  58  80 104 140 186 230 274 327
#     4   9  19  36  58  83 111 143 181 230 286 340
#     4  10  21  38  60  84 111 150 195 235 278 333
#
# _framework density 19.516756000000001
#
# number of rings (size 3 to 8) (size 9 to 14) (size 15 to 20)
#    0.000    2.250    1.250    2.250    0.000    6.500 
#    2.250    0.000    0.000    0.000    0.000    0.000 
#    0.000    0.000    0.000    0.000    0.000    0.000 
#
# Total GULP energy -396742.466392 kJ/mol
# GULP energy per Si atom -12398.202075 kJ/mol
# Density = 1.947234 g / cm^3
# Si number density = 19.516756 Si / 1000 Ang^3
#
#
#
# Elastic Constant Matrix: (Units=GPa)
#
#
# Indices 1 2 3 4 5 6 
#
# 1 88.1600 10.4170 43.4673 0.0000 0.0000 0.0000
# 2 10.4170 39.3721 6.6104 0.0000 0.0000 0.0000
# 3 43.4673 6.6104 86.0188 0.0000 0.0000 0.0000
# 4 0.0000 0.0000 0.0000 24.1711 0.0000 0.0000
# 5 0.0000 0.0000 0.0000 0.0000 25.7340 0.0000
# 6 0.0000 0.0000 0.0000 0.0000 0.0000 28.5468
#
#
#
# Elastic Compliance Matrix: (Units=1/GPa)
#
#
# Indices 1 2 3 4 5 6 
#
# 1 0.015407 -0.002805 -0.007570 0.000000 0.000000 0.000000
# 2 -0.002805 0.026242 -0.000599 0.000000 0.000000 0.000000
# 3 -0.007570 -0.000599 0.015497 0.000000 0.000000 0.000000
# 4 0.000000 0.000000 0.000000 0.041372 0.000000 0.000000
# 5 0.000000 0.000000 0.000000 0.000000 0.038859 0.000000
# 6 0.000000 0.000000 0.000000 0.000000 0.000000 0.035030
#
#
# Mechanical properties :
#
#
# Convention : Reuss Voigt Hill
#
# Bulk Modulus (GPa) = 28.41191 37.17115 32.79153
# Shear Modulus (GPa) = 24.26167 25.89414 25.07790
#
# Velocity S-wave (km/s) = 3.52962 3.64643 3.58850
# Velocity P-wave (km/s) = 5.58572 6.06759 5.83163
#
# Compressibility (1/GPa) = 0.03519650
#
# Stress axis : x y z
#
# Youngs Moduli (GPa) = 64.90644 38.10758 64.53031
#
# Poissons Ratio (x) = 0.10691 0.48848
# Poissons Ratio (y) = 0.18209 0.03865
# Poissons Ratio (z) = 0.49133 0.02283
#
# Static dielectric constant tensor:
#      x y z
#    x 3.606660 0.000000 0.000000 
#    y 0.000000 3.365380 0.000000 
#    z 0.000000 0.000000 3.456650 
# 
# 
# High freq. dielectric constant tensor:
#      x y z
#    x 1.760210 0.000000 0.000000 
#    y 0.000000 1.742610 0.000000 
#    z 0.000000 0.000000 1.754130 
# 
# From -- ./inp_files/10928.got.cif
#   From: 2010.03.12/outbox.cif.g09.slc.cpg/sg36_6_cif.got.tgz:10928.got - 2010.04.14 02:13:53.
