data_PCOD8174280
_publ_section_title
;
Structure prediction by ZEFSAII (Michael W. Deem and Ramdas Pophale) SiO2 
 PCOD8174280
Probable space group: C M C 21
;
_chemical_formula_sum "Si O2"
_cell_formula_units_Z 64
_cell_length_a 8.505723
_cell_length_b 20.868253
_cell_length_c 18.378539
_cell_angle_alpha 90.000000
_cell_angle_beta 90.000000
_cell_angle_gamma 90.000000
_cell_volume 3262.182945
_symmetry_space_group_name_H-M "C M C 21"
_symmetry_group_IT_number 36
_symmetry_cell_setting 'orthorhombic'
loop_
_space_group_symop_operation_xyz
x,y,z
-x,-y,1/2+z
x,-y,1/2+z
-x,y,z
1/2+x,1/2+y,z
1/2-x,1/2-y,1/2+z
1/2+x,1/2-y,1/2+z
1/2-x,1/2+y,z
loop_
_atom_site_type_symbol
_atom_site_label
_atom_site_fract_x
_atom_site_fract_y
_atom_site_fract_z
Si Si1 0.315398 0.626530 0.237440
Si Si2 0.683479 0.005829 0.161525
Si Si3 0.183738 0.384509 0.252845
Si Si4 0.318865 0.246240 0.911825
Si Si5 0.683016 0.744941 0.755058
Si Si6 0.314657 0.496868 0.004975
Si Si7 0.686066 0.385371 0.901160
Si Si8 0.181233 0.882167 0.411075
O O1 0.500000 0.638857 0.237686
O O2 0.276331 0.569808 0.182417
O O3 0.229837 0.691879 0.208793
O O4 0.249648 0.609171 0.318374
O O5 0.500000 0.017989 0.172887
O O6 0.744528 0.947607 0.211461
O O7 0.719730 0.988475 0.078709
O O8 0.274426 0.323075 0.217352
O O9 0.218395 0.393135 0.338383
O O10 0.000000 0.374884 0.240089
O O11 0.500000 0.233506 0.930429
O O12 0.294414 0.246510 0.825427
O O13 0.265341 0.317167 0.938546
O O14 0.217873 0.187984 0.946096
O O15 0.500000 0.746228 0.775709
O O16 0.500000 0.488978 0.019237
O O17 0.247895 0.442877 0.949986
O O18 0.273674 0.565631 0.970955
O O19 0.500000 0.390234 0.896723
O O20 0.000000 0.887179 0.388803
#
# Coordination Sequence:
#
# PCOD8174280 Si02
#       8
#     8   8   8   8   8   8   8   8
#     4  10  19  35  59  82 107 139 174 217 269 320
#     4  11  24  38  52  76 108 141 181 223 262 311
#     4  10  20  35  55  79 108 141 177 220 268 315
#     4   9  16  29  51  78 107 137 169 213 267 315
#     4  10  18  30  52  82 111 136 171 219 264 314
#     4  10  21  37  54  73 102 140 179 217 261 313
#     4   8  16  32  55  80 101 129 173 214 253 309
#     4  10  19  32  54  82 106 133 174 219 262 315
#
# _framework density 19.618763999999999
#
# number of rings (size 3 to 8) (size 9 to 14) (size 15 to 20)
#    0.000    2.250    0.000    6.000    0.000    4.000 
#    0.000    5.000    0.000    6.000    0.000    0.000 
#    0.000    0.000    0.000    0.000    0.000    0.000 
#
# Total GULP energy -396689.595928 kJ/mol
# GULP energy per Si atom -12396.549873 kJ/mol
# Density = 1.957411 g / cm^3
# Si number density = 19.618764 Si / 1000 Ang^3
#
#
#
# Elastic Constant Matrix: (Units=GPa)
#
#
# Indices 1 2 3 4 5 6 
#
# 1 50.9818 30.2281 12.5164 0.0000 0.0000 0.0000
# 2 30.2281 128.7305 21.3529 0.0000 0.0000 0.0000
# 3 12.5164 21.3529 48.4102 0.0000 0.0000 0.0000
# 4 0.0000 0.0000 0.0000 9.0110 0.0000 0.0000
# 5 0.0000 0.0000 0.0000 0.0000 22.6506 0.0000
# 6 0.0000 0.0000 0.0000 0.0000 0.0000 31.9791
#
#
#
# Elastic Compliance Matrix: (Units=1/GPa)
#
#
# Indices 1 2 3 4 5 6 
#
# 1 0.023458 -0.004858 -0.003922 0.000000 0.000000 0.000000
# 2 -0.004858 0.009387 -0.002885 0.000000 0.000000 0.000000
# 3 -0.003922 -0.002885 0.022943 0.000000 0.000000 0.000000
# 4 0.000000 0.000000 0.000000 0.110975 0.000000 0.000000
# 5 0.000000 0.000000 0.000000 0.000000 0.044149 0.000000
# 6 0.000000 0.000000 0.000000 0.000000 0.000000 0.031270
#
#
# Mechanical properties :
#
#
# Convention : Reuss Voigt Hill
#
# Bulk Modulus (GPa) = 30.80796 39.59082 35.19939
# Shear Modulus (GPa) = 18.09416 23.66316 20.87866
#
# Velocity S-wave (km/s) = 3.04021 3.47673 3.26578
# Velocity P-wave (km/s) = 5.29729 6.02833 5.67460
#
# Compressibility (1/GPa) = 0.03245915
#
# Stress axis : x y z
#
# Youngs Moduli (GPa) = 42.62930 106.52659 43.58577
#
# Poissons Ratio (x) = 0.51748 0.17096
# Poissons Ratio (y) = 0.20708 0.12573
# Poissons Ratio (z) = 0.16721 0.30729
#
# Static dielectric constant tensor:
#      x y z
#    x 3.379500 0.000000 0.000000 
#    y 0.000000 4.297530 0.000000 
#    z 0.000000 0.000000 3.185900 
# 
# 
# High freq. dielectric constant tensor:
#      x y z
#    x 1.757470 0.000000 0.000000 
#    y 0.000000 1.792810 0.000000 
#    z 0.000000 0.000000 1.713900 
# 
# From -- ./inp_files/13811.got.cif
#   From: 2010.03.12/outbox.cif.g09.slc.cpg/sg36_7_cif.got.tgz:13811.got - 2010.04.14 02:13:53.
