data_PCOD8174410
_publ_section_title
;
Structure prediction by ZEFSAII (Michael W. Deem and Ramdas Pophale) SiO2 
 PCOD8174410
Probable space group: C M C 21
;
_chemical_formula_sum "Si O2"
_cell_formula_units_Z 64
_cell_length_a 9.253251
_cell_length_b 19.785262
_cell_length_c 18.758609
_cell_angle_alpha 90.000000
_cell_angle_beta 90.000000
_cell_angle_gamma 90.000000
_cell_volume 3434.288532
_symmetry_space_group_name_H-M "C M C 21"
_symmetry_group_IT_number 36
_symmetry_cell_setting 'orthorhombic'
loop_
_space_group_symop_operation_xyz
x,y,z
-x,-y,1/2+z
x,-y,1/2+z
-x,y,z
1/2+x,1/2+y,z
1/2-x,1/2-y,1/2+z
1/2+x,1/2-y,1/2+z
1/2-x,1/2+y,z
loop_
_atom_site_type_symbol
_atom_site_label
_atom_site_fract_x
_atom_site_fract_y
_atom_site_fract_z
Si Si1 0.336155 0.669672 0.746190
Si Si2 0.831833 0.880854 0.091680
Si Si3 0.672386 0.981808 0.616994
Si Si4 0.329691 0.925275 0.350614
Si Si5 0.829588 0.773516 0.974352
Si Si6 0.667453 0.197817 0.329360
Si Si7 0.829274 0.623678 0.001070
Si Si8 0.170275 0.443014 0.772483
O O1 0.500000 0.647322 0.762921
O O2 0.300370 0.661553 0.663081
O O3 0.230306 0.623091 0.790280
O O4 0.311616 0.747452 0.767083
O O5 0.000000 0.899730 0.085381
O O6 0.739374 0.948808 0.088511
O O7 0.781281 0.833674 0.026401
O O8 0.500000 0.989625 0.615605
O O9 0.728124 0.920597 0.567014
O O10 0.733184 0.965550 0.695839
O O11 0.500000 0.915158 0.349400
O O12 0.263995 0.906555 0.427543
O O13 0.286761 0.002114 0.332085
O O14 0.752815 0.780327 0.899016
O O15 0.000000 0.774350 0.960814
O O16 0.782755 0.701847 0.009461
O O17 0.500000 0.189166 0.350491
O O18 0.734169 0.128363 0.298387
O O19 0.000000 0.616978 0.998161
O O20 0.000000 0.435797 0.763241
#
# Coordination Sequence:
#
# PCOD8174410 Si02
#       8
#     8   8   8   8   8   8   8   8
#     4  10  20  35  55  79 107 141 176 216 267 318
#     4  10  22  37  54  78 111 144 175 216 269 323
#     4  10  20  36  58  81 104 140 184 222 264 315
#     4  10  18  34  56  79 104 137 178 223 264 309
#     4  10  21  38  56  78 109 145 180 216 264 323
#     4  10  21  36  56  81 109 139 178 227 268 311
#     4   9  19  33  55  80 106 138 178 222 264 312
#     4   9  19  33  54  82 108 134 177 228 266 305
#
# _framework density 18.635591000000002
#
# number of rings (size 3 to 8) (size 9 to 14) (size 15 to 20)
#    0.000    2.250    2.500    0.000    3.500    0.500 
#    0.000    2.500    0.000    0.000    0.000    0.000 
#    0.000    0.000    0.000    0.000    0.000    0.000 
#
# Total GULP energy -396803.264370 kJ/mol
# GULP energy per Si atom -12400.102012 kJ/mol
# Density = 1.859318 g / cm^3
# Si number density = 18.635591 Si / 1000 Ang^3
#
#
#
# Elastic Constant Matrix: (Units=GPa)
#
#
# Indices 1 2 3 4 5 6 
#
# 1 23.6420 33.8885 23.1909 0.0000 0.0000 0.0000
# 2 33.8885 148.4698 45.0173 0.0000 0.0000 0.0000
# 3 23.1909 45.0173 84.8958 0.0000 0.0000 0.0000
# 4 0.0000 0.0000 0.0000 40.8447 0.0000 0.0000
# 5 0.0000 0.0000 0.0000 0.0000 22.8462 0.0000
# 6 0.0000 0.0000 0.0000 0.0000 0.0000 21.0606
#
#
#
# Elastic Compliance Matrix: (Units=1/GPa)
#
#
# Indices 1 2 3 4 5 6 
#
# 1 0.073716 -0.012774 -0.013363 0.000000 0.000000 0.000000
# 2 -0.012774 0.010239 -0.001940 0.000000 0.000000 0.000000
# 3 -0.013363 -0.001940 0.016458 0.000000 0.000000 0.000000
# 4 0.000000 0.000000 0.000000 0.024483 0.000000 0.000000
# 5 0.000000 0.000000 0.000000 0.000000 0.043771 0.000000
# 6 0.000000 0.000000 0.000000 0.000000 0.000000 0.047482
#
#
# Mechanical properties :
#
#
# Convention : Reuss Voigt Hill
#
# Bulk Modulus (GPa) = 22.59424 51.24457 36.91941
# Shear Modulus (GPa) = 17.41807 27.27769 22.34788
#
# Velocity S-wave (km/s) = 3.06055 3.83004 3.46671
# Velocity P-wave (km/s) = 4.96385 6.86417 5.98985
#
# Compressibility (1/GPa) = 0.04425907
#
# Stress axis : x y z
#
# Youngs Moduli (GPa) = 13.56549 97.66276 60.75928
#
# Poissons Ratio (x) = 1.24754 0.81195
# Poissons Ratio (y) = 0.17329 0.11788
# Poissons Ratio (z) = 0.18128 0.18948
#
# Static dielectric constant tensor:
#      x y z
#    x 3.102650 0.000000 0.000000 
#    y 0.000000 3.727030 0.000000 
#    z 0.000000 0.000000 3.618850 
# 
# 
# High freq. dielectric constant tensor:
#      x y z
#    x 1.685700 0.000000 0.000000 
#    y 0.000000 1.738320 0.000000 
#    z 0.000000 0.000000 1.731970 
# 
# From -- ./inp_files/13839.got.cif
#   From: 2010.03.12/outbox.cif.g09.slc.cpg/sg36_7_cif.got.tgz:13839.got - 2010.04.14 02:13:53.
