data_PCOD8174227
_publ_section_title
;
Structure prediction by ZEFSAII (Michael W. Deem and Ramdas Pophale) SiO2 
 PCOD8174227
Probable space group: C M C 21
;
_chemical_formula_sum "Si O2"
_cell_formula_units_Z 64
_cell_length_a 9.286032
_cell_length_b 19.722467
_cell_length_c 20.799154
_cell_angle_alpha 90.000000
_cell_angle_beta 90.000000
_cell_angle_gamma 90.000000
_cell_volume 3809.229022
_symmetry_space_group_name_H-M "C M C 21"
_symmetry_group_IT_number 36
_symmetry_cell_setting 'orthorhombic'
loop_
_space_group_symop_operation_xyz
x,y,z
-x,-y,1/2+z
x,-y,1/2+z
-x,y,z
1/2+x,1/2+y,z
1/2-x,1/2-y,1/2+z
1/2+x,1/2-y,1/2+z
1/2-x,1/2+y,z
loop_
_atom_site_type_symbol
_atom_site_label
_atom_site_fract_x
_atom_site_fract_y
_atom_site_fract_z
Si Si1 0.672518 0.546848 0.553710
Si Si2 0.839186 0.044027 0.306072
Si Si3 0.342447 0.202640 0.426172
Si Si4 0.837967 0.458493 0.925800
Si Si5 0.828224 0.794241 0.670239
Si Si6 0.658533 0.705125 0.310505
Si Si7 0.828311 0.313530 0.066399
Si Si8 0.829240 0.055281 0.164698
O O1 0.500000 0.552564 0.546616
O O2 0.740587 0.520760 0.486878
O O3 0.739007 0.618023 0.575804
O O4 0.721675 0.493737 0.608062
O O5 0.735262 0.012260 0.360689
O O6 0.847530 0.124442 0.314424
O O7 0.776241 0.027789 0.234674
O O8 0.000000 0.013553 0.314868
O O9 0.500000 0.233377 0.415195
O O10 0.345582 0.121938 0.421065
O O11 0.245751 0.235759 0.370591
O O12 0.288168 0.220871 0.497868
O O13 0.000000 0.488236 0.932608
O O14 0.772379 0.773863 0.741719
O O15 0.773140 0.738489 0.620210
O O16 0.768583 0.868833 0.651238
O O17 0.000000 0.796517 0.671312
O O18 0.500000 0.736418 0.316656
O O19 0.000000 0.328987 0.069563
O O20 0.000000 0.059089 0.168306
#
# Coordination Sequence:
#
# PCOD8174227 Si02
#       8
#     8   8   8   8   8   8   8   8
#     4  10  18  28  44  66  91 117 145 178 216 257
#     4   8  13  24  42  63  84 105 137 182 223 254
#     4   8  14  23  36  57  83 107 132 168 210 246
#     4   9  16  26  40  61  87 113 144 179 216 257
#     4   8  14  27  46  65  84 109 143 177 211 254
#     4   8  13  22  40  62  79 100 133 173 210 244
#     4   9  17  29  45  64  87 115 145 177 213 255
#     4   8  15  27  45  68  89 112 145 182 217 257
#
# _framework density 16.801300000000001
#
# number of rings (size 3 to 8) (size 9 to 14) (size 15 to 20)
#    0.000    3.500    0.000    3.000    0.000    3.000 
#    0.000    1.875    0.000    5.250    0.000    7.000 
#    0.000    0.000    0.000    0.000    0.000    0.000 
#
# Total GULP energy -396480.800123 kJ/mol
# GULP energy per Si atom -12390.025004 kJ/mol
# Density = 1.676306 g / cm^3
# Si number density = 16.801300 Si / 1000 Ang^3
#
#
#
# Elastic Constant Matrix: (Units=GPa)
#
#
# Indices 1 2 3 4 5 6 
#
# 1 60.4738 16.7976 38.0503 0.0000 0.0000 0.0000
# 2 16.7976 27.7759 25.6675 0.0000 0.0000 0.0000
# 3 38.0503 25.6675 111.0436 0.0000 0.0000 0.0000
# 4 0.0000 0.0000 0.0000 23.7470 0.0000 0.0000
# 5 0.0000 0.0000 0.0000 0.0000 24.3190 0.0000
# 6 0.0000 0.0000 0.0000 0.0000 0.0000 10.9241
#
#
#
# Elastic Compliance Matrix: (Units=1/GPa)
#
#
# Indices 1 2 3 4 5 6 
#
# 1 0.022470 -0.008232 -0.005797 0.000000 0.000000 0.000000
# 2 -0.008232 0.048797 -0.008459 0.000000 0.000000 0.000000
# 3 -0.005797 -0.008459 0.012947 0.000000 0.000000 0.000000
# 4 0.000000 0.000000 0.000000 0.042111 0.000000 0.000000
# 5 0.000000 0.000000 0.000000 0.000000 0.041120 0.000000
# 6 0.000000 0.000000 0.000000 0.000000 0.000000 0.091541
#
#
# Mechanical properties :
#
#
# Convention : Reuss Voigt Hill
#
# Bulk Modulus (GPa) = 25.48452 40.03603 32.76027
# Shear Modulus (GPa) = 15.77085 19.71654 17.74369
#
# Velocity S-wave (km/s) = 3.06709 3.42937 3.25328
# Velocity P-wave (km/s) = 5.26724 6.28981 5.80110
#
# Compressibility (1/GPa) = 0.03923951
#
# Stress axis : x y z
#
# Youngs Moduli (GPa) = 44.50371 20.49287 77.23798
#
# Poissons Ratio (x) = 0.16870 0.44773
# Poissons Ratio (y) = 0.36636 0.65333
# Poissons Ratio (z) = 0.25798 0.17334
#
# Static dielectric constant tensor:
#      x y z
#    x 3.138030 0.000000 0.000000 
#    y 0.000000 2.735040 0.000000 
#    z 0.000000 0.000000 3.614250 
# 
# 
# High freq. dielectric constant tensor:
#      x y z
#    x 1.627020 0.000000 0.000000 
#    y 0.000000 1.584140 0.000000 
#    z 0.000000 0.000000 1.668600 
# 
# From -- ./inp_files/15774.got.cif
#   From: 2010.03.12/outbox.cif.g09.slc.cpg/sg36_8_cif.got.tgz:15774.got - 2010.04.14 02:13:53.
