data_PCOD8174382
_publ_section_title
;
Structure prediction by ZEFSAII (Michael W. Deem and Ramdas Pophale) SiO2 
 PCOD8174382
Probable space group: C M C 21
;
_chemical_formula_sum "Si O2"
_cell_formula_units_Z 60
_cell_length_a 25.344850
_cell_length_b 24.883797
_cell_length_c 5.247604
_cell_angle_alpha 90.000000
_cell_angle_beta 90.000000
_cell_angle_gamma 90.000000
_cell_volume 3309.538438
_symmetry_space_group_name_H-M "C M C 21"
_symmetry_group_IT_number 36
_symmetry_cell_setting 'orthorhombic'
loop_
_space_group_symop_operation_xyz
x,y,z
-x,-y,1/2+z
x,-y,1/2+z
-x,y,z
1/2+x,1/2+y,z
1/2-x,1/2-y,1/2+z
1/2+x,1/2-y,1/2+z
1/2-x,1/2+y,z
loop_
_atom_site_type_symbol
_atom_site_label
_atom_site_fract_x
_atom_site_fract_y
_atom_site_fract_z
Si Si1 0.592388 0.117059 0.150200
Si Si2 0.062893 0.320012 0.155488
Si Si3 0.323718 0.967932 0.668564
Si Si4 0.437917 0.365530 0.155684
Si Si5 0.843868 0.062425 0.668880
Si Si6 0.937921 0.801204 0.655231
Si Si7 0.700882 0.445485 0.669239
Si Si8 0.000000 0.466122 0.677727
O O1 0.580356 0.154533 0.389540
O O2 0.650422 0.091123 0.174961
O O3 0.551704 0.068523 0.133531
O O4 0.590398 0.150849 0.891531
O O5 0.084562 0.259138 0.157270
O O6 0.000000 0.323960 0.185891
O O7 0.261149 0.962434 0.666153
O O8 0.342577 0.999253 0.416362
O O9 0.500000 0.379348 0.156101
O O10 0.405580 0.421432 0.161974
O O11 0.419803 0.331329 0.400029
O O12 0.419764 0.332927 0.906283
O O13 0.813473 0.087644 0.423570
O O14 0.836748 0.998283 0.672579
O O15 0.814944 0.087936 0.917645
O O16 0.000000 0.796518 0.655139
O O17 0.000000 0.513034 0.467796
#
# Coordination Sequence:
#
# PCOD8174382 Si02
#       8
#     8   8   8   8   8   8   8   4
#     4  12  23  34  55  78 105 148 182 220 277 318
#     4  11  20  38  54  77 109 144 185 221 264 336
#     4  12  21  38  55  78 108 135 185 235 261 303
#     4  10  19  33  52  87 113 140 174 215 267 324
#     4  10  18  33  55  77 111 140 177 220 256 321
#     4   9  19  33  55  77 110 143 177 223 264 310
#     4  10  19  35  53  78 104 141 185 224 256 304
#     4  12  22  36  46  72 112 146 174 204 268 336
#
# _framework density 18.129415999999999
#
# number of rings (size 3 to 8) (size 9 to 14) (size 15 to 20)
#    0.000    1.333    4.000    4.000    0.000    2.133 
#    0.000    2.667    0.000    0.000    0.000   18.667 
#    0.000    0.000    0.000    0.000    0.000    0.000 
#
# Total GULP energy -371914.859466 kJ/mol
# GULP energy per Si atom -12397.161982 kJ/mol
# Density = 1.808815 g / cm^3
# Si number density = 18.129416 Si / 1000 Ang^3
#
#
#
# Elastic Constant Matrix: (Units=GPa)
#
#
# Indices 1 2 3 4 5 6 
#
# 1 60.4650 42.4690 17.3426 0.0000 0.0000 0.0000
# 2 42.4690 70.4822 11.9004 0.0000 0.0000 0.0000
# 3 17.3426 11.9004 140.1523 0.0000 0.0000 0.0000
# 4 0.0000 0.0000 0.0000 13.1652 0.0000 0.0000
# 5 0.0000 0.0000 0.0000 0.0000 12.1659 0.0000
# 6 0.0000 0.0000 0.0000 0.0000 0.0000 5.4644
#
#
#
# Elastic Compliance Matrix: (Units=1/GPa)
#
#
# Indices 1 2 3 4 5 6 
#
# 1 0.029303 -0.017292 -0.002158 0.000000 0.000000 0.000000
# 2 -0.017292 0.024599 0.000051 0.000000 0.000000 0.000000
# 3 -0.002158 0.000051 0.007398 0.000000 0.000000 0.000000
# 4 0.000000 0.000000 0.000000 0.075958 0.000000 0.000000
# 5 0.000000 0.000000 0.000000 0.000000 0.082197 0.000000
# 6 0.000000 0.000000 0.000000 0.000000 0.000000 0.183003
#
#
# Mechanical properties :
#
#
# Convention : Reuss Voigt Hill
#
# Bulk Modulus (GPa) = 44.44081 46.05818 45.24949
# Shear Modulus (GPa) = 11.14191 19.45157 15.29674
#
# Velocity S-wave (km/s) = 2.48175 3.27911 2.90789
# Velocity P-wave (km/s) = 5.72525 6.30850 6.02394
#
# Compressibility (1/GPa) = 0.02250184
#
# Stress axis : x y z
#
# Youngs Moduli (GPa) = 34.12626 40.65245 135.17611
#
# Poissons Ratio (x) = 0.70297 0.29167
# Poissons Ratio (y) = 0.59012 -0.00690
# Poissons Ratio (z) = 0.07363 -0.00208
#
# Static dielectric constant tensor:
#      x y z
#    x 3.156990 0.000000 0.000000 
#    y 0.000000 3.234780 0.000000 
#    z 0.000000 0.000000 1.528190 
# 
# 
# High freq. dielectric constant tensor:
#      x y z
#    x 1.678050 0.000000 0.000000 
#    y 0.000000 1.673210 0.000000 
#    z 0.000000 0.000000 1.740510 
# 
# From -- ./inp_files/1639.got.cif
#   From: 2010.03.12/outbox.cif.g09.slc.cpg/sg36_1_cif.got.tgz:1639.got - 2010.04.14 02:13:53.
