data_PCOD8174668
_publ_section_title
;
Structure prediction by ZEFSAII (Michael W. Deem and Ramdas Pophale) SiO2 
 PCOD8174668
Probable space group: C M C 21
;
_chemical_formula_sum "Si O2"
_cell_formula_units_Z 64
_cell_length_a 26.741759
_cell_length_b 5.464665
_cell_length_c 20.708177
_cell_angle_alpha 90.000000
_cell_angle_beta 90.000000
_cell_angle_gamma 90.000000
_cell_volume 3026.184361
_symmetry_space_group_name_H-M "C M C 21"
_symmetry_group_IT_number 36
_symmetry_cell_setting 'orthorhombic'
loop_
_space_group_symop_operation_xyz
x,y,z
-x,-y,1/2+z
x,-y,1/2+z
-x,y,z
1/2+x,1/2+y,z
1/2-x,1/2-y,1/2+z
1/2+x,1/2-y,1/2+z
1/2-x,1/2+y,z
loop_
_atom_site_type_symbol
_atom_site_label
_atom_site_fract_x
_atom_site_fract_y
_atom_site_fract_z
Si Si1 0.559871 0.473242 0.630950
Si Si2 0.876855 0.965447 0.905301
Si Si3 0.876692 0.754125 0.527511
Si Si4 0.058064 0.475050 0.698261
Si Si5 0.227612 0.220474 0.416578
Si Si6 0.055831 0.279491 0.832834
Si Si7 0.055073 0.590955 0.962301
Si Si8 0.266898 0.203656 0.562267
O O1 0.500000 0.469348 0.619622
O O2 0.590765 0.462891 0.563859
O O3 0.577899 0.722655 0.665871
O O4 0.579459 0.230598 0.670127
O O5 0.831102 0.777212 0.896174
O O6 0.924356 0.849389 0.940568
O O7 0.899868 0.076367 0.838915
O O8 0.857332 0.167542 0.956243
O O9 0.912154 0.517853 0.520541
O O10 0.826433 0.676210 0.563301
O O11 0.070527 0.461841 0.774749
O O12 0.000000 0.486060 0.685496
O O13 0.249051 0.471626 0.385706
O O14 0.237770 0.220964 0.493323
O O15 0.054202 0.416218 0.900445
O O16 0.000000 0.165745 0.818580
O O17 0.000000 0.630119 0.991059
O O18 0.253401 0.459460 0.598510
#
# Coordination Sequence:
#
# PCOD8174668 Si02
#       8
#     8   8   8   8   8   8   8   8
#     4  10  22  37  56  81 109 151 190 231 277 327
#     4  11  21  32  56  82 115 149 183 231 287 345
#     4  11  22  34  53  81 119 147 185 226 285 347
#     4   9  20  39  58  76 107 147 197 239 268 316
#     4  10  19  34  52  76 111 141 184 225 271 334
#     4   9  20  36  54  81 111 149 192 234 277 329
#     4  10  21  33  50  80 119 153 181 219 283 348
#     4  10  19  33  53  77 109 141 184 225 269 328
#
# _framework density 21.148745999999999
#
# number of rings (size 3 to 8) (size 9 to 14) (size 15 to 20)
#    0.000    2.000    2.500    2.250    5.250    1.500 
#    0.000    0.000    0.000    0.000    0.000    5.250 
#    0.000    0.000    0.000    0.000    0.000    0.000 
#
# Total GULP energy -396478.371426 kJ/mol
# GULP energy per Si atom -12389.949107 kJ/mol
# Density = 2.110061 g / cm^3
# Si number density = 21.148746 Si / 1000 Ang^3
#
#
#
# Elastic Constant Matrix: (Units=GPa)
#
#
# Indices 1 2 3 4 5 6 
#
# 1 89.3563 15.8094 4.9923 0.0000 0.0000 0.0000
# 2 15.8094 123.8847 2.0732 0.0000 0.0000 0.0000
# 3 4.9923 2.0732 28.3839 0.0000 0.0000 0.0000
# 4 0.0000 0.0000 0.0000 15.9452 0.0000 0.0000
# 5 0.0000 0.0000 0.0000 0.0000 11.6437 0.0000
# 6 0.0000 0.0000 0.0000 0.0000 0.0000 23.5028
#
#
#
# Elastic Compliance Matrix: (Units=1/GPa)
#
#
# Indices 1 2 3 4 5 6 
#
# 1 0.011554 -0.001442 -0.001927 0.000000 0.000000 0.000000
# 2 -0.001442 0.008262 -0.000350 0.000000 0.000000 0.000000
# 3 -0.001927 -0.000350 0.035596 0.000000 0.000000 0.000000
# 4 0.000000 0.000000 0.000000 0.062715 0.000000 0.000000
# 5 0.000000 0.000000 0.000000 0.000000 0.085883 0.000000
# 6 0.000000 0.000000 0.000000 0.000000 0.000000 0.042548
#
#
# Mechanical properties :
#
#
# Convention : Reuss Voigt Hill
#
# Bulk Modulus (GPa) = 20.84466 31.93052 26.38759
# Shear Modulus (GPa) = 18.51941 24.80167 21.66054
#
# Velocity S-wave (km/s) = 2.96239 3.42822 3.20378
# Velocity P-wave (km/s) = 4.64528 5.54988 5.11760
#
# Compressibility (1/GPa) = 0.04797392
#
# Stress axis : x y z
#
# Youngs Moduli (GPa) = 86.55041 121.03728 28.09328
#
# Poissons Ratio (x) = 0.17456 0.05413
# Poissons Ratio (y) = 0.12482 0.00983
# Poissons Ratio (z) = 0.16677 0.04234
#
# Static dielectric constant tensor:
#      x y z
#    x 3.794470 0.000000 0.000000 
#    y 0.000000 4.359500 0.000000 
#    z 0.000000 0.000000 3.393790 
# 
# 
# High freq. dielectric constant tensor:
#      x y z
#    x 1.819000 0.000000 0.000000 
#    y 0.000000 1.844320 0.000000 
#    z 0.000000 0.000000 1.766390 
# 
# From -- ./inp_files/16360.got.cif
#   From: 2010.03.12/outbox.cif.g09.slc.cpg/sg36_9_cif.got.tgz:16360.got - 2010.04.14 02:13:53.
