data_PCOD8174060
_publ_section_title
;
Structure prediction by ZEFSAII (Michael W. Deem and Ramdas Pophale) SiO2 
 PCOD8174060
Probable space group: C M M 2
;
_chemical_formula_sum "Si O2"
_cell_formula_units_Z 40
_cell_length_a 28.601066
_cell_length_b 8.592206
_cell_length_c 7.794344
_cell_angle_alpha 90.000000
_cell_angle_beta 90.000000
_cell_angle_gamma 90.000000
_cell_volume 1915.430816
_symmetry_space_group_name_H-M "C M M 2"
_symmetry_group_IT_number 35
_symmetry_cell_setting 'orthorhombic'
loop_
_space_group_symop_operation_xyz
x,y,z
-x,-y,z
-x,y,z
x,-y,z
1/2+x,1/2+y,z
1/2-x,1/2-y,z
1/2-x,1/2+y,z
1/2+x,1/2-y,z
loop_
_atom_site_type_symbol
_atom_site_label
_atom_site_fract_x
_atom_site_fract_y
_atom_site_fract_z
Si Si1 0.201199 0.684016 0.405750
Si Si2 0.608679 0.817279 0.892536
Si Si3 0.945442 0.180417 0.205888
Si Si4 0.700940 0.684081 0.030829
Si Si5 0.890272 0.183778 0.543564
O O1 0.204374 0.500000 0.389801
O O2 0.250000 0.750000 0.478430
O O3 0.190049 0.755007 0.220489
O O4 0.160254 0.735104 0.532544
O O5 0.586046 0.746927 0.718556
O O6 0.614552 0.000000 0.876198
O O7 0.575272 0.779967 0.051316
O O8 0.659547 0.739777 0.908992
O O9 0.922450 0.234614 0.384237
O O10 0.000000 0.214343 0.220019
O O11 0.934556 0.000000 0.169592
O O12 0.703425 0.500000 0.034970
O O13 0.750000 0.750000 0.960719
O O14 0.884324 0.000000 0.551346
#
# Coordination Sequence:
#
# PCOD8174060 Si02
#       5
#     8   8   8   8   8
#     4  11  21  36  60  92 129 170 213 259 311 372
#     4  12  25  41  64  96 132 169 211 263 319 378
#     4  10  23  45  71  95 123 163 211 264 323 384
#     4  11  21  37  61  91 127 170 215 260 311 374
#     4  11  23  41  66  95 129 169 214 262 314 378
#
# _framework density 20.883029000000001
#
# number of rings (size 3 to 8) (size 9 to 14) (size 15 to 20)
#    0.000    1.000    2.000    7.200    0.000    2.800 
#    0.000    6.000    0.000    0.000    0.000    0.000 
#    0.000    0.000    0.000    0.000    0.000    0.000 
#
# Total GULP energy -248119.241625 kJ/mol
# GULP energy per Si atom -12405.962081 kJ/mol
# Density = 2.083550 g / cm^3
# Si number density = 20.883029 Si / 1000 Ang^3
#
#
#
# Elastic Constant Matrix: (Units=GPa)
#
#
# Indices 1 2 3 4 5 6 
#
# 1 106.9745 45.7868 52.6811 0.0000 0.0000 0.0000
# 2 45.7868 170.1397 58.6012 0.0000 0.0000 0.0000
# 3 52.6811 58.6012 137.5923 0.0000 0.0000 0.0000
# 4 0.0000 0.0000 0.0000 33.9613 0.0000 0.0000
# 5 0.0000 0.0000 0.0000 0.0000 23.8003 0.0000
# 6 0.0000 0.0000 0.0000 0.0000 0.0000 26.9360
#
#
#
# Elastic Compliance Matrix: (Units=1/GPa)
#
#
# Indices 1 2 3 4 5 6 
#
# 1 0.012041 -0.001937 -0.003785 0.000000 0.000000 0.000000
# 2 -0.001937 0.007199 -0.002325 0.000000 0.000000 0.000000
# 3 -0.003785 -0.002325 0.009707 0.000000 0.000000 0.000000
# 4 0.000000 0.000000 0.000000 0.029445 0.000000 0.000000
# 5 0.000000 0.000000 0.000000 0.000000 0.042016 0.000000
# 6 0.000000 0.000000 0.000000 0.000000 0.000000 0.037125
#
#
# Mechanical properties :
#
#
# Convention : Reuss Voigt Hill
#
# Bulk Modulus (GPa) = 77.79568 80.98276 79.38922
# Shear Modulus (GPa) = 31.66300 34.11534 32.88917
#
# Velocity S-wave (km/s) = 3.89807 4.04622 3.97284
# Velocity P-wave (km/s) = 7.58907 7.79054 7.69046
#
# Compressibility (1/GPa) = 0.01285418
#
# Stress axis : x y z
#
# Youngs Moduli (GPa) = 83.04869 138.90035 103.01459
#
# Poissons Ratio (x) = 0.26899 0.38996
# Poissons Ratio (y) = 0.16083 0.23949
# Poissons Ratio (z) = 0.31438 0.32291
#
# Static dielectric constant tensor:
#      x y z
#    x 3.809740 0.000000 0.000000 
#    y 0.000000 3.826640 0.000000 
#    z 0.000000 0.000000 3.641310 
# 
# 
# High freq. dielectric constant tensor:
#      x y z
#    x 1.814480 0.000000 0.000000 
#    y 0.000000 1.828760 0.000000 
#    z 0.000000 0.000000 1.822730 
# 
# From -- ./inp_files/4972.got.cif
#   From: 2010.03.12/outbox.cif.g09.slc.cpg/sg35_3_cif.got.tgz:4972.got - 2010.04.14 02:02:04.
