data_PCOD8174129
_publ_section_title
;
Structure prediction by ZEFSAII (Michael W. Deem and Ramdas Pophale) SiO2 
 PCOD8174129
Probable space group: C M M 2
;
_chemical_formula_sum "Si O2"
_cell_formula_units_Z 48
_cell_length_a 8.694174
_cell_length_b 15.544891
_cell_length_c 17.201119
_cell_angle_alpha 90.000000
_cell_angle_beta 90.000000
_cell_angle_gamma 90.000000
_cell_volume 2324.731012
_symmetry_space_group_name_H-M "C M M 2"
_symmetry_group_IT_number 35
_symmetry_cell_setting 'orthorhombic'
loop_
_space_group_symop_operation_xyz
x,y,z
-x,-y,z
-x,y,z
x,-y,z
1/2+x,1/2+y,z
1/2-x,1/2-y,z
1/2-x,1/2+y,z
1/2+x,1/2-y,z
loop_
_atom_site_type_symbol
_atom_site_label
_atom_site_fract_x
_atom_site_fract_y
_atom_site_fract_z
Si Si1 0.682631 0.500000 0.998410
Si Si2 0.682764 0.160534 0.088796
Si Si3 0.682616 0.339473 0.738007
Si Si4 0.182217 0.404576 0.252520
Si Si5 0.180703 0.096260 0.573919
Si Si6 0.817689 0.500000 0.828433
Si Si7 0.671989 0.897229 0.419537
O O1 0.500000 0.500000 0.986713
O O2 0.768674 0.500000 0.917178
O O3 0.734176 0.415685 0.044162
O O4 0.500000 0.154762 0.075718
O O5 0.750000 0.250000 0.056466
O O6 0.728279 0.155094 0.180132
O O7 0.500000 0.340460 0.746321
O O8 0.750000 0.250000 0.769837
O O9 0.737465 0.350022 0.648408
O O10 0.750360 0.415563 0.788838
O O11 0.250785 0.500000 0.237367
O O12 0.242362 0.366513 0.335767
O O13 0.000000 0.412513 0.259936
O O14 0.233730 0.140029 0.492948
O O15 0.000000 0.090903 0.573849
O O16 0.250553 0.000000 0.581000
O O17 0.000000 0.500000 0.820974
O O18 0.500000 0.862514 0.430307
O O19 0.677307 0.000000 0.418494
#
# Coordination Sequence:
#
# PCOD8174129 Si02
#       7
#     4   8   8   8   8   4   8
#     4  12  26  46  70  97 126 159 200 249 306 371
#     4  11  22  40  65  94 128 166 207 255 308 367
#     4  11  23  42  65  94 129 166 206 255 307 365
#     4   8  14  29  54  81 114 159 205 253 306 358
#     4   9  17  32  53  79 118 162 201 250 309 358
#     4  12  26  46  72  99 124 159 200 245 308 375
#     4   8  14  25  47  79 111 152 208 256 298 353
#
# _framework density 20.647549999999999
#
# number of rings (size 3 to 8) (size 9 to 14) (size 15 to 20)
#    0.000    2.167    1.667    3.500    0.000    2.000 
#    0.000    5.833    0.000    4.000    0.000    0.000 
#    0.000    0.000    0.000    0.000    0.000    0.000 
#
# Total GULP energy -297479.481641 kJ/mol
# GULP energy per Si atom -12394.978402 kJ/mol
# Density = 2.060055 g / cm^3
# Si number density = 20.647550 Si / 1000 Ang^3
#
#
#
# Elastic Constant Matrix: (Units=GPa)
#
#
# Indices 1 2 3 4 5 6 
#
# 1 56.8806 26.8134 21.6727 0.0000 0.0000 0.0000
# 2 26.8134 116.8265 42.4003 0.0000 0.0000 0.0000
# 3 21.6727 42.4003 121.2787 0.0000 0.0000 0.0000
# 4 0.0000 0.0000 0.0000 -11.5959 0.0000 0.0000
# 5 0.0000 0.0000 0.0000 0.0000 32.2058 0.0000
# 6 0.0000 0.0000 0.0000 0.0000 0.0000 26.5351
#
#
#
# Elastic Compliance Matrix: (Units=1/GPa)
#
#
# Indices 1 2 3 4 5 6 
#
# 1 0.020251 -0.003819 -0.002284 0.000000 0.000000 0.000000
# 2 -0.003819 0.010524 -0.002997 0.000000 0.000000 0.000000
# 3 -0.002284 -0.002997 0.009701 0.000000 0.000000 0.000000
# 4 0.000000 0.000000 0.000000 -0.086237 0.000000 0.000000
# 5 0.000000 0.000000 0.000000 0.000000 0.031050 0.000000
# 6 0.000000 0.000000 0.000000 0.000000 0.000000 0.037686
#
#
# Mechanical properties :
#
#
# Convention : Reuss Voigt Hill
#
# Bulk Modulus (GPa) = 44.88913 52.97317 48.93115
# Shear Modulus (GPa) = 102.88026 23.03563 62.95795
#
# Velocity S-wave (km/s) = 7.06647 3.34377 5.52792
# Velocity P-wave (km/s) = 9.40042 6.37333 8.03079
#
# Compressibility (1/GPa) = 0.02227711
#
# Stress axis : x y z
#
# Youngs Moduli (GPa) = 49.37994 95.02207 103.07925
#
# Poissons Ratio (x) = 0.36290 0.23540
# Poissons Ratio (y) = 0.18859 0.30890
# Poissons Ratio (z) = 0.11277 0.28476
#
# Static dielectric constant tensor:
#      x y z
#    x 3.553460 0.000000 0.000000 
#    y 0.000000 3.565890 0.000000 
#    z 0.000000 0.000000 4.186710 
# 
# 
# High freq. dielectric constant tensor:
#      x y z
#    x 1.789040 0.000000 0.000000 
#    y 0.000000 1.792370 0.000000 
#    z 0.000000 0.000000 1.821490 
# 
# From -- ./inp_files/17918.got.cif
#   From: 2010.03.12/outbox.cif.g09.slc.cpg/sg35_9_cif.got.tgz:17918.got - 2010.04.14 02:02:04.
