data_PCOD8174888
_publ_section_title
;
Structure prediction by ZEFSAII (Michael W. Deem and Ramdas Pophale) SiO2 
 PCOD8174888
Probable space group: C M C 21
;
_chemical_formula_sum "Si O2"
_cell_formula_units_Z 64
_cell_length_a 9.286596
_cell_length_b 31.916575
_cell_length_c 10.954494
_cell_angle_alpha 90.000000
_cell_angle_beta 90.000000
_cell_angle_gamma 90.000000
_cell_volume 3246.871903
_symmetry_space_group_name_H-M "C M C 21"
_symmetry_group_IT_number 36
_symmetry_cell_setting 'orthorhombic'
loop_
_space_group_symop_operation_xyz
x,y,z
-x,-y,1/2+z
x,-y,1/2+z
-x,y,z
1/2+x,1/2+y,z
1/2-x,1/2-y,1/2+z
1/2+x,1/2-y,1/2+z
1/2-x,1/2+y,z
loop_
_atom_site_type_symbol
_atom_site_label
_atom_site_fract_x
_atom_site_fract_y
_atom_site_fract_z
Si Si1 0.665848 0.834325 0.047390
Si Si2 0.166441 0.263696 0.246564
Si Si3 0.340194 0.608016 0.703182
Si Si4 0.830781 0.528216 0.059159
Si Si5 0.170560 0.528653 0.783384
Si Si6 0.840330 0.178010 0.903163
Si Si7 0.662963 0.814580 0.780017
Si Si8 0.163310 0.621858 0.081418
O O1 0.500000 0.848463 0.044329
O O2 0.689213 0.794812 0.134433
O O3 0.755825 0.875671 0.084254
O O4 0.722060 0.820391 0.915988
O O5 0.249610 0.281062 0.365772
O O6 0.235067 0.218883 0.211206
O O7 0.000000 0.258295 0.280253
O O8 0.500000 0.591248 0.668311
O O9 0.248627 0.572924 0.772290
O O10 0.354746 0.647569 0.789425
O O11 0.792882 0.511241 0.921423
O O12 0.000000 0.529577 0.077913
O O13 0.769263 0.500214 0.171711
O O14 0.769572 0.575264 0.075995
O O15 0.000000 0.535644 0.772138
O O16 0.000000 0.191969 0.947288
O O17 0.759323 0.154120 0.008796
O O18 0.500000 0.796893 0.778875
O O19 0.666986 0.860528 0.718693
O O20 0.000000 0.621461 0.028647
#
# Coordination Sequence:
#
# PCOD8174888 Si02
#       8
#     8   8   8   8   8   8   8   8
#     4   9  20  38  56  78 110 149 188 231 283 344
#     4  10  21  36  56  81 109 146 190 233 282 338
#     4  10  20  35  57  84 109 142 186 234 284 336
#     4   9  19  34  57  86 115 149 196 242 287 347
#     4  10  19  35  59  86 115 151 193 241 291 349
#     4  10  20  35  57  81 109 144 187 232 280 335
#     4  10  22  37  55  82 116 149 186 236 291 343
#     4  10  20  36  57  84 115 150 192 237 286 344
#
# _framework density 19.711279999999999
#
# number of rings (size 3 to 8) (size 9 to 14) (size 15 to 20)
#    0.000    2.250    1.250    1.125    1.750    3.500 
#    0.000    5.000    0.000    0.000    0.000    0.000 
#    0.000    0.000    0.000    0.000    0.000    0.000 
#
# Total GULP energy -396672.906168 kJ/mol
# GULP energy per Si atom -12396.028318 kJ/mol
# Density = 1.966642 g / cm^3
# Si number density = 19.711280 Si / 1000 Ang^3
#
#
#
# Elastic Constant Matrix: (Units=GPa)
#
#
# Indices 1 2 3 4 5 6 
#
# 1 83.2190 27.5835 37.3480 0.0000 0.0000 0.0000
# 2 27.5835 68.5673 33.4155 0.0000 0.0000 0.0000
# 3 37.3480 33.4155 98.0863 0.0000 0.0000 0.0000
# 4 0.0000 0.0000 0.0000 27.0648 0.0000 0.0000
# 5 0.0000 0.0000 0.0000 0.0000 17.4312 0.0000
# 6 0.0000 0.0000 0.0000 0.0000 0.0000 23.8930
#
#
#
# Elastic Compliance Matrix: (Units=1/GPa)
#
#
# Indices 1 2 3 4 5 6 
#
# 1 0.015352 -0.003990 -0.004487 0.000000 0.000000 0.000000
# 2 -0.003990 0.018524 -0.004792 0.000000 0.000000 0.000000
# 3 -0.004487 -0.004792 0.013536 0.000000 0.000000 0.000000
# 4 0.000000 0.000000 0.000000 0.036948 0.000000 0.000000
# 5 0.000000 0.000000 0.000000 0.000000 0.057368 0.000000
# 6 0.000000 0.000000 0.000000 0.000000 0.000000 0.041853
#
#
# Mechanical properties :
#
#
# Convention : Reuss Voigt Hill
#
# Bulk Modulus (GPa) = 47.89960 49.61850 48.75905
# Shear Modulus (GPa) = 23.03331 23.77951 23.40641
#
# Velocity S-wave (km/s) = 3.42209 3.47708 3.44970
# Velocity P-wave (km/s) = 6.32200 6.43020 6.37633
#
# Compressibility (1/GPa) = 0.02087700
#
# Stress axis : x y z
#
# Youngs Moduli (GPa) = 65.13655 53.98314 73.87800
#
# Poissons Ratio (x) = 0.21537 0.33146
# Poissons Ratio (y) = 0.25986 0.35400
# Poissons Ratio (z) = 0.29224 0.25867
#
# Static dielectric constant tensor:
#      x y z
#    x 3.607350 0.000000 0.000000 
#    y 0.000000 3.572300 0.000000 
#    z 0.000000 0.000000 3.693190 
# 
# 
# High freq. dielectric constant tensor:
#      x y z
#    x 1.752920 0.000000 0.000000 
#    y 0.000000 1.758510 0.000000 
#    z 0.000000 0.000000 1.768040 
# 
# From -- ./inp_files/7185.got.cif
#   From: 2010.03.12/outbox.cif.g09.slc.cpg/sg36_4_cif.got.tgz:7185.got - 2010.04.14 02:13:53.
