data_PCOD8174875
_publ_section_title
;
Structure prediction by ZEFSAII (Michael W. Deem and Ramdas Pophale) SiO2 
 PCOD8174875
Probable space group: C M C 21
;
_chemical_formula_sum "Si O2"
_cell_formula_units_Z 64
_cell_length_a 9.074482
_cell_length_b 24.713345
_cell_length_c 14.055821
_cell_angle_alpha 90.000000
_cell_angle_beta 90.000000
_cell_angle_gamma 90.000000
_cell_volume 3152.169723
_symmetry_space_group_name_H-M "C M C 21"
_symmetry_group_IT_number 36
_symmetry_cell_setting 'orthorhombic'
loop_
_space_group_symop_operation_xyz
x,y,z
-x,-y,1/2+z
x,-y,1/2+z
-x,y,z
1/2+x,1/2+y,z
1/2-x,1/2-y,1/2+z
1/2+x,1/2-y,1/2+z
1/2-x,1/2+y,z
loop_
_atom_site_type_symbol
_atom_site_label
_atom_site_fract_x
_atom_site_fract_y
_atom_site_fract_z
Si Si1 0.675207 0.953906 0.535530
Si Si2 0.827808 0.802475 0.309902
Si Si3 0.667214 0.415148 0.231089
Si Si4 0.329807 0.437493 0.010643
Si Si5 0.825560 0.799276 0.720011
Si Si6 0.661416 0.984296 0.742213
Si Si7 0.165246 0.620247 0.360104
Si Si8 0.328982 0.657725 0.014214
O O1 0.500000 0.954488 0.519024
O O2 0.738799 0.897425 0.496638
O O3 0.747484 0.006231 0.485098
O O4 0.723937 0.957113 0.646131
O O5 0.767415 0.858722 0.267218
O O6 0.733101 0.758048 0.255326
O O7 0.800392 0.802529 0.424107
O O8 0.000000 0.793028 0.286851
O O9 0.500000 0.417942 0.263905
O O10 0.745218 0.465562 0.282178
O O11 0.689735 0.421477 0.119421
O O12 0.500000 0.443252 0.981043
O O13 0.256862 0.385940 0.957208
O O14 0.751011 0.843940 0.785250
O O15 0.780193 0.810595 0.610104
O O16 0.000000 0.801642 0.733144
O O17 0.500000 0.007432 0.718642
O O18 0.655818 0.940412 0.823306
O O19 0.000000 0.643722 0.377728
O O20 0.500000 0.641444 0.020071
#
# Coordination Sequence:
#
# PCOD8174875 Si02
#       8
#     8   8   8   8   8   8   8   8
#     4  10  19  35  58  87 122 161 202 246 301 361
#     4  10  23  43  64  88 118 158 203 250 305 363
#     4   9  20  38  59  85 120 159 200 244 300 358
#     4  10  21  36  56  88 127 166 205 250 301 360
#     4  11  24  42  63  89 120 158 204 254 306 362
#     4   9  19  34  55  84 119 155 195 242 296 353
#     4  11  22  38  59  88 121 161 205 248 301 362
#     4  10  22  40  62  89 119 154 200 252 306 363
#
# _framework density 20.303474999999999
#
# number of rings (size 3 to 8) (size 9 to 14) (size 15 to 20)
#    0.000    2.000    1.250    1.500    1.750    4.500 
#    0.000    2.500    0.000    0.000    0.000    0.000 
#    0.000    0.000    0.000    0.000    0.000    0.000 
#
# Total GULP energy -396750.225853 kJ/mol
# GULP energy per Si atom -12398.444558 kJ/mol
# Density = 2.025726 g / cm^3
# Si number density = 20.303475 Si / 1000 Ang^3
#
#
#
# Elastic Constant Matrix: (Units=GPa)
#
#
# Indices 1 2 3 4 5 6 
#
# 1 92.6853 49.9579 25.0093 0.0000 0.0000 0.0000
# 2 49.9579 110.9524 38.5636 0.0000 0.0000 0.0000
# 3 25.0093 38.5636 41.2082 0.0000 0.0000 0.0000
# 4 0.0000 0.0000 0.0000 27.9075 0.0000 0.0000
# 5 0.0000 0.0000 0.0000 0.0000 24.8305 0.0000
# 6 0.0000 0.0000 0.0000 0.0000 0.0000 39.9833
#
#
#
# Elastic Compliance Matrix: (Units=1/GPa)
#
#
# Indices 1 2 3 4 5 6 
#
# 1 0.014687 -0.005209 -0.004038 0.000000 0.000000 0.000000
# 2 -0.005209 0.015205 -0.011068 0.000000 0.000000 0.000000
# 3 -0.004038 -0.011068 0.037076 0.000000 0.000000 0.000000
# 4 0.000000 0.000000 0.000000 0.035833 0.000000 0.000000
# 5 0.000000 0.000000 0.000000 0.000000 0.040273 0.000000
# 6 0.000000 0.000000 0.000000 0.000000 0.000000 0.025010
#
#
# Mechanical properties :
#
#
# Convention : Reuss Voigt Hill
#
# Bulk Modulus (GPa) = 37.97042 52.43417 45.20230
# Shear Modulus (GPa) = 22.98915 27.29858 25.14387
#
# Velocity S-wave (km/s) = 3.36858 3.67076 3.52291
# Velocity P-wave (km/s) = 5.81995 6.62172 6.23374
#
# Compressibility (1/GPa) = 0.02633629
#
# Stress axis : x y z
#
# Youngs Moduli (GPa) = 68.08874 65.76653 26.97195
#
# Poissons Ratio (x) = 0.34260 0.10892
# Poissons Ratio (y) = 0.35469 0.29852
# Poissons Ratio (z) = 0.27497 0.72790
#
# Static dielectric constant tensor:
#      x y z
#    x 3.798610 0.000000 0.000000 
#    y 0.000000 3.684470 0.000000 
#    z 0.000000 0.000000 3.754210 
# 
# 
# High freq. dielectric constant tensor:
#      x y z
#    x 1.793250 0.000000 0.000000 
#    y 0.000000 1.784740 0.000000 
#    z 0.000000 0.000000 1.801100 
# 
# From -- ./inp_files/11002.got.cif
#   From: 2010.03.12/outbox.cif.g09.slc.cpg/sg36_6_cif.got.tgz:11002.got - 2010.04.14 02:13:53.
