data_PCOD8174018
_publ_section_title
;
Structure prediction by ZEFSAII (Michael W. Deem and Ramdas Pophale) SiO2 
 PCOD8174018
Probable space group: C M M 2
;
_chemical_formula_sum "Si O2"
_cell_formula_units_Z 56
_cell_length_a 18.009570
_cell_length_b 9.219617
_cell_length_c 17.903539
_cell_angle_alpha 90.000000
_cell_angle_beta 90.000000
_cell_angle_gamma 90.000000
_cell_volume 2972.727566
_symmetry_space_group_name_H-M "C M M 2"
_symmetry_group_IT_number 35
_symmetry_cell_setting 'orthorhombic'
loop_
_space_group_symop_operation_xyz
x,y,z
-x,-y,z
-x,y,z
x,-y,z
1/2+x,1/2+y,z
1/2-x,1/2-y,z
1/2-x,1/2+y,z
1/2+x,1/2-y,z
loop_
_atom_site_type_symbol
_atom_site_label
_atom_site_fract_x
_atom_site_fract_y
_atom_site_fract_z
Si Si1 0.327887 0.828680 0.885380
Si Si2 0.174092 0.830947 0.610091
Si Si3 0.414967 0.169086 0.033396
Si Si4 0.914177 0.329765 0.484214
Si Si5 0.413361 0.665154 0.759937
Si Si6 0.411468 0.662310 0.177970
Si Si7 0.411903 0.160258 0.316765
O O1 0.250000 0.750000 0.879461
O O2 0.379466 0.777083 0.818250
O O3 0.316360 0.000000 0.878674
O O4 0.366397 0.784262 0.962765
O O5 0.250000 0.750000 0.628776
O O6 0.137347 0.765680 0.536486
O O7 0.119407 0.803902 0.678744
O O8 0.190068 0.000000 0.596732
O O9 0.500000 0.213265 0.016641
O O10 0.382890 0.252091 0.105337
O O11 0.408632 0.000000 0.050702
O O12 0.900749 0.500000 0.498460
O O13 0.890592 0.286884 0.399787
O O14 0.000000 0.290319 0.498790
O O15 0.500000 0.696092 0.754926
O O16 0.396493 0.500000 0.785209
O O17 0.500000 0.665446 0.180004
O O18 0.380364 0.500000 0.173263
O O19 0.378877 0.733396 0.253642
O O20 0.500000 0.153323 0.310463
O O21 0.379192 0.000000 0.302174
#
# Coordination Sequence:
#
# PCOD8174018 Si02
#       7
#     8   8   8   8   8   8   8
#     4  11  23  38  57  81 109 143 181 219 264 317
#     4  11  23  38  56  79 109 144 180 218 264 317
#     4   9  18  33  52  74 102 137 177 219 264 316
#     4   9  18  33  54  80 108 140 180 224 270 319
#     4  10  22  40  61  85 111 138 172 217 267 316
#     4   9  16  25  42  72 105 135 171 216 264 311
#     4   8  14  26  45  70 102 138 173 212 261 314
#
# _framework density 18.837917999999998
#
# number of rings (size 3 to 8) (size 9 to 14) (size 15 to 20)
#    0.000    2.429    0.000    3.429    0.000    7.429 
#    0.000    2.857    0.000    0.857    0.000    4.000 
#    0.000    0.000    0.000    0.000    0.000    0.000 
#
# Total GULP energy -347222.049171 kJ/mol
# GULP energy per Si atom -12400.787470 kJ/mol
# Density = 1.879504 g / cm^3
# Si number density = 18.837918 Si / 1000 Ang^3
#
#
#
# Elastic Constant Matrix: (Units=GPa)
#
#
# Indices 1 2 3 4 5 6 
#
# 1 80.7277 44.4515 50.6352 0.0000 0.0000 0.0000
# 2 44.4515 98.6147 74.4121 0.0000 0.0000 0.0000
# 3 50.6352 74.4121 144.7081 0.0000 0.0000 0.0000
# 4 0.0000 0.0000 0.0000 57.3087 0.0000 0.0000
# 5 0.0000 0.0000 0.0000 0.0000 -4.7610 0.0000
# 6 0.0000 0.0000 0.0000 0.0000 0.0000 21.0172
#
#
#
# Elastic Compliance Matrix: (Units=1/GPa)
#
#
# Indices 1 2 3 4 5 6 
#
# 1 0.017424 -0.005316 -0.003363 0.000000 0.000000 0.000000
# 2 -0.005316 0.018192 -0.007494 0.000000 0.000000 0.000000
# 3 -0.003363 -0.007494 0.011941 0.000000 0.000000 0.000000
# 4 0.000000 0.000000 0.000000 0.017449 0.000000 0.000000
# 5 0.000000 0.000000 0.000000 0.000000 -0.210042 0.000000
# 6 0.000000 0.000000 0.000000 0.000000 0.000000 0.047580
#
#
# Mechanical properties :
#
#
# Convention : Reuss Voigt Hill
#
# Bulk Modulus (GPa) = 65.74915 73.67200 69.71058
# Shear Modulus (GPa) = -83.28189 25.01643 -29.13273
#
# Velocity S-wave (km/s) = -6.65625 3.64810 -3.93681
# Velocity P-wave (km/s) = 4.90876 7.54574 4.05230
#
# Compressibility (1/GPa) = 0.01520932
#
# Stress axis : x y z
#
# Youngs Moduli (GPa) = 57.39149 54.96915 83.74438
#
# Poissons Ratio (x) = 0.29224 0.28164
# Poissons Ratio (y) = 0.30511 0.62762
# Poissons Ratio (z) = 0.19302 0.41197
#
# Static dielectric constant tensor:
#      x y z
#    x 3.200690 0.000000 0.000000 
#    y 0.000000 3.548910 0.000000 
#    z 0.000000 0.000000 3.621870 
# 
# 
# High freq. dielectric constant tensor:
#      x y z
#    x 1.701540 0.000000 0.000000 
#    y 0.000000 1.735260 0.000000 
#    z 0.000000 0.000000 1.747040 
# 
# From -- ./inp_files/17414.got.cif
#   From: 2010.03.12/outbox.cif.g09.slc.cpg/sg35_9_cif.got.tgz:17414.got - 2010.04.14 02:02:04.
