data_PCOD8174820
_publ_section_title
;
Structure prediction by ZEFSAII (Michael W. Deem and Ramdas Pophale) SiO2 
 PCOD8174820
Probable space group: C M C 21
;
_chemical_formula_sum "Si O2"
_cell_formula_units_Z 64
_cell_length_a 8.826410
_cell_length_b 19.809998
_cell_length_c 18.592890
_cell_angle_alpha 90.000000
_cell_angle_beta 90.000000
_cell_angle_gamma 90.000000
_cell_volume 3250.988467
_symmetry_space_group_name_H-M "C M C 21"
_symmetry_group_IT_number 36
_symmetry_cell_setting 'orthorhombic'
loop_
_space_group_symop_operation_xyz
x,y,z
-x,-y,1/2+z
x,-y,1/2+z
-x,y,z
1/2+x,1/2+y,z
1/2-x,1/2-y,1/2+z
1/2+x,1/2-y,1/2+z
1/2-x,1/2+y,z
loop_
_atom_site_type_symbol
_atom_site_label
_atom_site_fract_x
_atom_site_fract_y
_atom_site_fract_z
Si Si1 0.178447 0.925088 0.397770
Si Si2 0.825097 0.328808 0.509924
Si Si3 0.322744 0.697254 0.428871
Si Si4 0.821546 0.018208 0.635572
Si Si5 0.177569 0.377635 0.667231
Si Si6 0.678405 0.632048 0.748749
Si Si7 0.680457 0.554606 0.476935
Si Si8 0.179571 0.771817 0.770334
O O1 0.221393 0.875409 0.461448
O O2 0.247149 0.900957 0.321781
O O3 0.000000 0.926755 0.390956
O O4 0.236922 0.999948 0.418257
O O5 0.787274 0.251380 0.490957
O O6 0.783337 0.341052 0.592332
O O7 0.000000 0.345806 0.493501
O O8 0.500000 0.685723 0.419134
O O9 0.248616 0.626417 0.453528
O O10 0.258388 0.722423 0.352231
O O11 0.734412 0.954258 0.667523
O O12 0.000000 0.002640 0.637201
O O13 0.780793 0.083321 0.683028
O O14 0.760175 0.033118 0.555578
O O15 0.265025 0.337890 0.728995
O O16 0.000000 0.376128 0.683319
O O17 0.500000 0.643492 0.755123
O O18 0.753835 0.704358 0.734420
O O19 0.500000 0.558663 0.480726
O O20 0.000000 0.767915 0.767069
#
# Coordination Sequence:
#
# PCOD8174820 Si02
#       8
#     8   8   8   8   8   8   8   8
#     4  10  19  34  58  85 113 145 187 239 287 342
#     4  10  20  37  60  83 111 149 190 234 288 345
#     4   9  19  35  58  85 111 145 192 240 285 338
#     4  10  21  38  61  85 113 154 198 237 288 352
#     4  11  24  39  59  85 120 155 192 244 294 346
#     4  10  22  37  58  87 120 154 193 243 297 347
#     4   9  18  33  57  85 111 143 192 243 282 333
#     4  11  23  39  61  85 117 157 198 240 287 353
#
# _framework density 19.686319999999998
#
# number of rings (size 3 to 8) (size 9 to 14) (size 15 to 20)
#    0.000    2.000    2.500    0.750    3.500    1.000 
#    0.000    0.000    0.000    2.250    0.000    0.000 
#    0.000    0.000    0.000    0.000    0.000    0.000 
#
# Total GULP energy -396851.969545 kJ/mol
# GULP energy per Si atom -12401.624048 kJ/mol
# Density = 1.964151 g / cm^3
# Si number density = 19.686320 Si / 1000 Ang^3
#
#
#
# Elastic Constant Matrix: (Units=GPa)
#
#
# Indices 1 2 3 4 5 6 
#
# 1 27.8821 25.1875 22.4780 0.0000 0.0000 0.0000
# 2 25.1875 141.4054 32.5502 0.0000 0.0000 0.0000
# 3 22.4780 32.5502 72.6728 0.0000 0.0000 0.0000
# 4 0.0000 0.0000 0.0000 39.8157 0.0000 0.0000
# 5 0.0000 0.0000 0.0000 0.0000 20.0254 0.0000
# 6 0.0000 0.0000 0.0000 0.0000 0.0000 26.6552
#
#
#
# Elastic Compliance Matrix: (Units=1/GPa)
#
#
# Indices 1 2 3 4 5 6 
#
# 1 0.052282 -0.006233 -0.013379 0.000000 0.000000 0.000000
# 2 -0.006233 0.008628 -0.001937 0.000000 0.000000 0.000000
# 3 -0.013379 -0.001937 0.018766 0.000000 0.000000 0.000000
# 4 0.000000 0.000000 0.000000 0.025116 0.000000 0.000000
# 5 0.000000 0.000000 0.000000 0.000000 0.049937 0.000000
# 6 0.000000 0.000000 0.000000 0.000000 0.000000 0.037516
#
#
# Mechanical properties :
#
#
# Convention : Reuss Voigt Hill
#
# Bulk Modulus (GPa) = 27.33859 44.71018 36.02439
# Shear Modulus (GPa) = 20.19922 28.08223 24.14073
#
# Velocity S-wave (km/s) = 3.20668 3.78098 3.50561
# Velocity P-wave (km/s) = 5.25620 6.46697 5.89276
#
# Compressibility (1/GPa) = 0.03657833
#
# Stress axis : x y z
#
# Youngs Moduli (GPa) = 19.12708 115.90370 53.28792
#
# Poissons Ratio (x) = 0.72240 0.71296
# Poissons Ratio (y) = 0.11921 0.10320
# Poissons Ratio (z) = 0.25591 0.22446
#
# Static dielectric constant tensor:
#      x y z
#    x 3.249000 0.000000 0.000000 
#    y 0.000000 3.791960 0.000000 
#    z 0.000000 0.000000 3.760910 
# 
# 
# High freq. dielectric constant tensor:
#      x y z
#    x 1.732180 0.000000 0.000000 
#    y 0.000000 1.782840 0.000000 
#    z 0.000000 0.000000 1.774920 
# 
# From -- ./inp_files/15698.got.cif
#   From: 2010.03.12/outbox.cif.g09.slc.cpg/sg36_8_cif.got.tgz:15698.got - 2010.04.14 02:13:53.
