data_PCOD8174240
_publ_section_title
;
Structure prediction by ZEFSAII (Michael W. Deem and Ramdas Pophale) SiO2 
 PCOD8174240
Probable space group: C M C 21
;
_chemical_formula_sum "Si O2"
_cell_formula_units_Z 48
_cell_length_a 8.552199
_cell_length_b 31.557181
_cell_length_c 9.715684
_cell_angle_alpha 90.000000
_cell_angle_beta 90.000000
_cell_angle_gamma 90.000000
_cell_volume 2622.100780
_symmetry_space_group_name_H-M "C M C 21"
_symmetry_group_IT_number 36
_symmetry_cell_setting 'orthorhombic'
loop_
_space_group_symop_operation_xyz
x,y,z
-x,-y,1/2+z
x,-y,1/2+z
-x,y,z
1/2+x,1/2+y,z
1/2-x,1/2-y,1/2+z
1/2+x,1/2-y,1/2+z
1/2-x,1/2+y,z
loop_
_atom_site_type_symbol
_atom_site_label
_atom_site_fract_x
_atom_site_fract_y
_atom_site_fract_z
Si Si1 0.315745 0.214020 0.789670
Si Si2 0.186242 0.460133 0.313311
Si Si3 0.815638 0.789552 0.985906
Si Si4 0.818487 0.626048 0.511891
Si Si5 0.181524 0.872564 0.307672
Si Si6 0.681817 0.033748 0.503596
O O1 0.500000 0.214273 0.768361
O O2 0.235890 0.219958 0.641604
O O3 0.264114 0.170118 0.863930
O O4 0.258600 0.251720 0.888264
O O5 0.245990 0.415252 0.373886
O O6 0.258199 0.497773 0.407334
O O7 0.000000 0.459449 0.312856
O O8 0.250976 0.467554 0.158362
O O9 0.734769 0.832748 0.925458
O O10 0.000000 0.795162 0.980356
O O11 0.709516 0.626409 0.645136
O O12 0.790634 0.580721 0.436620
O O13 0.000000 0.629888 0.556262
O O14 0.000000 0.870509 0.343229
O O15 0.500000 0.023415 0.512434
#
# Coordination Sequence:
#
# PCOD8174240 Si02
#       6
#     8   8   8   8   8   8
#     4  10  20  34  52  73  98 129 163 199 241 288
#     4   9  16  30  48  67  91 120 155 192 231 276
#     4  10  20  33  51  75  99 126 162 201 242 287
#     4   9  16  29  49  70  93 125 160 192 232 282
#     4  10  18  29  47  70  94 123 159 195 234 282
#     4   8  15  27  47  69  89 117 153 189 224 271
#
# _framework density 18.305931999999999
#
# number of rings (size 3 to 8) (size 9 to 14) (size 15 to 20)
#    0.000    2.667    0.000    6.000    0.000    2.667 
#    0.000    5.833    0.000    4.000    0.000    0.000 
#    0.000    0.000    0.000    0.000    0.000    0.000 
#
# Total GULP energy -297388.896388 kJ/mol
# GULP energy per Si atom -12391.204016 kJ/mol
# Density = 1.826427 g / cm^3
# Si number density = 18.305932 Si / 1000 Ang^3
#
#
#
# Elastic Constant Matrix: (Units=GPa)
#
#
# Indices 1 2 3 4 5 6 
#
# 1 42.9431 26.5375 13.7865 0.0000 0.0000 0.0000
# 2 26.5375 181.1935 54.8962 0.0000 0.0000 0.0000
# 3 13.7865 54.8962 50.5019 0.0000 0.0000 0.0000
# 4 0.0000 0.0000 0.0000 35.8833 0.0000 0.0000
# 5 0.0000 0.0000 0.0000 0.0000 15.3259 0.0000
# 6 0.0000 0.0000 0.0000 0.0000 0.0000 28.3247
#
#
#
# Elastic Compliance Matrix: (Units=1/GPa)
#
#
# Indices 1 2 3 4 5 6 
#
# 1 0.026259 -0.002496 -0.004455 0.000000 0.000000 0.000000
# 2 -0.002496 0.008466 -0.008522 0.000000 0.000000 0.000000
# 3 -0.004455 -0.008522 0.030281 0.000000 0.000000 0.000000
# 4 0.000000 0.000000 0.000000 0.027868 0.000000 0.000000
# 5 0.000000 0.000000 0.000000 0.000000 0.065249 0.000000
# 6 0.000000 0.000000 0.000000 0.000000 0.000000 0.035305
#
#
# Mechanical properties :
#
#
# Convention : Reuss Voigt Hill
#
# Bulk Modulus (GPa) = 29.35953 51.67541 40.51747
# Shear Modulus (GPa) = 21.21091 27.86799 24.53945
#
# Velocity S-wave (km/s) = 3.40765 3.90596 3.66528
# Velocity P-wave (km/s) = 5.61746 6.97367 6.33198
#
# Compressibility (1/GPa) = 0.03406049
#
# Stress axis : x y z
#
# Youngs Moduli (GPa) = 38.08147 118.11481 33.02447
#
# Poissons Ratio (x) = 0.29483 0.14713
# Poissons Ratio (y) = 0.09506 0.28142
# Poissons Ratio (z) = 0.16966 1.00653
#
# Static dielectric constant tensor:
#      x y z
#    x 3.182250 0.000000 0.000000 
#    y 0.000000 4.140120 0.000000 
#    z 0.000000 0.000000 3.128020 
# 
# 
# High freq. dielectric constant tensor:
#      x y z
#    x 1.698710 0.000000 0.000000 
#    y 0.000000 1.738800 0.000000 
#    z 0.000000 0.000000 1.654440 
# 
# From -- ./inp_files/6816.got.cif
#   From: 2010.03.12/outbox.cif.g09.slc.cpg/sg36_4_cif.got.tgz:6816.got - 2010.04.14 02:13:53.
