data_PCOD8174499
_publ_section_title
;
Structure prediction by ZEFSAII (Michael W. Deem and Ramdas Pophale) SiO2 
 PCOD8174499
Probable space group: C M C 21
;
_chemical_formula_sum "Si O2"
_cell_formula_units_Z 64
_cell_length_a 9.138533
_cell_length_b 29.229897
_cell_length_c 14.176722
_cell_angle_alpha 90.000000
_cell_angle_beta 90.000000
_cell_angle_gamma 90.000000
_cell_volume 3786.862991
_symmetry_space_group_name_H-M "C M C 21"
_symmetry_group_IT_number 36
_symmetry_cell_setting 'orthorhombic'
loop_
_space_group_symop_operation_xyz
x,y,z
-x,-y,1/2+z
x,-y,1/2+z
-x,y,z
1/2+x,1/2+y,z
1/2-x,1/2-y,1/2+z
1/2+x,1/2-y,1/2+z
1/2-x,1/2+y,z
loop_
_atom_site_type_symbol
_atom_site_label
_atom_site_fract_x
_atom_site_fract_y
_atom_site_fract_z
Si Si1 0.830296 0.073674 0.779830
Si Si2 0.327352 0.299025 0.506496
Si Si3 0.174732 0.825124 0.300028
Si Si4 0.335930 0.845378 0.657240
Si Si5 0.326922 0.508866 0.405287
Si Si6 0.172270 0.563847 0.253619
Si Si7 0.329795 0.494945 0.121312
Si Si8 0.665392 0.745596 0.648869
O O1 0.757550 0.123880 0.787401
O O2 0.801679 0.052727 0.676092
O O3 0.000000 0.080451 0.799859
O O4 0.769478 0.038777 0.859464
O O5 0.500000 0.296721 0.514200
O O6 0.273222 0.304165 0.399277
O O7 0.269617 0.343544 0.565042
O O8 0.258767 0.252501 0.552188
O O9 0.236052 0.793124 0.215802
O O10 0.000000 0.825397 0.295438
O O11 0.500000 0.857336 0.622168
O O12 0.285704 0.883401 0.732347
O O13 0.333207 0.794590 0.704855
O O14 0.500000 0.513995 0.390831
O O15 0.249931 0.550735 0.351437
O O16 0.280423 0.511380 0.513800
O O17 0.232156 0.534399 0.166408
O O18 0.000000 0.555928 0.263928
O O19 0.500000 0.509158 0.128955
O O20 0.500000 0.732101 0.620433
#
# Coordination Sequence:
#
# PCOD8174499 Si02
#       8
#     8   8   8   8   8   8   8   8
#     4   8  15  28  46  72  96 119 160 198 233 285
#     4   9  17  28  48  75  93 114 158 202 233 275
#     4   9  16  28  50  72  93 127 159 192 237 291
#     4   8  17  32  47  65  92 125 154 189 237 286
#     4   9  18  31  48  70  97 129 162 200 244 285
#     4  10  19  31  48  70  96 127 164 198 237 292
#     4   9  18  32  50  71  99 129 159 202 248 288
#     4   8  16  32  47  63  94 128 154 185 239 292
#
# _framework density 16.900531999999998
#
# number of rings (size 3 to 8) (size 9 to 14) (size 15 to 20)
#    0.750    2.500    0.000    1.125    1.750    1.500 
#    0.000    2.500    0.000    3.750    0.000    0.000 
#    0.000    0.000    0.000    0.000    0.000    0.000 
#
# Total GULP energy -396459.005301 kJ/mol
# GULP energy per Si atom -12389.343916 kJ/mol
# Density = 1.686207 g / cm^3
# Si number density = 16.900532 Si / 1000 Ang^3
#
#
#
# Elastic Constant Matrix: (Units=GPa)
#
#
# Indices 1 2 3 4 5 6 
#
# 1 38.9225 17.0139 23.7788 0.0000 0.0000 0.0000
# 2 17.0139 84.9996 47.0614 0.0000 0.0000 0.0000
# 3 23.7788 47.0614 123.3617 0.0000 0.0000 0.0000
# 4 0.0000 0.0000 0.0000 22.2236 0.0000 0.0000
# 5 0.0000 0.0000 0.0000 0.0000 19.9329 0.0000
# 6 0.0000 0.0000 0.0000 0.0000 0.0000 18.7267
#
#
#
# Elastic Compliance Matrix: (Units=1/GPa)
#
#
# Indices 1 2 3 4 5 6 
#
# 1 0.029942 -0.003547 -0.004418 0.000000 0.000000 0.000000
# 2 -0.003547 0.015335 -0.005167 0.000000 0.000000 0.000000
# 3 -0.004418 -0.005167 0.010929 0.000000 0.000000 0.000000
# 4 0.000000 0.000000 0.000000 0.044997 0.000000 0.000000
# 5 0.000000 0.000000 0.000000 0.000000 0.050168 0.000000
# 6 0.000000 0.000000 0.000000 0.000000 0.000000 0.053400
#
#
# Mechanical properties :
#
#
# Convention : Reuss Voigt Hill
#
# Bulk Modulus (GPa) = 33.39768 46.99913 40.19840
# Shear Modulus (GPa) = 20.74552 22.80528 21.77540
#
# Velocity S-wave (km/s) = 3.50738 3.67738 3.59339
# Velocity P-wave (km/s) = 6.01718 6.77499 6.40730
#
# Compressibility (1/GPa) = 0.02994220
#
# Stress axis : x y z
#
# Youngs Moduli (GPa) = 33.39808 65.20900 91.50050
#
# Poissons Ratio (x) = 0.23130 0.40428
# Poissons Ratio (y) = 0.11846 0.47274
# Poissons Ratio (z) = 0.14756 0.33691
#
# Static dielectric constant tensor:
#      x y z
#    x 2.923300 0.000000 0.000000 
#    y 0.000000 3.248280 0.000000 
#    z 0.000000 0.000000 3.135610 
# 
# 
# High freq. dielectric constant tensor:
#      x y z
#    x 1.627530 0.000000 0.000000 
#    y 0.000000 1.642810 0.000000 
#    z 0.000000 0.000000 1.641090 
# 
# From -- ./inp_files/11183.got.cif
#   From: 2010.03.12/outbox.cif.g09.slc.cpg/sg36_6_cif.got.tgz:11183.got - 2010.04.14 02:13:53.
