data_PCOD8174821
_publ_section_title
;
Structure prediction by ZEFSAII (Michael W. Deem and Ramdas Pophale) SiO2 
 PCOD8174821
Probable space group: C M C 21
;
_chemical_formula_sum "Si O2"
_cell_formula_units_Z 64
_cell_length_a 9.058114
_cell_length_b 15.117277
_cell_length_c 24.129853
_cell_angle_alpha 90.000000
_cell_angle_beta 90.000000
_cell_angle_gamma 90.000000
_cell_volume 3304.197736
_symmetry_space_group_name_H-M "C M C 21"
_symmetry_group_IT_number 36
_symmetry_cell_setting 'orthorhombic'
loop_
_space_group_symop_operation_xyz
x,y,z
-x,-y,1/2+z
x,-y,1/2+z
-x,y,z
1/2+x,1/2+y,z
1/2-x,1/2-y,1/2+z
1/2+x,1/2-y,1/2+z
1/2-x,1/2+y,z
loop_
_atom_site_type_symbol
_atom_site_label
_atom_site_fract_x
_atom_site_fract_y
_atom_site_fract_z
Si Si1 0.666905 0.265479 0.920220
Si Si2 0.175362 0.129585 0.239080
Si Si3 0.172249 0.741666 0.530923
Si Si4 0.828822 0.026459 0.815191
Si Si5 0.166660 0.026326 0.432043
Si Si6 0.673065 0.603012 0.113611
Si Si7 0.671490 0.724024 0.808292
Si Si8 0.673215 0.960710 0.042552
O O1 0.500000 0.229577 0.914943
O O2 0.668798 0.370404 0.919975
O O3 0.763490 0.232799 0.869316
O O4 0.738078 0.228678 0.976661
O O5 0.226950 0.119105 0.176044
O O6 0.244599 0.218471 0.263108
O O7 0.000000 0.137448 0.243426
O O8 0.239443 0.046264 0.273744
O O9 0.215769 0.809328 0.579361
O O10 0.216226 0.642512 0.550077
O O11 0.000000 0.745569 0.516142
O O12 0.804462 0.122789 0.789147
O O13 0.000000 0.003253 0.822439
O O14 0.762731 0.020425 0.877596
O O15 0.266667 0.001496 0.484381
O O16 0.000000 0.993408 0.444790
O O17 0.500000 0.583847 0.110680
O O18 0.754660 0.515726 0.092086
O O19 0.500000 0.750096 0.809955
O O20 0.500000 0.975248 0.044070
#
# Coordination Sequence:
#
# PCOD8174821 Si02
#       8
#     8   8   8   8   8   8   8   8
#     4  10  19  34  58  85 114 150 189 233 278 335
#     4  10  21  42  62  80 111 153 199 237 273 336
#     4   9  20  38  56  82 117 152 185 229 289 341
#     4   9  19  36  57  81 111 149 186 229 282 339
#     4   9  17  34  58  80 111 151 187 225 277 339
#     4  10  22  39  62  83 109 155 199 231 278 343
#     4  11  22  35  56  86 115 147 184 234 293 339
#     4  10  21  36  55  83 118 147 183 236 284 332
#
# _framework density 19.369299999999999
#
# number of rings (size 3 to 8) (size 9 to 14) (size 15 to 20)
#    0.000    2.250    1.250    1.125    1.750    3.000 
#    0.000    1.875    0.000    0.000    0.000    0.000 
#    0.000    0.000    0.000    0.000    0.000    0.000 
#
# Total GULP energy -396848.824019 kJ/mol
# GULP energy per Si atom -12401.525751 kJ/mol
# Density = 1.932521 g / cm^3
# Si number density = 19.369300 Si / 1000 Ang^3
#
#
#
# Elastic Constant Matrix: (Units=GPa)
#
#
# Indices 1 2 3 4 5 6 
#
# 1 49.5160 23.8040 34.7256 0.0000 0.0000 0.0000
# 2 23.8040 62.1839 39.8356 0.0000 0.0000 0.0000
# 3 34.7256 39.8356 127.4866 0.0000 0.0000 0.0000
# 4 0.0000 0.0000 0.0000 25.9837 0.0000 0.0000
# 5 0.0000 0.0000 0.0000 0.0000 27.6181 0.0000
# 6 0.0000 0.0000 0.0000 0.0000 0.0000 25.5503
#
#
#
# Elastic Compliance Matrix: (Units=1/GPa)
#
#
# Indices 1 2 3 4 5 6 
#
# 1 0.027260 -0.007100 -0.005207 0.000000 0.000000 0.000000
# 2 -0.007100 0.021955 -0.004926 0.000000 0.000000 0.000000
# 3 -0.005207 -0.004926 0.010802 0.000000 0.000000 0.000000
# 4 0.000000 0.000000 0.000000 0.038486 0.000000 0.000000
# 5 0.000000 0.000000 0.000000 0.000000 0.036208 0.000000
# 6 0.000000 0.000000 0.000000 0.000000 0.000000 0.039138
#
#
# Mechanical properties :
#
#
# Convention : Reuss Voigt Hill
#
# Bulk Modulus (GPa) = 39.13757 48.43519 43.78638
# Shear Modulus (GPa) = 23.05936 25.21851 24.13894
#
# Velocity S-wave (km/s) = 3.45412 3.61222 3.53405
# Velocity P-wave (km/s) = 6.01313 6.51597 6.26960
#
# Compressibility (1/GPa) = 0.02555090
#
# Stress axis : x y z
#
# Youngs Moduli (GPa) = 36.68365 45.54777 92.57896
#
# Poissons Ratio (x) = 0.32337 0.48205
# Poissons Ratio (y) = 0.26044 0.45608
# Poissons Ratio (z) = 0.19101 0.22439
#
# Static dielectric constant tensor:
#      x y z
#    x 3.442160 0.000000 0.000000 
#    y 0.000000 3.607010 0.000000 
#    z 0.000000 0.000000 3.609740 
# 
# 
# High freq. dielectric constant tensor:
#      x y z
#    x 1.738900 0.000000 0.000000 
#    y 0.000000 1.759460 0.000000 
#    z 0.000000 0.000000 1.753490 
# 
# From -- ./inp_files/16545.got.cif
#   From: 2010.03.12/outbox.cif.g09.slc.cpg/sg36_9_cif.got.tgz:16545.got - 2010.04.14 02:13:53.
