data_PCOD8174434
_publ_section_title
;
Structure prediction by ZEFSAII (Michael W. Deem and Ramdas Pophale) SiO2 
 PCOD8174434
Probable space group: C M C 21
;
_chemical_formula_sum "Si O2"
_cell_formula_units_Z 64
_cell_length_a 13.988957
_cell_length_b 18.044636
_cell_length_c 12.589942
_cell_angle_alpha 90.000000
_cell_angle_beta 90.000000
_cell_angle_gamma 90.000000
_cell_volume 3178.024130
_symmetry_space_group_name_H-M "C M C 21"
_symmetry_group_IT_number 36
_symmetry_cell_setting 'orthorhombic'
loop_
_space_group_symop_operation_xyz
x,y,z
-x,-y,1/2+z
x,-y,1/2+z
-x,y,z
1/2+x,1/2+y,z
1/2-x,1/2-y,1/2+z
1/2+x,1/2-y,1/2+z
1/2-x,1/2+y,z
loop_
_atom_site_type_symbol
_atom_site_label
_atom_site_fract_x
_atom_site_fract_y
_atom_site_fract_z
Si Si1 0.888464 0.766939 0.455290
Si Si2 0.114589 0.570386 0.215541
Si Si3 0.894545 0.284828 0.175593
Si Si4 0.393128 0.295241 0.896419
Si Si5 0.720060 0.882978 0.912286
Si Si6 0.611495 0.359805 0.261016
Si Si7 0.610999 0.778208 0.609710
Si Si8 0.776391 0.428190 0.146117
O O1 0.864904 0.774589 0.582255
O O2 0.836118 0.693859 0.416404
O O3 0.859605 0.838896 0.383552
O O4 0.000000 0.753813 0.432835
O O5 0.160290 0.566297 0.332589
O O6 0.152405 0.643688 0.152901
O O7 0.157050 0.498741 0.160014
O O8 0.000000 0.566126 0.221982
O O9 0.894225 0.250306 0.289992
O O10 0.826951 0.354187 0.184395
O O11 0.000000 0.313882 0.145784
O O12 0.500000 0.321758 0.927422
O O13 0.328050 0.366601 0.873702
O O14 0.347899 0.246066 0.993768
O O15 0.736841 0.926479 0.020646
O O16 0.500000 0.383138 0.251550
O O17 0.634394 0.286147 0.193002
O O18 0.675960 0.427247 0.212992
O O19 0.500000 0.791251 0.594853
#
# Coordination Sequence:
#
# PCOD8174434 Si02
#       8
#     8   8   8   8   8   8   8   8
#     4   9  17  31  55  85 114 149 197 249 298 347
#     4  11  24  40  59  87 123 158 199 247 303 370
#     4   9  19  33  51  83 125 160 192 242 304 359
#     4  10  20  35  58  89 121 153 198 254 300 345
#     4  11  21  36  59  82 115 159 198 242 304 367
#     4  10  18  35  63  91 114 148 204 256 293 344
#     4   9  18  35  61  89 112 146 196 248 291 338
#     4  11  23  37  57  88 120 161 201 242 304 364
#
# _framework density 20.138297999999999
#
# number of rings (size 3 to 8) (size 9 to 14) (size 15 to 20)
#    0.000    2.000    2.500    1.500    0.000    2.500 
#    0.000    3.125    0.000    0.000    0.000    1.750 
#    0.000    0.000    0.000    0.000    0.000    0.000 
#
# Total GULP energy -396517.454179 kJ/mol
# GULP energy per Si atom -12391.170443 kJ/mol
# Density = 2.009246 g / cm^3
# Si number density = 20.138298 Si / 1000 Ang^3
#
#
#
# Elastic Constant Matrix: (Units=GPa)
#
#
# Indices 1 2 3 4 5 6 
#
# 1 70.9348 39.0476 22.6226 0.0000 0.0000 0.0000
# 2 39.0476 36.6552 15.3288 0.0000 0.0000 0.0000
# 3 22.6226 15.3288 74.4076 0.0000 0.0000 0.0000
# 4 0.0000 0.0000 0.0000 14.2754 0.0000 0.0000
# 5 0.0000 0.0000 0.0000 0.0000 28.0594 0.0000
# 6 0.0000 0.0000 0.0000 0.0000 0.0000 15.8000
#
#
#
# Elastic Compliance Matrix: (Units=1/GPa)
#
#
# Indices 1 2 3 4 5 6 
#
# 1 0.034775 -0.035699 -0.003218 0.000000 0.000000 0.000000
# 2 -0.035699 0.066500 -0.002846 0.000000 0.000000 0.000000
# 3 -0.003218 -0.002846 0.015004 0.000000 0.000000 0.000000
# 4 0.000000 0.000000 0.000000 0.070051 0.000000 0.000000
# 5 0.000000 0.000000 0.000000 0.000000 0.035639 0.000000
# 6 0.000000 0.000000 0.000000 0.000000 0.000000 0.063291
#
#
# Mechanical properties :
#
#
# Convention : Reuss Voigt Hill
#
# Bulk Modulus (GPa) = 30.53172 37.33285 33.93229
# Shear Modulus (GPa) = 13.16814 18.62687 15.89750
#
# Velocity S-wave (km/s) = 2.55989 3.04459 2.81270
# Velocity P-wave (km/s) = 4.89197 5.56218 5.23781
#
# Compressibility (1/GPa) = 0.03275282
#
# Stress axis : x y z
#
# Youngs Moduli (GPa) = 28.75626 15.03756 66.64729
#
# Poissons Ratio (x) = 0.53682 0.21450
# Poissons Ratio (y) = 1.02656 0.18969
# Poissons Ratio (z) = 0.09255 0.04280
#
# Static dielectric constant tensor:
#      x y z
#    x 4.075100 0.000000 0.000000 
#    y 0.000000 3.304460 0.000000 
#    z 0.000000 0.000000 4.055800 
# 
# 
# High freq. dielectric constant tensor:
#      x y z
#    x 1.802580 0.000000 0.000000 
#    y 0.000000 1.732130 0.000000 
#    z 0.000000 0.000000 1.803480 
# 
# From -- ./inp_files/8624.got.cif
#   From: 2010.03.12/outbox.cif.g09.slc.cpg/sg36_5_cif.got.tgz:8624.got - 2010.04.14 02:13:53.
