data_PCOD8174174
_publ_section_title
;
Structure prediction by ZEFSAII (Michael W. Deem and Ramdas Pophale) SiO2 
 PCOD8174174
Probable space group: C M C 21
;
_chemical_formula_sum "Si O2"
_cell_formula_units_Z 64
_cell_length_a 31.530910
_cell_length_b 28.575742
_cell_length_c 5.325868
_cell_angle_alpha 90.000000
_cell_angle_beta 90.000000
_cell_angle_gamma 90.000000
_cell_volume 4798.709054
_symmetry_space_group_name_H-M "C M C 21"
_symmetry_group_IT_number 36
_symmetry_cell_setting 'orthorhombic'
loop_
_space_group_symop_operation_xyz
x,y,z
-x,-y,1/2+z
x,-y,1/2+z
-x,y,z
1/2+x,1/2+y,z
1/2-x,1/2-y,1/2+z
1/2+x,1/2-y,1/2+z
1/2-x,1/2+y,z
loop_
_atom_site_type_symbol
_atom_site_label
_atom_site_fract_x
_atom_site_fract_y
_atom_site_fract_z
Si Si1 0.047665 0.624904 0.263300
Si Si2 0.367441 0.025290 0.782278
Si Si3 0.378892 0.800445 0.776153
Si Si4 0.353347 0.775066 0.276120
Si Si5 0.818437 0.381152 0.275418
Si Si6 0.732951 0.728237 0.246230
Si Si7 0.047441 0.434205 0.262843
Si Si8 0.289919 0.856123 0.775387
O O1 0.081672 0.665397 0.284881
O O2 0.055372 0.590936 0.497644
O O3 0.000000 0.645710 0.276323
O O4 0.054890 0.600011 0.997650
O O5 0.354989 0.079907 0.778097
O O6 0.418800 0.023679 0.782603
O O7 0.349692 0.999362 0.533993
O O8 0.382009 0.768620 0.525124
O O9 0.333073 0.825666 0.770471
O O10 0.380965 0.767638 0.023781
O O11 0.336926 0.828767 0.270800
O O12 0.316862 0.735908 0.285016
O O13 0.789432 0.387787 0.523880
O O14 0.789976 0.388250 0.024996
O O15 0.756404 0.757882 0.461065
O O16 0.747311 0.674828 0.281766
O O17 0.000000 0.455626 0.273400
#
# Coordination Sequence:
#
# PCOD8174174 Si02
#       8
#     8   8   8   8   8   8   8   8
#     4  10  19  31  47  62  74  92 121 160 191 236
#     4  12  24  35  46  58  73  92 122 164 196 236
#     4  10  16  25  37  55  76  97 120 136 174 209
#     4  10  18  26  42  60  78 100 112 141 166 224
#     4  10  18  30  41  55  70  96 122 136 178 214
#     4  12  16  27  38  65  88  96 120 132 166 206
#     4  10  20  34  48  59  70  85 111 152 211 259
#     4  10  17  26  44  58  79 100 112 141 166 224
#
# _framework density 13.336919999999999
#
# number of rings (size 3 to 8) (size 9 to 14) (size 15 to 20)
#    0.000    1.500    5.000    5.250    0.000    0.500 
#    0.000    0.000    0.000    0.000    0.000    0.000 
#    0.000    0.000    0.000    0.000    0.000    0.000 
#
# Total GULP energy -396506.556048 kJ/mol
# GULP energy per Si atom -12390.829876 kJ/mol
# Density = 1.330656 g / cm^3
# Si number density = 13.336920 Si / 1000 Ang^3
#
#
#
# Elastic Constant Matrix: (Units=GPa)
#
#
# Indices 1 2 3 4 5 6 
#
# 1 28.5109 25.7011 13.1782 0.0000 0.0000 0.0000
# 2 25.7011 31.2133 16.1914 0.0000 0.0000 0.0000
# 3 13.1782 16.1914 120.7489 0.0000 0.0000 0.0000
# 4 0.0000 0.0000 0.0000 15.7486 0.0000 0.0000
# 5 0.0000 0.0000 0.0000 0.0000 13.4305 0.0000
# 6 0.0000 0.0000 0.0000 0.0000 0.0000 21.5361
#
#
#
# Elastic Compliance Matrix: (Units=1/GPa)
#
#
# Indices 1 2 3 4 5 6 
#
# 1 0.136085 -0.112150 0.000186 0.000000 0.000000 0.000000
# 2 -0.112150 0.126857 -0.004771 0.000000 0.000000 0.000000
# 3 0.000186 -0.004771 0.008901 0.000000 0.000000 0.000000
# 4 0.000000 0.000000 0.000000 0.063498 0.000000 0.000000
# 5 0.000000 0.000000 0.000000 0.000000 0.074457 0.000000
# 6 0.000000 0.000000 0.000000 0.000000 0.000000 0.046434
#
#
# Mechanical properties :
#
#
# Convention : Reuss Voigt Hill
#
# Bulk Modulus (GPa) = 26.05867 32.29051 29.17459
# Shear Modulus (GPa) = 7.11753 18.50321 12.81037
#
# Velocity S-wave (km/s) = 2.31264 3.72878 3.10259
# Velocity P-wave (km/s) = 5.16839 6.54235 5.89553
#
# Compressibility (1/GPa) = 0.03837494
#
# Stress axis : x y z
#
# Youngs Moduli (GPa) = 7.34834 7.88291 112.34670
#
# Poissons Ratio (x) = 0.88407 -0.02093
# Poissons Ratio (y) = 0.82411 0.53597
# Poissons Ratio (z) = -0.00137 0.03761
#
# Static dielectric constant tensor:
#      x y z
#    x 2.629800 0.000000 0.000000 
#    y 0.000000 2.316300 0.000000 
#    z 0.000000 0.000000 4.067850 
# 
# 
# High freq. dielectric constant tensor:
#      x y z
#    x 1.470710 0.000000 0.000000 
#    y 0.000000 1.447600 0.000000 
#    z 0.000000 0.000000 1.554160 
# 
# From -- ./inp_files/1835.got.cif
#   From: 2010.03.12/outbox.cif.g09.slc.cpg/sg36_1_cif.got.tgz:1835.got - 2010.04.14 02:13:53.
