data_PCOD8174113
_publ_section_title
;
Structure prediction by ZEFSAII (Michael W. Deem and Ramdas Pophale) SiO2 
 PCOD8174113
Probable space group: C M M 2
;
_chemical_formula_sum "Si O2"
_cell_formula_units_Z 48
_cell_length_a 8.688444
_cell_length_b 15.791505
_cell_length_c 16.704748
_cell_angle_alpha 90.000000
_cell_angle_beta 90.000000
_cell_angle_gamma 90.000000
_cell_volume 2291.951677
_symmetry_space_group_name_H-M "C M M 2"
_symmetry_group_IT_number 35
_symmetry_cell_setting 'orthorhombic'
loop_
_space_group_symop_operation_xyz
x,y,z
-x,-y,z
-x,y,z
x,-y,z
1/2+x,1/2+y,z
1/2-x,1/2-y,z
1/2-x,1/2+y,z
1/2+x,1/2-y,z
loop_
_atom_site_type_symbol
_atom_site_label
_atom_site_fract_x
_atom_site_fract_y
_atom_site_fract_z
Si Si1 0.182633 0.160420 0.599950
Si Si2 0.181788 0.162213 0.293596
Si Si3 0.323783 0.000000 0.210830
Si Si4 0.317730 0.338770 0.937205
Si Si5 0.824015 0.500000 0.021619
Si Si6 0.825302 0.404403 0.447564
Si Si7 0.817345 0.094586 0.768830
O O1 0.250000 0.250000 0.574562
O O2 0.244286 0.095057 0.534128
O O3 0.247974 0.135560 0.687422
O O4 0.000000 0.160932 0.599547
O O5 0.250000 0.250000 0.258916
O O6 0.242852 0.084408 0.241910
O O7 0.232592 0.153897 0.385955
O O8 0.000000 0.164998 0.287594
O O9 0.310869 0.000000 0.116172
O O10 0.500000 0.000000 0.240363
O O11 0.500000 0.336427 0.944403
O O12 0.250000 0.250000 0.968906
O O13 0.262782 0.351393 0.845253
O O14 0.257998 0.415842 0.990170
O O15 0.000000 0.500000 0.992556
O O16 0.822103 0.500000 0.414470
O O17 0.000000 0.370916 0.454552
O O18 0.000000 0.090730 0.764979
O O19 0.750183 0.000000 0.777524
#
# Coordination Sequence:
#
# PCOD8174113 Si02
#       7
#     8   8   4   8   4   8   8
#     4  11  22  36  56  83 122 164 214 266 316 375
#     4  12  25  43  70 100 132 171 216 261 318 383
#     4  11  25  47  71  98 133 166 207 265 322 385
#     4  11  22  40  67  96 132 172 216 266 321 383
#     4  11  25  45  69  98 131 168 211 261 322 387
#     4  11  23  40  62  88 125 166 212 266 320 376
#     4   9  18  35  59  87 120 164 212 264 320 375
#
# _framework density 20.942848999999999
#
# number of rings (size 3 to 8) (size 9 to 14) (size 15 to 20)
#    0.000    1.167    1.667    5.000    0.000    3.667 
#    0.000    2.500    0.000    0.000    0.000    0.000 
#    0.000    0.000    0.000    0.000    0.000    0.000 
#
# Total GULP energy -297703.163451 kJ/mol
# GULP energy per Si atom -12404.298477 kJ/mol
# Density = 2.089518 g / cm^3
# Si number density = 20.942849 Si / 1000 Ang^3
#
#
#
# Elastic Constant Matrix: (Units=GPa)
#
#
# Indices 1 2 3 4 5 6 
#
# 1 143.5501 61.5161 48.3740 0.0000 0.0000 0.0000
# 2 61.5161 158.9289 42.4899 0.0000 0.0000 0.0000
# 3 48.3740 42.4899 92.1569 0.0000 0.0000 0.0000
# 4 0.0000 0.0000 0.0000 38.2769 0.0000 0.0000
# 5 0.0000 0.0000 0.0000 0.0000 30.9533 0.0000
# 6 0.0000 0.0000 0.0000 0.0000 0.0000 32.6223
#
#
#
# Elastic Compliance Matrix: (Units=1/GPa)
#
#
# Indices 1 2 3 4 5 6 
#
# 1 0.009335 -0.002627 -0.003689 0.000000 0.000000 0.000000
# 2 -0.002627 0.007916 -0.002271 0.000000 0.000000 0.000000
# 3 -0.003689 -0.002271 0.013834 0.000000 0.000000 0.000000
# 4 0.000000 0.000000 0.000000 0.026125 0.000000 0.000000
# 5 0.000000 0.000000 0.000000 0.000000 0.032307 0.000000
# 6 0.000000 0.000000 0.000000 0.000000 0.000000 0.030654
#
#
# Mechanical properties :
#
#
# Convention : Reuss Voigt Hill
#
# Bulk Modulus (GPa) = 71.88009 77.71065 74.79537
# Shear Modulus (GPa) = 35.21567 36.52090 35.86829
#
# Velocity S-wave (km/s) = 4.10507 4.18046 4.14294
# Velocity P-wave (km/s) = 7.54091 7.77742 7.66008
#
# Compressibility (1/GPa) = 0.01391206
#
# Stress axis : x y z
#
# Youngs Moduli (GPa) = 107.12286 126.32507 72.28395
#
# Poissons Ratio (x) = 0.33187 0.26664
# Poissons Ratio (y) = 0.28142 0.16414
# Poissons Ratio (z) = 0.39516 0.28686
#
# Static dielectric constant tensor:
#      x y z
#    x 3.720130 0.000000 0.000000 
#    y 0.000000 3.821090 0.000000 
#    z 0.000000 0.000000 3.857180 
# 
# 
# High freq. dielectric constant tensor:
#      x y z
#    x 1.816160 0.000000 0.000000 
#    y 0.000000 1.834200 0.000000 
#    z 0.000000 0.000000 1.822940 
# 
# From -- ./inp_files/17871.got.cif
#   From: 2010.03.12/outbox.cif.g09.slc.cpg/sg35_9_cif.got.tgz:17871.got - 2010.04.14 02:02:04.
