data_PCOD8174565
_publ_section_title
;
Structure prediction by ZEFSAII (Michael W. Deem and Ramdas Pophale) SiO2 
 PCOD8174565
Probable space group: C M C 21
;
_chemical_formula_sum "Si O2"
_cell_formula_units_Z 64
_cell_length_a 9.893140
_cell_length_b 26.892971
_cell_length_c 13.084572
_cell_angle_alpha 90.000000
_cell_angle_beta 90.000000
_cell_angle_gamma 90.000000
_cell_volume 3481.227934
_symmetry_space_group_name_H-M "C M C 21"
_symmetry_group_IT_number 36
_symmetry_cell_setting 'orthorhombic'
loop_
_space_group_symop_operation_xyz
x,y,z
-x,-y,1/2+z
x,-y,1/2+z
-x,y,z
1/2+x,1/2+y,z
1/2-x,1/2-y,1/2+z
1/2+x,1/2-y,1/2+z
1/2-x,1/2+y,z
loop_
_atom_site_type_symbol
_atom_site_label
_atom_site_fract_x
_atom_site_fract_y
_atom_site_fract_z
Si Si1 0.339912 0.096744 0.109570
Si Si2 0.841837 0.373020 0.214427
Si Si3 0.850426 0.811793 0.645353
Si Si4 0.150927 0.260726 0.962927
Si Si5 0.661353 0.871881 0.990383
Si Si6 0.154145 0.731008 0.801037
Si Si7 0.160093 0.448850 0.823837
Si Si8 0.660851 0.056062 0.890360
O O1 0.500000 0.107468 0.109183
O O2 0.264491 0.149182 0.117529
O O3 0.297578 0.063120 0.207034
O O4 0.292039 0.069648 0.005489
O O5 0.785763 0.389560 0.102706
O O6 0.810033 0.314694 0.226442
O O7 0.777973 0.404928 0.307806
O O8 0.000000 0.383617 0.216883
O O9 0.852485 0.764166 0.572728
O O10 0.819374 0.785506 0.753223
O O11 0.000000 0.837164 0.645384
O O12 0.247349 0.225878 0.896510
O O13 0.000000 0.262181 0.915259
O O14 0.212268 0.316097 0.969693
O O15 0.500000 0.872190 0.991225
O O16 0.719958 0.907771 0.902068
O O17 0.000000 0.725643 0.838721
O O18 0.218452 0.502146 0.858280
O O19 0.000000 0.449053 0.832900
O O20 0.500000 0.055994 0.888064
#
# Coordination Sequence:
#
# PCOD8174565 Si02
#       8
#     8   8   8   8   8   8   8   8
#     4  10  20  34  51  77 107 131 168 216 261 306
#     4   9  16  28  46  67  95 132 168 199 241 300
#     4  10  20  34  51  73 103 139 176 206 249 310
#     4  10  19  32  50  74 102 136 173 207 248 300
#     4   9  16  28  46  67  95 132 168 199 241 300
#     4  10  19  32  50  74 102 136 173 207 248 300
#     4   9  18  29  46  73 103 132 161 206 261 305
#     4   9  18  29  46  73 103 132 161 206 261 305
#
# _framework density 18.384318
#
# number of rings (size 3 to 8) (size 9 to 14) (size 15 to 20)
#    0.000    2.500    1.250    1.500    1.750    3.000 
#    0.000    0.000    0.000    0.750    0.000    0.000 
#    0.000    0.000    0.000    0.000    0.000    0.000 
#
# Total GULP energy -396605.774347 kJ/mol
# GULP energy per Si atom -12393.930448 kJ/mol
# Density = 1.834247 g / cm^3
# Si number density = 18.384318 Si / 1000 Ang^3
#
#
#
# Elastic Constant Matrix: (Units=GPa)
#
#
# Indices 1 2 3 4 5 6 
#
# 1 29.3408 25.5608 21.9266 0.0000 0.0000 0.0000
# 2 25.5608 113.0771 50.1987 0.0000 0.0000 0.0000
# 3 21.9266 50.1987 133.9321 0.0000 0.0000 0.0000
# 4 0.0000 0.0000 0.0000 30.5502 0.0000 0.0000
# 5 0.0000 0.0000 0.0000 0.0000 14.8499 0.0000
# 6 0.0000 0.0000 0.0000 0.0000 0.0000 18.0680
#
#
#
# Elastic Compliance Matrix: (Units=1/GPa)
#
#
# Indices 1 2 3 4 5 6 
#
# 1 0.044325 -0.008155 -0.004200 0.000000 0.000000 0.000000
# 2 -0.008155 0.012109 -0.003203 0.000000 0.000000 0.000000
# 3 -0.004200 -0.003203 0.009355 0.000000 0.000000 0.000000
# 4 0.000000 0.000000 0.000000 0.032733 0.000000 0.000000
# 5 0.000000 0.000000 0.000000 0.000000 0.067341 0.000000
# 6 0.000000 0.000000 0.000000 0.000000 0.000000 0.055346
#
#
# Mechanical properties :
#
#
# Convention : Reuss Voigt Hill
#
# Bulk Modulus (GPa) = 28.84173 52.41355 40.62764
# Shear Modulus (GPa) = 18.94773 24.60456 21.77615
#
# Velocity S-wave (km/s) = 3.21385 3.66231 3.44538
# Velocity P-wave (km/s) = 5.43084 6.81580 6.16235
#
# Compressibility (1/GPa) = 0.03467199
#
# Stress axis : x y z
#
# Youngs Moduli (GPa) = 22.56040 82.58269 106.89740
#
# Poissons Ratio (x) = 0.67347 0.44898
# Poissons Ratio (y) = 0.18398 0.34244
# Poissons Ratio (z) = 0.09476 0.26455
#
# Static dielectric constant tensor:
#      x y z
#    x 2.847120 0.000000 0.000000 
#    y 0.000000 3.424190 0.000000 
#    z 0.000000 0.000000 3.623290 
# 
# 
# High freq. dielectric constant tensor:
#      x y z
#    x 1.644260 0.000000 0.000000 
#    y 0.000000 1.714820 0.000000 
#    z 0.000000 0.000000 1.729510 
# 
# From -- ./inp_files/7998.got.cif
#   From: 2010.03.12/outbox.cif.g09.slc.cpg/sg36_4_cif.got.tgz:7998.got - 2010.04.14 02:13:53.
