data_PCOD8174825
_publ_section_title
;
Structure prediction by ZEFSAII (Michael W. Deem and Ramdas Pophale) SiO2 
 PCOD8174825
Probable space group: C M C 21
;
_chemical_formula_sum "Si O2"
_cell_formula_units_Z 64
_cell_length_a 8.765608
_cell_length_b 22.910392
_cell_length_c 15.998686
_cell_angle_alpha 90.000000
_cell_angle_beta 90.000000
_cell_angle_gamma 90.000000
_cell_volume 3212.912364
_symmetry_space_group_name_H-M "C M C 21"
_symmetry_group_IT_number 36
_symmetry_cell_setting 'orthorhombic'
loop_
_space_group_symop_operation_xyz
x,y,z
-x,-y,1/2+z
x,-y,1/2+z
-x,y,z
1/2+x,1/2+y,z
1/2-x,1/2-y,1/2+z
1/2+x,1/2-y,1/2+z
1/2-x,1/2+y,z
loop_
_atom_site_type_symbol
_atom_site_label
_atom_site_fract_x
_atom_site_fract_y
_atom_site_fract_z
Si Si1 0.679470 0.901619 0.840900
Si Si2 0.180355 0.859644 0.002740
Si Si3 0.180690 0.714139 0.647326
Si Si4 0.821268 0.338635 0.669026
Si Si5 0.821527 0.069561 0.061353
Si Si6 0.822737 0.025901 0.878537
Si Si7 0.331899 0.960419 0.099039
Si Si8 0.666959 0.112652 0.762322
O O1 0.500000 0.899346 0.855401
O O2 0.723820 0.877034 0.749733
O O3 0.731969 0.968781 0.849267
O O4 0.758067 0.857854 0.907782
O O5 0.247756 0.807762 0.059681
O O6 0.228982 0.923098 0.035868
O O7 0.000000 0.853841 0.002843
O O8 0.234952 0.777709 0.672066
O O9 0.231592 0.673675 0.725835
O O10 0.000000 0.711313 0.635573
O O11 0.764823 0.370991 0.585014
O O12 0.000000 0.326891 0.663584
O O13 0.000000 0.079921 0.072196
O O14 0.758191 0.019391 0.122542
O O15 0.774384 0.046255 0.970487
O O16 0.787549 0.083132 0.823613
O O17 0.000000 0.010545 0.872996
O O18 0.500000 0.972443 0.059060
O O19 0.357820 0.928808 0.184708
O O20 0.500000 0.121114 0.805662
#
# Coordination Sequence:
#
# PCOD8174825 Si02
#       8
#     8   8   8   8   8   8   8   8
#     4  11  23  40  63  91 125 162 203 255 312 369
#     4  11  21  36  62  93 122 157 202 250 302 363
#     4  10  22  43  66  88 119 160 207 254 305 362
#     4  11  25  43  63  90 121 163 211 256 309 367
#     4  11  23  38  57  86 124 163 200 249 306 363
#     4  11  23  37  58  92 126 158 200 249 304 366
#     4  10  19  34  58  87 119 156 196 243 301 359
#     4   9  20  37  59  87 116 153 197 242 299 361
#
# _framework density 19.919623000000001
#
# number of rings (size 3 to 8) (size 9 to 14) (size 15 to 20)
#    0.000    1.500    1.250    4.875    0.000    9.500 
#    2.250    0.000    0.000    0.000    0.000    0.000 
#    0.000    0.000    0.000    0.000    0.000    0.000 
#
# Total GULP energy -396767.053563 kJ/mol
# GULP energy per Si atom -12398.970424 kJ/mol
# Density = 1.987428 g / cm^3
# Si number density = 19.919623 Si / 1000 Ang^3
#
#
#
# Elastic Constant Matrix: (Units=GPa)
#
#
# Indices 1 2 3 4 5 6 
#
# 1 94.7313 36.9202 46.3297 0.0000 0.0000 0.0000
# 2 36.9202 128.0541 50.4353 0.0000 0.0000 0.0000
# 3 46.3297 50.4353 72.8342 0.0000 0.0000 0.0000
# 4 0.0000 0.0000 0.0000 23.9448 0.0000 0.0000
# 5 0.0000 0.0000 0.0000 0.0000 30.1229 0.0000
# 6 0.0000 0.0000 0.0000 0.0000 0.0000 -19.3909
#
#
#
# Elastic Compliance Matrix: (Units=1/GPa)
#
#
# Indices 1 2 3 4 5 6 
#
# 1 0.015382 -0.000799 -0.009231 0.000000 0.000000 0.000000
# 2 -0.000799 0.010779 -0.006956 0.000000 0.000000 0.000000
# 3 -0.009231 -0.006956 0.024419 0.000000 0.000000 0.000000
# 4 0.000000 0.000000 0.000000 0.041763 0.000000 0.000000
# 5 0.000000 0.000000 0.000000 0.000000 0.033197 0.000000
# 6 0.000000 0.000000 0.000000 0.000000 0.000000 -0.051571
#
#
# Mechanical properties :
#
#
# Convention : Reuss Voigt Hill
#
# Bulk Modulus (GPa) = 60.21409 62.55444 61.38427
# Shear Modulus (GPa) = 44.06129 17.73098 30.89613
#
# Velocity S-wave (km/s) = 4.70824 2.98674 3.94260
# Velocity P-wave (km/s) = 7.73634 6.58527 7.18389
#
# Compressibility (1/GPa) = 0.01660741
#
# Stress axis : x y z
#
# Youngs Moduli (GPa) = 65.00975 92.77062 40.95244
#
# Poissons Ratio (x) = 0.07414 0.37804
# Poissons Ratio (y) = 0.05195 0.28486
# Poissons Ratio (z) = 0.60012 0.64531
#
# Static dielectric constant tensor:
#      x y z
#    x 3.672800 0.000000 0.000000 
#    y 0.000000 3.931160 0.000000 
#    z 0.000000 0.000000 3.935040 
# 
# 
# High freq. dielectric constant tensor:
#      x y z
#    x 1.789440 0.000000 0.000000 
#    y 0.000000 1.771590 0.000000 
#    z 0.000000 0.000000 1.772870 
# 
# From -- ./inp_files/11068.got.cif
#   From: 2010.03.12/outbox.cif.g09.slc.cpg/sg36_6_cif.got.tgz:11068.got - 2010.04.14 02:13:53.
