data_PCOD8174006
_publ_section_title
;
Structure prediction by ZEFSAII (Michael W. Deem and Ramdas Pophale) SiO2 
 PCOD8174006
Probable space group: C M M 2
;
_chemical_formula_sum "Si O2"
_cell_formula_units_Z 56
_cell_length_a 13.525003
_cell_length_b 13.783406
_cell_length_c 13.760151
_cell_angle_alpha 90.000000
_cell_angle_beta 90.000000
_cell_angle_gamma 90.000000
_cell_volume 2565.175709
_symmetry_space_group_name_H-M "C M M 2"
_symmetry_group_IT_number 35
_symmetry_cell_setting 'orthorhombic'
loop_
_space_group_symop_operation_xyz
x,y,z
-x,-y,z
-x,y,z
x,-y,z
1/2+x,1/2+y,z
1/2-x,1/2-y,z
1/2-x,1/2+y,z
1/2+x,1/2-y,z
loop_
_atom_site_type_symbol
_atom_site_label
_atom_site_fract_x
_atom_site_fract_y
_atom_site_fract_z
Si Si1 0.610347 0.614201 0.304480
Si Si2 0.202488 0.114896 0.500092
Si Si3 0.385254 0.796310 0.015339
Si Si4 0.297438 0.387387 0.100801
Si Si5 0.391372 0.113678 0.602965
Si Si6 0.617105 0.207438 0.798572
Si Si7 0.884732 0.105774 0.700781
O O1 0.500000 0.658274 0.291112
O O2 0.600942 0.500000 0.318578
O O3 0.661688 0.660765 0.400077
O O4 0.677052 0.638827 0.211669
O O5 0.312002 0.157708 0.526352
O O6 0.129731 0.140003 0.589322
O O7 0.211269 0.000000 0.487885
O O8 0.500000 0.820080 0.034410
O O9 0.364459 0.681640 0.032413
O O10 0.318623 0.862616 0.086301
O O11 0.349975 0.824291 0.906094
O O12 0.320044 0.500000 0.076624
O O13 0.500000 0.160968 0.585490
O O14 0.353245 0.132221 0.713562
O O15 0.398169 0.000000 0.588411
O O16 0.500000 0.219046 0.800314
O O17 0.663563 0.313756 0.772425
O O18 0.000000 0.097814 0.720965
O O19 0.834624 0.000000 0.718633
#
# Coordination Sequence:
#
# PCOD8174006 Si02
#       7
#     8   8   8   8   8   8   8
#     4   9  17  33  58  84 110 142 181 228 285 347
#     4   9  17  29  50  79 106 138 180 221 270 332
#     4  10  22  40  60  84 117 154 195 246 296 344
#     4  10  22  39  60  86 114 148 194 245 298 352
#     4   9  18  33  51  73 106 146 185 223 264 321
#     4   9  19  35  53  75 107 147 186 225 275 333
#     4   9  17  30  49  76 108 136 168 218 275 330
#
# _framework density 21.830863999999998
#
# number of rings (size 3 to 8) (size 9 to 14) (size 15 to 20)
#    0.000    2.714    0.000    0.857    0.000    6.857 
#    0.000    7.857    0.000    4.286    0.000    0.000 
#    0.000    0.000    0.000    0.000    0.000    0.000 
#
# Total GULP energy -347003.769673 kJ/mol
# GULP energy per Si atom -12392.991774 kJ/mol
# Density = 2.178118 g / cm^3
# Si number density = 21.830864 Si / 1000 Ang^3
#
#
#
# Elastic Constant Matrix: (Units=GPa)
#
#
# Indices 1 2 3 4 5 6 
#
# 1 118.1682 8.7153 65.2079 0.0000 0.0000 0.0000
# 2 8.7153 36.5247 18.4720 0.0000 0.0000 0.0000
# 3 65.2079 18.4720 143.6979 0.0000 0.0000 0.0000
# 4 0.0000 0.0000 0.0000 28.5601 0.0000 0.0000
# 5 0.0000 0.0000 0.0000 0.0000 38.0814 0.0000
# 6 0.0000 0.0000 0.0000 0.0000 0.0000 22.7489
#
#
#
# Elastic Compliance Matrix: (Units=1/GPa)
#
#
# Indices 1 2 3 4 5 6 
#
# 1 0.011290 -0.000110 -0.005109 0.000000 0.000000 0.000000
# 2 -0.000110 0.029283 -0.003714 0.000000 0.000000 0.000000
# 3 -0.005109 -0.003714 0.009755 0.000000 0.000000 0.000000
# 4 0.000000 0.000000 0.000000 0.035014 0.000000 0.000000
# 5 0.000000 0.000000 0.000000 0.000000 0.026260 0.000000
# 6 0.000000 0.000000 0.000000 0.000000 0.000000 0.043958
#
#
# Mechanical properties :
#
#
# Convention : Reuss Voigt Hill
#
# Bulk Modulus (GPa) = 30.80589 53.68680 42.24635
# Shear Modulus (GPa) = 27.13745 31.61114 29.37430
#
# Velocity S-wave (km/s) = 3.52956 3.80939 3.67214
# Velocity P-wave (km/s) = 5.54546 6.63281 6.11336
#
# Compressibility (1/GPa) = 0.03246133
#
# Stress axis : x y z
#
# Youngs Moduli (GPa) = 88.57459 34.14897 102.51247
#
# Poissons Ratio (x) = 0.00376 0.52374
# Poissons Ratio (y) = 0.00975 0.38077
# Poissons Ratio (z) = 0.45253 0.12684
#
# Static dielectric constant tensor:
#      x y z
#    x 4.218730 0.000000 0.000000 
#    y 0.000000 3.847780 0.000000 
#    z 0.000000 0.000000 4.101660 
# 
# 
# High freq. dielectric constant tensor:
#      x y z
#    x 1.868740 0.000000 0.000000 
#    y 0.000000 1.839600 0.000000 
#    z 0.000000 0.000000 1.844800 
# 
# From -- ./inp_files/13010.got.cif
#   From: 2010.03.12/outbox.cif.g09.slc.cpg/sg35_7_cif.got.tgz:13010.got - 2010.04.14 02:02:04.
