data_PCOD8174043
_publ_section_title
;
Structure prediction by ZEFSAII (Michael W. Deem and Ramdas Pophale) SiO2 
 PCOD8174043
Probable space group: C M M 2
;
_chemical_formula_sum "Si O2"
_cell_formula_units_Z 64
_cell_length_a 9.199862
_cell_length_b 27.638966
_cell_length_c 12.384971
_cell_angle_alpha 90.000000
_cell_angle_beta 90.000000
_cell_angle_gamma 90.000000
_cell_volume 3149.184451
_symmetry_space_group_name_H-M "C M M 2"
_symmetry_group_IT_number 35
_symmetry_cell_setting 'orthorhombic'
loop_
_space_group_symop_operation_xyz
x,y,z
-x,-y,z
-x,y,z
x,-y,z
1/2+x,1/2+y,z
1/2-x,1/2-y,z
1/2-x,1/2+y,z
1/2+x,1/2-y,z
loop_
_atom_site_type_symbol
_atom_site_label
_atom_site_fract_x
_atom_site_fract_y
_atom_site_fract_z
Si Si1 0.830298 0.900584 0.441100
Si Si2 0.715925 0.694136 0.179009
Si Si3 0.673804 0.888057 0.848951
Si Si4 0.336645 0.903030 0.227810
Si Si5 0.667930 0.444212 0.668315
Si Si6 0.837095 0.799710 0.941589
Si Si7 0.653320 0.703849 0.414715
Si Si8 0.835525 0.056869 0.032221
O O1 0.725280 0.917115 0.345005
O O2 0.800774 0.934809 0.542516
O O3 0.786787 0.844867 0.470877
O O4 0.000000 0.902796 0.405908
O O5 0.750000 0.750000 0.162657
O O6 0.843969 0.655097 0.202794
O O7 0.621248 0.692019 0.287751
O O8 0.646101 0.678821 0.064232
O O9 0.500000 0.883054 0.851580
O O10 0.725550 0.909908 0.735449
O O11 0.747283 0.835908 0.865844
O O12 0.726837 0.923420 0.942443
O O13 0.500000 0.923248 0.217513
O O14 0.226738 0.929416 0.148119
O O15 0.500000 0.432294 0.696888
O O16 0.702660 0.500000 0.693935
O O17 0.750000 0.750000 0.940108
O O18 0.000000 0.792497 0.895568
O O19 0.500000 0.717501 0.467813
O O20 0.750000 0.750000 0.435927
O O21 0.000000 0.077568 0.018059
O O22 0.839519 0.000000 0.019534
#
# Coordination Sequence:
#
# PCOD8174043 Si02
#       8
#     8   8   8   8   8   8   8   8
#     4   9  20  38  59  85 119 156 199 250 306 364
#     4   9  19  31  51  81 121 163 203 239 288 345
#     4  12  25  41  63  91 123 156 198 252 311 369
#     4  11  22  36  58  89 126 162 199 247 304 364
#     4  10  22  43  69  90 111 151 207 261 314 373
#     4  11  22  37  60  89 126 166 206 248 296 356
#     4   9  17  30  50  80 116 155 196 238 287 344
#     4  11  24  41  61  85 116 157 202 247 303 371
#
# _framework density 20.322721999999999
#
# number of rings (size 3 to 8) (size 9 to 14) (size 15 to 20)
#    0.000    1.750    1.250    3.000    0.000   11.250 
#    0.000    1.875    0.000    1.500    0.000    0.000 
#    0.000    0.000    0.000    0.000    0.000    0.000 
#
# Total GULP energy -396474.506405 kJ/mol
# GULP energy per Si atom -12389.828325 kJ/mol
# Density = 2.027647 g / cm^3
# Si number density = 20.322722 Si / 1000 Ang^3
#
#
#
# Elastic Constant Matrix: (Units=GPa)
#
#
# Indices 1 2 3 4 5 6 
#
# 1 143.2505 42.7433 42.8679 0.0000 0.0000 0.0000
# 2 42.7433 80.0347 32.6661 0.0000 0.0000 0.0000
# 3 42.8679 32.6661 77.6449 0.0000 0.0000 0.0000
# 4 0.0000 0.0000 0.0000 27.4713 0.0000 0.0000
# 5 0.0000 0.0000 0.0000 0.0000 60.9624 0.0000
# 6 0.0000 0.0000 0.0000 0.0000 0.0000 25.3538
#
#
#
# Elastic Compliance Matrix: (Units=1/GPa)
#
#
# Indices 1 2 3 4 5 6 
#
# 1 0.009060 -0.003377 -0.003581 0.000000 0.000000 0.000000
# 2 -0.003377 0.016343 -0.005012 0.000000 0.000000 0.000000
# 3 -0.003581 -0.005012 0.016965 0.000000 0.000000 0.000000
# 4 0.000000 0.000000 0.000000 0.036402 0.000000 0.000000
# 5 0.000000 0.000000 0.000000 0.000000 0.016404 0.000000
# 6 0.000000 0.000000 0.000000 0.000000 0.000000 0.039442
#
#
# Mechanical properties :
#
#
# Convention : Reuss Voigt Hill
#
# Bulk Modulus (GPa) = 54.26279 59.72053 56.99166
# Shear Modulus (GPa) = 30.35860 34.93436 32.64648
#
# Velocity S-wave (km/s) = 3.86920 4.15056 4.01234
# Velocity P-wave (km/s) = 6.83516 7.24012 7.04055
#
# Compressibility (1/GPa) = 0.01842884
#
# Stress axis : x y z
#
# Youngs Moduli (GPa) = 110.37373 61.18645 58.94541
#
# Poissons Ratio (x) = 0.20662 0.21111
# Poissons Ratio (y) = 0.37272 0.29540
# Poissons Ratio (z) = 0.39529 0.30664
#
# Static dielectric constant tensor:
#      x y z
#    x 2.518040 0.000000 0.000000 
#    y 0.000000 3.850650 0.000000 
#    z 0.000000 0.000000 3.679230 
# 
# 
# High freq. dielectric constant tensor:
#      x y z
#    x 1.787890 0.000000 0.000000 
#    y 0.000000 1.801940 0.000000 
#    z 0.000000 0.000000 1.776200 
# 
# From -- ./inp_files/11865.got.cif
#   From: 2010.03.12/outbox.cif.g09.slc.cpg/sg35_6_cif.got.tgz:11865.got - 2010.04.14 02:02:04.
