data_PCOD8174172
_publ_section_title
;
Structure prediction by ZEFSAII (Michael W. Deem and Ramdas Pophale) SiO2 
 PCOD8174172
Probable space group: C M C 21
;
_chemical_formula_sum "Si O2"
_cell_formula_units_Z 28
_cell_length_a 8.333242
_cell_length_b 33.786507
_cell_length_c 5.251376
_cell_angle_alpha 90.000000
_cell_angle_beta 90.000000
_cell_angle_gamma 90.000000
_cell_volume 1478.530895
_symmetry_space_group_name_H-M "C M C 21"
_symmetry_group_IT_number 36
_symmetry_cell_setting 'orthorhombic'
loop_
_space_group_symop_operation_xyz
x,y,z
-x,-y,1/2+z
x,-y,1/2+z
-x,y,z
1/2+x,1/2+y,z
1/2-x,1/2-y,1/2+z
1/2+x,1/2-y,1/2+z
1/2-x,1/2+y,z
loop_
_atom_site_type_symbol
_atom_site_label
_atom_site_fract_x
_atom_site_fract_y
_atom_site_fract_z
Si Si1 0.677988 0.101528 0.672130
Si Si2 0.686473 0.230047 0.168516
Si Si3 0.500000 0.025784 0.646970
Si Si4 0.691017 0.860729 0.672022
O O1 0.500000 0.121203 0.672276
O O2 0.659347 0.053556 0.668511
O O3 0.767385 0.117893 0.420529
O O4 0.767017 0.116923 0.926320
O O5 0.500000 0.233407 0.233642
O O6 0.782452 0.252547 0.388815
O O7 0.743766 0.184738 0.167585
O O8 0.500000 0.005975 0.370641
O O9 0.500000 0.866602 0.671412
#
# Coordination Sequence:
#
# PCOD8174172 Si02
#       4
#     8   8   4   8
#     4   8  15  23  37  53  79 113 157 191 225 280
#     4  11  22  35  53  75 101 131 175 225 267 305
#     4  10  16  22  34  56  86 116 160 200 234 280
#     4   9  15  28  42  59  81 117 159 205 221 298
#
# _framework density 18.937718
#
# number of rings (size 3 to 8) (size 9 to 14) (size 15 to 20)
#    0.857    1.714    0.000    4.286    0.000    4.571 
#    0.000    0.000    0.000    0.000    0.000    0.000 
#    0.000    0.000    0.000    0.000    0.000  360.000 
#
# Total GULP energy -173474.229283 kJ/mol
# GULP energy per Si atom -12391.016377 kJ/mol
# Density = 1.889461 g / cm^3
# Si number density = 18.937718 Si / 1000 Ang^3
#
#
#
# Elastic Constant Matrix: (Units=GPa)
#
#
# Indices 1 2 3 4 5 6 
#
# 1 11.9982 7.9287 -0.0544 0.0000 0.0000 0.0000
# 2 7.9287 126.5251 54.5555 0.0000 0.0000 0.0000
# 3 -0.0544 54.5555 162.9515 0.0000 0.0000 0.0000
# 4 0.0000 0.0000 0.0000 50.1232 0.0000 0.0000
# 5 0.0000 0.0000 0.0000 0.0000 15.1717 0.0000
# 6 0.0000 0.0000 0.0000 0.0000 0.0000 15.6208
#
#
#
# Elastic Compliance Matrix: (Units=1/GPa)
#
#
# Indices 1 2 3 4 5 6 
#
# 1 0.087605 -0.006431 0.002182 0.000000 0.000000 0.000000
# 2 -0.006431 0.009709 -0.003253 0.000000 0.000000 0.000000
# 3 0.002182 -0.003253 0.007227 0.000000 0.000000 0.000000
# 4 0.000000 0.000000 0.000000 0.019951 0.000000 0.000000
# 5 0.000000 0.000000 0.000000 0.000000 0.065912 0.000000
# 6 0.000000 0.000000 0.000000 0.000000 0.000000 0.064017
#
#
# Mechanical properties :
#
#
# Convention : Reuss Voigt Hill
#
# Bulk Modulus (GPa) = 11.16837 47.37049 29.26943
# Shear Modulus (GPa) = 16.70733 32.11947 24.41340
#
# Velocity S-wave (km/s) = 2.97345 4.12279 3.59436
# Velocity P-wave (km/s) = 4.20699 6.90879 5.71971
#
# Compressibility (1/GPa) = 0.08953860
#
# Stress axis : x y z
#
# Youngs Moduli (GPa) = 11.41481 102.99662 138.37934
#
# Poissons Ratio (x) = 0.66234 -0.30197
# Poissons Ratio (y) = 0.07341 0.45011
# Poissons Ratio (z) = -0.02491 0.33502
#
# Static dielectric constant tensor:
#      x y z
#    x 2.660330 0.000000 0.000000 
#    y 0.000000 3.410320 0.000000 
#    z 0.000000 0.000000 3.884510 
# 
# 
# High freq. dielectric constant tensor:
#      x y z
#    x 1.646880 0.000000 0.000000 
#    y 0.000000 1.737590 0.000000 
#    z 0.000000 0.000000 1.768150 
# 
# From -- ./inp_files/176.got.cif
#   From: 2010.03.12/outbox.cif.g09.slc.cpg/sg36_1_cif.got.tgz:176.got - 2010.04.14 02:13:53.
