data_PCOD8174496
_publ_section_title
;
Structure prediction by ZEFSAII (Michael W. Deem and Ramdas Pophale) SiO2 
 PCOD8174496
Probable space group: C M C 21
;
_chemical_formula_sum "Si O2"
_cell_formula_units_Z 64
_cell_length_a 9.076864
_cell_length_b 20.140916
_cell_length_c 20.143808
_cell_angle_alpha 90.000000
_cell_angle_beta 90.000000
_cell_angle_gamma 90.000000
_cell_volume 3682.617562
_symmetry_space_group_name_H-M "C M C 21"
_symmetry_group_IT_number 36
_symmetry_cell_setting 'orthorhombic'
loop_
_space_group_symop_operation_xyz
x,y,z
-x,-y,1/2+z
x,-y,1/2+z
-x,y,z
1/2+x,1/2+y,z
1/2-x,1/2-y,1/2+z
1/2+x,1/2-y,1/2+z
1/2-x,1/2+y,z
loop_
_atom_site_type_symbol
_atom_site_label
_atom_site_fract_x
_atom_site_fract_y
_atom_site_fract_z
Si Si1 0.325102 0.173403 0.387320
Si Si2 0.824858 0.821008 0.386673
Si Si3 0.172873 0.069189 0.785277
Si Si4 0.673239 0.575976 0.143292
Si Si5 0.825172 0.178560 0.034565
Si Si6 0.824393 0.568050 0.280363
Si Si7 0.168025 0.924501 0.133608
Si Si8 0.174141 0.672882 0.535519
O O1 0.500000 0.173926 0.386822
O O2 0.267507 0.247191 0.368157
O O3 0.265218 0.120388 0.334716
O O4 0.269775 0.154531 0.461398
O O5 0.764088 0.873778 0.333577
O O6 0.768814 0.840174 0.460623
O O7 0.000000 0.821695 0.384755
O O8 0.202663 0.092297 0.710122
O O9 0.000000 0.054598 0.795934
O O10 0.262187 0.002999 0.802001
O O11 0.500000 0.585633 0.157517
O O12 0.736339 0.625605 0.087361
O O13 0.761255 0.591772 0.210093
O O14 0.704900 0.501293 0.118994
O O15 0.771327 0.252660 0.053807
O O16 0.000000 0.175851 0.034929
O O17 0.000000 0.565088 0.276762
O O18 0.267621 0.879300 0.087949
O O19 0.000000 0.908538 0.116286
O O20 0.000000 0.670230 0.538022
#
# Coordination Sequence:
#
# PCOD8174496 Si02
#       8
#     8   8   8   8   8   8   8   8
#     4   8  16  30  47  69  94 119 152 191 226 267
#     4   8  14  28  50  71  90 118 156 190 224 270
#     4   9  18  32  50  70  92 120 154 192 228 265
#     4   9  18  33  49  67  93 121 153 192 227 264
#     4   8  15  29  50  72  91 116 154 195 227 262
#     4  10  19  31  48  69  94 123 152 186 229 274
#     4   9  18  30  44  67  97 122 147 187 231 267
#     4   9  17  31  50  69  91 121 154 187 226 273
#
# _framework density 17.378943
#
# number of rings (size 3 to 8) (size 9 to 14) (size 15 to 20)
#    0.000    3.250    0.000    2.625    0.000    4.000 
#    0.000    4.375    0.000    5.250    0.000    0.000 
#    0.000    0.000    0.000    0.000    0.000    0.000 
#
# Total GULP energy -396654.707192 kJ/mol
# GULP energy per Si atom -12395.459600 kJ/mol
# Density = 1.733939 g / cm^3
# Si number density = 17.378943 Si / 1000 Ang^3
#
#
#
# Elastic Constant Matrix: (Units=GPa)
#
#
# Indices 1 2 3 4 5 6 
#
# 1 29.8513 33.1379 33.4150 0.0000 0.0000 0.0000
# 2 33.1379 136.3050 110.5741 0.0000 0.0000 0.0000
# 3 33.4150 110.5741 137.9116 0.0000 0.0000 0.0000
# 4 0.0000 0.0000 0.0000 42.9841 0.0000 0.0000
# 5 0.0000 0.0000 0.0000 0.0000 21.4174 0.0000
# 6 0.0000 0.0000 0.0000 0.0000 0.0000 19.9491
#
#
#
# Elastic Compliance Matrix: (Units=1/GPa)
#
#
# Indices 1 2 3 4 5 6 
#
# 1 0.047825 -0.006370 -0.006480 0.000000 0.000000 0.000000
# 2 -0.006370 0.021835 -0.015963 0.000000 0.000000 0.000000
# 3 -0.006480 -0.015963 0.021620 0.000000 0.000000 0.000000
# 4 0.000000 0.000000 0.000000 0.023264 0.000000 0.000000
# 5 0.000000 0.000000 0.000000 0.000000 0.046691 0.000000
# 6 0.000000 0.000000 0.000000 0.000000 0.000000 0.050128
#
#
# Mechanical properties :
#
#
# Convention : Reuss Voigt Hill
#
# Bulk Modulus (GPa) = 29.71542 73.14688 51.43115
# Shear Modulus (GPa) = 17.84391 25.33285 21.58838
#
# Velocity S-wave (km/s) = 3.20778 3.82209 3.52833
# Velocity P-wave (km/s) = 5.55477 7.85230 6.80125
#
# Compressibility (1/GPa) = 0.03365257
#
# Stress axis : x y z
#
# Youngs Moduli (GPa) = 20.90975 45.79790 46.25295
#
# Poissons Ratio (x) = 0.29173 0.29973
# Poissons Ratio (y) = 0.13319 0.73836
# Poissons Ratio (z) = 0.13550 0.73109
#
# Static dielectric constant tensor:
#      x y z
#    x 2.824430 0.000000 0.000000 
#    y 0.000000 3.479310 0.000000 
#    z 0.000000 0.000000 3.482520 
# 
# 
# High freq. dielectric constant tensor:
#      x y z
#    x 1.631440 0.000000 0.000000 
#    y 0.000000 1.677030 0.000000 
#    z 0.000000 0.000000 1.677150 
# 
# From -- ./inp_files/15815.got.cif
#   From: 2010.03.12/outbox.cif.g09.slc.cpg/sg36_8_cif.got.tgz:15815.got - 2010.04.14 02:13:53.
