data_PCOD8174762
_publ_section_title
;
Structure prediction by ZEFSAII (Michael W. Deem and Ramdas Pophale) SiO2 
 PCOD8174762
Probable space group: C M C 21
;
_chemical_formula_sum "Si O2"
_cell_formula_units_Z 64
_cell_length_a 9.021895
_cell_length_b 20.134470
_cell_length_c 19.192836
_cell_angle_alpha 90.000000
_cell_angle_beta 90.000000
_cell_angle_gamma 90.000000
_cell_volume 3486.399277
_symmetry_space_group_name_H-M "C M C 21"
_symmetry_group_IT_number 36
_symmetry_cell_setting 'orthorhombic'
loop_
_space_group_symop_operation_xyz
x,y,z
-x,-y,1/2+z
x,-y,1/2+z
-x,y,z
1/2+x,1/2+y,z
1/2-x,1/2-y,1/2+z
1/2+x,1/2-y,1/2+z
1/2-x,1/2+y,z
loop_
_atom_site_type_symbol
_atom_site_label
_atom_site_fract_x
_atom_site_fract_y
_atom_site_fract_z
Si Si1 0.825469 0.237042 0.914060
Si Si2 0.670265 0.608871 0.273615
Si Si3 0.329771 0.761504 0.276477
Si Si4 0.671553 0.949882 0.056413
Si Si5 0.824564 0.303609 0.548501
Si Si6 0.326401 0.889186 0.911342
Si Si7 0.325839 0.426150 0.621982
Si Si8 0.830157 0.311708 0.127270
O O1 0.774339 0.211598 0.838233
O O2 0.773916 0.313487 0.923596
O O3 0.000000 0.227977 0.922593
O O4 0.743084 0.192513 0.971174
O O5 0.500000 0.600648 0.292803
O O6 0.710359 0.685524 0.258245
O O7 0.757795 0.580895 0.340546
O O8 0.711493 0.567444 0.204348
O O9 0.500000 0.767906 0.300085
O O10 0.296084 0.806005 0.209086
O O11 0.500000 0.972297 0.058550
O O12 0.698036 0.887115 0.105881
O O13 0.776852 0.007610 0.083205
O O14 0.721287 0.932962 0.977560
O O15 0.763334 0.364397 0.592465
O O16 0.778417 0.234705 0.583832
O O17 0.000000 0.308395 0.544242
O O18 0.500000 0.890111 0.901422
O O19 0.500000 0.413662 0.610865
O O20 0.000000 0.290386 0.110662
#
# Coordination Sequence:
#
# PCOD8174762 Si02
#       8
#     8   8   8   8   8   8   8   8
#     4  10  19  34  55  82 116 150 185 233 289 338
#     4   9  18  33  55  80 109 144 188 232 278 335
#     4   9  17  32  55  83 112 146 188 233 282 338
#     4  10  21  38  58  84 115 151 190 232 279 337
#     4  12  23  35  57  86 113 145 192 238 279 337
#     4   9  18  33  56  82 112 146 185 228 278 337
#     4  11  23  40  58  81 115 154 190 235 290 338
#     4  10  19  37  60  82 116 152 184 229 287 336
#
# _framework density 18.357049
#
# number of rings (size 3 to 8) (size 9 to 14) (size 15 to 20)
#    0.000    2.000    2.500    1.875    0.000    3.000 
#    0.000    1.250    0.000    4.500    0.000    0.000 
#    0.000    0.000    0.000    0.000    0.000    0.000 
#
# Total GULP energy -396869.334026 kJ/mol
# GULP energy per Si atom -12402.166688 kJ/mol
# Density = 1.831527 g / cm^3
# Si number density = 18.357049 Si / 1000 Ang^3
#
#
#
# Elastic Constant Matrix: (Units=GPa)
#
#
# Indices 1 2 3 4 5 6 
#
# 1 79.5556 19.4369 51.8692 0.0000 0.0000 0.0000
# 2 19.4369 28.7446 23.0056 0.0000 0.0000 0.0000
# 3 51.8692 23.0056 130.0723 0.0000 0.0000 0.0000
# 4 0.0000 0.0000 0.0000 26.9990 0.0000 0.0000
# 5 0.0000 0.0000 0.0000 0.0000 36.3590 0.0000
# 6 0.0000 0.0000 0.0000 0.0000 0.0000 27.9151
#
#
#
# Elastic Compliance Matrix: (Units=1/GPa)
#
#
# Indices 1 2 3 4 5 6 
#
# 1 0.018314 -0.007617 -0.005956 0.000000 0.000000 0.000000
# 2 -0.007617 0.043694 -0.004691 0.000000 0.000000 0.000000
# 3 -0.005956 -0.004691 0.010893 0.000000 0.000000 0.000000
# 4 0.000000 0.000000 0.000000 0.037038 0.000000 0.000000
# 5 0.000000 0.000000 0.000000 0.000000 0.027504 0.000000
# 6 0.000000 0.000000 0.000000 0.000000 0.000000 0.035823
#
#
# Mechanical properties :
#
#
# Convention : Reuss Voigt Hill
#
# Bulk Modulus (GPa) = 27.49255 47.44401 37.46828
# Shear Modulus (GPa) = 22.53097 27.85866 25.19482
#
# Velocity S-wave (km/s) = 3.50719 3.89987 3.70873
# Velocity P-wave (km/s) = 5.60443 6.79557 6.22854
#
# Compressibility (1/GPa) = 0.03637349
#
# Stress axis : x y z
#
# Youngs Moduli (GPa) = 54.60313 22.88655 91.80467
#
# Poissons Ratio (x) = 0.17433 0.54678
# Poissons Ratio (y) = 0.41591 0.43062
# Poissons Ratio (z) = 0.32521 0.10735
#
# Static dielectric constant tensor:
#      x y z
#    x 3.348580 0.000000 0.000000 
#    y 0.000000 3.179430 0.000000 
#    z 0.000000 0.000000 3.636190 
# 
# 
# High freq. dielectric constant tensor:
#      x y z
#    x 1.710710 0.000000 0.000000 
#    y 0.000000 1.677990 0.000000 
#    z 0.000000 0.000000 1.729610 
# 
# From -- ./inp_files/13844.got.cif
#   From: 2010.03.12/outbox.cif.g09.slc.cpg/sg36_7_cif.got.tgz:13844.got - 2010.04.14 02:13:53.
