data_PCOD8174701
_publ_section_title
;
Structure prediction by ZEFSAII (Michael W. Deem and Ramdas Pophale) SiO2 
 PCOD8174701
Probable space group: C M C 21
;
_chemical_formula_sum "Si O2"
_cell_formula_units_Z 64
_cell_length_a 9.275316
_cell_length_b 21.671027
_cell_length_c 16.495498
_cell_angle_alpha 90.000000
_cell_angle_beta 90.000000
_cell_angle_gamma 90.000000
_cell_volume 3315.687860
_symmetry_space_group_name_H-M "C M C 21"
_symmetry_group_IT_number 36
_symmetry_cell_setting 'orthorhombic'
loop_
_space_group_symop_operation_xyz
x,y,z
-x,-y,1/2+z
x,-y,1/2+z
-x,y,z
1/2+x,1/2+y,z
1/2-x,1/2-y,1/2+z
1/2+x,1/2-y,1/2+z
1/2-x,1/2+y,z
loop_
_atom_site_type_symbol
_atom_site_label
_atom_site_fract_x
_atom_site_fract_y
_atom_site_fract_z
Si Si1 0.833792 0.029745 0.036180
Si Si2 0.830788 0.842787 0.261682
Si Si3 0.338444 0.815607 0.958247
Si Si4 0.168353 0.852288 0.640626
Si Si5 0.661380 0.910915 0.401227
Si Si6 0.333250 0.393614 0.084933
Si Si7 0.659105 0.207476 0.010142
Si Si8 0.161427 0.300178 0.777098
O O1 0.794079 0.081540 0.102533
O O2 0.000000 0.035486 0.010338
O O3 0.800682 0.966391 0.082919
O O4 0.744046 0.035589 0.951988
O O5 0.746774 0.888965 0.321805
O O6 0.788974 0.864075 0.170886
O O7 0.784878 0.771507 0.276256
O O8 0.000000 0.851529 0.278964
O O9 0.500000 0.805002 0.991586
O O10 0.342452 0.833258 0.864213
O O11 0.261094 0.865818 0.013099
O O12 0.248612 0.753047 0.954839
O O13 0.252845 0.798591 0.593189
O O14 0.229099 0.845702 0.730926
O O15 0.000000 0.838271 0.638740
O O16 0.500000 0.933449 0.376696
O O17 0.647861 0.855897 0.463936
O O18 0.500000 0.379927 0.066681
O O19 0.500000 0.233912 0.029921
O O20 0.000000 0.301751 0.739330
#
# Coordination Sequence:
#
# PCOD8174701 Si02
#       8
#     8   8   8   8   8   8   8   8
#     4   9  20  40  60  81 112 151 198 239 282 342
#     4  10  20  37  60  84 115 151 192 238 291 348
#     4  11  22  36  56  83 118 154 189 233 289 347
#     4  10  20  34  57  84 111 146 190 238 283 335
#     4  10  20  34  58  88 114 146 190 237 286 339
#     4  10  22  40  61  84 113 156 201 241 288 343
#     4  10  19  33  55  82 113 147 186 231 286 345
#     4  10  21  36  55  84 120 153 186 231 293 353
#
# _framework density 19.302178999999999
#
# number of rings (size 3 to 8) (size 9 to 14) (size 15 to 20)
#    0.000    2.000    1.250    2.250    0.000    5.000 
#    2.250    0.000    0.000    0.000    0.000    0.000 
#    0.000    0.000    0.000    0.000    0.000    0.000 
#
# Total GULP energy -396689.733655 kJ/mol
# GULP energy per Si atom -12396.554177 kJ/mol
# Density = 1.925825 g / cm^3
# Si number density = 19.302179 Si / 1000 Ang^3
#
#
#
# Elastic Constant Matrix: (Units=GPa)
#
#
# Indices 1 2 3 4 5 6 
#
# 1 117.9603 39.8036 62.8794 0.0000 0.0000 0.0000
# 2 39.8036 66.4334 45.1428 0.0000 0.0000 0.0000
# 3 62.8794 45.1428 113.7812 0.0000 0.0000 0.0000
# 4 0.0000 0.0000 0.0000 28.7686 0.0000 0.0000
# 5 0.0000 0.0000 0.0000 0.0000 37.3794 0.0000
# 6 0.0000 0.0000 0.0000 0.0000 0.0000 25.8623
#
#
#
# Elastic Compliance Matrix: (Units=1/GPa)
#
#
# Indices 1 2 3 4 5 6 
#
# 1 0.012713 -0.003892 -0.005481 0.000000 0.000000 0.000000
# 2 -0.003892 0.021800 -0.006498 0.000000 0.000000 0.000000
# 3 -0.005481 -0.006498 0.014396 0.000000 0.000000 0.000000
# 4 0.000000 0.000000 0.000000 0.034760 0.000000 0.000000
# 5 0.000000 0.000000 0.000000 0.000000 0.026753 0.000000
# 6 0.000000 0.000000 0.000000 0.000000 0.000000 0.038666
#
#
# Mechanical properties :
#
#
# Convention : Reuss Voigt Hill
#
# Bulk Modulus (GPa) = 58.25589 65.98072 62.11830
# Shear Modulus (GPa) = 26.80194 28.42533 27.61364
#
# Velocity S-wave (km/s) = 3.73036 3.84167 3.78643
# Velocity P-wave (km/s) = 6.98575 7.34406 7.16714
#
# Compressibility (1/GPa) = 0.01716565
#
# Stress axis : x y z
#
# Youngs Moduli (GPa) = 78.66248 45.87060 69.46317
#
# Poissons Ratio (x) = 0.17854 0.38074
# Poissons Ratio (y) = 0.30617 0.45140
# Poissons Ratio (z) = 0.43116 0.29809
#
# Static dielectric constant tensor:
#      x y z
#    x 3.760650 0.000000 0.000000 
#    y 0.000000 3.377060 0.000000 
#    z 0.000000 0.000000 3.500250 
# 
# 
# High freq. dielectric constant tensor:
#      x y z
#    x 1.758550 0.000000 0.000000 
#    y 0.000000 1.731650 0.000000 
#    z 0.000000 0.000000 1.752020 
# 
# From -- ./inp_files/10904.got.cif
#   From: 2010.03.12/outbox.cif.g09.slc.cpg/sg36_6_cif.got.tgz:10904.got - 2010.04.14 02:13:53.
