data_PCOD8174995
_publ_section_title
;
Structure prediction by ZEFSAII (Michael W. Deem and Ramdas Pophale) SiO2 
 PCOD8174995
Probable space group: C M C 21
;
_chemical_formula_sum "Si O2"
_cell_formula_units_Z 48
_cell_length_a 15.137619
_cell_length_b 16.356942
_cell_length_c 9.853923
_cell_angle_alpha 90.000000
_cell_angle_beta 90.000000
_cell_angle_gamma 90.000000
_cell_volume 2439.882142
_symmetry_space_group_name_H-M "C M C 21"
_symmetry_group_IT_number 36
_symmetry_cell_setting 'orthorhombic'
loop_
_space_group_symop_operation_xyz
x,y,z
-x,-y,1/2+z
x,-y,1/2+z
-x,y,z
1/2+x,1/2+y,z
1/2-x,1/2-y,1/2+z
1/2+x,1/2-y,1/2+z
1/2-x,1/2+y,z
loop_
_atom_site_type_symbol
_atom_site_label
_atom_site_fract_x
_atom_site_fract_y
_atom_site_fract_z
Si Si1 0.807887 0.569721 0.722080
Si Si2 0.405608 0.591085 0.036572
Si Si3 0.649662 0.475573 0.811586
Si Si4 0.216701 0.349991 0.944543
Si Si5 0.779173 0.328195 0.476168
Si Si6 0.603247 0.104017 0.212439
O O1 0.706151 0.542594 0.728777
O O2 0.818046 0.628071 0.593330
O O3 0.827485 0.623284 0.855325
O O4 0.873837 0.492558 0.711927
O O5 0.500000 0.636989 0.013176
O O6 0.407438 0.514504 0.932461
O O7 0.321540 0.646194 0.005668
O O8 0.408803 0.565953 0.195312
O O9 0.718776 0.416597 0.883021
O O10 0.272957 0.266974 0.942305
O O11 0.128079 0.351366 0.853412
O O12 0.840110 0.345745 0.603829
O O13 0.500000 0.114737 0.183014
#
# Coordination Sequence:
#
# PCOD8174995 Si02
#       6
#     8   8   8   8   8   8
#     4  10  20  37  64  88 119 160 208 246 304 365
#     4  11  21  37  61  89 120 157 205 249 300 372
#     4  10  19  38  59  89 114 157 203 250 301 359
#     4  11  21  39  64  89 124 162 199 256 316 365
#     4  11  23  39  63  92 128 162 198 258 319 365
#     4  11  23  42  66  91 123 166 214 255 303 372
#
# _framework density 19.673081
#
# number of rings (size 3 to 8) (size 9 to 14) (size 15 to 20)
#    0.000    1.333    5.000    3.500    0.000    3.333 
#    0.000    1.667    0.000    0.000    0.000    0.000 
#    0.000    0.000    0.000    0.000    0.000    0.000 
#
# Total GULP energy -297467.122312 kJ/mol
# GULP energy per Si atom -12394.463430 kJ/mol
# Density = 1.962830 g / cm^3
# Si number density = 19.673081 Si / 1000 Ang^3
#
#
#
# Elastic Constant Matrix: (Units=GPa)
#
#
# Indices 1 2 3 4 5 6 
#
# 1 122.7255 10.4381 29.9380 0.0000 0.0000 0.0000
# 2 10.4381 59.9636 7.5167 0.0000 0.0000 0.0000
# 3 29.9380 7.5167 97.2773 0.0000 0.0000 0.0000
# 4 0.0000 0.0000 0.0000 27.8656 0.0000 0.0000
# 5 0.0000 0.0000 0.0000 0.0000 2.4844 0.0000
# 6 0.0000 0.0000 0.0000 0.0000 0.0000 10.0096
#
#
#
# Elastic Compliance Matrix: (Units=1/GPa)
#
#
# Indices 1 2 3 4 5 6 
#
# 1 0.008897 -0.001217 -0.002644 0.000000 0.000000 0.000000
# 2 -0.001217 0.017006 -0.000939 0.000000 0.000000 0.000000
# 3 -0.002644 -0.000939 0.011166 0.000000 0.000000 0.000000
# 4 0.000000 0.000000 0.000000 0.035887 0.000000 0.000000
# 5 0.000000 0.000000 0.000000 0.000000 0.402504 0.000000
# 6 0.000000 0.000000 0.000000 0.000000 0.000000 0.099904
#
#
# Mechanical properties :
#
#
# Convention : Reuss Voigt Hill
#
# Bulk Modulus (GPa) = 36.40611 41.75024 39.07817
# Shear Modulus (GPa) = 8.41578 23.54350 15.97964
#
# Velocity S-wave (km/s) = 2.07053 3.46314 2.85311
# Velocity P-wave (km/s) = 4.92563 6.10403 5.54622
#
# Compressibility (1/GPa) = 0.02746792
#
# Stress axis : x y z
#
# Youngs Moduli (GPa) = 112.40021 58.80126 89.55594
#
# Poissons Ratio (x) = 0.07158 0.23679
# Poissons Ratio (y) = 0.13682 0.08414
# Poissons Ratio (z) = 0.29719 0.05524
#
# Static dielectric constant tensor:
#      x y z
#    x 3.512060 0.000000 0.000000 
#    y 0.000000 3.472390 0.000000 
#    z 0.000000 0.000000 3.897200 
# 
# 
# High freq. dielectric constant tensor:
#      x y z
#    x 1.752070 0.000000 0.000000 
#    y 0.000000 1.749430 0.000000 
#    z 0.000000 0.000000 1.790150 
# 
# From -- ./inp_files/3982.got.cif
#   From: 2010.03.12/outbox.cif.g09.slc.cpg/sg36_2_cif.got.tgz:3982.got - 2010.04.14 02:13:53.
