data_PCOD8174193
_publ_section_title
;
Structure prediction by ZEFSAII (Michael W. Deem and Ramdas Pophale) SiO2 
 PCOD8174193
Probable space group: C M C 21
;
_chemical_formula_sum "Si O2"
_cell_formula_units_Z 64
_cell_length_a 8.900556
_cell_length_b 23.239447
_cell_length_c 17.839528
_cell_angle_alpha 90.000000
_cell_angle_beta 90.000000
_cell_angle_gamma 90.000000
_cell_volume 3689.999320
_symmetry_space_group_name_H-M "C M C 21"
_symmetry_group_IT_number 36
_symmetry_cell_setting 'orthorhombic'
loop_
_space_group_symop_operation_xyz
x,y,z
-x,-y,1/2+z
x,-y,1/2+z
-x,y,z
1/2+x,1/2+y,z
1/2-x,1/2-y,1/2+z
1/2+x,1/2-y,1/2+z
1/2-x,1/2+y,z
loop_
_atom_site_type_symbol
_atom_site_label
_atom_site_fract_x
_atom_site_fract_y
_atom_site_fract_z
Si Si1 0.326057 0.307961 0.621820
Si Si2 0.326379 0.574941 0.180581
Si Si3 0.821963 0.129805 0.972572
Si Si4 0.668800 0.419719 0.097450
Si Si5 0.834424 0.970242 0.263154
Si Si6 0.323823 0.024620 0.039691
Si Si7 0.674986 0.132754 0.822987
Si Si8 0.678547 0.184581 0.665819
O O1 0.500000 0.295015 0.611270
O O2 0.299078 0.356181 0.687054
O O3 0.263221 0.330895 0.541869
O O4 0.252894 0.247666 0.647352
O O5 0.500000 0.564894 0.152776
O O6 0.300029 0.539558 0.258622
O O7 0.208241 0.552351 0.120197
O O8 0.763709 0.157422 0.894845
O O9 0.000000 0.125285 0.973181
O O10 0.752892 0.065492 0.977532
O O11 0.500000 0.408542 0.068871
O O12 0.668924 0.451104 0.177034
O O13 0.753914 0.460245 0.037125
O O14 0.753472 0.358912 0.104773
O O15 0.713373 0.935092 0.311064
O O16 0.000000 0.958916 0.297889
O O17 0.500000 0.020780 0.024244
O O18 0.500000 0.139334 0.837996
O O19 0.729458 0.168270 0.750265
O O20 0.500000 0.180862 0.660488
#
# Coordination Sequence:
#
# PCOD8174193 Si02
#       8
#     8   8   8   8   8   8   8   8
#     4   8  15  29  49  70  91 122 163 201 236 277
#     4   8  14  26  44  66  91 119 151 185 225 274
#     4  10  19  32  49  67  91 123 158 195 239 293
#     4   9  16  27  43  65  92 119 149 184 224 271
#     4   8  14  25  42  63  87 116 148 181 222 275
#     4  10  17  26  43  67  92 115 143 183 233 279
#     4  10  19  29  44  68  95 120 151 196 247 292
#     4   9  17  30  48  70  95 124 161 201 238 277
#
# _framework density 17.344176000000001
#
# number of rings (size 3 to 8) (size 9 to 14) (size 15 to 20)
#    0.000    3.000    0.000    3.750    0.000    3.500 
#    0.000    3.125    0.000    1.500    0.000    5.250 
#    0.000    0.000    0.000    0.000    0.000    0.000 
#
# Total GULP energy -396471.925679 kJ/mol
# GULP energy per Si atom -12389.747677 kJ/mol
# Density = 1.730470 g / cm^3
# Si number density = 17.344176 Si / 1000 Ang^3
#
#
#
# Elastic Constant Matrix: (Units=GPa)
#
#
# Indices 1 2 3 4 5 6 
#
# 1 66.7240 29.2332 24.6134 0.0000 0.0000 0.0000
# 2 29.2332 138.7714 42.8199 0.0000 0.0000 0.0000
# 3 24.6134 42.8199 59.5177 0.0000 0.0000 0.0000
# 4 0.0000 0.0000 0.0000 16.6091 0.0000 0.0000
# 5 0.0000 0.0000 0.0000 0.0000 21.9417 0.0000
# 6 0.0000 0.0000 0.0000 0.0000 0.0000 19.5230
#
#
#
# Elastic Compliance Matrix: (Units=1/GPa)
#
#
# Indices 1 2 3 4 5 6 
#
# 1 0.018078 -0.001930 -0.006088 0.000000 0.000000 0.000000
# 2 -0.001930 0.009468 -0.006014 0.000000 0.000000 0.000000
# 3 -0.006088 -0.006014 0.023646 0.000000 0.000000 0.000000
# 4 0.000000 0.000000 0.000000 0.060208 0.000000 0.000000
# 5 0.000000 0.000000 0.000000 0.000000 0.045575 0.000000
# 6 0.000000 0.000000 0.000000 0.000000 0.000000 0.051222
#
#
# Mechanical properties :
#
#
# Convention : Reuss Voigt Hill
#
# Bulk Modulus (GPa) = 43.23474 50.92735 47.08104
# Shear Modulus (GPa) = 20.49427 22.83785 21.66606
#
# Velocity S-wave (km/s) = 3.44120 3.63263 3.53821
# Velocity P-wave (km/s) = 6.38520 6.85720 6.62541
#
# Compressibility (1/GPa) = 0.02312955
#
# Stress axis : x y z
#
# Youngs Moduli (GPa) = 55.31488 105.61558 42.29043
#
# Poissons Ratio (x) = 0.20382 0.25746
# Poissons Ratio (y) = 0.10675 0.25433
# Poissons Ratio (z) = 0.33675 0.63516
#
# Static dielectric constant tensor:
#      x y z
#    x 3.101940 0.000000 0.000000 
#    y 0.000000 3.549060 0.000000 
#    z 0.000000 0.000000 3.016550 
# 
# 
# High freq. dielectric constant tensor:
#      x y z
#    x 1.661680 0.000000 0.000000 
#    y 0.000000 1.663430 0.000000 
#    z 0.000000 0.000000 1.627160 
# 
# From -- ./inp_files/14028.got.cif
#   From: 2010.03.12/outbox.cif.g09.slc.cpg/sg36_8_cif.got.tgz:14028.got - 2010.04.14 02:13:53.
