data_PCOD8174293
_publ_section_title
;
Structure prediction by ZEFSAII (Michael W. Deem and Ramdas Pophale) SiO2 
 PCOD8174293
Probable space group: C M C 21
;
_chemical_formula_sum "Si O2"
_cell_formula_units_Z 48
_cell_length_a 18.267562
_cell_length_b 17.187847
_cell_length_c 8.528487
_cell_angle_alpha 90.000000
_cell_angle_beta 90.000000
_cell_angle_gamma 90.000000
_cell_volume 2677.774866
_symmetry_space_group_name_H-M "C M C 21"
_symmetry_group_IT_number 36
_symmetry_cell_setting 'orthorhombic'
loop_
_space_group_symop_operation_xyz
x,y,z
-x,-y,1/2+z
x,-y,1/2+z
-x,y,z
1/2+x,1/2+y,z
1/2-x,1/2-y,1/2+z
1/2+x,1/2-y,1/2+z
1/2-x,1/2+y,z
loop_
_atom_site_type_symbol
_atom_site_label
_atom_site_fract_x
_atom_site_fract_y
_atom_site_fract_z
Si Si1 0.816275 0.425030 0.460500
Si Si2 0.800891 0.825354 0.338570
Si Si3 0.315851 0.909731 0.829271
Si Si4 0.300635 0.690672 0.468106
Si Si5 0.584641 0.210337 0.829408
Si Si6 0.084537 0.724266 0.461795
O O1 0.735199 0.407743 0.387043
O O2 0.811475 0.420369 0.645469
O O3 0.840777 0.510977 0.411497
O O4 0.877815 0.366574 0.397387
O O5 0.748462 0.763358 0.420909
O O6 0.881539 0.808051 0.409069
O O7 0.802776 0.817618 0.153355
O O8 0.234972 0.886218 0.892134
O O9 0.375985 0.844427 0.867002
O O10 0.381551 0.710012 0.402239
O O11 0.500000 0.208739 0.875192
O O12 0.597492 0.210634 0.644338
O O13 0.000000 0.724764 0.415483
#
# Coordination Sequence:
#
# PCOD8174293 Si02
#       6
#     8   8   8   8   8   8
#     4  11  21  34  52  74 102 133 168 207 250 298
#     4  10  18  31  51  73  98 129 168 207 245 291
#     4  11  21  34  52  74 102 133 168 207 250 298
#     4  10  18  31  51  73  98 129 168 207 245 291
#     4  10  20  34  52  75 103 134 168 205 247 295
#     4  10  20  34  52  75 103 134 168 205 247 295
#
# _framework density 17.925331
#
# number of rings (size 3 to 8) (size 9 to 14) (size 15 to 20)
#    0.000    1.667    0.000   11.000    0.000    3.333 
#    0.000    0.000    0.000    1.000    0.000    0.000 
#    0.000    0.000    0.000    0.000    0.000    0.000 
#
# Total GULP energy -297530.939507 kJ/mol
# GULP energy per Si atom -12397.122479 kJ/mol
# Density = 1.788453 g / cm^3
# Si number density = 17.925331 Si / 1000 Ang^3
#
#
#
# Elastic Constant Matrix: (Units=GPa)
#
#
# Indices 1 2 3 4 5 6 
#
# 1 121.8376 47.1787 39.4614 0.0000 0.0000 0.0000
# 2 47.1787 27.4767 13.5358 0.0000 0.0000 0.0000
# 3 39.4614 13.5358 66.9828 0.0000 0.0000 0.0000
# 4 0.0000 0.0000 0.0000 30.7491 0.0000 0.0000
# 5 0.0000 0.0000 0.0000 0.0000 30.5809 0.0000
# 6 0.0000 0.0000 0.0000 0.0000 0.0000 18.4780
#
#
#
# Elastic Compliance Matrix: (Units=1/GPa)
#
#
# Indices 1 2 3 4 5 6 
#
# 1 0.027421 -0.043451 -0.007374 0.000000 0.000000 0.000000
# 2 -0.043451 0.109269 0.003517 0.000000 0.000000 0.000000
# 3 -0.007374 0.003517 0.018563 0.000000 0.000000 0.000000
# 4 0.000000 0.000000 0.000000 0.032521 0.000000 0.000000
# 5 0.000000 0.000000 0.000000 0.000000 0.032700 0.000000
# 6 0.000000 0.000000 0.000000 0.000000 0.000000 0.054118
#
#
# Mechanical properties :
#
#
# Convention : Reuss Voigt Hill
#
# Bulk Modulus (GPa) = 16.49149 46.29434 31.39292
# Shear Modulus (GPa) = 12.83955 23.70301 18.27128
#
# Velocity S-wave (km/s) = 2.67924 3.64032 3.19611
# Velocity P-wave (km/s) = 4.33488 6.59935 5.58313
#
# Compressibility (1/GPa) = 0.06063733
#
# Stress axis : x y z
#
# Youngs Moduli (GPa) = 36.46786 9.15171 53.87119
#
# Poissons Ratio (x) = 0.39765 0.39726
# Poissons Ratio (y) = 1.58457 -0.18948
# Poissons Ratio (z) = 0.26892 -0.03219
#
# Static dielectric constant tensor:
#      x y z
#    x 3.678950 0.000000 0.000000 
#    y 0.000000 3.484690 0.000000 
#    z 0.000000 0.000000 3.454130 
# 
# 
# High freq. dielectric constant tensor:
#      x y z
#    x 1.684330 0.000000 0.000000 
#    y 0.000000 1.671470 0.000000 
#    z 0.000000 0.000000 1.719810 
# 
# From -- ./inp_files/4727.got.cif
#   From: 2010.03.12/outbox.cif.g09.slc.cpg/sg36_3_cif.got.tgz:4727.got - 2010.04.14 02:13:53.
