data_PCOD8174894
_publ_section_title
;
Structure prediction by ZEFSAII (Michael W. Deem and Ramdas Pophale) SiO2 
 PCOD8174894
Probable space group: C M C 21
;
_chemical_formula_sum "Si O2"
_cell_formula_units_Z 64
_cell_length_a 8.630310
_cell_length_b 15.196312
_cell_length_c 23.991834
_cell_angle_alpha 90.000000
_cell_angle_beta 90.000000
_cell_angle_gamma 90.000000
_cell_volume 3146.502240
_symmetry_space_group_name_H-M "C M C 21"
_symmetry_group_IT_number 36
_symmetry_cell_setting 'orthorhombic'
loop_
_space_group_symop_operation_xyz
x,y,z
-x,-y,1/2+z
x,-y,1/2+z
-x,y,z
1/2+x,1/2+y,z
1/2-x,1/2-y,1/2+z
1/2+x,1/2-y,1/2+z
1/2-x,1/2+y,z
loop_
_atom_site_type_symbol
_atom_site_label
_atom_site_fract_x
_atom_site_fract_y
_atom_site_fract_z
Si Si1 0.175870 0.779367 0.214320
Si Si2 0.183204 0.647800 0.397555
Si Si3 0.315213 0.506304 0.824403
Si Si4 0.679512 0.540879 0.085523
Si Si5 0.818683 0.696427 0.829132
Si Si6 0.679076 0.265441 0.603168
Si Si7 0.824270 0.983330 0.201921
Si Si8 0.182860 0.385155 0.022482
O O1 0.278186 0.761512 0.269031
O O2 0.235847 0.722913 0.162296
O O3 0.190233 0.879466 0.195487
O O4 0.000000 0.753233 0.228701
O O5 0.228793 0.560217 0.364573
O O6 0.271034 0.733359 0.375519
O O7 0.242165 0.635065 0.460606
O O8 0.000000 0.662469 0.393384
O O9 0.500000 0.495115 0.828626
O O10 0.274203 0.606482 0.840531
O O11 0.252188 0.487062 0.761341
O O12 0.500000 0.512568 0.086304
O O13 0.700388 0.643084 0.069609
O O14 0.755492 0.525013 0.147128
O O15 0.764566 0.482693 0.039406
O O16 0.000000 0.676793 0.832628
O O17 0.500000 0.246535 0.616016
O O18 0.751339 0.187774 0.565253
O O19 0.000000 0.015746 0.202966
O O20 0.000000 0.380219 0.023709
#
# Coordination Sequence:
#
# PCOD8174894 Si02
#       8
#     8   8   8   8   8   8   8   8
#     4  10  19  35  59  88 123 159 196 249 308 361
#     4  11  24  42  62  87 124 167 212 257 303 362
#     4  10  21  39  62  91 125 159 203 254 311 367
#     4  10  20  36  59  87 117 154 200 245 297 365
#     4  11  23  40  62  91 124 162 206 252 307 370
#     4  10  21  36  58  88 119 157 200 247 303 361
#     4   8  16  32  55  84 119 151 184 240 302 358
#     4  10  23  42  59  84 123 159 199 252 301 352
#
# _framework density 20.340045
#
# number of rings (size 3 to 8) (size 9 to 14) (size 15 to 20)
#    0.000    2.000    1.250    3.000    1.750    2.500 
#    0.000    1.875    0.000    0.000    0.000    0.000 
#    0.000    0.000    0.000    0.000    0.000    0.000 
#
# Total GULP energy -396784.139067 kJ/mol
# GULP energy per Si atom -12399.504346 kJ/mol
# Density = 2.029375 g / cm^3
# Si number density = 20.340045 Si / 1000 Ang^3
#
#
#
# Elastic Constant Matrix: (Units=GPa)
#
#
# Indices 1 2 3 4 5 6 
#
# 1 45.0237 3.8755 14.8671 0.0000 0.0000 0.0000
# 2 3.8755 58.0004 19.7662 0.0000 0.0000 0.0000
# 3 14.8671 19.7662 95.4267 0.0000 0.0000 0.0000
# 4 0.0000 0.0000 0.0000 30.3570 0.0000 0.0000
# 5 0.0000 0.0000 0.0000 0.0000 28.8827 0.0000
# 6 0.0000 0.0000 0.0000 0.0000 0.0000 31.0281
#
#
#
# Elastic Compliance Matrix: (Units=1/GPa)
#
#
# Indices 1 2 3 4 5 6 
#
# 1 0.023422 -0.000346 -0.003577 0.000000 0.000000 0.000000
# 2 -0.000346 0.018556 -0.003790 0.000000 0.000000 0.000000
# 3 -0.003577 -0.003790 0.011822 0.000000 0.000000 0.000000
# 4 0.000000 0.000000 0.000000 0.032941 0.000000 0.000000
# 5 0.000000 0.000000 0.000000 0.000000 0.034623 0.000000
# 6 0.000000 0.000000 0.000000 0.000000 0.000000 0.032229
#
#
# Mechanical properties :
#
#
# Convention : Reuss Voigt Hill
#
# Bulk Modulus (GPa) = 26.05984 30.60761 28.33373
# Shear Modulus (GPa) = 27.50142 28.71637 28.10889
#
# Velocity S-wave (km/s) = 3.68106 3.76149 3.72149
# Velocity P-wave (km/s) = 5.55939 5.82629 5.69440
#
# Compressibility (1/GPa) = 0.03837322
#
# Stress axis : x y z
#
# Youngs Moduli (GPa) = 42.69569 53.89126 84.59124
#
# Poissons Ratio (x) = 0.01864 0.30261
# Poissons Ratio (y) = 0.01477 0.32057
# Poissons Ratio (z) = 0.15274 0.20423
#
# Static dielectric constant tensor:
#      x y z
#    x 3.511590 0.000000 0.000000 
#    y 0.000000 3.612880 0.000000 
#    z 0.000000 0.000000 3.868100 
# 
# 
# High freq. dielectric constant tensor:
#      x y z
#    x 1.777360 0.000000 0.000000 
#    y 0.000000 1.798180 0.000000 
#    z 0.000000 0.000000 1.795320 
# 
# From -- ./inp_files/16626.got.cif
#   From: 2010.03.12/outbox.cif.g09.slc.cpg/sg36_9_cif.got.tgz:16626.got - 2010.04.14 02:13:53.
