data_PCOD8174921
_publ_section_title
;
Structure prediction by ZEFSAII (Michael W. Deem and Ramdas Pophale) SiO2 
 PCOD8174921
Probable space group: C M C 21
;
_chemical_formula_sum "Si O2"
_cell_formula_units_Z 64
_cell_length_a 8.871701
_cell_length_b 23.754338
_cell_length_c 15.282584
_cell_angle_alpha 90.000000
_cell_angle_beta 90.000000
_cell_angle_gamma 90.000000
_cell_volume 3220.672906
_symmetry_space_group_name_H-M "C M C 21"
_symmetry_group_IT_number 36
_symmetry_cell_setting 'orthorhombic'
loop_
_space_group_symop_operation_xyz
x,y,z
-x,-y,1/2+z
x,-y,1/2+z
-x,y,z
1/2+x,1/2+y,z
1/2-x,1/2-y,1/2+z
1/2+x,1/2-y,1/2+z
1/2-x,1/2+y,z
loop_
_atom_site_type_symbol
_atom_site_label
_atom_site_fract_x
_atom_site_fract_y
_atom_site_fract_z
Si Si1 0.177708 0.249603 0.474780
Si Si2 0.178222 0.359564 0.040774
Si Si3 0.828585 0.248180 0.794131
Si Si4 0.171195 0.632567 0.223984
Si Si5 0.823339 0.372502 0.526574
Si Si6 0.323830 0.574903 0.382305
Si Si7 0.322636 0.371439 0.218852
Si Si8 0.823271 0.945319 0.381114
O O1 0.255988 0.203308 0.535656
O O2 0.219230 0.238049 0.374407
O O3 0.239549 0.310888 0.501625
O O4 0.000000 0.243918 0.488503
O O5 0.236017 0.387975 0.130308
O O6 0.000000 0.356795 0.039996
O O7 0.230916 0.396903 0.959644
O O8 0.815581 0.299645 0.726503
O O9 0.776655 0.191726 0.745788
O O10 0.000000 0.241580 0.829104
O O11 0.216074 0.613221 0.126787
O O12 0.285400 0.603640 0.290412
O O13 0.000000 0.614504 0.246984
O O14 0.748583 0.419948 0.467926
O O15 0.000000 0.373407 0.509369
O O16 0.500000 0.582553 0.401701
O O17 0.276365 0.510058 0.375116
O O18 0.500000 0.377465 0.202085
O O19 0.264785 0.413534 0.294371
O O20 0.000000 0.936834 0.389296
#
# Coordination Sequence:
#
# PCOD8174921 Si02
#       8
#     8   8   8   8   8   8   8   8
#     4  11  21  36  61  92 125 159 195 242 301 360
#     4  12  25  40  61  90 122 161 206 249 298 359
#     4  10  19  35  62  90 123 158 192 239 302 362
#     4  10  21  38  60  89 122 158 195 240 299 358
#     4  10  22  39  62  92 125 158 195 241 299 359
#     4  11  24  42  62  87 118 157 205 255 303 354
#     4  10  21  40  64  90 123 159 195 246 306 360
#     4  10  23  42  64  88 118 158 203 250 302 356
#
# _framework density 19.871624000000001
#
# number of rings (size 3 to 8) (size 9 to 14) (size 15 to 20)
#    0.000    1.500    2.500    2.625    0.000    6.000 
#    0.000    5.000    0.000    0.000    0.000    0.000 
#    0.000    0.000    0.000    0.000    0.000    0.000 
#
# Total GULP energy -396974.398462 kJ/mol
# GULP energy per Si atom -12405.449952 kJ/mol
# Density = 1.982640 g / cm^3
# Si number density = 19.871624 Si / 1000 Ang^3
#
#
#
# Elastic Constant Matrix: (Units=GPa)
#
#
# Indices 1 2 3 4 5 6 
#
# 1 67.0788 34.1239 33.2838 0.0000 0.0000 0.0000
# 2 34.1239 113.7440 43.0009 0.0000 0.0000 0.0000
# 3 33.2838 43.0009 117.3784 0.0000 0.0000 0.0000
# 4 0.0000 0.0000 0.0000 10.7793 0.0000 0.0000
# 5 0.0000 0.0000 0.0000 0.0000 37.1155 0.0000
# 6 0.0000 0.0000 0.0000 0.0000 0.0000 18.7251
#
#
#
# Elastic Compliance Matrix: (Units=1/GPa)
#
#
# Indices 1 2 3 4 5 6 
#
# 1 0.018964 -0.004244 -0.003823 0.000000 0.000000 0.000000
# 2 -0.004244 0.011155 -0.002883 0.000000 0.000000 0.000000
# 3 -0.003823 -0.002883 0.010660 0.000000 0.000000 0.000000
# 4 0.000000 0.000000 0.000000 0.092770 0.000000 0.000000
# 5 0.000000 0.000000 0.000000 0.000000 0.026943 0.000000
# 6 0.000000 0.000000 0.000000 0.000000 0.000000 0.053404
#
#
# Mechanical properties :
#
#
# Convention : Reuss Voigt Hill
#
# Bulk Modulus (GPa) = 52.96988 57.66872 55.31930
# Shear Modulus (GPa) = 20.65367 25.84350 23.24859
#
# Velocity S-wave (km/s) = 3.22740 3.61019 3.42415
# Velocity P-wave (km/s) = 6.37197 6.81627 6.59787
#
# Compressibility (1/GPa) = 0.01887865
#
# Stress axis : x y z
#
# Youngs Moduli (GPa) = 52.73277 89.64703 93.81254
#
# Poissons Ratio (x) = 0.38047 0.35860
# Poissons Ratio (y) = 0.22380 0.27047
# Poissons Ratio (z) = 0.20157 0.25846
#
# Static dielectric constant tensor:
#      x y z
#    x 3.497000 0.000000 0.000000 
#    y 0.000000 3.712040 0.000000 
#    z 0.000000 0.000000 3.650860 
# 
# 
# High freq. dielectric constant tensor:
#      x y z
#    x 1.767210 0.000000 0.000000 
#    y 0.000000 1.775830 0.000000 
#    z 0.000000 0.000000 1.784650 
# 
# From -- ./inp_files/10977.got.cif
#   From: 2010.03.12/outbox.cif.g09.slc.cpg/sg36_6_cif.got.tgz:10977.got - 2010.04.14 02:13:53.
