data_PCOD8174265
_publ_section_title
;
Structure prediction by ZEFSAII (Michael W. Deem and Ramdas Pophale) SiO2 
 PCOD8174265
Probable space group: C M C 21
;
_chemical_formula_sum "Si O2"
_cell_formula_units_Z 64
_cell_length_a 21.900523
_cell_length_b 23.190594
_cell_length_c 7.998266
_cell_angle_alpha 90.000000
_cell_angle_beta 90.000000
_cell_angle_gamma 90.000000
_cell_volume 4062.208424
_symmetry_space_group_name_H-M "C M C 21"
_symmetry_group_IT_number 36
_symmetry_cell_setting 'orthorhombic'
loop_
_space_group_symop_operation_xyz
x,y,z
-x,-y,1/2+z
x,-y,1/2+z
-x,y,z
1/2+x,1/2+y,z
1/2-x,1/2-y,1/2+z
1/2+x,1/2-y,1/2+z
1/2-x,1/2+y,z
loop_
_atom_site_type_symbol
_atom_site_label
_atom_site_fract_x
_atom_site_fract_y
_atom_site_fract_z
Si Si1 0.329266 0.936512 0.002030
Si Si2 0.848477 0.230174 0.874796
Si Si3 0.069360 0.244295 0.184404
Si Si4 0.738909 0.833029 0.495851
Si Si5 0.238908 0.333029 0.872957
Si Si6 0.348477 0.730174 0.494011
Si Si7 0.829266 0.563488 0.866778
Si Si8 0.069289 0.618848 0.684404
O O1 0.297971 0.940074 0.184404
O O2 0.396100 0.906155 0.019362
O O3 0.284433 0.898573 0.887929
O O4 0.338625 0.000000 0.934404
O O5 0.815800 0.290201 0.924663
O O6 0.875125 0.231924 0.684403
O O7 0.900571 0.219674 0.013535
O O8 0.798233 0.178921 0.882229
O O9 0.099430 0.219674 0.355271
O O10 0.072378 0.312837 0.184404
O O11 0.000000 0.222188 0.184404
O O12 0.759103 0.820425 0.684404
O O13 0.684200 0.790201 0.444145
O O14 0.715567 0.898573 0.480879
O O15 0.298232 0.321079 0.986579
O O16 0.896100 0.593846 0.849447
O O17 0.000000 0.596461 0.684405
#
# Coordination Sequence:
#
# PCOD8174265 Si02
#       8
#     8   8   8   8   8   8   8   8
#     4  10  19  31  47  66  94 126 169 209 257 286
#     4  10  19  31  51  75  97 128 163 200 249 308
#     4  11  20  36  51  70 104 134 167 207 247 296
#     4  10  18  30  50  71  98 123 162 204 254 305
#     4  10  18  30  50  71  98 123 162 204 254 305
#     4  10  19  31  51  75  97 128 163 200 249 308
#     4  10  19  31  47  66  94 126 169 209 257 286
#     4   9  20  34  47  60  94 136 177 211 249 292
#
# _framework density 15.754975999999999
#
# number of rings (size 3 to 8) (size 9 to 14) (size 15 to 20)
#    0.750    1.250    3.750    1.500    1.750    1.000 
#    0.000    0.000    0.000    0.000    0.000    0.000 
#    0.000    1.000    0.500    0.000    0.000    0.000 
#
# Total GULP energy -396561.682368 kJ/mol
# GULP energy per Si atom -12392.552574 kJ/mol
# Density = 1.571912 g / cm^3
# Si number density = 15.754976 Si / 1000 Ang^3
#
#
#
# Elastic Constant Matrix: (Units=GPa)
#
#
# Indices 1 2 3 4 5 6 
#
# 1 89.6219 35.6092 48.3912 0.0000 0.0000 0.0000
# 2 35.6092 59.3933 9.4900 0.0000 0.0000 0.0000
# 3 48.3912 9.4900 92.5595 0.0000 0.0000 0.0000
# 4 0.0000 0.0000 0.0000 23.2006 0.0000 0.0000
# 5 0.0000 0.0000 0.0000 0.0000 21.6389 0.0000
# 6 0.0000 0.0000 0.0000 0.0000 0.0000 15.0114
#
#
#
# Elastic Compliance Matrix: (Units=1/GPa)
#
#
# Indices 1 2 3 4 5 6 
#
# 1 0.020728 -0.010874 -0.009722 0.000000 0.000000 0.000000
# 2 -0.010874 0.022822 0.003345 0.000000 0.000000 0.000000
# 3 -0.009722 0.003345 0.015544 0.000000 0.000000 0.000000
# 4 0.000000 0.000000 0.000000 0.043102 0.000000 0.000000
# 5 0.000000 0.000000 0.000000 0.000000 0.046213 0.000000
# 6 0.000000 0.000000 0.000000 0.000000 0.000000 0.066616
#
#
# Mechanical properties :
#
#
# Convention : Reuss Voigt Hill
#
# Bulk Modulus (GPa) = 40.66369 47.61727 44.14048
# Shear Modulus (GPa) = 19.40063 21.84246 20.62154
#
# Velocity S-wave (km/s) = 3.51293 3.72746 3.62178
# Velocity P-wave (km/s) = 6.50541 6.98674 6.75037
#
# Compressibility (1/GPa) = 0.02459196
#
# Stress axis : x y z
#
# Youngs Moduli (GPa) = 48.24436 43.81753 64.33516
#
# Poissons Ratio (x) = 0.47647 0.62546
# Poissons Ratio (y) = 0.52461 -0.21521
# Poissons Ratio (z) = 0.46902 -0.14658
#
# Static dielectric constant tensor:
#      x y z
#    x 2.840110 0.000000 0.000000 
#    y 0.000000 2.712340 0.000000 
#    z 0.000000 0.000000 2.988870 
# 
# 
# High freq. dielectric constant tensor:
#      x y z
#    x 1.577790 0.000000 0.000000 
#    y 0.000000 1.578540 0.000000 
#    z 0.000000 0.000000 1.612540 
# 
# From -- ./inp_files/5403.got.cif
#   From: 2010.03.12/outbox.cif.g09.slc.cpg/sg36_3_cif.got.tgz:5403.got - 2010.04.14 02:13:53.
