data_PCOD8174709
_publ_section_title
;
Structure prediction by ZEFSAII (Michael W. Deem and Ramdas Pophale) SiO2 
 PCOD8174709
Probable space group: C M C 21
;
_chemical_formula_sum "Si O2"
_cell_formula_units_Z 64
_cell_length_a 9.145777
_cell_length_b 24.271801
_cell_length_c 14.507956
_cell_angle_alpha 90.000000
_cell_angle_beta 90.000000
_cell_angle_gamma 90.000000
_cell_volume 3220.541059
_symmetry_space_group_name_H-M "C M C 21"
_symmetry_group_IT_number 36
_symmetry_cell_setting 'orthorhombic'
loop_
_space_group_symop_operation_xyz
x,y,z
-x,-y,1/2+z
x,-y,1/2+z
-x,y,z
1/2+x,1/2+y,z
1/2-x,1/2-y,1/2+z
1/2+x,1/2-y,1/2+z
1/2-x,1/2+y,z
loop_
_atom_site_type_symbol
_atom_site_label
_atom_site_fract_x
_atom_site_fract_y
_atom_site_fract_z
Si Si1 0.671438 0.840799 0.371700
Si Si2 0.334005 0.899344 0.685642
Si Si3 0.826333 0.950309 0.334041
Si Si4 0.170431 0.477175 0.151755
Si Si5 0.165949 0.105790 0.553614
Si Si6 0.330127 0.796224 0.566669
Si Si7 0.837008 0.926446 0.855912
Si Si8 0.673217 0.801488 0.167780
O O1 0.500000 0.854852 0.372983
O O2 0.756153 0.898587 0.388309
O O3 0.709434 0.799748 0.457514
O O4 0.715913 0.810397 0.275662
O O5 0.500000 0.894461 0.716280
O O6 0.293847 0.855997 0.607676
O O7 0.247142 0.891337 0.779804
O O8 0.298056 0.958652 0.643415
O O9 0.758498 0.946511 0.232485
O O10 0.000000 0.942278 0.333305
O O11 0.777854 0.010705 0.373595
O O12 0.243685 0.451020 0.062001
O O13 0.000000 0.462822 0.161594
O O14 0.165722 0.113619 0.443863
O O15 0.251968 0.153302 0.604465
O O16 0.000000 0.102062 0.591230
O O17 0.500000 0.779421 0.579273
O O18 0.230820 0.755775 0.626944
O O19 0.000000 0.934594 0.818239
O O20 0.500000 0.804485 0.155388
#
# Coordination Sequence:
#
# PCOD8174709 Si02
#       8
#     8   8   8   8   8   8   8   8
#     4  10  22  40  62  86 117 154 196 249 303 359
#     4   9  20  38  59  86 120 157 199 245 298 357
#     4  10  19  34  57  86 120 158 200 243 295 356
#     4  10  19  33  55  86 121 156 196 244 296 351
#     4  11  22  37  58  86 121 162 201 244 298 355
#     4  10  23  43  64  88 118 158 202 249 308 361
#     4   9  21  37  55  86 126 164 200 243 300 357
#     4  11  24  42  62  88 119 155 204 253 298 356
#
# _framework density 19.872436
#
# number of rings (size 3 to 8) (size 9 to 14) (size 15 to 20)
#    0.000    2.000    1.250    1.500    1.750    4.500 
#    0.000    3.750    0.000    0.000    0.000    0.000 
#    0.000    0.000    0.000    0.000    0.000    0.000 
#
# Total GULP energy -396610.574179 kJ/mol
# GULP energy per Si atom -12394.080443 kJ/mol
# Density = 1.982721 g / cm^3
# Si number density = 19.872436 Si / 1000 Ang^3
#
#
#
# Elastic Constant Matrix: (Units=GPa)
#
#
# Indices 1 2 3 4 5 6 
#
# 1 76.6094 38.2064 35.6669 0.0000 0.0000 0.0000
# 2 38.2064 70.5516 37.8732 0.0000 0.0000 0.0000
# 3 35.6669 37.8732 90.3526 0.0000 0.0000 0.0000
# 4 0.0000 0.0000 0.0000 24.2938 0.0000 0.0000
# 5 0.0000 0.0000 0.0000 0.0000 28.8501 0.0000
# 6 0.0000 0.0000 0.0000 0.0000 0.0000 32.4943
#
#
#
# Elastic Compliance Matrix: (Units=1/GPa)
#
#
# Indices 1 2 3 4 5 6 
#
# 1 0.018998 -0.008080 -0.004112 0.000000 0.000000 0.000000
# 2 -0.008080 0.021726 -0.005917 0.000000 0.000000 0.000000
# 3 -0.004112 -0.005917 0.015171 0.000000 0.000000 0.000000
# 4 0.000000 0.000000 0.000000 0.041163 0.000000 0.000000
# 5 0.000000 0.000000 0.000000 0.000000 0.034662 0.000000
# 6 0.000000 0.000000 0.000000 0.000000 0.000000 0.030775
#
#
# Mechanical properties :
#
#
# Convention : Reuss Voigt Hill
#
# Bulk Modulus (GPa) = 50.82477 51.22296 51.02386
# Shear Modulus (GPa) = 24.35778 25.51211 24.93495
#
# Velocity S-wave (km/s) = 3.50481 3.58689 3.54609
# Velocity P-wave (km/s) = 6.48146 6.55639 6.51903
#
# Compressibility (1/GPa) = 0.01967545
#
# Stress axis : x y z
#
# Youngs Moduli (GPa) = 52.63817 46.02698 65.91324
#
# Poissons Ratio (x) = 0.37192 0.27105
# Poissons Ratio (y) = 0.42534 0.39003
# Poissons Ratio (z) = 0.21646 0.27236
#
# Static dielectric constant tensor:
#      x y z
#    x 3.677070 0.000000 0.000000 
#    y 0.000000 4.072070 0.000000 
#    z 0.000000 0.000000 3.695670 
# 
# 
# High freq. dielectric constant tensor:
#      x y z
#    x 1.777210 0.000000 0.000000 
#    y 0.000000 1.769350 0.000000 
#    z 0.000000 0.000000 1.774290 
# 
# From -- ./inp_files/11082.got.cif
#   From: 2010.03.12/outbox.cif.g09.slc.cpg/sg36_6_cif.got.tgz:11082.got - 2010.04.14 02:13:53.
