data_PCOD8174588
_publ_section_title
;
Structure prediction by ZEFSAII (Michael W. Deem and Ramdas Pophale) SiO2 
 PCOD8174588
Probable space group: C M C 21
;
_chemical_formula_sum "Si O2"
_cell_formula_units_Z 64
_cell_length_a 9.059300
_cell_length_b 28.330516
_cell_length_c 14.177594
_cell_angle_alpha 90.000000
_cell_angle_beta 90.000000
_cell_angle_gamma 90.000000
_cell_volume 3638.745335
_symmetry_space_group_name_H-M "C M C 21"
_symmetry_group_IT_number 36
_symmetry_cell_setting 'orthorhombic'
loop_
_space_group_symop_operation_xyz
x,y,z
-x,-y,1/2+z
x,-y,1/2+z
-x,y,z
1/2+x,1/2+y,z
1/2-x,1/2-y,1/2+z
1/2+x,1/2-y,1/2+z
1/2-x,1/2+y,z
loop_
_atom_site_type_symbol
_atom_site_label
_atom_site_fract_x
_atom_site_fract_y
_atom_site_fract_z
Si Si1 0.169065 0.122557 0.568500
Si Si2 0.671565 0.125300 0.765331
Si Si3 0.325637 0.125600 0.064632
Si Si4 0.826818 0.805185 0.909658
Si Si5 0.676108 0.122483 0.277218
Si Si6 0.828396 0.547826 0.917564
Si Si7 0.824013 0.698493 0.915704
Si Si8 0.826400 0.949405 0.908600
O O1 0.259947 0.121951 0.663223
O O2 0.203212 0.170146 0.510057
O O3 0.213306 0.077450 0.505456
O O4 0.000000 0.120159 0.598110
O O5 0.500000 0.132174 0.750286
O O6 0.703887 0.077654 0.823308
O O7 0.733726 0.170591 0.822999
O O8 0.500000 0.129585 0.067275
O O9 0.263333 0.124169 0.170244
O O10 0.281881 0.078079 0.009048
O O11 0.263362 0.171457 0.008784
O O12 0.735961 0.830921 0.828119
O O13 0.765814 0.751932 0.915330
O O14 0.000000 0.807842 0.884336
O O15 0.500000 0.121194 0.283061
O O16 0.740598 0.075072 0.322780
O O17 0.724034 0.502842 0.916913
O O18 0.000000 0.532841 0.922351
O O19 0.000000 0.697502 0.917102
O O20 0.000000 0.946186 0.887839
#
# Coordination Sequence:
#
# PCOD8174588 Si02
#       8
#     8   8   8   8   8   8   8   8
#     4   9  19  33  48  69  98 130 162 198 241 288
#     4   9  18  32  52  75  97 126 163 201 241 285
#     4   8  16  31  51  74  98 126 162 201 240 286
#     4   9  18  33  51  71  99 134 165 195 238 289
#     4  10  19  32  52  76  99 125 161 204 244 281
#     4   9  18  34  53  73  97 125 161 202 242 286
#     4   8  15  31  52  72  98 131 163 196 239 290
#     4  10  21  36  51  70  98 131 163 195 241 295
#
# _framework density 17.588480000000001
#
# number of rings (size 3 to 8) (size 9 to 14) (size 15 to 20)
#    0.000    3.000    0.000    3.000    0.000    5.000 
#    0.000    6.875    0.000    3.750    0.000    0.000 
#    0.000    0.000    0.000    0.000    0.000    0.000 
#
# Total GULP energy -396712.720080 kJ/mol
# GULP energy per Si atom -12397.272503 kJ/mol
# Density = 1.754845 g / cm^3
# Si number density = 17.588480 Si / 1000 Ang^3
#
#
#
# Elastic Constant Matrix: (Units=GPa)
#
#
# Indices 1 2 3 4 5 6 
#
# 1 46.5456 41.1409 46.9863 0.0000 0.0000 0.0000
# 2 41.1409 137.8644 71.4643 0.0000 0.0000 0.0000
# 3 46.9863 71.4643 159.0835 0.0000 0.0000 0.0000
# 4 0.0000 0.0000 0.0000 12.0439 0.0000 0.0000
# 5 0.0000 0.0000 0.0000 0.0000 17.1116 0.0000
# 6 0.0000 0.0000 0.0000 0.0000 0.0000 26.3759
#
#
#
# Elastic Compliance Matrix: (Units=1/GPa)
#
#
# Indices 1 2 3 4 5 6 
#
# 1 0.034634 -0.006560 -0.007282 0.000000 0.000000 0.000000
# 2 -0.006560 0.010698 -0.002868 0.000000 0.000000 0.000000
# 3 -0.007282 -0.002868 0.009725 0.000000 0.000000 0.000000
# 4 0.000000 0.000000 0.000000 0.083030 0.000000 0.000000
# 5 0.000000 0.000000 0.000000 0.000000 0.058440 0.000000
# 6 0.000000 0.000000 0.000000 0.000000 0.000000 0.037913
#
#
# Mechanical properties :
#
#
# Convention : Reuss Voigt Hill
#
# Bulk Modulus (GPa) = 46.21986 73.63074 59.92530
# Shear Modulus (GPa) = 18.17690 23.36641 20.77166
#
# Velocity S-wave (km/s) = 3.21823 3.64882 3.44027
# Velocity P-wave (km/s) = 6.33600 7.72695 7.06579
#
# Compressibility (1/GPa) = 0.02163572
#
# Stress axis : x y z
#
# Youngs Moduli (GPa) = 28.87312 93.47545 102.82442
#
# Poissons Ratio (x) = 0.61325 0.74880
# Poissons Ratio (y) = 0.18942 0.29491
# Poissons Ratio (z) = 0.21026 0.26810
#
# Static dielectric constant tensor:
#      x y z
#    x 2.991640 0.000000 0.000000 
#    y 0.000000 3.868020 0.000000 
#    z 0.000000 0.000000 3.535450 
# 
# 
# High freq. dielectric constant tensor:
#      x y z
#    x 1.655910 0.000000 0.000000 
#    y 0.000000 1.685920 0.000000 
#    z 0.000000 0.000000 1.684210 
# 
# From -- ./inp_files/11222.got.cif
#   From: 2010.03.12/outbox.cif.g09.slc.cpg/sg36_6_cif.got.tgz:11222.got - 2010.04.14 02:13:53.
