data_PCOD8174793
_publ_section_title
;
Structure prediction by ZEFSAII (Michael W. Deem and Ramdas Pophale) SiO2 
 PCOD8174793
Probable space group: C M C 21
;
_chemical_formula_sum "Si O2"
_cell_formula_units_Z 64
_cell_length_a 8.953558
_cell_length_b 20.418256
_cell_length_c 18.068542
_cell_angle_alpha 90.000000
_cell_angle_beta 90.000000
_cell_angle_gamma 90.000000
_cell_volume 3303.219285
_symmetry_space_group_name_H-M "C M C 21"
_symmetry_group_IT_number 36
_symmetry_cell_setting 'orthorhombic'
loop_
_space_group_symop_operation_xyz
x,y,z
-x,-y,1/2+z
x,-y,1/2+z
-x,y,z
1/2+x,1/2+y,z
1/2-x,1/2-y,1/2+z
1/2+x,1/2-y,1/2+z
1/2-x,1/2+y,z
loop_
_atom_site_type_symbol
_atom_site_label
_atom_site_fract_x
_atom_site_fract_y
_atom_site_fract_z
Si Si1 0.324065 0.503999 0.962980
Si Si2 0.826433 0.115933 0.565544
Si Si3 0.324393 0.875491 0.538263
Si Si4 0.175607 0.124509 0.735811
Si Si5 0.168129 0.255176 0.049280
Si Si6 0.175935 0.503999 0.811094
Si Si7 0.668129 0.744824 0.224794
Si Si8 0.826433 0.384067 0.708530
O O1 0.500000 0.510952 0.952360
O O2 0.250000 0.480168 0.887037
O O3 0.282602 0.451091 0.025390
O O4 0.257323 0.573507 0.985612
O O5 0.781257 0.108102 0.651218
O O6 0.737696 0.175106 0.526265
O O7 0.000000 0.132864 0.558037
O O8 0.500000 0.879202 0.524425
O O9 0.266267 0.803545 0.515424
O O10 0.281257 0.891898 0.622856
O O11 0.257323 0.073507 0.788462
O O12 0.233733 0.196455 0.758651
O O13 0.000000 0.120798 0.749649
O O14 0.171522 0.250000 0.137037
O O15 0.000000 0.250460 0.018340
O O16 0.217398 0.451091 0.748684
O O17 0.000000 0.510952 0.821715
O O18 0.500000 0.749540 0.255734
O O19 0.737696 0.675106 0.247809
O O20 0.000000 0.367136 0.716037
#
# Coordination Sequence:
#
# PCOD8174793 Si02
#       8
#     8   8   8   8   8   8   8   8
#     4  11  23  38  54  76 108 143 180 220 264 315
#     4   9  19  35  56  81 108 139 176 220 268 318
#     4  10  19  34  57  82 108 139 176 219 267 317
#     4  10  19  34  57  82 108 139 176 219 267 317
#     4   9  17  30  52  82 111 137 171 218 267 316
#     4  11  23  38  54  76 108 143 180 220 264 315
#     4   9  17  30  52  82 111 137 171 218 267 316
#     4   9  19  35  56  81 108 139 176 220 268 318
#
# _framework density 19.375039000000001
#
# number of rings (size 3 to 8) (size 9 to 14) (size 15 to 20)
#    0.000    2.250    0.000    3.000    0.000    6.000 
#    0.000    1.250    0.000    3.000    0.000    0.000 
#    0.000    0.000    0.000    0.000    0.000    0.000 
#
# Total GULP energy -396907.602103 kJ/mol
# GULP energy per Si atom -12403.362566 kJ/mol
# Density = 1.933094 g / cm^3
# Si number density = 19.375039 Si / 1000 Ang^3
#
#
#
# Elastic Constant Matrix: (Units=GPa)
#
#
# Indices 1 2 3 4 5 6 
#
# 1 94.6801 43.9077 24.3638 0.0000 0.0000 0.0000
# 2 43.9077 99.5595 13.0068 0.0000 0.0000 0.0000
# 3 24.3638 13.0068 41.4099 0.0000 0.0000 0.0000
# 4 0.0000 0.0000 0.0000 8.9462 0.0000 0.0000
# 5 0.0000 0.0000 0.0000 0.0000 26.4277 0.0000
# 6 0.0000 0.0000 0.0000 0.0000 0.0000 39.3771
#
#
#
# Elastic Compliance Matrix: (Units=1/GPa)
#
#
# Indices 1 2 3 4 5 6 
#
# 1 0.015020 -0.005704 -0.007046 0.000000 0.000000 0.000000
# 2 -0.005704 0.012640 -0.000614 0.000000 0.000000 0.000000
# 3 -0.007046 -0.000614 0.028487 0.000000 0.000000 0.000000
# 4 0.000000 0.000000 0.000000 0.111780 0.000000 0.000000
# 5 0.000000 0.000000 0.000000 0.000000 0.037839 0.000000
# 6 0.000000 0.000000 0.000000 0.000000 0.000000 0.025395
#
#
# Mechanical properties :
#
#
# Convention : Reuss Voigt Hill
#
# Bulk Modulus (GPa) = 33.99079 44.24512 39.11796
# Shear Modulus (GPa) = 18.67797 25.24159 21.95978
#
# Velocity S-wave (km/s) = 3.10824 3.61333 3.37026
# Velocity P-wave (km/s) = 5.51935 6.34775 5.94799
#
# Compressibility (1/GPa) = 0.02941973
#
# Stress axis : x y z
#
# Youngs Moduli (GPa) = 66.57808 79.11437 35.10356
#
# Poissons Ratio (x) = 0.45124 0.24733
# Poissons Ratio (y) = 0.37974 0.02157
# Poissons Ratio (z) = 0.46908 0.04861
#
# Static dielectric constant tensor:
#      x y z
#    x 3.620700 0.000000 0.000000 
#    y 0.000000 3.646380 0.000000 
#    z 0.000000 0.000000 3.320560 
# 
# 
# High freq. dielectric constant tensor:
#      x y z
#    x 1.764640 0.000000 0.000000 
#    y 0.000000 1.766670 0.000000 
#    z 0.000000 0.000000 1.719190 
# 
# From -- ./inp_files/13932.got.cif
#   From: 2010.03.12/outbox.cif.g09.slc.cpg/sg36_7_cif.got.tgz:13932.got - 2010.04.14 02:13:53.
