data_PCOD8174112
_publ_section_title
;
Structure prediction by ZEFSAII (Michael W. Deem and Ramdas Pophale) SiO2 
 PCOD8174112
Probable space group: C M M 2
;
_chemical_formula_sum "Si O2"
_cell_formula_units_Z 56
_cell_length_a 8.495649
_cell_length_b 18.613957
_cell_length_c 18.128067
_cell_angle_alpha 90.000000
_cell_angle_beta 90.000000
_cell_angle_gamma 90.000000
_cell_volume 2866.729827
_symmetry_space_group_name_H-M "C M M 2"
_symmetry_group_IT_number 35
_symmetry_cell_setting 'orthorhombic'
loop_
_space_group_symop_operation_xyz
x,y,z
-x,-y,z
-x,y,z
x,-y,z
1/2+x,1/2+y,z
1/2-x,1/2-y,z
1/2-x,1/2+y,z
1/2+x,1/2-y,z
loop_
_atom_site_type_symbol
_atom_site_label
_atom_site_fract_x
_atom_site_fract_y
_atom_site_fract_z
Si Si1 0.817141 0.825315 0.497140
Si Si2 0.179327 0.414399 0.371496
Si Si3 0.812794 0.418248 0.054077
Si Si4 0.815953 0.671048 0.918064
Si Si5 0.313506 0.079454 0.213030
Si Si6 0.685352 0.828591 0.654509
Si Si7 0.816528 0.083287 0.784660
O O1 0.750000 0.750000 0.467539
O O2 0.793498 0.884060 0.433874
O O3 0.724532 0.849005 0.570387
O O4 0.000000 0.817643 0.516860
O O5 0.191504 0.500000 0.371141
O O6 0.238195 0.383783 0.290771
O O7 0.000000 0.390065 0.387700
O O8 0.749570 0.500000 0.044756
O O9 0.762235 0.384564 0.134694
O O10 0.000000 0.419806 0.047892
O O11 0.740471 0.368209 0.989884
O O12 0.750000 0.750000 0.908556
O O13 0.780855 0.624963 0.846088
O O14 0.000000 0.677639 0.928429
O O15 0.500000 0.073555 0.216270
O O16 0.240514 0.000000 0.210665
O O17 0.500000 0.830432 0.667920
O O18 0.750000 0.750000 0.674817
O O19 0.769288 0.887575 0.704722
O O20 0.000000 0.095933 0.798559
O O21 0.770918 0.000000 0.788498
#
# Coordination Sequence:
#
# PCOD8174112 Si02
#       7
#     8   8   8   8   8   8   8
#     4  11  22  37  56  78 108 144 182 222 267 318
#     4   9  17  31  53  80 109 142 181 223 268 320
#     4   8  14  27  50  78 104 134 177 226 271 316
#     4  11  22  36  55  79 110 146 183 221 264 317
#     4   7  11  23  46  75 104 135 174 220 268 317
#     4  11  22  39  62  84 109 140 177 218 263 318
#     4  11  24  41  60  83 111 140 174 218 266 315
#
# _framework density 19.534454
#
# number of rings (size 3 to 8) (size 9 to 14) (size 15 to 20)
#    0.000    2.286    0.000    6.857    0.000    2.571 
#    0.000    0.714    0.000    3.429    0.000    4.000 
#    0.000    0.000    0.000    0.000    0.000    0.000 
#
# Total GULP energy -347018.841608 kJ/mol
# GULP energy per Si atom -12393.530057 kJ/mol
# Density = 1.948999 g / cm^3
# Si number density = 19.534454 Si / 1000 Ang^3
#
#
#
# Elastic Constant Matrix: (Units=GPa)
#
#
# Indices 1 2 3 4 5 6 
#
# 1 43.9155 21.0523 9.7039 0.0000 0.0000 0.0000
# 2 21.0523 88.3613 60.3402 0.0000 0.0000 0.0000
# 3 9.7039 60.3402 133.5493 0.0000 0.0000 0.0000
# 4 0.0000 0.0000 0.0000 39.4199 0.0000 0.0000
# 5 0.0000 0.0000 0.0000 0.0000 10.1785 0.0000
# 6 0.0000 0.0000 0.0000 0.0000 0.0000 13.3237
#
#
#
# Elastic Compliance Matrix: (Units=1/GPa)
#
#
# Indices 1 2 3 4 5 6 
#
# 1 0.025864 -0.007056 0.001309 0.000000 0.000000 0.000000
# 2 -0.007056 0.018292 -0.007752 0.000000 0.000000 0.000000
# 3 0.001309 -0.007752 0.010895 0.000000 0.000000 0.000000
# 4 0.000000 0.000000 0.000000 0.025368 0.000000 0.000000
# 5 0.000000 0.000000 0.000000 0.000000 0.098246 0.000000
# 6 0.000000 0.000000 0.000000 0.000000 0.000000 0.075054
#
#
# Mechanical properties :
#
#
# Convention : Reuss Voigt Hill
#
# Bulk Modulus (GPa) = 35.64671 49.77987 42.71329
# Shear Modulus (GPa) = 17.23726 24.23306 20.73516
#
# Velocity S-wave (km/s) = 2.97375 3.52594 3.26155
# Velocity P-wave (km/s) = 5.48440 6.48959 6.00805
#
# Compressibility (1/GPa) = 0.02805308
#
# Stress axis : x y z
#
# Youngs Moduli (GPa) = 38.66337 54.66893 91.78296
#
# Poissons Ratio (x) = 0.38574 -0.12011
# Poissons Ratio (y) = 0.27280 0.71150
# Poissons Ratio (z) = -0.05060 0.42379
#
# Static dielectric constant tensor:
#      x y z
#    x 3.318330 0.000000 0.000000 
#    y 0.000000 3.447910 0.000000 
#    z 0.000000 0.000000 3.988970 
# 
# 
# High freq. dielectric constant tensor:
#      x y z
#    x 1.738040 0.000000 0.000000 
#    y 0.000000 1.735750 0.000000 
#    z 0.000000 0.000000 1.785560 
# 
# From -- ./inp_files/18209.got.cif
#   From: 2010.03.12/outbox.cif.g09.slc.cpg/sg35_10_cif.got.tgz:18209.got - 2010.04.14 02:02:04.
