data_PCOD8174249
_publ_section_title
;
Structure prediction by ZEFSAII (Michael W. Deem and Ramdas Pophale) SiO2 
 PCOD8174249
Probable space group: C M C 21
;
_chemical_formula_sum "Si O2"
_cell_formula_units_Z 64
_cell_length_a 9.375407
_cell_length_b 23.864446
_cell_length_c 14.633347
_cell_angle_alpha 90.000000
_cell_angle_beta 90.000000
_cell_angle_gamma 90.000000
_cell_volume 3274.048874
_symmetry_space_group_name_H-M "C M C 21"
_symmetry_group_IT_number 36
_symmetry_cell_setting 'orthorhombic'
loop_
_space_group_symop_operation_xyz
x,y,z
-x,-y,1/2+z
x,-y,1/2+z
-x,y,z
1/2+x,1/2+y,z
1/2-x,1/2-y,1/2+z
1/2+x,1/2-y,1/2+z
1/2-x,1/2+y,z
loop_
_atom_site_type_symbol
_atom_site_label
_atom_site_fract_x
_atom_site_fract_y
_atom_site_fract_z
Si Si1 0.664988 0.440975 0.565270
Si Si2 0.664153 0.911570 0.867430
Si Si3 0.333652 0.360085 0.712376
Si Si4 0.338028 0.794324 0.961808
Si Si5 0.169224 0.952034 0.174711
Si Si6 0.333547 0.246324 0.802117
Si Si7 0.332209 0.839328 0.151351
Si Si8 0.334153 0.483120 0.378048
O O1 0.500000 0.451263 0.581653
O O2 0.705611 0.380430 0.609380
O O3 0.731894 0.495208 0.617409
O O4 0.699725 0.437466 0.457421
O O5 0.500000 0.925673 0.849299
O O6 0.743436 0.902873 0.772216
O O7 0.683988 0.858068 0.931081
O O8 0.742285 0.964146 0.912793
O O9 0.500000 0.368736 0.734659
O O10 0.288152 0.296557 0.733152
O O11 0.500000 0.774195 0.948557
O O12 0.244941 0.751878 0.899892
O O13 0.295311 0.795290 0.069028
O O14 0.244141 0.895890 0.138529
O O15 0.214491 0.959505 0.280707
O O16 0.000000 0.943815 0.165004
O O17 0.500000 0.248390 0.823724
O O18 0.291756 0.189793 0.748173
O O19 0.500000 0.853459 0.146783
O O20 0.500000 0.500303 0.376473
#
# Coordination Sequence:
#
# PCOD8174249 Si02
#       8
#     8   8   8   8   8   8   8   8
#     4   9  17  31  52  77 103 130 170 219 262 308
#     4  10  18  29  49  76 104 136 173 211 257 310
#     4   9  16  32  54  73  97 129 169 219 262 301
#     4   9  19  35  55  80 108 139 178 221 265 314
#     4  10  20  34  52  79 107 138 178 216 263 317
#     4   9  19  35  57  80 102 135 180 222 264 312
#     4  10  21  38  55  78 111 144 177 217 266 320
#     4  10  19  32  50  75 106 137 173 215 259 312
#
# _framework density 19.547663
#
# number of rings (size 3 to 8) (size 9 to 14) (size 15 to 20)
#    0.000    2.500    1.250    1.125    0.000    2.000 
#    2.250    0.625    0.000    0.000    0.000    0.000 
#    0.000    0.000    0.000    0.000    0.000    0.000 
#
# Total GULP energy -396558.469643 kJ/mol
# GULP energy per Si atom -12392.452176 kJ/mol
# Density = 1.950317 g / cm^3
# Si number density = 19.547663 Si / 1000 Ang^3
#
#
#
# Elastic Constant Matrix: (Units=GPa)
#
#
# Indices 1 2 3 4 5 6 
#
# 1 41.8228 9.5848 12.3666 0.0000 0.0000 0.0000
# 2 9.5848 35.7244 4.8226 0.0000 0.0000 0.0000
# 3 12.3666 4.8226 85.4608 0.0000 0.0000 0.0000
# 4 0.0000 0.0000 0.0000 25.5696 0.0000 0.0000
# 5 0.0000 0.0000 0.0000 0.0000 19.9930 0.0000
# 6 0.0000 0.0000 0.0000 0.0000 0.0000 20.5726
#
#
#
# Elastic Compliance Matrix: (Units=1/GPa)
#
#
# Indices 1 2 3 4 5 6 
#
# 1 0.026451 -0.006631 -0.003453 0.000000 0.000000 0.000000
# 2 -0.006631 0.029869 -0.000726 0.000000 0.000000 0.000000
# 3 -0.003453 -0.000726 0.012242 0.000000 0.000000 0.000000
# 4 0.000000 0.000000 0.000000 0.039109 0.000000 0.000000
# 5 0.000000 0.000000 0.000000 0.000000 0.050017 0.000000
# 6 0.000000 0.000000 0.000000 0.000000 0.000000 0.048608
#
#
# Mechanical properties :
#
#
# Convention : Reuss Voigt Hill
#
# Bulk Modulus (GPa) = 21.30287 24.06176 22.68232
# Shear Modulus (GPa) = 20.52847 22.30933 21.41890
#
# Velocity S-wave (km/s) = 3.24416 3.38195 3.31377
# Velocity P-wave (km/s) = 4.99543 5.25225 5.12545
#
# Compressibility (1/GPa) = 0.04694203
#
# Stress axis : x y z
#
# Youngs Moduli (GPa) = 37.80560 33.47947 81.68625
#
# Poissons Ratio (x) = 0.22199 0.28210
# Poissons Ratio (y) = 0.25067 0.05931
# Poissons Ratio (z) = 0.13056 0.02431
#
# Static dielectric constant tensor:
#      x y z
#    x 3.364780 0.000000 0.000000 
#    y 0.000000 3.404470 0.000000 
#    z 0.000000 0.000000 3.845460 
# 
# 
# High freq. dielectric constant tensor:
#      x y z
#    x 1.735970 0.000000 0.000000 
#    y 0.000000 1.744450 0.000000 
#    z 0.000000 0.000000 1.767830 
# 
# From -- ./inp_files/10870.got.cif
#   From: 2010.03.12/outbox.cif.g09.slc.cpg/sg36_6_cif.got.tgz:10870.got - 2010.04.14 02:13:53.
