data_PCOD8174994
_publ_section_title
;
Structure prediction by ZEFSAII (Michael W. Deem and Ramdas Pophale) SiO2 
 PCOD8174994
Probable space group: C M C 21
;
_chemical_formula_sum "Si O2"
_cell_formula_units_Z 52
_cell_length_a 15.326030
_cell_length_b 21.348556
_cell_length_c 8.551619
_cell_angle_alpha 90.000000
_cell_angle_beta 90.000000
_cell_angle_gamma 90.000000
_cell_volume 2797.992331
_symmetry_space_group_name_H-M "C M C 21"
_symmetry_group_IT_number 36
_symmetry_cell_setting 'orthorhombic'
loop_
_space_group_symop_operation_xyz
x,y,z
-x,-y,1/2+z
x,-y,1/2+z
-x,y,z
1/2+x,1/2+y,z
1/2-x,1/2-y,1/2+z
1/2+x,1/2-y,1/2+z
1/2-x,1/2+y,z
loop_
_atom_site_type_symbol
_atom_site_label
_atom_site_fract_x
_atom_site_fract_y
_atom_site_fract_z
Si Si1 0.500000 0.082586 0.898480
Si Si2 0.684321 0.197891 0.110091
Si Si3 0.843812 0.789281 0.837191
Si Si4 0.100451 0.073389 0.402677
Si Si5 0.204719 0.987127 0.177921
Si Si6 0.186569 0.434925 0.448347
Si Si7 0.000000 0.684242 0.130117
Si Si8 0.500000 0.213594 0.789723
O O1 0.410099 0.043078 0.886875
O O2 0.500000 0.138168 0.764683
O O3 0.500000 0.111880 0.074114
O O4 0.761839 0.195130 0.230231
O O5 0.592882 0.199301 0.213363
O O6 0.691333 0.257047 0.995225
O O7 0.683215 0.137512 0.997107
O O8 0.892647 0.852745 0.880596
O O9 0.910349 0.746454 0.732352
O O10 0.142267 0.038924 0.254011
O O11 0.000000 0.053313 0.415531
O O12 0.149176 0.055083 0.561395
O O13 0.244368 0.941284 0.308339
O O14 0.284699 0.021522 0.091638
O O15 0.000000 0.728604 0.975943
#
# Coordination Sequence:
#
# PCOD8174994 Si02
#       8
#     4   8   8   8   8   8   4   4
#     4   8  16  32  60  76 112 144 176 228 284 331
#     4  10  20  35  57  82 110 143 185 232 282 326
#     4  11  20  34  59  84 106 148 185 226 281 340
#     4  11  22  38  60  81 112 152 192 233 281 338
#     4  10  23  37  56  82 115 146 196 229 279 332
#     4  10  19  38  55  81 112 148 183 238 276 335
#     4   6  14  32  51  71 104 141 168 212 275 323
#     4   8  16  32  51  79 106 141 176 214 279 336
#
# _framework density 18.584752999999999
#
# number of rings (size 3 to 8) (size 9 to 14) (size 15 to 20)
#    0.462    1.846    3.846    0.462    2.154    0.615 
#    0.000    0.769    1.692    0.923    0.000    0.000 
#    0.000    0.000    0.000    0.000    0.000    0.000 
#
# Total GULP energy -322131.694996 kJ/mol
# GULP energy per Si atom -12389.680577 kJ/mol
# Density = 1.854245 g / cm^3
# Si number density = 18.584753 Si / 1000 Ang^3
#
#
#
# Elastic Constant Matrix: (Units=GPa)
#
#
# Indices 1 2 3 4 5 6 
#
# 1 140.9163 34.6418 30.7339 0.0000 0.0000 0.0000
# 2 34.6418 58.8018 15.8455 0.0000 0.0000 0.0000
# 3 30.7339 15.8455 49.8950 0.0000 0.0000 0.0000
# 4 0.0000 0.0000 0.0000 17.4558 0.0000 0.0000
# 5 0.0000 0.0000 0.0000 0.0000 18.7301 0.0000
# 6 0.0000 0.0000 0.0000 0.0000 0.0000 28.1969
#
#
#
# Elastic Compliance Matrix: (Units=1/GPa)
#
#
# Indices 1 2 3 4 5 6 
#
# 1 0.009052 -0.004189 -0.004246 0.000000 0.000000 0.000000
# 2 -0.004189 0.020536 -0.003942 0.000000 0.000000 0.000000
# 3 -0.004246 -0.003942 0.023909 0.000000 0.000000 0.000000
# 4 0.000000 0.000000 0.000000 0.057288 0.000000 0.000000
# 5 0.000000 0.000000 0.000000 0.000000 0.053390 0.000000
# 6 0.000000 0.000000 0.000000 0.000000 0.000000 0.035465
#
#
# Mechanical properties :
#
#
# Convention : Reuss Voigt Hill
#
# Bulk Modulus (GPa) = 34.78829 45.78393 40.28611
# Shear Modulus (GPa) = 21.36992 24.10268 22.73630
#
# Velocity S-wave (km/s) = 3.39464 3.60517 3.50149
# Velocity P-wave (km/s) = 5.84159 6.48215 6.17019
#
# Compressibility (1/GPa) = 0.02874531
#
# Stress axis : x y z
#
# Youngs Moduli (GPa) = 110.47145 48.69450 41.82517
#
# Poissons Ratio (x) = 0.20397 0.17757
# Poissons Ratio (y) = 0.46274 0.16486
# Poissons Ratio (z) = 0.46902 0.19194
#
# Static dielectric constant tensor:
#      x y z
#    x 3.782700 0.000000 0.000000 
#    y 0.000000 3.275190 0.000000 
#    z 0.000000 0.000000 3.027820 
# 
# 
# High freq. dielectric constant tensor:
#      x y z
#    x 1.747760 0.000000 0.000000 
#    y 0.000000 1.713880 0.000000 
#    z 0.000000 0.000000 1.678270 
# 
# From -- ./inp_files/4169.got.cif
#   From: 2010.03.12/outbox.cif.g09.slc.cpg/sg36_3_cif.got.tgz:4169.got - 2010.04.14 02:13:53.
