data_PCOD8174310
_publ_section_title
;
Structure prediction by ZEFSAII (Michael W. Deem and Ramdas Pophale) SiO2 
 PCOD8174310
Probable space group: C M C 21
;
_chemical_formula_sum "Si O2"
_cell_formula_units_Z 64
_cell_length_a 8.638711
_cell_length_b 20.152271
_cell_length_c 20.026858
_cell_angle_alpha 90.000000
_cell_angle_beta 90.000000
_cell_angle_gamma 90.000000
_cell_volume 3486.468603
_symmetry_space_group_name_H-M "C M C 21"
_symmetry_group_IT_number 36
_symmetry_cell_setting 'orthorhombic'
loop_
_space_group_symop_operation_xyz
x,y,z
-x,-y,1/2+z
x,-y,1/2+z
-x,y,z
1/2+x,1/2+y,z
1/2-x,1/2-y,1/2+z
1/2+x,1/2-y,1/2+z
1/2-x,1/2+y,z
loop_
_atom_site_type_symbol
_atom_site_label
_atom_site_fract_x
_atom_site_fract_y
_atom_site_fract_z
Si Si1 0.317400 0.303270 0.740740
Si Si2 0.183516 0.090376 0.483446
Si Si3 0.317103 0.579547 0.333924
Si Si4 0.817312 0.170765 0.707864
Si Si5 0.316592 0.476398 0.585344
Si Si6 0.817107 0.661307 0.099481
Si Si7 0.682849 0.795681 0.066353
Si Si8 0.816875 0.975672 0.228852
O O1 0.500000 0.298004 0.731364
O O2 0.270539 0.349290 0.803001
O O3 0.247989 0.230098 0.753712
O O4 0.249048 0.335640 0.674193
O O5 0.245740 0.074343 0.409111
O O6 0.263783 0.158479 0.505486
O O7 0.000000 0.100927 0.485397
O O8 0.235435 0.030166 0.530707
O O9 0.500000 0.571570 0.334238
O O10 0.245577 0.520408 0.288378
O O11 0.744927 0.172802 0.634610
O O12 0.000000 0.178218 0.699715
O O13 0.770984 0.100929 0.741682
O O14 0.500000 0.466947 0.585471
O O15 0.236985 0.407097 0.565617
O O16 0.252822 0.500084 0.657317
O O17 0.751815 0.722157 0.055654
O O18 0.000000 0.666055 0.101884
O O19 0.500000 0.790779 0.069294
O O20 0.000000 0.983769 0.226797
#
# Coordination Sequence:
#
# PCOD8174310 Si02
#       8
#     8   8   8   8   8   8   8   8
#     4  10  18  32  53  78 108 141 176 219 268 319
#     4  10  20  36  57  79 106 145 183 219 266 328
#     4   9  18  33  55  78 104 142 183 215 263 327
#     4  10  18  31  53  80 108 138 177 224 267 312
#     4  10  18  33  55  79 108 140 179 222 269 319
#     4  11  21  33  53  81 109 137 178 225 270 317
#     4  11  21  34  53  78 108 140 177 224 273 320
#     4   9  16  30  53  79 105 137 175 218 262 314
#
# _framework density 18.356681999999999
#
# number of rings (size 3 to 8) (size 9 to 14) (size 15 to 20)
#    0.000    2.000    2.500    4.500    0.000    0.500 
#    0.000    2.500    0.000    1.500    0.000    0.000 
#    0.000    0.000    0.000    0.000    0.000    0.000 
#
# Total GULP energy -396792.288368 kJ/mol
# GULP energy per Si atom -12399.759012 kJ/mol
# Density = 1.831490 g / cm^3
# Si number density = 18.356682 Si / 1000 Ang^3
#
#
#
# Elastic Constant Matrix: (Units=GPa)
#
#
# Indices 1 2 3 4 5 6 
#
# 1 78.8012 46.8339 25.9493 0.0000 0.0000 0.0000
# 2 46.8339 171.2803 82.4362 0.0000 0.0000 0.0000
# 3 25.9493 82.4362 120.0232 0.0000 0.0000 0.0000
# 4 0.0000 0.0000 0.0000 28.4523 0.0000 0.0000
# 5 0.0000 0.0000 0.0000 0.0000 14.5881 0.0000
# 6 0.0000 0.0000 0.0000 0.0000 0.0000 31.5937
#
#
#
# Elastic Compliance Matrix: (Units=1/GPa)
#
#
# Indices 1 2 3 4 5 6 
#
# 1 0.015186 -0.003842 -0.000644 0.000000 0.000000 0.000000
# 2 -0.003842 0.009694 -0.005827 0.000000 0.000000 0.000000
# 3 -0.000644 -0.005827 0.012473 0.000000 0.000000 0.000000
# 4 0.000000 0.000000 0.000000 0.035147 0.000000 0.000000
# 5 0.000000 0.000000 0.000000 0.000000 0.068549 0.000000
# 6 0.000000 0.000000 0.000000 0.000000 0.000000 0.031652
#
#
# Mechanical properties :
#
#
# Convention : Reuss Voigt Hill
#
# Bulk Modulus (GPa) = 59.78919 75.61594 67.70257
# Shear Modulus (GPa) = 25.13787 29.25248 27.19518
#
# Velocity S-wave (km/s) = 3.70457 3.99627 3.85318
# Velocity P-wave (km/s) = 7.13723 7.91048 7.53378
#
# Compressibility (1/GPa) = 0.01672543
#
# Stress axis : x y z
#
# Youngs Moduli (GPa) = 65.85064 103.16093 80.17113
#
# Poissons Ratio (x) = 0.39637 0.05165
# Poissons Ratio (y) = 0.25302 0.46717
# Poissons Ratio (z) = 0.04242 0.60114
#
# Static dielectric constant tensor:
#      x y z
#    x 3.168550 0.000000 0.000000 
#    y 0.000000 3.718190 0.000000 
#    z 0.000000 0.000000 3.334480 
# 
# 
# High freq. dielectric constant tensor:
#      x y z
#    x 1.693940 0.000000 0.000000 
#    y 0.000000 1.730660 0.000000 
#    z 0.000000 0.000000 1.682100 
# 
# From -- ./inp_files/15831.got.cif
#   From: 2010.03.12/outbox.cif.g09.slc.cpg/sg36_8_cif.got.tgz:15831.got - 2010.04.14 02:13:53.
