data_PCOD8174781
_publ_section_title
;
Structure prediction by ZEFSAII (Michael W. Deem and Ramdas Pophale) SiO2 
 PCOD8174781
Probable space group: C M C 21
;
_chemical_formula_sum "Si O2"
_cell_formula_units_Z 64
_cell_length_a 8.693457
_cell_length_b 23.057628
_cell_length_c 16.424064
_cell_angle_alpha 90.000000
_cell_angle_beta 90.000000
_cell_angle_gamma 90.000000
_cell_volume 3292.211800
_symmetry_space_group_name_H-M "C M C 21"
_symmetry_group_IT_number 36
_symmetry_cell_setting 'orthorhombic'
loop_
_space_group_symop_operation_xyz
x,y,z
-x,-y,1/2+z
x,-y,1/2+z
-x,y,z
1/2+x,1/2+y,z
1/2-x,1/2-y,1/2+z
1/2+x,1/2-y,1/2+z
1/2-x,1/2+y,z
loop_
_atom_site_type_symbol
_atom_site_label
_atom_site_fract_x
_atom_site_fract_y
_atom_site_fract_z
Si Si1 0.183518 0.718468 0.901670
Si Si2 0.182031 0.598880 0.202196
Si Si3 0.677415 0.928648 0.987921
Si Si4 0.678820 0.647317 0.044883
Si Si5 0.679579 0.348481 0.864504
Si Si6 0.833496 0.551703 0.949851
Si Si7 0.317271 0.968210 0.166032
Si Si8 0.667347 0.121006 0.789901
O O1 0.235108 0.782624 0.877852
O O2 0.251169 0.677819 0.827915
O O3 0.000000 0.710804 0.906765
O O4 0.248267 0.698712 0.989773
O O5 0.249015 0.643818 0.135217
O O6 0.230664 0.621131 0.291118
O O7 0.244839 0.533011 0.186704
O O8 0.000000 0.600313 0.196607
O O9 0.500000 0.908228 0.987018
O O10 0.782880 0.878606 0.950672
O O11 0.709165 0.985221 0.933246
O O12 0.732564 0.948369 0.076822
O O13 0.500000 0.660176 0.053540
O O14 0.706590 0.585232 0.002292
O O15 0.500000 0.351494 0.845515
O O16 0.857493 0.577056 0.862505
O O17 0.000000 0.554316 0.997676
O O18 0.500000 0.968212 0.178856
O O19 0.242083 0.916970 0.222372
O O20 0.500000 0.140202 0.754942
#
# Coordination Sequence:
#
# PCOD8174781 Si02
#       8
#     8   8   8   8   8   8   8   8
#     4   9  20  40  60  77 113 160 199 236 290 353
#     4  11  21  38  62  87 117 153 194 240 296 361
#     4  10  19  34  56  83 115 153 195 234 284 354
#     4  11  21  34  58  89 116 145 193 247 291 339
#     4  11  24  40  56  83 120 157 200 250 301 343
#     4   9  16  31  54  80 112 149 188 226 283 354
#     4   9  17  31  56  88 113 139 189 241 281 345
#     4   8  14  28  54  81 102 136 186 236 274 323
#
# _framework density 19.439819
#
# number of rings (size 3 to 8) (size 9 to 14) (size 15 to 20)
#    0.000    2.250    1.250    3.375    0.000    3.500 
#    2.250    0.000    0.000    3.750    0.000    0.000 
#    0.000    0.000    0.000    0.000    0.000    0.000 
#
# Total GULP energy -396486.258257 kJ/mol
# GULP energy per Si atom -12390.195571 kJ/mol
# Density = 1.939557 g / cm^3
# Si number density = 19.439819 Si / 1000 Ang^3
#
#
#
# Elastic Constant Matrix: (Units=GPa)
#
#
# Indices 1 2 3 4 5 6 
#
# 1 53.7692 28.3418 27.2681 0.0000 0.0000 0.0000
# 2 28.3418 148.0542 71.5692 0.0000 0.0000 0.0000
# 3 27.2681 71.5692 97.3699 0.0000 0.0000 0.0000
# 4 0.0000 0.0000 0.0000 27.2094 0.0000 0.0000
# 5 0.0000 0.0000 0.0000 0.0000 22.4389 0.0000
# 6 0.0000 0.0000 0.0000 0.0000 0.0000 21.6614
#
#
#
# Elastic Compliance Matrix: (Units=1/GPa)
#
#
# Indices 1 2 3 4 5 6 
#
# 1 0.022021 -0.001915 -0.004760 0.000000 0.000000 0.000000
# 2 -0.001915 0.010643 -0.007287 0.000000 0.000000 0.000000
# 3 -0.004760 -0.007287 0.016959 0.000000 0.000000 0.000000
# 4 0.000000 0.000000 0.000000 0.036752 0.000000 0.000000
# 5 0.000000 0.000000 0.000000 0.000000 0.044565 0.000000
# 6 0.000000 0.000000 0.000000 0.000000 0.000000 0.046165
#
#
# Mechanical properties :
#
#
# Convention : Reuss Voigt Hill
#
# Bulk Modulus (GPa) = 46.08069 61.50572 53.79320
# Shear Modulus (GPa) = 23.55585 25.72956 24.64270
#
# Velocity S-wave (km/s) = 3.48477 3.64201 3.56426
# Velocity P-wave (km/s) = 6.32038 7.02804 6.68358
#
# Compressibility (1/GPa) = 0.02170106
#
# Stress axis : x y z
#
# Youngs Moduli (GPa) = 45.41132 93.95625 58.96570
#
# Poissons Ratio (x) = 0.17990 0.28065
# Poissons Ratio (y) = 0.08695 0.42967
# Poissons Ratio (z) = 0.21614 0.68464
#
# Static dielectric constant tensor:
#      x y z
#    x 3.206710 0.000000 0.000000 
#    y 0.000000 3.801660 0.000000 
#    z 0.000000 0.000000 3.670830 
# 
# 
# High freq. dielectric constant tensor:
#      x y z
#    x 1.718590 0.000000 0.000000 
#    y 0.000000 1.755600 0.000000 
#    z 0.000000 0.000000 1.760330 
# 
# From -- ./inp_files/10909.got.cif
#   From: 2010.03.12/outbox.cif.g09.slc.cpg/sg36_6_cif.got.tgz:10909.got - 2010.04.14 02:13:53.
