data_PCOD8174436
_publ_section_title
;
Structure prediction by ZEFSAII (Michael W. Deem and Ramdas Pophale) SiO2 
 PCOD8174436
Probable space group: C M C 21
;
_chemical_formula_sum "Si O2"
_cell_formula_units_Z 48
_cell_length_a 7.574726
_cell_length_b 22.414707
_cell_length_c 14.571239
_cell_angle_alpha 90.000000
_cell_angle_beta 90.000000
_cell_angle_gamma 90.000000
_cell_volume 2473.981659
_symmetry_space_group_name_H-M "C M C 21"
_symmetry_group_IT_number 36
_symmetry_cell_setting 'orthorhombic'
loop_
_space_group_symop_operation_xyz
x,y,z
-x,-y,1/2+z
x,-y,1/2+z
-x,y,z
1/2+x,1/2+y,z
1/2-x,1/2-y,1/2+z
1/2+x,1/2-y,1/2+z
1/2-x,1/2+y,z
loop_
_atom_site_type_symbol
_atom_site_label
_atom_site_fract_x
_atom_site_fract_y
_atom_site_fract_z
Si Si1 0.000000 0.992406 0.902941
Si Si2 0.196577 0.115391 0.345108
Si Si3 0.304386 0.299446 0.997664
Si Si4 0.000000 0.878282 0.352577
Si Si5 0.790542 0.333194 0.487376
Si Si6 0.304867 0.083204 0.154758
Si Si7 0.500000 0.639667 0.645429
Si Si8 0.500000 0.499728 0.111912
O O1 0.824386 0.952178 0.885868
O O2 0.000000 0.017749 0.005636
O O3 0.000000 0.050168 0.837070
O O4 0.290226 0.157201 0.422853
O O5 0.312950 0.115910 0.253431
O O6 0.000000 0.138522 0.319003
O O7 0.500000 0.289688 0.957442
O O8 0.217776 0.234181 0.004764
O O9 0.323883 0.331203 0.098071
O O10 0.819925 0.859750 0.403190
O O11 0.000000 0.846891 0.253132
O O12 0.742879 0.369412 0.578893
O O13 0.000000 0.336649 0.465931
O O14 0.500000 0.059028 0.131373
O O15 0.171943 0.027679 0.160191
O O16 0.500000 0.570381 0.622773
#
# Coordination Sequence:
#
# PCOD8174436 Si02
#       8
#     4   8   8   4   8   8   4   4
#     4  10  18  35  65  90 107 159 200 241 304 350
#     4   9  17  36  62  85 107 157 198 237 295 348
#     4   8  17  37  59  80 116 157 195 241 292 341
#     4  12  22  35  64  95 112 157 206 242 298 364
#     4  10  22  39  57  84 126 157 192 247 296 348
#     4  11  22  35  60  93 121 152 197 246 299 360
#     4  10  20  37  68  85 116 165 202 244 302 350
#     4  12  18  41  67  80 121 163 196 247 306 354
#
# _framework density 19.401924000000001
#
# number of rings (size 3 to 8) (size 9 to 14) (size 15 to 20)
#    1.000    1.000    4.167    1.000    0.000    1.333 
#    1.500    4.167    3.667    0.000    0.000    0.000 
#    0.000    0.000    0.000    0.000    0.000    0.000 
#
# Total GULP energy -297347.979680 kJ/mol
# GULP energy per Si atom -12389.499153 kJ/mol
# Density = 1.935776 g / cm^3
# Si number density = 19.401924 Si / 1000 Ang^3
#
#
#
# Elastic Constant Matrix: (Units=GPa)
#
#
# Indices 1 2 3 4 5 6 
#
# 1 64.4293 32.6262 25.5243 0.0000 0.0000 0.0000
# 2 32.6262 133.0559 31.1453 0.0000 0.0000 0.0000
# 3 25.5243 31.1453 120.8690 0.0000 0.0000 0.0000
# 4 0.0000 0.0000 0.0000 16.7188 0.0000 0.0000
# 5 0.0000 0.0000 0.0000 0.0000 11.9592 0.0000
# 6 0.0000 0.0000 0.0000 0.0000 0.0000 8.8955
#
#
#
# Elastic Compliance Matrix: (Units=1/GPa)
#
#
# Indices 1 2 3 4 5 6 
#
# 1 0.018652 -0.003886 -0.002938 0.000000 0.000000 0.000000
# 2 -0.003886 0.008808 -0.001449 0.000000 0.000000 0.000000
# 3 -0.002938 -0.001449 0.009267 0.000000 0.000000 0.000000
# 4 0.000000 0.000000 0.000000 0.059813 0.000000 0.000000
# 5 0.000000 0.000000 0.000000 0.000000 0.083618 0.000000
# 6 0.000000 0.000000 0.000000 0.000000 0.000000 0.112417
#
#
# Mechanical properties :
#
#
# Convention : Reuss Voigt Hill
#
# Bulk Modulus (GPa) = 49.54865 55.21619 52.38242
# Shear Modulus (GPa) = 15.83043 22.78525 19.30784
#
# Velocity S-wave (km/s) = 2.85953 3.43064 3.15802
# Velocity P-wave (km/s) = 6.04119 6.64931 6.35253
#
# Compressibility (1/GPa) = 0.02018218
#
# Stress axis : x y z
#
# Youngs Moduli (GPa) = 53.61213 113.53720 107.90860
#
# Poissons Ratio (x) = 0.44122 0.31699
# Poissons Ratio (y) = 0.20834 0.15635
# Poissons Ratio (z) = 0.15749 0.16450
#
# Static dielectric constant tensor:
#      x y z
#    x 3.119250 0.000000 0.000000 
#    y 0.000000 3.580580 0.000000 
#    z 0.000000 0.000000 3.560400 
# 
# 
# High freq. dielectric constant tensor:
#      x y z
#    x 1.716820 0.000000 0.000000 
#    y 0.000000 1.756350 0.000000 
#    z 0.000000 0.000000 1.758360 
# 
# From -- ./inp_files/10502.got.cif
#   From: 2010.03.12/outbox.cif.g09.slc.cpg/sg36_6_cif.got.tgz:10502.got - 2010.04.14 02:13:53.
