data_PCOD8174917
_publ_section_title
;
Structure prediction by ZEFSAII (Michael W. Deem and Ramdas Pophale) SiO2 
 PCOD8174917
Probable space group: C M C 21
;
_chemical_formula_sum "Si O2"
_cell_formula_units_Z 64
_cell_length_a 8.377943
_cell_length_b 32.286553
_cell_length_c 11.180031
_cell_angle_alpha 90.000000
_cell_angle_beta 90.000000
_cell_angle_gamma 90.000000
_cell_volume 3024.141375
_symmetry_space_group_name_H-M "C M C 21"
_symmetry_group_IT_number 36
_symmetry_cell_setting 'orthorhombic'
loop_
_space_group_symop_operation_xyz
x,y,z
-x,-y,1/2+z
x,-y,1/2+z
-x,y,z
1/2+x,1/2+y,z
1/2-x,1/2-y,1/2+z
1/2+x,1/2-y,1/2+z
1/2-x,1/2+y,z
loop_
_atom_site_type_symbol
_atom_site_label
_atom_site_fract_x
_atom_site_fract_y
_atom_site_fract_z
Si Si1 0.310446 0.014572 0.652530
Si Si2 0.318303 0.578882 0.820798
Si Si3 0.690357 0.924107 0.698211
Si Si4 0.817859 0.576479 0.457229
Si Si5 0.815729 0.777342 0.459658
Si Si6 0.819464 0.359297 0.144665
Si Si7 0.816774 0.635546 0.005472
Si Si8 0.812897 0.228976 0.686517
O O1 0.500000 0.018888 0.660855
O O2 0.240347 0.034201 0.774631
O O3 0.239895 0.041574 0.542795
O O4 0.252816 0.967218 0.637141
O O5 0.500000 0.575901 0.864944
O O6 0.305677 0.614437 0.720344
O O7 0.202752 0.594339 0.925826
O O8 0.500000 0.923615 0.700782
O O9 0.768910 0.922902 0.829601
O O10 0.745503 0.881751 0.633149
O O11 0.807600 0.622875 0.510372
O O12 0.000000 0.563022 0.437239
O O13 0.789925 0.826860 0.456555
O O14 0.761750 0.759678 0.326283
O O15 0.723585 0.761766 0.579758
O O16 0.000000 0.766692 0.479145
O O17 0.779960 0.311313 0.143741
O O18 0.000000 0.365612 0.194602
O O19 0.000000 0.650299 0.008157
O O20 0.000000 0.220409 0.689020
#
# Coordination Sequence:
#
# PCOD8174917 Si02
#       8
#     8   8   8   8   8   8   8   8
#     4   9  18  33  57  84 110 150 200 250 302 357
#     4  11  21  35  56  82 116 154 196 245 295 357
#     4   9  19  33  55  86 118 151 196 253 306 364
#     4   8  16  31  51  82 118 146 187 248 303 356
#     4  11  25  44  66  94 130 168 212 264 323 385
#     4  10  19  35  62  88 114 152 197 245 301 362
#     4  11  22  37  61  90 119 159 205 251 309 371
#     4  11  24  42  66  96 129 164 209 264 319 382
#
# _framework density 21.163032999999999
#
# number of rings (size 3 to 8) (size 9 to 14) (size 15 to 20)
#    0.000    2.000    1.250    3.375    1.750    2.500 
#    0.000    3.750    0.000    7.500    0.000    0.000 
#    0.000    0.000    0.000    0.000    0.000    0.000 
#
# Total GULP energy -396434.911060 kJ/mol
# GULP energy per Si atom -12388.590971 kJ/mol
# Density = 2.111486 g / cm^3
# Si number density = 21.163033 Si / 1000 Ang^3
#
#
#
# Elastic Constant Matrix: (Units=GPa)
#
#
# Indices 1 2 3 4 5 6 
#
# 1 47.9979 12.2121 16.2564 0.0000 0.0000 0.0000
# 2 12.2121 71.6721 37.7343 0.0000 0.0000 0.0000
# 3 16.2564 37.7343 144.2355 0.0000 0.0000 0.0000
# 4 0.0000 0.0000 0.0000 30.6906 0.0000 0.0000
# 5 0.0000 0.0000 0.0000 0.0000 18.0597 0.0000
# 6 0.0000 0.0000 0.0000 0.0000 0.0000 17.3784
#
#
#
# Elastic Compliance Matrix: (Units=1/GPa)
#
#
# Indices 1 2 3 4 5 6 
#
# 1 0.022153 -0.002853 -0.001750 0.000000 0.000000 0.000000
# 2 -0.002853 0.016549 -0.004008 0.000000 0.000000 0.000000
# 3 -0.001750 -0.004008 0.008179 0.000000 0.000000 0.000000
# 4 0.000000 0.000000 0.000000 0.032583 0.000000 0.000000
# 5 0.000000 0.000000 0.000000 0.000000 0.055372 0.000000
# 6 0.000000 0.000000 0.000000 0.000000 0.000000 0.057543
#
#
# Mechanical properties :
#
#
# Convention : Reuss Voigt Hill
#
# Bulk Modulus (GPa) = 33.71773 44.03456 38.87615
# Shear Modulus (GPa) = 22.78040 26.40592 24.59316
#
# Velocity S-wave (km/s) = 3.28445 3.53617 3.41263
# Velocity P-wave (km/s) = 5.50912 6.12577 5.82561
#
# Compressibility (1/GPa) = 0.02965798
#
# Stress axis : x y z
#
# Youngs Moduli (GPa) = 45.14060 60.42799 122.26586
#
# Poissons Ratio (x) = 0.17240 0.21401
# Poissons Ratio (y) = 0.12879 0.49002
# Poissons Ratio (z) = 0.07901 0.24218
#
# Static dielectric constant tensor:
#      x y z
#    x 3.406320 0.000000 0.000000 
#    y 0.000000 3.746740 0.000000 
#    z 0.000000 0.000000 4.366580 
# 
# 
# High freq. dielectric constant tensor:
#      x y z
#    x 1.797110 0.000000 0.000000 
#    y 0.000000 1.821220 0.000000 
#    z 0.000000 0.000000 1.838660 
# 
# From -- ./inp_files/7123.got.cif
#   From: 2010.03.12/outbox.cif.g09.slc.cpg/sg36_4_cif.got.tgz:7123.got - 2010.04.14 02:13:53.
