data_PCOD8174189
_publ_section_title
;
Structure prediction by ZEFSAII (Michael W. Deem and Ramdas Pophale) SiO2 
 PCOD8174189
Probable space group: C M C 21
;
_chemical_formula_sum "Si O2"
_cell_formula_units_Z 64
_cell_length_a 8.930981
_cell_length_b 23.018231
_cell_length_c 17.655510
_cell_angle_alpha 90.000000
_cell_angle_beta 90.000000
_cell_angle_gamma 90.000000
_cell_volume 3629.538243
_symmetry_space_group_name_H-M "C M C 21"
_symmetry_group_IT_number 36
_symmetry_cell_setting 'orthorhombic'
loop_
_space_group_symop_operation_xyz
x,y,z
-x,-y,1/2+z
x,-y,1/2+z
-x,y,z
1/2+x,1/2+y,z
1/2-x,1/2-y,1/2+z
1/2+x,1/2-y,1/2+z
1/2-x,1/2+y,z
loop_
_atom_site_type_symbol
_atom_site_label
_atom_site_fract_x
_atom_site_fract_y
_atom_site_fract_z
Si Si1 0.329920 0.193437 0.140800
Si Si2 0.827934 0.573541 0.085664
Si Si3 0.323453 0.808267 0.093277
Si Si4 0.825306 0.629212 0.297139
Si Si5 0.175759 0.860998 0.947991
Si Si6 0.336046 0.967702 0.003520
Si Si7 0.825710 0.024722 0.227800
Si Si8 0.165760 0.579697 0.672464
O O1 0.500000 0.216948 0.139071
O O2 0.306820 0.143036 0.076961
O O3 0.216718 0.244808 0.122661
O O4 0.290335 0.167258 0.222951
O O5 0.707070 0.551502 0.145868
O O6 0.000000 0.562877 0.115237
O O7 0.801059 0.537656 0.006690
O O8 0.500000 0.813867 0.079207
O O9 0.272771 0.854868 0.157737
O O10 0.242831 0.821203 0.014029
O O11 0.744685 0.659936 0.368307
O O12 0.760983 0.563714 0.289442
O O13 0.000000 0.624987 0.313198
O O14 0.214394 0.929543 0.959492
O O15 0.000000 0.852547 0.946795
O O16 0.500000 0.956009 0.966951
O O17 0.339594 0.951019 0.091394
O O18 0.000000 0.026597 0.246554
O O19 0.770670 0.957318 0.229331
O O20 0.000000 0.581845 0.708504
#
# Coordination Sequence:
#
# PCOD8174189 Si02
#       8
#     8   8   8   8   8   8   8   8
#     4   9  18  32  51  74  98 128 169 213 249 288
#     4   8  15  28  45  66  94 126 155 187 233 287
#     4  10  20  33  50  72 100 135 172 207 248 299
#     4  10  20  35  52  70  98 133 164 199 253 312
#     4  11  21  32  49  74 101 127 163 210 254 297
#     4   8  14  27  46  67  93 124 155 187 233 291
#     4  10  17  25  43  71  96 118 150 193 238 280
#     4   8  15  28  44  64  92 125 156 186 228 284
#
# _framework density 17.633098
#
# number of rings (size 3 to 8) (size 9 to 14) (size 15 to 20)
#    0.000    2.750    0.000    5.250    0.000    7.500 
#    0.000    0.000    0.000    1.500    0.000    8.750 
#    0.000    0.000    0.000    0.000    0.000    0.000 
#
# Total GULP energy -396504.452933 kJ/mol
# GULP energy per Si atom -12390.764154 kJ/mol
# Density = 1.759296 g / cm^3
# Si number density = 17.633098 Si / 1000 Ang^3
#
#
#
# Elastic Constant Matrix: (Units=GPa)
#
#
# Indices 1 2 3 4 5 6 
#
# 1 103.1495 43.1558 33.4320 0.0000 0.0000 0.0000
# 2 43.1558 115.8084 31.9991 0.0000 0.0000 0.0000
# 3 33.4320 31.9991 52.9575 0.0000 0.0000 0.0000
# 4 0.0000 0.0000 0.0000 15.9321 0.0000 0.0000
# 5 0.0000 0.0000 0.0000 0.0000 22.4902 0.0000
# 6 0.0000 0.0000 0.0000 0.0000 0.0000 29.2400
#
#
#
# Elastic Compliance Matrix: (Units=1/GPa)
#
#
# Indices 1 2 3 4 5 6 
#
# 1 0.013058 -0.003107 -0.006366 0.000000 0.000000 0.000000
# 2 -0.003107 0.011105 -0.004749 0.000000 0.000000 0.000000
# 3 -0.006366 -0.004749 0.025771 0.000000 0.000000 0.000000
# 4 0.000000 0.000000 0.000000 0.062767 0.000000 0.000000
# 5 0.000000 0.000000 0.000000 0.000000 0.044464 0.000000
# 6 0.000000 0.000000 0.000000 0.000000 0.000000 0.034200
#
#
# Mechanical properties :
#
#
# Convention : Reuss Voigt Hill
#
# Bulk Modulus (GPa) = 46.53169 54.34326 50.43747
# Shear Modulus (GPa) = 22.02927 24.42103 23.22515
#
# Velocity S-wave (km/s) = 3.53840 3.72553 3.63317
# Velocity P-wave (km/s) = 6.56809 7.02794 6.80190
#
# Compressibility (1/GPa) = 0.02149073
#
# Stress axis : x y z
#
# Youngs Moduli (GPa) = 76.58210 90.05085 38.80301
#
# Poissons Ratio (x) = 0.27979 0.24702
# Poissons Ratio (y) = 0.23794 0.18426
# Poissons Ratio (z) = 0.48753 0.42761
#
# Static dielectric constant tensor:
#      x y z
#    x 3.184820 0.000000 0.000000 
#    y 0.000000 3.524210 0.000000 
#    z 0.000000 0.000000 3.007670 
# 
# 
# High freq. dielectric constant tensor:
#      x y z
#    x 1.681990 0.000000 0.000000 
#    y 0.000000 1.676060 0.000000 
#    z 0.000000 0.000000 1.637640 
# 
# From -- ./inp_files/14063.got.cif
#   From: 2010.03.12/outbox.cif.g09.slc.cpg/sg36_8_cif.got.tgz:14063.got - 2010.04.14 02:13:53.
