data_PCOD8174549
_publ_section_title
;
Structure prediction by ZEFSAII (Michael W. Deem and Ramdas Pophale) SiO2 
 PCOD8174549
Probable space group: C M C 21
;
_chemical_formula_sum "Si O2"
_cell_formula_units_Z 64
_cell_length_a 9.081692
_cell_length_b 24.668782
_cell_length_c 14.623071
_cell_angle_alpha 90.000000
_cell_angle_beta 90.000000
_cell_angle_gamma 90.000000
_cell_volume 3276.069185
_symmetry_space_group_name_H-M "C M C 21"
_symmetry_group_IT_number 36
_symmetry_cell_setting 'orthorhombic'
loop_
_space_group_symop_operation_xyz
x,y,z
-x,-y,1/2+z
x,-y,1/2+z
-x,y,z
1/2+x,1/2+y,z
1/2-x,1/2-y,1/2+z
1/2+x,1/2-y,1/2+z
1/2-x,1/2+y,z
loop_
_atom_site_type_symbol
_atom_site_label
_atom_site_fract_x
_atom_site_fract_y
_atom_site_fract_z
Si Si1 0.174303 0.049887 0.324380
Si Si2 0.325382 0.840911 0.336679
Si Si3 0.173161 0.915169 0.627571
Si Si4 0.174430 0.942038 0.427982
Si Si5 0.673800 0.821655 0.131806
Si Si6 0.664184 0.869327 0.953489
Si Si7 0.325962 0.703843 0.168619
Si Si8 0.164081 0.735277 0.345346
O O1 0.238415 0.057008 0.220555
O O2 0.229108 0.098166 0.387940
O O3 0.000000 0.052686 0.323368
O O4 0.227728 0.994102 0.370733
O O5 0.500000 0.839517 0.347796
O O6 0.260375 0.892144 0.386794
O O7 0.274172 0.842172 0.230835
O O8 0.256179 0.786946 0.380677
O O9 0.221514 0.947157 0.535482
O O10 0.221401 0.851797 0.617440
O O11 0.000000 0.917904 0.637663
O O12 0.000000 0.932528 0.419651
O O13 0.500000 0.823846 0.124516
O O14 0.723929 0.758715 0.115690
O O15 0.734150 0.864267 0.055918
O O16 0.500000 0.895696 0.951606
O O17 0.652377 0.806373 0.927850
O O18 0.500000 0.704826 0.187476
O O19 0.245716 0.703058 0.265358
O O20 0.000000 0.753725 0.314728
#
# Coordination Sequence:
#
# PCOD8174549 Si02
#       8
#     8   8   8   8   8   8   8   8
#     4  10  21  38  58  82 113 148 191 235 281 337
#     4  10  21  38  57  79 113 151 188 230 281 339
#     4   9  18  34  57  81 110 151 187 226 286 347
#     4  10  22  38  59  84 110 147 193 237 284 336
#     4   8  17  32  52  79 109 148 186 219 273 343
#     4  10  20  34  55  82 111 146 188 228 274 333
#     4   9  16  31  55  76 107 151 192 223 271 341
#     4  10  19  31  53  83 115 144 181 232 280 326
#
# _framework density 19.535606999999999
#
# number of rings (size 3 to 8) (size 9 to 14) (size 15 to 20)
#    0.000    2.500    1.250    1.500    1.750    2.000 
#    0.000    5.625    0.000    0.000    0.000    0.000 
#    0.000    0.000    0.000    0.000    0.000    0.000 
#
# Total GULP energy -396523.690444 kJ/mol
# GULP energy per Si atom -12391.365326 kJ/mol
# Density = 1.949114 g / cm^3
# Si number density = 19.535607 Si / 1000 Ang^3
#
#
#
# Elastic Constant Matrix: (Units=GPa)
#
#
# Indices 1 2 3 4 5 6 
#
# 1 38.3618 28.6568 19.8032 0.0000 0.0000 0.0000
# 2 28.6568 106.6605 60.7081 0.0000 0.0000 0.0000
# 3 19.8032 60.7081 103.1584 0.0000 0.0000 0.0000
# 4 0.0000 0.0000 0.0000 27.6212 0.0000 0.0000
# 5 0.0000 0.0000 0.0000 0.0000 20.1675 0.0000
# 6 0.0000 0.0000 0.0000 0.0000 0.0000 23.7368
#
#
#
# Elastic Compliance Matrix: (Units=1/GPa)
#
#
# Indices 1 2 3 4 5 6 
#
# 1 0.032803 -0.007863 -0.001670 0.000000 0.000000 0.000000
# 2 -0.007863 0.015982 -0.007896 0.000000 0.000000 0.000000
# 3 -0.001670 -0.007896 0.014661 0.000000 0.000000 0.000000
# 4 0.000000 0.000000 0.000000 0.036204 0.000000 0.000000
# 5 0.000000 0.000000 0.000000 0.000000 0.049585 0.000000
# 6 0.000000 0.000000 0.000000 0.000000 0.000000 0.042129
#
#
# Mechanical properties :
#
#
# Convention : Reuss Voigt Hill
#
# Bulk Modulus (GPa) = 34.97845 51.83521 43.40683
# Shear Modulus (GPa) = 21.20874 23.57260 22.39067
#
# Velocity S-wave (km/s) = 3.29849 3.47745 3.38915
# Velocity P-wave (km/s) = 5.69654 6.53566 6.13047
#
# Compressibility (1/GPa) = 0.02858903
#
# Stress axis : x y z
#
# Youngs Moduli (GPa) = 30.48471 62.56935 68.20734
#
# Poissons Ratio (x) = 0.49197 0.11390
# Poissons Ratio (y) = 0.23970 0.53857
# Poissons Ratio (z) = 0.05091 0.49405
#
# Static dielectric constant tensor:
#      x y z
#    x 3.317420 0.000000 0.000000 
#    y 0.000000 3.644190 0.000000 
#    z 0.000000 0.000000 3.986950 
# 
# 
# High freq. dielectric constant tensor:
#      x y z
#    x 1.731190 0.000000 0.000000 
#    y 0.000000 1.755240 0.000000 
#    z 0.000000 0.000000 1.767930 
# 
# From -- ./inp_files/11011.got.cif
#   From: 2010.03.12/outbox.cif.g09.slc.cpg/sg36_6_cif.got.tgz:11011.got - 2010.04.14 02:13:53.
