data_PCOD8174464
_publ_section_title
;
Structure prediction by ZEFSAII (Michael W. Deem and Ramdas Pophale) SiO2 
 PCOD8174464
Probable space group: C M C 21
;
_chemical_formula_sum "Si O2"
_cell_formula_units_Z 64
_cell_length_a 9.295313
_cell_length_b 18.901955
_cell_length_c 20.417193
_cell_angle_alpha 90.000000
_cell_angle_beta 90.000000
_cell_angle_gamma 90.000000
_cell_volume 3587.292399
_symmetry_space_group_name_H-M "C M C 21"
_symmetry_group_IT_number 36
_symmetry_cell_setting 'orthorhombic'
loop_
_space_group_symop_operation_xyz
x,y,z
-x,-y,1/2+z
x,-y,1/2+z
-x,y,z
1/2+x,1/2+y,z
1/2-x,1/2-y,1/2+z
1/2+x,1/2-y,1/2+z
1/2-x,1/2+y,z
loop_
_atom_site_type_symbol
_atom_site_label
_atom_site_fract_x
_atom_site_fract_y
_atom_site_fract_z
Si Si1 0.666609 0.512048 0.553710
Si Si2 0.839760 0.054841 0.310342
Si Si3 0.337928 0.199227 0.455518
Si Si4 0.839002 0.466975 0.929614
Si Si5 0.829950 0.756351 0.689358
Si Si6 0.659225 0.720653 0.335401
Si Si7 0.667598 0.324855 0.081533
Si Si8 0.829020 0.085198 0.170089
O O1 0.500000 0.497397 0.539017
O O2 0.753494 0.495133 0.487956
O O3 0.690811 0.591445 0.578109
O O4 0.728744 0.459105 0.608633
O O5 0.737076 0.013829 0.360959
O O6 0.848752 0.136827 0.328311
O O7 0.773328 0.048265 0.237215
O O8 0.000000 0.021777 0.314927
O O9 0.500000 0.227554 0.466280
O O10 0.339065 0.116538 0.440505
O O11 0.268359 0.241107 0.393922
O O12 0.245135 0.214033 0.520631
O O13 0.000000 0.497340 0.927780
O O14 0.791166 0.745830 0.766135
O O15 0.740058 0.699102 0.649097
O O16 0.777727 0.833748 0.665113
O O17 0.000000 0.746078 0.677637
O O18 0.500000 0.748770 0.353835
O O19 0.500000 0.304598 0.080224
O O20 0.000000 0.083837 0.174187
#
# Coordination Sequence:
#
# PCOD8174464 Si02
#       8
#     8   8   8   8   8   8   8   8
#     4   9  17  30  47  66  89 118 151 184 217 257
#     4   8  13  24  43  64  84 108 142 184 224 259
#     4   9  16  26  42  63  87 115 148 186 222 259
#     4   9  16  25  39  63  91 115 143 181 223 263
#     4   9  17  30  48  68  91 118 147 182 223 266
#     4   8  14  25  42  64  87 110 140 182 228 266
#     4  10  19  29  44  67  94 121 148 182 222 264
#     4   8  15  29  49  69  87 113 151 187 217 256
#
# _framework density 17.840755000000001
#
# number of rings (size 3 to 8) (size 9 to 14) (size 15 to 20)
#    0.000    3.250    0.000    2.625    0.000    4.000 
#    0.000    3.125    0.000    1.500    0.000    7.000 
#    0.000    0.000    0.000    0.000    0.000    0.000 
#
# Total GULP energy -396653.171408 kJ/mol
# GULP energy per Si atom -12395.411606 kJ/mol
# Density = 1.780015 g / cm^3
# Si number density = 17.840755 Si / 1000 Ang^3
#
#
#
# Elastic Constant Matrix: (Units=GPa)
#
#
# Indices 1 2 3 4 5 6 
#
# 1 74.4479 4.0640 12.6640 0.0000 0.0000 0.0000
# 2 4.0640 11.7491 -3.7088 0.0000 0.0000 0.0000
# 3 12.6640 -3.7088 31.8575 0.0000 0.0000 0.0000
# 4 0.0000 0.0000 0.0000 25.0888 0.0000 0.0000
# 5 0.0000 0.0000 0.0000 0.0000 30.2176 0.0000
# 6 0.0000 0.0000 0.0000 0.0000 0.0000 12.4668
#
#
#
# Elastic Compliance Matrix: (Units=1/GPa)
#
#
# Indices 1 2 3 4 5 6 
#
# 1 0.014992 -0.007336 -0.006814 0.000000 0.000000 0.000000
# 2 -0.007336 0.091950 0.013621 0.000000 0.000000 0.000000
# 3 -0.006814 0.013621 0.035684 0.000000 0.000000 0.000000
# 4 0.000000 0.000000 0.000000 0.039858 0.000000 0.000000
# 5 0.000000 0.000000 0.000000 0.000000 0.033093 0.000000
# 6 0.000000 0.000000 0.000000 0.000000 0.000000 0.080213
#
#
# Mechanical properties :
#
#
# Convention : Reuss Voigt Hill
#
# Bulk Modulus (GPa) = 7.06374 16.01033 11.53703
# Shear Modulus (GPa) = 14.53329 20.55701 17.54515
#
# Velocity S-wave (km/s) = 2.85724 3.39816 3.13937
# Velocity P-wave (km/s) = 3.85396 4.93864 4.42963
#
# Compressibility (1/GPa) = 0.14156805
#
# Stress axis : x y z
#
# Youngs Moduli (GPa) = 66.70342 10.87547 28.02367
#
# Poissons Ratio (x) = 0.07979 0.19094
# Poissons Ratio (y) = 0.48937 -0.38172
# Poissons Ratio (z) = 0.45449 -0.14814
#
# Static dielectric constant tensor:
#      x y z
#    x 3.349440 0.000000 0.000000 
#    y 0.000000 2.791780 0.000000 
#    z 0.000000 0.000000 3.607910 
# 
# 
# High freq. dielectric constant tensor:
#      x y z
#    x 1.680980 0.000000 0.000000 
#    y 0.000000 1.627530 0.000000 
#    z 0.000000 0.000000 1.705580 
# 
# From -- ./inp_files/14025.got.cif
#   From: 2010.03.12/outbox.cif.g09.slc.cpg/sg36_8_cif.got.tgz:14025.got - 2010.04.14 02:13:53.
