data_PCOD8174354
_publ_section_title
;
Structure prediction by ZEFSAII (Michael W. Deem and Ramdas Pophale) SiO2 
 PCOD8174354
Probable space group: C M C 21
;
_chemical_formula_sum "Si O2"
_cell_formula_units_Z 64
_cell_length_a 8.730215
_cell_length_b 20.579691
_cell_length_c 19.337735
_cell_angle_alpha 90.000000
_cell_angle_beta 90.000000
_cell_angle_gamma 90.000000
_cell_volume 3474.316616
_symmetry_space_group_name_H-M "C M C 21"
_symmetry_group_IT_number 36
_symmetry_cell_setting 'orthorhombic'
loop_
_space_group_symop_operation_xyz
x,y,z
-x,-y,1/2+z
x,-y,1/2+z
-x,y,z
1/2+x,1/2+y,z
1/2-x,1/2-y,1/2+z
1/2+x,1/2-y,1/2+z
1/2-x,1/2+y,z
loop_
_atom_site_type_symbol
_atom_site_label
_atom_site_fract_x
_atom_site_fract_y
_atom_site_fract_z
Si Si1 0.819597 0.507056 0.543880
Si Si2 0.676360 0.062689 0.833381
Si Si3 0.178177 0.500960 0.195516
Si Si4 0.818862 0.360098 0.545789
Si Si5 0.819364 0.139763 0.191690
Si Si6 0.682001 0.808801 0.826398
Si Si7 0.821143 0.181434 0.908149
Si Si8 0.679764 0.930725 0.909775
O O1 0.774019 0.529217 0.621215
O O2 0.761383 0.433621 0.530688
O O3 0.749805 0.556560 0.486841
O O4 0.000000 0.506455 0.533287
O O5 0.500000 0.080970 0.849129
O O6 0.708926 0.055334 0.751438
O O7 0.783944 0.117228 0.864688
O O8 0.719515 0.993419 0.864781
O O9 0.271590 0.566280 0.210631
O O10 0.000000 0.522018 0.195750
O O11 0.747546 0.336438 0.618182
O O12 0.763231 0.315956 0.482123
O O13 0.000000 0.355860 0.552592
O O14 0.756882 0.188029 0.250685
O O15 0.000000 0.144837 0.188341
O O16 0.500000 0.813715 0.817892
O O17 0.733685 0.742362 0.862772
O O18 0.750557 0.867103 0.873953
O O19 0.000000 0.184498 0.923234
O O20 0.500000 0.919187 0.914641
#
# Coordination Sequence:
#
# PCOD8174354 Si02
#       8
#     8   8   8   8   8   8   8   8
#     4   8  14  26  50  80 100 127 176 232 270 308
#     4  10  18  32  55  79 105 144 190 231 270 329
#     4   9  17  31  52  78 109 144 186 227 277 339
#     4  10  19  35  58  80 107 145 186 223 272 340
#     4  11  21  33  54  84 112 139 182 236 280 323
#     4  10  21  38  56  76 111 155 189 225 275 335
#     4  11  23  36  53  82 117 148 184 233 283 325
#     4   9  15  29  54  79 101 134 189 231 261 319
#
# _framework density 18.42089
#
# number of rings (size 3 to 8) (size 9 to 14) (size 15 to 20)
#    0.000    2.250    2.500    2.625    0.000    1.500 
#    0.000    1.250    0.000    3.000    0.000    0.000 
#    0.000    0.000    0.000    0.000    0.000    0.000 
#
# Total GULP energy -396702.678986 kJ/mol
# GULP energy per Si atom -12396.958718 kJ/mol
# Density = 1.837896 g / cm^3
# Si number density = 18.420890 Si / 1000 Ang^3
#
#
#
# Elastic Constant Matrix: (Units=GPa)
#
#
# Indices 1 2 3 4 5 6 
#
# 1 61.0630 29.7874 44.1722 0.0000 0.0000 0.0000
# 2 29.7874 59.8468 50.8749 0.0000 0.0000 0.0000
# 3 44.1722 50.8749 161.6817 0.0000 0.0000 0.0000
# 4 0.0000 0.0000 0.0000 29.7575 0.0000 0.0000
# 5 0.0000 0.0000 0.0000 0.0000 25.2639 0.0000
# 6 0.0000 0.0000 0.0000 0.0000 0.0000 18.7542
#
#
#
# Elastic Compliance Matrix: (Units=1/GPa)
#
#
# Indices 1 2 3 4 5 6 
#
# 1 0.023128 -0.008382 -0.003681 0.000000 0.000000 0.000000
# 2 -0.008382 0.025849 -0.005844 0.000000 0.000000 0.000000
# 3 -0.003681 -0.005844 0.009029 0.000000 0.000000 0.000000
# 4 0.000000 0.000000 0.000000 0.033605 0.000000 0.000000
# 5 0.000000 0.000000 0.000000 0.000000 0.039582 0.000000
# 6 0.000000 0.000000 0.000000 0.000000 0.000000 0.053321
#
#
# Mechanical properties :
#
#
# Convention : Reuss Voigt Hill
#
# Bulk Modulus (GPa) = 45.05989 59.14006 52.09998
# Shear Modulus (GPa) = 21.95610 25.27226 23.61418
#
# Velocity S-wave (km/s) = 3.45615 3.70798 3.58428
# Velocity P-wave (km/s) = 6.35933 7.10681 6.74344
#
# Compressibility (1/GPa) = 0.02219268
#
# Stress axis : x y z
#
# Youngs Moduli (GPa) = 43.23673 38.68623 110.74857
#
# Poissons Ratio (x) = 0.32428 0.40769
# Poissons Ratio (y) = 0.36242 0.64717
# Poissons Ratio (z) = 0.15916 0.22607
#
# Static dielectric constant tensor:
#      x y z
#    x 3.083630 0.000000 0.000000 
#    y 0.000000 3.259010 0.000000 
#    z 0.000000 0.000000 3.857800 
# 
# 
# High freq. dielectric constant tensor:
#      x y z
#    x 1.686580 0.000000 0.000000 
#    y 0.000000 1.680930 0.000000 
#    z 0.000000 0.000000 1.739050 
# 
# From -- ./inp_files/15781.got.cif
#   From: 2010.03.12/outbox.cif.g09.slc.cpg/sg36_8_cif.got.tgz:15781.got - 2010.04.14 02:13:53.
