data_PCOD8174722
_publ_section_title
;
Structure prediction by ZEFSAII (Michael W. Deem and Ramdas Pophale) SiO2 
 PCOD8174722
Probable space group: C M C 21
;
_chemical_formula_sum "Si O2"
_cell_formula_units_Z 64
_cell_length_a 9.302134
_cell_length_b 15.019731
_cell_length_c 23.872840
_cell_angle_alpha 90.000000
_cell_angle_beta 90.000000
_cell_angle_gamma 90.000000
_cell_volume 3335.406980
_symmetry_space_group_name_H-M "C M C 21"
_symmetry_group_IT_number 36
_symmetry_cell_setting 'orthorhombic'
loop_
_space_group_symop_operation_xyz
x,y,z
-x,-y,1/2+z
x,-y,1/2+z
-x,y,z
1/2+x,1/2+y,z
1/2-x,1/2-y,1/2+z
1/2+x,1/2-y,1/2+z
1/2-x,1/2+y,z
loop_
_atom_site_type_symbol
_atom_site_label
_atom_site_fract_x
_atom_site_fract_y
_atom_site_fract_z
Si Si1 0.164297 0.483677 0.673700
Si Si2 0.669141 0.858519 0.252756
Si Si3 0.669196 0.762342 0.957632
Si Si4 0.333522 0.127640 0.880549
Si Si5 0.163554 0.767600 0.067558
Si Si6 0.834937 0.466811 0.958930
Si Si7 0.163521 0.286597 0.689249
Si Si8 0.163795 0.976983 0.066839
O O1 0.224668 0.559704 0.714814
O O2 0.174742 0.389989 0.706332
O O3 0.258560 0.475442 0.618174
O O4 0.000000 0.503825 0.656174
O O5 0.500000 0.847305 0.247082
O O6 0.714738 0.877777 0.316238
O O7 0.740633 0.767494 0.232577
O O8 0.500000 0.745356 0.959455
O O9 0.738094 0.702807 0.909494
O O10 0.707145 0.865303 0.943745
O O11 0.735162 0.733804 0.017484
O O12 0.500000 0.155011 0.886996
O O13 0.305724 0.029517 0.905702
O O14 0.217770 0.723968 0.125249
O O15 0.177505 0.872334 0.075603
O O16 0.000000 0.739287 0.053423
O O17 0.000000 0.470544 0.978474
O O18 0.739473 0.505488 0.009258
O O19 0.000000 0.251503 0.693285
O O20 0.000000 0.009385 0.064462
#
# Coordination Sequence:
#
# PCOD8174722 Si02
#       8
#     8   8   8   8   8   8   8   8
#     4  10  21  36  57  84 113 149 191 231 279 339
#     4  10  22  40  59  82 113 149 192 239 281 329
#     4  10  21  36  57  87 114 145 190 239 281 326
#     4  10  22  40  60  80 111 155 192 229 284 343
#     4   9  18  34  55  81 117 154 182 222 286 347
#     4   9  20  38  58  81 113 151 188 228 280 340
#     4  10  21  37  58  84 113 151 190 229 285 341
#     4  10  19  33  56  85 118 148 183 233 284 333
#
# _framework density 19.188065000000002
#
# number of rings (size 3 to 8) (size 9 to 14) (size 15 to 20)
#    0.000    2.250    1.250    0.750    1.750    4.000 
#    0.000    2.500    0.000    0.000    0.000    0.000 
#    0.000    0.000    0.000    0.000    0.000    0.000 
#
# Total GULP energy -396907.290830 kJ/mol
# GULP energy per Si atom -12403.352838 kJ/mol
# Density = 1.914439 g / cm^3
# Si number density = 19.188065 Si / 1000 Ang^3
#
#
#
# Elastic Constant Matrix: (Units=GPa)
#
#
# Indices 1 2 3 4 5 6 
#
# 1 69.5398 29.3667 46.7196 0.0000 0.0000 0.0000
# 2 29.3667 67.0694 35.2741 0.0000 0.0000 0.0000
# 3 46.7196 35.2741 110.0709 0.0000 0.0000 0.0000
# 4 0.0000 0.0000 0.0000 22.9598 0.0000 0.0000
# 5 0.0000 0.0000 0.0000 0.0000 29.7196 0.0000
# 6 0.0000 0.0000 0.0000 0.0000 0.0000 29.5184
#
#
#
# Elastic Compliance Matrix: (Units=1/GPa)
#
#
# Indices 1 2 3 4 5 6 
#
# 1 0.021742 -0.005612 -0.007430 0.000000 0.000000 0.000000
# 2 -0.005612 0.019381 -0.003829 0.000000 0.000000 0.000000
# 3 -0.007430 -0.003829 0.013466 0.000000 0.000000 0.000000
# 4 0.000000 0.000000 0.000000 0.043554 0.000000 0.000000
# 5 0.000000 0.000000 0.000000 0.000000 0.033648 0.000000
# 6 0.000000 0.000000 0.000000 0.000000 0.000000 0.033877
#
#
# Mechanical properties :
#
#
# Convention : Reuss Voigt Hill
#
# Bulk Modulus (GPa) = 47.96907 52.15567 50.06237
# Shear Modulus (GPa) = 24.22963 25.46087 24.84525
#
# Velocity S-wave (km/s) = 3.55737 3.64663 3.60228
# Velocity P-wave (km/s) = 6.47509 6.70603 6.59158
#
# Compressibility (1/GPa) = 0.02084677
#
# Stress axis : x y z
#
# Youngs Moduli (GPa) = 45.99400 51.59691 74.26287
#
# Poissons Ratio (x) = 0.28957 0.55176
# Poissons Ratio (y) = 0.25813 0.28434
# Poissons Ratio (z) = 0.34173 0.19756
#
# Static dielectric constant tensor:
#      x y z
#    x 3.489410 0.000000 0.000000 
#    y 0.000000 3.516820 0.000000 
#    z 0.000000 0.000000 3.447400 
# 
# 
# High freq. dielectric constant tensor:
#      x y z
#    x 1.741710 0.000000 0.000000 
#    y 0.000000 1.750980 0.000000 
#    z 0.000000 0.000000 1.738620 
# 
# From -- ./inp_files/16555.got.cif
#   From: 2010.03.12/outbox.cif.g09.slc.cpg/sg36_9_cif.got.tgz:16555.got - 2010.04.14 02:13:53.
