data_PCOD8174734
_publ_section_title
;
Structure prediction by ZEFSAII (Michael W. Deem and Ramdas Pophale) SiO2 
 PCOD8174734
Probable space group: C M C 21
;
_chemical_formula_sum "Si O2"
_cell_formula_units_Z 64
_cell_length_a 9.056255
_cell_length_b 24.622619
_cell_length_c 14.303499
_cell_angle_alpha 90.000000
_cell_angle_beta 90.000000
_cell_angle_gamma 90.000000
_cell_volume 3189.518882
_symmetry_space_group_name_H-M "C M C 21"
_symmetry_group_IT_number 36
_symmetry_cell_setting 'orthorhombic'
loop_
_space_group_symop_operation_xyz
x,y,z
-x,-y,1/2+z
x,-y,1/2+z
-x,y,z
1/2+x,1/2+y,z
1/2-x,1/2-y,1/2+z
1/2+x,1/2-y,1/2+z
1/2-x,1/2+y,z
loop_
_atom_site_type_symbol
_atom_site_label
_atom_site_fract_x
_atom_site_fract_y
_atom_site_fract_z
Si Si1 0.332609 0.338211 0.101330
Si Si2 0.824773 0.547566 0.115584
Si Si3 0.174323 0.914129 0.802317
Si Si4 0.170182 0.047727 0.507399
Si Si5 0.166768 0.790659 0.787117
Si Si6 0.327540 0.858246 0.478224
Si Si7 0.334384 0.735506 0.070738
Si Si8 0.169751 0.817256 0.314328
O O1 0.500000 0.319244 0.080307
O O2 0.217445 0.297079 0.054934
O O3 0.303204 0.339467 0.211352
O O4 0.300575 0.396107 0.058683
O O5 0.753374 0.554066 0.217892
O O6 0.000000 0.546331 0.128120
O O7 0.773517 0.494162 0.061261
O O8 0.770530 0.597019 0.050845
O O9 0.213568 0.945830 0.898137
O O10 0.227907 0.851176 0.810499
O O11 0.000000 0.914522 0.782685
O O12 0.000000 0.029562 0.516669
O O13 0.172275 0.782864 0.676980
O O14 0.265272 0.743303 0.833067
O O15 0.000000 0.784408 0.825377
O O16 0.500000 0.863177 0.462247
O O17 0.283246 0.799620 0.515485
O O18 0.247568 0.863256 0.378104
O O19 0.500000 0.728603 0.031004
O O20 0.000000 0.813879 0.341279
#
# Coordination Sequence:
#
# PCOD8174734 Si02
#       8
#     8   8   8   8   8   8   8   8
#     4   9  20  39  59  86 124 161 197 243 302 366
#     4  11  25  43  63  89 123 163 207 261 313 357
#     4  10  21  40  65  91 120 159 204 252 304 371
#     4  10  23  42  66  92 119 161 209 251 306 368
#     4   9  18  34  57  87 123 159 197 243 300 363
#     4  11  23  38  57  83 118 162 206 249 305 362
#     4  10  19  33  57  88 120 156 196 245 300 356
#     4  10  21  35  56  88 125 163 204 248 300 363
#
# _framework density 20.065723999999999
#
# number of rings (size 3 to 8) (size 9 to 14) (size 15 to 20)
#    0.000    2.000    1.250    1.500    1.750    5.000 
#    0.000    3.750    0.000    0.000    0.000    0.000 
#    0.000    0.000    0.000    0.000    0.000    0.000 
#
# Total GULP energy -396773.431779 kJ/mol
# GULP energy per Si atom -12399.169743 kJ/mol
# Density = 2.002005 g / cm^3
# Si number density = 20.065724 Si / 1000 Ang^3
#
#
#
# Elastic Constant Matrix: (Units=GPa)
#
#
# Indices 1 2 3 4 5 6 
#
# 1 53.4146 35.2902 28.6853 0.0000 0.0000 0.0000
# 2 35.2902 77.5297 64.5611 0.0000 0.0000 0.0000
# 3 28.6853 64.5611 96.7341 0.0000 0.0000 0.0000
# 4 0.0000 0.0000 0.0000 24.8349 0.0000 0.0000
# 5 0.0000 0.0000 0.0000 0.0000 30.0061 0.0000
# 6 0.0000 0.0000 0.0000 0.0000 0.0000 31.5712
#
#
#
# Elastic Compliance Matrix: (Units=1/GPa)
#
#
# Indices 1 2 3 4 5 6 
#
# 1 0.026781 -0.012555 0.000437 0.000000 0.000000 0.000000
# 2 -0.012555 0.034920 -0.019583 0.000000 0.000000 0.000000
# 3 0.000437 -0.019583 0.023278 0.000000 0.000000 0.000000
# 4 0.000000 0.000000 0.000000 0.040266 0.000000 0.000000
# 5 0.000000 0.000000 0.000000 0.000000 0.033327 0.000000
# 6 0.000000 0.000000 0.000000 0.000000 0.000000 0.031674
#
#
# Mechanical properties :
#
#
# Convention : Reuss Voigt Hill
#
# Bulk Modulus (GPa) = 46.34204 53.86125 50.10165
# Shear Modulus (GPa) = 19.16882 23.89190 21.53036
#
# Velocity S-wave (km/s) = 3.09415 3.45437 3.27921
# Velocity P-wave (km/s) = 5.99252 6.54301 6.27380
#
# Compressibility (1/GPa) = 0.02157868
#
# Stress axis : x y z
#
# Youngs Moduli (GPa) = 37.33964 28.63651 42.95910
#
# Poissons Ratio (x) = 0.35952 -0.01879
# Poissons Ratio (y) = 0.46878 0.84128
# Poissons Ratio (z) = -0.01633 0.56080
#
# Static dielectric constant tensor:
#      x y z
#    x 3.669860 0.000000 0.000000 
#    y 0.000000 3.652060 0.000000 
#    z 0.000000 0.000000 3.940980 
# 
# 
# High freq. dielectric constant tensor:
#      x y z
#    x 1.779580 0.000000 0.000000 
#    y 0.000000 1.773690 0.000000 
#    z 0.000000 0.000000 1.798420 
# 
# From -- ./inp_files/11100.got.cif
#   From: 2010.03.12/outbox.cif.g09.slc.cpg/sg36_6_cif.got.tgz:11100.got - 2010.04.14 02:13:53.
