data_PCOD8174239
_publ_section_title
;
Structure prediction by ZEFSAII (Michael W. Deem and Ramdas Pophale) SiO2 
 PCOD8174239
Probable space group: C M C 21
;
_chemical_formula_sum "Si O2"
_cell_formula_units_Z 64
_cell_length_a 9.110893
_cell_length_b 20.339803
_cell_length_c 20.017401
_cell_angle_alpha 90.000000
_cell_angle_beta 90.000000
_cell_angle_gamma 90.000000
_cell_volume 3709.500020
_symmetry_space_group_name_H-M "C M C 21"
_symmetry_group_IT_number 36
_symmetry_cell_setting 'orthorhombic'
loop_
_space_group_symop_operation_xyz
x,y,z
-x,-y,1/2+z
x,-y,1/2+z
-x,y,z
1/2+x,1/2+y,z
1/2-x,1/2-y,1/2+z
1/2+x,1/2-y,1/2+z
1/2-x,1/2+y,z
loop_
_atom_site_type_symbol
_atom_site_label
_atom_site_fract_x
_atom_site_fract_y
_atom_site_fract_z
Si Si1 0.173657 0.226299 0.121680
Si Si2 0.673966 0.453516 0.453614
Si Si3 0.173338 0.273234 0.974571
Si Si4 0.174561 0.165188 0.869961
Si Si5 0.674975 0.675241 0.720110
Si Si6 0.327121 0.404697 0.984823
Si Si7 0.826345 0.057476 0.632016
Si Si8 0.825519 0.918304 0.598620
O O1 0.256287 0.265302 0.179166
O O2 0.227352 0.150596 0.129747
O O3 0.000000 0.233770 0.131401
O O4 0.222203 0.251970 0.048796
O O5 0.500000 0.449075 0.457889
O O6 0.732302 0.406661 0.394136
O O7 0.718266 0.529927 0.442728
O O8 0.737597 0.426319 0.523667
O O9 0.232660 0.220224 0.921214
O O10 0.000000 0.279638 0.969971
O O11 0.244040 0.342566 0.954042
O O12 0.234296 0.179222 0.795767
O O13 0.000000 0.165300 0.868993
O O14 0.500000 0.680810 0.715845
O O15 0.731487 0.605460 0.690167
O O16 0.500000 0.391667 0.981132
O O17 0.272876 0.414565 0.060891
O O18 0.000000 0.056765 0.631750
O O19 0.771155 0.981802 0.641996
O O20 0.000000 0.917269 0.594640
#
# Coordination Sequence:
#
# PCOD8174239 Si02
#       8
#     8   8   8   8   8   8   8   8
#     4  10  18  29  48  71  94 123 157 194 231 275
#     4   8  13  25  46  70  91 114 152 196 230 265
#     4  10  18  29  47  70  94 123 159 192 225 275
#     4   9  17  30  47  68  93 125 162 192 226 279
#     4  10  19  31  48  69  96 125 154 192 237 285
#     4   9  16  27  47  72  96 116 144 194 242 271
#     4   8  14  25  43  68  91 114 146 187 233 271
#     4   8  13  24  44  68  91 114 148 193 230 261
#
# _framework density 17.252998000000002
#
# number of rings (size 3 to 8) (size 9 to 14) (size 15 to 20)
#    0.000    3.000    2.500    1.500    0.000    0.000 
#    0.000    1.875    0.000    8.250    0.000    0.000 
#    0.000    0.000    0.000    0.000    0.000    0.000 
#
# Total GULP energy -396521.872300 kJ/mol
# GULP energy per Si atom -12391.308509 kJ/mol
# Density = 1.721373 g / cm^3
# Si number density = 17.252998 Si / 1000 Ang^3
#
#
#
# Elastic Constant Matrix: (Units=GPa)
#
#
# Indices 1 2 3 4 5 6 
#
# 1 12.2999 22.4694 14.9754 0.0000 0.0000 0.0000
# 2 22.4694 171.8967 70.6461 0.0000 0.0000 0.0000
# 3 14.9754 70.6461 106.9472 0.0000 0.0000 0.0000
# 4 0.0000 0.0000 0.0000 27.5227 0.0000 0.0000
# 5 0.0000 0.0000 0.0000 0.0000 14.9935 0.0000
# 6 0.0000 0.0000 0.0000 0.0000 0.0000 23.9893
#
#
#
# Elastic Compliance Matrix: (Units=1/GPa)
#
#
# Indices 1 2 3 4 5 6 
#
# 1 0.111860 -0.011234 -0.008242 0.000000 0.000000 0.000000
# 2 -0.011234 0.009114 -0.004447 0.000000 0.000000 0.000000
# 3 -0.008242 -0.004447 0.013442 0.000000 0.000000 0.000000
# 4 0.000000 0.000000 0.000000 0.036334 0.000000 0.000000
# 5 0.000000 0.000000 0.000000 0.000000 0.066696 0.000000
# 6 0.000000 0.000000 0.000000 0.000000 0.000000 0.041685
#
#
# Mechanical properties :
#
#
# Convention : Reuss Voigt Hill
#
# Bulk Modulus (GPa) = 11.55160 56.36951 33.96055
# Shear Modulus (GPa) = 14.05153 25.50463 19.77808
#
# Velocity S-wave (km/s) = 2.85694 3.84900 3.38946
# Velocity P-wave (km/s) = 4.19437 7.24543 5.91984
#
# Compressibility (1/GPa) = 0.08656812
#
# Stress axis : x y z
#
# Youngs Moduli (GPa) = 8.93977 109.72643 74.39289
#
# Poissons Ratio (x) = 1.23269 0.61317
# Poissons Ratio (y) = 0.10043 0.33083
# Poissons Ratio (z) = 0.07368 0.48796
#
# Static dielectric constant tensor:
#      x y z
#    x 2.660620 0.000000 0.000000 
#    y 0.000000 3.715400 0.000000 
#    z 0.000000 0.000000 3.248740 
# 
# 
# High freq. dielectric constant tensor:
#      x y z
#    x 1.607720 0.000000 0.000000 
#    y 0.000000 1.687930 0.000000 
#    z 0.000000 0.000000 1.641950 
# 
# From -- ./inp_files/13985.got.cif
#   From: 2010.03.12/outbox.cif.g09.slc.cpg/sg36_7_cif.got.tgz:13985.got - 2010.04.14 02:13:53.
