data_PCOD8174758
_publ_section_title
;
Structure prediction by ZEFSAII (Michael W. Deem and Ramdas Pophale) SiO2 
 PCOD8174758
Probable space group: C M C 21
;
_chemical_formula_sum "Si O2"
_cell_formula_units_Z 64
_cell_length_a 9.349580
_cell_length_b 22.602708
_cell_length_c 16.633155
_cell_angle_alpha 90.000000
_cell_angle_beta 90.000000
_cell_angle_gamma 90.000000
_cell_volume 3515.015230
_symmetry_space_group_name_H-M "C M C 21"
_symmetry_group_IT_number 36
_symmetry_cell_setting 'orthorhombic'
loop_
_space_group_symop_operation_xyz
x,y,z
-x,-y,1/2+z
x,-y,1/2+z
-x,y,z
1/2+x,1/2+y,z
1/2-x,1/2-y,1/2+z
1/2+x,1/2-y,1/2+z
1/2-x,1/2+y,z
loop_
_atom_site_type_symbol
_atom_site_label
_atom_site_fract_x
_atom_site_fract_y
_atom_site_fract_z
Si Si1 0.834000 0.595478 0.653470
Si Si2 0.834556 0.632736 0.825714
Si Si3 0.334385 0.968022 0.704916
Si Si4 0.339466 0.106767 0.055591
Si Si5 0.334253 0.938562 0.880349
Si Si6 0.834778 0.337256 0.997866
Si Si7 0.160756 0.721316 0.963425
Si Si8 0.831321 0.044351 0.925830
O O1 0.811176 0.639983 0.729825
O O2 0.765863 0.529967 0.671622
O O3 0.767119 0.626706 0.574168
O O4 0.000000 0.585464 0.635144
O O5 0.788448 0.689362 0.879759
O O6 0.740477 0.575885 0.848982
O O7 0.000000 0.618237 0.845417
O O8 0.500000 0.981363 0.718112
O O9 0.308280 0.912014 0.646787
O O10 0.272376 0.945510 0.789989
O O11 0.500000 0.084405 0.030634
O O12 0.331827 0.176917 0.039824
O O13 0.211721 0.078714 0.005452
O O14 0.500000 0.957433 0.887529
O O15 0.313586 0.872728 0.914661
O O16 0.235811 0.979620 0.935963
O O17 0.761262 0.274878 0.985439
O O18 0.000000 0.324350 0.015686
O O19 0.000000 0.744976 0.951583
O O20 0.000000 0.042199 0.915151
#
# Coordination Sequence:
#
# PCOD8174758 Si02
#       8
#     8   8   8   8   8   8   8   8
#     4   9  16  30  55  82 103 131 175 224 265 310
#     4   9  17  34  58  77  99 141 188 220 252 313
#     4   9  16  30  57  84 102 127 176 227 262 310
#     4   9  18  34  56  78 100 138 185 221 254 314
#     4  10  19  34  55  77 106 143 176 216 265 320
#     4  10  21  35  54  80 107 138 182 226 265 311
#     4   9  19  35  53  73 103 142 182 220 265 315
#     4  11  20  30  50  81 112 138 166 212 274 325
#
# _framework density 18.207602000000001
#
# number of rings (size 3 to 8) (size 9 to 14) (size 15 to 20)
#    0.000    2.500    1.250    2.625    0.000    4.500 
#    2.250    1.250    0.000    0.000    0.000    0.000 
#    0.000    0.000    0.000    0.000    0.000    0.000 
#
# Total GULP energy -396517.601706 kJ/mol
# GULP energy per Si atom -12391.175053 kJ/mol
# Density = 1.816616 g / cm^3
# Si number density = 18.207602 Si / 1000 Ang^3
#
#
#
# Elastic Constant Matrix: (Units=GPa)
#
#
# Indices 1 2 3 4 5 6 
#
# 1 63.5654 39.0780 22.1061 0.0000 0.0000 0.0000
# 2 39.0780 115.3563 63.5597 0.0000 0.0000 0.0000
# 3 22.1061 63.5597 109.3027 0.0000 0.0000 0.0000
# 4 0.0000 0.0000 0.0000 24.8400 0.0000 0.0000
# 5 0.0000 0.0000 0.0000 0.0000 11.4712 0.0000
# 6 0.0000 0.0000 0.0000 0.0000 0.0000 29.2961
#
#
#
# Elastic Compliance Matrix: (Units=1/GPa)
#
#
# Indices 1 2 3 4 5 6 
#
# 1 0.019872 -0.006647 -0.000154 0.000000 0.000000 0.000000
# 2 -0.006647 0.014979 -0.007366 0.000000 0.000000 0.000000
# 3 -0.000154 -0.007366 0.013463 0.000000 0.000000 0.000000
# 4 0.000000 0.000000 0.000000 0.040258 0.000000 0.000000
# 5 0.000000 0.000000 0.000000 0.000000 0.087175 0.000000
# 6 0.000000 0.000000 0.000000 0.000000 0.000000 0.034134
#
#
# Mechanical properties :
#
#
# Convention : Reuss Voigt Hill
#
# Bulk Modulus (GPa) = 50.04860 59.74578 54.89719
# Shear Modulus (GPa) = 20.41861 24.02017 22.21939
#
# Velocity S-wave (km/s) = 3.35241 3.63607 3.49712
# Velocity P-wave (km/s) = 6.52168 7.10724 6.82075
#
# Compressibility (1/GPa) = 0.01998058
#
# Stress axis : x y z
#
# Youngs Moduli (GPa) = 50.32288 66.75963 74.27563
#
# Poissons Ratio (x) = 0.44375 0.01142
# Poissons Ratio (y) = 0.33450 0.54712
# Poissons Ratio (z) = 0.00774 0.49175
#
# Static dielectric constant tensor:
#      x y z
#    x 2.986690 0.000000 0.000000 
#    y 0.000000 3.236440 0.000000 
#    z 0.000000 0.000000 3.571850 
# 
# 
# High freq. dielectric constant tensor:
#      x y z
#    x 1.665080 0.000000 0.000000 
#    y 0.000000 1.691500 0.000000 
#    z 0.000000 0.000000 1.710910 
# 
# From -- ./inp_files/14102.got.cif
#   From: 2010.03.12/outbox.cif.g09.slc.cpg/sg36_8_cif.got.tgz:14102.got - 2010.04.14 02:13:53.
