data_PCOD8174455
_publ_section_title
;
Structure prediction by ZEFSAII (Michael W. Deem and Ramdas Pophale) SiO2 
 PCOD8174455
Probable space group: C M C 21
;
_chemical_formula_sum "Si O2"
_cell_formula_units_Z 32
_cell_length_a 7.656650
_cell_length_b 13.153368
_cell_length_c 18.303516
_cell_angle_alpha 90.000000
_cell_angle_beta 90.000000
_cell_angle_gamma 90.000000
_cell_volume 1843.360551
_symmetry_space_group_name_H-M "C M C 21"
_symmetry_group_IT_number 36
_symmetry_cell_setting 'orthorhombic'
loop_
_space_group_symop_operation_xyz
x,y,z
-x,-y,1/2+z
x,-y,1/2+z
-x,y,z
1/2+x,1/2+y,z
1/2-x,1/2-y,1/2+z
1/2+x,1/2-y,1/2+z
1/2-x,1/2+y,z
loop_
_atom_site_type_symbol
_atom_site_label
_atom_site_fract_x
_atom_site_fract_y
_atom_site_fract_z
Si Si1 0.500000 0.189640 0.902220
Si Si2 0.500000 0.215709 0.737210
Si Si3 0.191527 0.117388 0.415996
Si Si4 0.500000 0.009466 0.663171
Si Si5 0.000000 0.514427 0.493755
Si Si6 0.808433 0.364976 0.757317
O O1 0.500000 0.161973 0.816433
O O2 0.328335 0.259063 0.919858
O O3 0.500000 0.088742 0.948464
O O4 0.670944 0.284621 0.726364
O O5 0.500000 0.130260 0.675192
O O6 0.328060 0.079538 0.475761
O O7 0.250745 0.086921 0.334549
O O8 0.000000 0.067330 0.430641
O O9 0.327165 0.958490 0.699752
O O10 0.500000 0.985807 0.577861
O O11 0.000000 0.312141 0.766476
#
# Coordination Sequence:
#
# PCOD8174455 Si02
#       6
#     4   4   8   4   4   8
#     4   8  20  36  58  80 102 142 196 234 262 324
#     4  10  18  40  56  80 108 142 196 236 264 328
#     4   9  19  37  60  81 104 146 196 237 265 320
#     4  10  24  34  55  88 115 154 173 222 290 350
#     4  12  20  40  53  80 131 142 173 230 288 342
#     4   9  18  38  58  81 109 142 192 236 273 310
#
# _framework density 17.359598999999999
#
# number of rings (size 3 to 8) (size 9 to 14) (size 15 to 20)
#    1.500    1.000    2.500    1.500    0.000    2.000 
#    6.750    2.500    0.000    0.000    0.000    0.000 
#    0.000    0.000    0.000    0.000    0.000    0.000 
#
# Total GULP energy -198244.456463 kJ/mol
# GULP energy per Si atom -12390.278529 kJ/mol
# Density = 1.732009 g / cm^3
# Si number density = 17.359599 Si / 1000 Ang^3
#
#
#
# Elastic Constant Matrix: (Units=GPa)
#
#
# Indices 1 2 3 4 5 6 
#
# 1 131.5573 31.8064 23.4559 0.0000 0.0000 0.0000
# 2 31.8064 63.2321 20.8565 0.0000 0.0000 0.0000
# 3 23.4559 20.8565 60.6868 0.0000 0.0000 0.0000
# 4 0.0000 0.0000 0.0000 17.9967 0.0000 0.0000
# 5 0.0000 0.0000 0.0000 0.0000 9.8196 0.0000
# 6 0.0000 0.0000 0.0000 0.0000 0.0000 15.0337
#
#
#
# Elastic Compliance Matrix: (Units=1/GPa)
#
#
# Indices 1 2 3 4 5 6 
#
# 1 0.008894 -0.003767 -0.002143 0.000000 0.000000 0.000000
# 2 -0.003767 0.019432 -0.005222 0.000000 0.000000 0.000000
# 3 -0.002143 -0.005222 0.019101 0.000000 0.000000 0.000000
# 4 0.000000 0.000000 0.000000 0.055566 0.000000 0.000000
# 5 0.000000 0.000000 0.000000 0.000000 0.101837 0.000000
# 6 0.000000 0.000000 0.000000 0.000000 0.000000 0.066517
#
#
# Mechanical properties :
#
#
# Convention : Reuss Voigt Hill
#
# Bulk Modulus (GPa) = 39.74145 45.30153 42.52149
# Shear Modulus (GPa) = 16.55629 20.52715 18.54172
#
# Velocity S-wave (km/s) = 3.09159 3.44243 3.27172
# Velocity P-wave (km/s) = 5.97384 6.47712 6.23056
#
# Compressibility (1/GPa) = 0.02516264
#
# Stress axis : x y z
#
# Youngs Moduli (GPa) = 112.43450 51.46126 52.35291
#
# Poissons Ratio (x) = 0.19385 0.11219
# Poissons Ratio (y) = 0.42353 0.27341
# Poissons Ratio (z) = 0.24095 0.26875
#
# Static dielectric constant tensor:
#      x y z
#    x 3.318350 0.000000 0.000000 
#    y 0.000000 2.985120 0.000000 
#    z 0.000000 0.000000 3.018750 
# 
# 
# High freq. dielectric constant tensor:
#      x y z
#    x 1.670130 0.000000 0.000000 
#    y 0.000000 1.653210 0.000000 
#    z 0.000000 0.000000 1.656590 
# 
# From -- ./inp_files/13300.got.cif
#   From: 2010.03.12/outbox.cif.g09.slc.cpg/sg36_7_cif.got.tgz:13300.got - 2010.04.14 02:13:53.
