data_PCOD8174574
_publ_section_title
;
Structure prediction by ZEFSAII (Michael W. Deem and Ramdas Pophale) SiO2 
 PCOD8174574
Probable space group: C M C 21
;
_chemical_formula_sum "Si O2"
_cell_formula_units_Z 48
_cell_length_a 9.068648
_cell_length_b 18.348158
_cell_length_c 15.352358
_cell_angle_alpha 90.000000
_cell_angle_beta 90.000000
_cell_angle_gamma 90.000000
_cell_volume 2554.524695
_symmetry_space_group_name_H-M "C M C 21"
_symmetry_group_IT_number 36
_symmetry_cell_setting 'orthorhombic'
loop_
_space_group_symop_operation_xyz
x,y,z
-x,-y,1/2+z
x,-y,1/2+z
-x,y,z
1/2+x,1/2+y,z
1/2-x,1/2-y,1/2+z
1/2+x,1/2-y,1/2+z
1/2-x,1/2+y,z
loop_
_atom_site_type_symbol
_atom_site_label
_atom_site_fract_x
_atom_site_fract_y
_atom_site_fract_z
Si Si1 0.335107 0.957870 0.558280
Si Si2 0.169649 0.980713 0.725281
Si Si3 0.328287 0.431255 0.390484
Si Si4 0.671839 0.687504 0.264258
Si Si5 0.332304 0.212949 0.093350
Si Si6 0.326144 0.736030 0.920749
O O1 0.500000 0.987755 0.549656
O O2 0.258132 0.999892 0.637805
O O3 0.252109 0.973971 0.468329
O O4 0.330858 0.872602 0.577122
O O5 0.195274 0.898486 0.756114
O O6 0.000000 0.995213 0.703917
O O7 0.227850 0.034990 0.799910
O O8 0.500000 0.445901 0.404086
O O9 0.290883 0.345993 0.390376
O O10 0.500000 0.708753 0.266329
O O11 0.748706 0.729679 0.183762
O O12 0.750549 0.709943 0.353123
O O13 0.500000 0.242623 0.098470
O O14 0.244890 0.252189 0.015111
O O15 0.500000 0.750895 0.925701
#
# Coordination Sequence:
#
# PCOD8174574 Si02
#       6
#     8   8   8   8   8   8
#     4   9  17  29  48  73  98 125 157 197 242 285
#     4   9  18  33  52  72  95 127 164 198 234 282
#     4   9  18  33  52  72  95 127 164 198 234 282
#     4  10  19  32  51  74  99 127 161 200 241 286
#     4   9  17  31  50  71  96 127 163 199 238 287
#     4  10  19  32  51  74  99 127 161 200 241 286
#
# _framework density 18.790189000000002
#
# number of rings (size 3 to 8) (size 9 to 14) (size 15 to 20)
#    0.000    2.667    0.000    2.000    0.000    6.000 
#    0.000    1.667    0.000    4.000    0.000    0.000 
#    0.000    0.000    0.000    0.000    0.000    0.000 
#
# Total GULP energy -297624.058115 kJ/mol
# GULP energy per Si atom -12401.002421 kJ/mol
# Density = 1.874742 g / cm^3
# Si number density = 18.790189 Si / 1000 Ang^3
#
#
#
# Elastic Constant Matrix: (Units=GPa)
#
#
# Indices 1 2 3 4 5 6 
#
# 1 90.2292 9.2804 12.8365 0.0000 0.0000 0.0000
# 2 9.2804 12.2764 -2.9194 0.0000 0.0000 0.0000
# 3 12.8365 -2.9194 30.6102 0.0000 0.0000 0.0000
# 4 0.0000 0.0000 0.0000 30.6479 0.0000 0.0000
# 5 0.0000 0.0000 0.0000 0.0000 40.8714 0.0000
# 6 0.0000 0.0000 0.0000 0.0000 0.0000 18.0820
#
#
#
# Elastic Compliance Matrix: (Units=1/GPa)
#
#
# Indices 1 2 3 4 5 6 
#
# 1 0.013219 -0.011574 -0.006647 0.000000 0.000000 0.000000
# 2 -0.011574 0.093481 0.013769 0.000000 0.000000 0.000000
# 3 -0.006647 0.013769 0.036770 0.000000 0.000000 0.000000
# 4 0.000000 0.000000 0.000000 0.032629 0.000000 0.000000
# 5 0.000000 0.000000 0.000000 0.000000 0.024467 0.000000
# 6 0.000000 0.000000 0.000000 0.000000 0.000000 0.055304
#
#
# Mechanical properties :
#
#
# Convention : Reuss Voigt Hill
#
# Bulk Modulus (GPa) = 7.43131 19.05675 13.24403
# Shear Modulus (GPa) = 16.14843 25.51482 20.83163
#
# Velocity S-wave (km/s) = 2.93475 3.68894 3.33324
# Velocity P-wave (km/s) = 3.93028 5.32055 4.67736
#
# Compressibility (1/GPa) = 0.13456585
#
# Stress axis : x y z
#
# Youngs Moduli (GPa) = 75.64895 10.69738 27.19633
#
# Poissons Ratio (x) = 0.12381 0.18078
# Poissons Ratio (y) = 0.87554 -0.37447
# Poissons Ratio (z) = 0.50286 -0.14729
#
# Static dielectric constant tensor:
#      x y z
#    x 3.584080 0.000000 0.000000 
#    y 0.000000 3.036220 0.000000 
#    z 0.000000 0.000000 3.651970 
# 
# 
# High freq. dielectric constant tensor:
#      x y z
#    x 1.739310 0.000000 0.000000 
#    y 0.000000 1.683610 0.000000 
#    z 0.000000 0.000000 1.744590 
# 
# From -- ./inp_files/6739.got.cif
#   From: 2010.03.12/outbox.cif.g09.slc.cpg/sg36_4_cif.got.tgz:6739.got - 2010.04.14 02:13:53.
