data_PCOD8174884
_publ_section_title
;
Structure prediction by ZEFSAII (Michael W. Deem and Ramdas Pophale) SiO2 
 PCOD8174884
Probable space group: C M C 21
;
_chemical_formula_sum "Si O2"
_cell_formula_units_Z 64
_cell_length_a 8.539737
_cell_length_b 15.508659
_cell_length_c 23.981632
_cell_angle_alpha 90.000000
_cell_angle_beta 90.000000
_cell_angle_gamma 90.000000
_cell_volume 3176.124202
_symmetry_space_group_name_H-M "C M C 21"
_symmetry_group_IT_number 36
_symmetry_cell_setting 'orthorhombic'
loop_
_space_group_symop_operation_xyz
x,y,z
-x,-y,1/2+z
x,-y,1/2+z
-x,y,z
1/2+x,1/2+y,z
1/2-x,1/2-y,1/2+z
1/2+x,1/2-y,1/2+z
1/2-x,1/2+y,z
loop_
_atom_site_type_symbol
_atom_site_label
_atom_site_fract_x
_atom_site_fract_y
_atom_site_fract_z
Si Si1 0.816266 0.405746 0.641320
Si Si2 0.814204 0.589405 0.378969
Si Si3 0.814261 0.908633 0.380289
Si Si4 0.185450 0.653087 0.261310
Si Si5 0.684153 0.245064 0.577992
Si Si6 0.184223 0.914057 0.144627
Si Si7 0.814124 0.251284 0.951129
Si Si8 0.313873 0.346129 0.261828
O O1 0.762132 0.397094 0.705751
O O2 0.723100 0.336790 0.604923
O O3 0.771722 0.501572 0.620854
O O4 0.000000 0.388656 0.634004
O O5 0.749677 0.499447 0.402262
O O6 0.749337 0.604843 0.316159
O O7 0.749490 0.664678 0.419047
O O8 0.000000 0.587762 0.379809
O O9 0.748209 0.834183 0.420796
O O10 0.751011 0.892293 0.317540
O O11 0.000000 0.909342 0.381145
O O12 0.255414 0.749531 0.259293
O O13 0.000000 0.658715 0.265326
O O14 0.500000 0.227189 0.582008
O O15 0.776344 0.168599 0.607779
O O16 0.744261 0.247232 0.514485
O O17 0.244894 0.897812 0.207655
O O18 0.000000 0.930535 0.142736
O O19 0.000000 0.250111 0.948033
O O20 0.500000 0.341115 0.262070
#
# Coordination Sequence:
#
# PCOD8174884 Si02
#       8
#     8   8   8   8   8   8   8   8
#     4  11  22  38  60  87 117 151 189 233 286 341
#     4  10  19  35  59  84 111 144 181 225 278 335
#     4  10  19  35  59  84 111 144 181 225 278 335
#     4   9  16  31  58  85 111 145 182 223 279 342
#     4  11  23  40  59  83 113 151 198 241 282 332
#     4  11  22  38  60  87 117 151 189 233 286 341
#     4   9  20  38  59  79 107 149 190 227 274 332
#     4   9  16  31  58  85 111 145 182 223 279 342
#
# _framework density 20.150345999999999
#
# number of rings (size 3 to 8) (size 9 to 14) (size 15 to 20)
#    0.000    2.000    2.500    1.875    0.000    1.000 
#    0.000    6.875    0.000    0.000    0.000    0.000 
#    0.000    0.000    0.000    0.000    0.000    0.000 
#
# Total GULP energy -396841.745714 kJ/mol
# GULP energy per Si atom -12401.304554 kJ/mol
# Density = 2.010448 g / cm^3
# Si number density = 20.150346 Si / 1000 Ang^3
#
#
#
# Elastic Constant Matrix: (Units=GPa)
#
#
# Indices 1 2 3 4 5 6 
#
# 1 24.5897 8.7219 16.6513 0.0000 0.0000 0.0000
# 2 8.7219 158.5589 56.4039 0.0000 0.0000 0.0000
# 3 16.6513 56.4039 143.7930 0.0000 0.0000 0.0000
# 4 0.0000 0.0000 0.0000 11.4852 0.0000 0.0000
# 5 0.0000 0.0000 0.0000 0.0000 20.5520 0.0000
# 6 0.0000 0.0000 0.0000 0.0000 0.0000 31.3162
#
#
#
# Elastic Compliance Matrix: (Units=1/GPa)
#
#
# Indices 1 2 3 4 5 6 
#
# 1 0.044196 -0.000710 -0.004840 0.000000 0.000000 0.000000
# 2 -0.000710 0.007341 -0.002797 0.000000 0.000000 0.000000
# 3 -0.004840 -0.002797 0.008612 0.000000 0.000000 0.000000
# 4 0.000000 0.000000 0.000000 0.087069 0.000000 0.000000
# 5 0.000000 0.000000 0.000000 0.000000 0.048657 0.000000
# 6 0.000000 0.000000 0.000000 0.000000 0.000000 0.031932
#
#
# Mechanical properties :
#
#
# Convention : Reuss Voigt Hill
#
# Bulk Modulus (GPa) = 23.01158 54.49954 38.75556
# Shear Modulus (GPa) = 19.30604 29.01496 24.16050
#
# Velocity S-wave (km/s) = 3.09868 3.79875 3.46643
# Velocity P-wave (km/s) = 4.92414 6.80778 5.94108
#
# Compressibility (1/GPa) = 0.04345637
#
# Stress axis : x y z
#
# Youngs Moduli (GPa) = 22.62630 136.22234 116.11479
#
# Poissons Ratio (x) = 0.09665 0.56195
# Poissons Ratio (y) = 0.01605 0.32482
# Poissons Ratio (z) = 0.10950 0.38107
#
# Static dielectric constant tensor:
#      x y z
#    x 3.163600 0.000000 0.000000 
#    y 0.000000 3.780100 0.000000 
#    z 0.000000 0.000000 3.870100 
# 
# 
# High freq. dielectric constant tensor:
#      x y z
#    x 1.747450 0.000000 0.000000 
#    y 0.000000 1.802670 0.000000 
#    z 0.000000 0.000000 1.787030 
# 
# From -- ./inp_files/16673.got.cif
#   From: 2010.03.12/outbox.cif.g09.slc.cpg/sg36_9_cif.got.tgz:16673.got - 2010.04.14 02:13:53.
