data_PCOD8174072
_publ_section_title
;
Structure prediction by ZEFSAII (Michael W. Deem and Ramdas Pophale) SiO2 
 PCOD8174072
Probable space group: C M M 2
;
_chemical_formula_sum "Si O2"
_cell_formula_units_Z 48
_cell_length_a 16.939930
_cell_length_b 20.643335
_cell_length_c 7.732774
_cell_angle_alpha 90.000000
_cell_angle_beta 90.000000
_cell_angle_gamma 90.000000
_cell_volume 2704.125162
_symmetry_space_group_name_H-M "C M M 2"
_symmetry_group_IT_number 35
_symmetry_cell_setting 'orthorhombic'
loop_
_space_group_symop_operation_xyz
x,y,z
-x,-y,z
-x,y,z
x,-y,z
1/2+x,1/2+y,z
1/2-x,1/2-y,z
1/2-x,1/2+y,z
1/2+x,1/2-y,z
loop_
_atom_site_type_symbol
_atom_site_label
_atom_site_fract_x
_atom_site_fract_y
_atom_site_fract_z
Si Si1 0.342712 0.368212 0.847420
Si Si2 0.910603 0.000000 0.717340
Si Si3 0.407140 0.243363 0.697325
Si Si4 0.662960 0.763554 0.346646
Si Si5 0.589692 0.635608 0.202036
Si Si6 0.088039 0.000000 0.311863
Si Si7 0.806198 0.311583 0.985271
O O1 0.360332 0.438221 0.772447
O O2 0.360307 0.312222 0.705934
O O3 0.252393 0.369441 0.923880
O O4 0.404750 0.352043 0.998566
O O5 0.916413 0.000000 0.514853
O O6 0.000000 0.000000 0.796223
O O7 0.500000 0.253851 0.715839
O O8 0.387394 0.210575 0.510664
O O9 0.378216 0.195463 0.850701
O O10 0.750000 0.750000 0.415168
O O11 0.632210 0.693218 0.297054
O O12 0.660487 0.814698 0.183872
O O13 0.500000 0.635331 0.267136
O O14 0.630619 0.565837 0.246024
O O15 0.000000 0.000000 0.230688
O O16 0.750000 0.250000 0.979887
#
# Coordination Sequence:
#
# PCOD8174072 Si02
#       7
#     8   4   8   8   8   4   8
#     4  11  20  35  51  75 107 146 181 217 264 317
#     4  11  21  33  51  77 112 147 184 218 254 312
#     4  11  21  32  52  79 105 137 180 223 270 318
#     4  11  19  33  51  70 101 143 179 218 267 315
#     4  11  19  31  50  71 102 140 179 215 255 306
#     4   9  21  33  43  73 109 141 178 212 251 306
#     4   9  19  36  50  72 103 139 179 220 266 321
#
# _framework density 17.750657
#
# number of rings (size 3 to 8) (size 9 to 14) (size 15 to 20)
#    0.000    1.500    5.000    5.000    0.000    2.667 
#    0.000    0.000    0.000    0.000    0.000    0.583 
#    0.000    0.000    0.000    2.250    0.000    0.000 
#
# Total GULP energy -297414.770477 kJ/mol
# GULP energy per Si atom -12392.282103 kJ/mol
# Density = 1.771026 g / cm^3
# Si number density = 17.750657 Si / 1000 Ang^3
#
#
#
# Elastic Constant Matrix: (Units=GPa)
#
#
# Indices 1 2 3 4 5 6 
#
# 1 78.0129 36.0717 37.3988 0.0000 0.0000 0.0000
# 2 36.0717 55.5763 17.6533 0.0000 0.0000 0.0000
# 3 37.3988 17.6533 110.2973 0.0000 0.0000 0.0000
# 4 0.0000 0.0000 0.0000 15.3596 0.0000 0.0000
# 5 0.0000 0.0000 0.0000 0.0000 -29.3706 0.0000
# 6 0.0000 0.0000 0.0000 0.0000 0.0000 31.5167
#
#
#
# Elastic Compliance Matrix: (Units=1/GPa)
#
#
# Indices 1 2 3 4 5 6 
#
# 1 0.020759 -0.011839 -0.005144 0.000000 0.000000 0.000000
# 2 -0.011839 0.025710 -0.000100 0.000000 0.000000 0.000000
# 3 -0.005144 -0.000100 0.010827 0.000000 0.000000 0.000000
# 4 0.000000 0.000000 0.000000 0.065106 0.000000 0.000000
# 5 0.000000 0.000000 0.000000 0.000000 -0.034048 0.000000
# 6 0.000000 0.000000 0.000000 0.000000 0.000000 0.031729
#
#
# Mechanical properties :
#
#
# Convention : Reuss Voigt Hill
#
# Bulk Modulus (GPa) = 43.23862 47.34824 45.29343
# Shear Modulus (GPa) = 30.87208 13.68533 22.27870
#
# Velocity S-wave (km/s) = 4.17491 2.77966 3.54657
# Velocity P-wave (km/s) = 6.90301 6.08555 6.50713
#
# Compressibility (1/GPa) = 0.02312747
#
# Stress axis : x y z
#
# Youngs Moduli (GPa) = 48.17279 38.89597 92.36524
#
# Poissons Ratio (x) = 0.46051 0.47510
# Poissons Ratio (y) = 0.57034 0.00928
# Poissons Ratio (z) = 0.24779 0.00391
#
# Static dielectric constant tensor:
#      x y z
#    x 3.962400 0.000000 0.000000 
#    y 0.000000 3.546860 0.000000 
#    z 0.000000 0.000000 3.768850 
# 
# 
# High freq. dielectric constant tensor:
#      x y z
#    x 1.667610 0.000000 0.000000 
#    y 0.000000 1.639900 0.000000 
#    z 0.000000 0.000000 1.709160 
# 
# From -- ./inp_files/8634.got.cif
#   From: 2010.03.12/outbox.cif.g09.slc.cpg/sg35_5_cif.got.tgz:8634.got - 2010.04.14 02:02:04.
