data_PCOD8174713
_publ_section_title
;
Structure prediction by ZEFSAII (Michael W. Deem and Ramdas Pophale) SiO2 
 PCOD8174713
Probable space group: C M C 21
;
_chemical_formula_sum "Si O2"
_cell_formula_units_Z 64
_cell_length_a 8.864335
_cell_length_b 18.316518
_cell_length_c 20.724978
_cell_angle_alpha 90.000000
_cell_angle_beta 90.000000
_cell_angle_gamma 90.000000
_cell_volume 3364.985180
_symmetry_space_group_name_H-M "C M C 21"
_symmetry_group_IT_number 36
_symmetry_cell_setting 'orthorhombic'
loop_
_space_group_symop_operation_xyz
x,y,z
-x,-y,1/2+z
x,-y,1/2+z
-x,y,z
1/2+x,1/2+y,z
1/2-x,1/2-y,1/2+z
1/2+x,1/2-y,1/2+z
1/2-x,1/2+y,z
loop_
_atom_site_type_symbol
_atom_site_label
_atom_site_fract_x
_atom_site_fract_y
_atom_site_fract_z
Si Si1 0.169336 0.837834 0.679500
Si Si2 0.821602 0.329787 0.811358
Si Si3 0.166128 0.335429 0.176152
Si Si4 0.320351 0.173710 0.817065
Si Si5 0.676018 0.330345 0.049218
Si Si6 0.678269 0.838040 0.549640
Si Si7 0.826158 0.085723 0.929387
Si Si8 0.825634 0.085968 0.423942
O O1 0.254577 0.860860 0.744605
O O2 0.161878 0.751392 0.675657
O O3 0.262761 0.867865 0.618384
O O4 0.000000 0.870843 0.679319
O O5 0.754559 0.251599 0.831370
O O6 0.777846 0.387848 0.865560
O O7 0.000000 0.322933 0.804671
O O8 0.230561 0.357752 0.246733
O O9 0.263841 0.364420 0.116414
O O10 0.000000 0.368455 0.166859
O O11 0.500000 0.184752 0.819024
O O12 0.268802 0.116045 0.869748
O O13 0.500000 0.338693 0.053914
O O14 0.724194 0.246425 0.040122
O O15 0.737932 0.376216 0.988905
O O16 0.500000 0.849502 0.544856
O O17 0.761597 0.883448 0.495372
O O18 0.000000 0.108921 0.921803
O O19 0.806396 0.999660 0.931450
O O20 0.000000 0.107985 0.411514
#
# Coordination Sequence:
#
# PCOD8174713 Si02
#       8
#     8   8   8   8   8   8   8   8
#     4   9  17  32  54  80 111 141 172 218 273 323
#     4  11  21  34  57  86 110 137 180 227 272 326
#     4   8  16  30  51  79 106 132 165 212 267 318
#     4  10  20  36  57  80 109 143 178 222 276 327
#     4   9  18  33  55  79 103 135 173 215 264 319
#     4  10  19  33  56  83 109 139 178 225 275 326
#     4  11  23  37  54  77 107 146 189 229 270 322
#     4  10  22  39  54  74 109 149 185 222 271 325
#
# _framework density 19.019400000000001
#
# number of rings (size 3 to 8) (size 9 to 14) (size 15 to 20)
#    0.000    2.250    0.000    4.125    0.000    6.500 
#    0.000    1.250    0.000    4.500    0.000    0.000 
#    0.000    0.000    0.000    0.000    0.000    0.000 
#
# Total GULP energy -396793.894467 kJ/mol
# GULP energy per Si atom -12399.809202 kJ/mol
# Density = 1.897611 g / cm^3
# Si number density = 19.019400 Si / 1000 Ang^3
#
#
#
# Elastic Constant Matrix: (Units=GPa)
#
#
# Indices 1 2 3 4 5 6 
#
# 1 84.4996 33.9073 50.2165 0.0000 0.0000 0.0000
# 2 33.9073 53.1499 49.1591 0.0000 0.0000 0.0000
# 3 50.2165 49.1591 169.7883 0.0000 0.0000 0.0000
# 4 0.0000 0.0000 0.0000 -1.4808 0.0000 0.0000
# 5 0.0000 0.0000 0.0000 0.0000 -168.4213 0.0000
# 6 0.0000 0.0000 0.0000 0.0000 0.0000 20.2872
#
#
#
# Elastic Compliance Matrix: (Units=1/GPa)
#
#
# Indices 1 2 3 4 5 6 
#
# 1 0.016664 -0.008293 -0.002527 0.000000 0.000000 0.000000
# 2 -0.008293 0.029823 -0.006182 0.000000 0.000000 0.000000
# 3 -0.002527 -0.006182 0.008427 0.000000 0.000000 0.000000
# 4 0.000000 0.000000 0.000000 -0.675296 0.000000 0.000000
# 5 0.000000 0.000000 0.000000 0.000000 -0.005937 0.000000
# 6 0.000000 0.000000 0.000000 0.000000 0.000000 0.049292
#
#
# Mechanical properties :
#
#
# Convention : Reuss Voigt Hill
#
# Bulk Modulus (GPa) = 47.82606 63.77815 55.80211
# Shear Modulus (GPa) = -9.32747 -18.31267 -13.82007
#
# Velocity S-wave (km/s) = -2.21694 -3.10633 -2.69853
# Velocity P-wave (km/s) = 4.31827 4.55415 4.43777
#
# Compressibility (1/GPa) = 0.02090910
#
# Stress axis : x y z
#
# Youngs Moduli (GPa) = 60.00856 33.53083 118.66542
#
# Poissons Ratio (x) = 0.27809 0.29992
# Poissons Ratio (y) = 0.49768 0.73358
# Poissons Ratio (z) = 0.15167 0.20729
#
# Static dielectric constant tensor:
#      x y z
#    x 6.188390 0.000000 0.000000 
#    y 0.000000 3.195600 0.000000 
#    z 0.000000 0.000000 3.972190 
# 
# 
# High freq. dielectric constant tensor:
#      x y z
#    x 1.744720 0.000000 0.000000 
#    y 0.000000 1.699860 0.000000 
#    z 0.000000 0.000000 1.761390 
# 
# From -- ./inp_files/15738.got.cif
#   From: 2010.03.12/outbox.cif.g09.slc.cpg/sg36_8_cif.got.tgz:15738.got - 2010.04.14 02:13:53.
