data_PCOD8174816
_publ_section_title
;
Structure prediction by ZEFSAII (Michael W. Deem and Ramdas Pophale) SiO2 
 PCOD8174816
Probable space group: C M C 21
;
_chemical_formula_sum "Si O2"
_cell_formula_units_Z 48
_cell_length_a 12.867324
_cell_length_b 8.647821
_cell_length_c 21.968854
_cell_angle_alpha 90.000000
_cell_angle_beta 90.000000
_cell_angle_gamma 90.000000
_cell_volume 2444.569174
_symmetry_space_group_name_H-M "C M C 21"
_symmetry_group_IT_number 36
_symmetry_cell_setting 'orthorhombic'
loop_
_space_group_symop_operation_xyz
x,y,z
-x,-y,1/2+z
x,-y,1/2+z
-x,y,z
1/2+x,1/2+y,z
1/2-x,1/2-y,1/2+z
1/2+x,1/2-y,1/2+z
1/2-x,1/2+y,z
loop_
_atom_site_type_symbol
_atom_site_label
_atom_site_fract_x
_atom_site_fract_y
_atom_site_fract_z
Si Si1 0.692031 0.268010 0.043940
Si Si2 0.747160 0.354165 0.868837
Si Si3 0.883500 0.116507 0.661395
Si Si4 0.379843 0.091921 0.936244
Si Si5 0.624993 0.385399 0.297686
Si Si6 0.884305 0.090118 0.054086
O O1 0.669505 0.256242 0.116707
O O2 0.659204 0.437258 0.018610
O O3 0.815391 0.237757 0.036393
O O4 0.629112 0.134991 0.007910
O O5 0.669993 0.232524 0.898916
O O6 0.815332 0.437624 0.920996
O O7 0.674115 0.470450 0.832308
O O8 0.830420 0.273877 0.824250
O O9 0.833556 0.103819 0.727920
O O10 0.881065 0.949623 0.626514
O O11 0.000000 0.175195 0.670281
O O12 0.500000 0.069480 0.918229
O O13 0.500000 0.390533 0.303211
O O14 0.000000 0.127167 0.031111
#
# Coordination Sequence:
#
# PCOD8174816 Si02
#       6
#     8   8   8   8   8   8
#     4  10  19  34  58  80 108 143 175 216 274 319
#     4  10  23  36  55  82 104 146 185 220 268 315
#     4   8  18  34  57  81 107 141 176 221 274 320
#     4  11  21  38  57  78 111 143 181 225 263 319
#     4  10  20  37  57  79 109 140 180 226 269 319
#     4   9  19  35  52  80 111 135 173 216 264 322
#
# _framework density 19.635363000000002
#
# number of rings (size 3 to 8) (size 9 to 14) (size 15 to 20)
#    1.000    1.333    0.000    3.000    2.333    0.000 
#    0.000    8.333    0.000    1.000    0.000    0.000 
#    0.000    0.000    0.000    0.000    0.000    0.000 
#
# Total GULP energy -297336.260840 kJ/mol
# GULP energy per Si atom -12389.010868 kJ/mol
# Density = 1.959067 g / cm^3
# Si number density = 19.635363 Si / 1000 Ang^3
#
#
#
# Elastic Constant Matrix: (Units=GPa)
#
#
# Indices 1 2 3 4 5 6 
#
# 1 131.6714 28.5616 19.0774 0.0000 0.0000 0.0000
# 2 28.5616 36.5620 5.3464 0.0000 0.0000 0.0000
# 3 19.0774 5.3464 58.0082 0.0000 0.0000 0.0000
# 4 0.0000 0.0000 0.0000 15.6610 0.0000 0.0000
# 5 0.0000 0.0000 0.0000 0.0000 25.4237 0.0000
# 6 0.0000 0.0000 0.0000 0.0000 0.0000 35.8391
#
#
#
# Elastic Compliance Matrix: (Units=1/GPa)
#
#
# Indices 1 2 3 4 5 6 
#
# 1 0.009481 -0.007045 -0.002469 0.000000 0.000000 0.000000
# 2 -0.007045 0.032960 -0.000721 0.000000 0.000000 0.000000
# 3 -0.002469 -0.000721 0.018117 0.000000 0.000000 0.000000
# 4 0.000000 0.000000 0.000000 0.063853 0.000000 0.000000
# 5 0.000000 0.000000 0.000000 0.000000 0.039333 0.000000
# 6 0.000000 0.000000 0.000000 0.000000 0.000000 0.027902
#
#
# Mechanical properties :
#
#
# Convention : Reuss Voigt Hill
#
# Bulk Modulus (GPa) = 24.94479 36.91249 30.92864
# Shear Modulus (GPa) = 22.17513 26.93518 24.55515
#
# Velocity S-wave (km/s) = 3.36422 3.70776 3.54016
# Velocity P-wave (km/s) = 5.27468 6.09670 5.70053
#
# Compressibility (1/GPa) = 0.04008853
#
# Stress axis : x y z
#
# Youngs Moduli (GPa) = 105.47963 30.34007 55.19612
#
# Poissons Ratio (x) = 0.21375 0.13626
# Poissons Ratio (y) = 0.74311 0.03979
# Poissons Ratio (z) = 0.26039 0.02187
#
# Static dielectric constant tensor:
#      x y z
#    x 3.528720 0.000000 0.000000 
#    y 0.000000 3.323340 0.000000 
#    z 0.000000 0.000000 3.703320 
# 
# 
# High freq. dielectric constant tensor:
#      x y z
#    x 1.770000 0.000000 0.000000 
#    y 0.000000 1.746010 0.000000 
#    z 0.000000 0.000000 1.763330 
# 
# From -- ./inp_files/17133.got.cif
#   From: 2010.03.12/outbox.cif.g09.slc.cpg/sg36_9_cif.got.tgz:17133.got - 2010.04.14 02:13:53.
