data_PCOD8174690
_publ_section_title
;
Structure prediction by ZEFSAII (Michael W. Deem and Ramdas Pophale) SiO2 
 PCOD8174690
Probable space group: C M C 21
;
_chemical_formula_sum "Si O2"
_cell_formula_units_Z 64
_cell_length_a 8.500355
_cell_length_b 18.586944
_cell_length_c 20.610268
_cell_angle_alpha 90.000000
_cell_angle_beta 90.000000
_cell_angle_gamma 90.000000
_cell_volume 3256.332120
_symmetry_space_group_name_H-M "C M C 21"
_symmetry_group_IT_number 36
_symmetry_cell_setting 'orthorhombic'
loop_
_space_group_symop_operation_xyz
x,y,z
-x,-y,1/2+z
x,-y,1/2+z
-x,y,z
1/2+x,1/2+y,z
1/2-x,1/2-y,1/2+z
1/2+x,1/2-y,1/2+z
1/2-x,1/2+y,z
loop_
_atom_site_type_symbol
_atom_site_label
_atom_site_fract_x
_atom_site_fract_y
_atom_site_fract_z
Si Si1 0.187256 0.205548 0.223790
Si Si2 0.815356 0.294450 0.346542
Si Si3 0.686771 0.204999 0.602254
Si Si4 0.184961 0.455253 0.480538
Si Si5 0.184359 0.957141 0.721979
Si Si6 0.682943 0.448740 0.344259
Si Si7 0.684254 0.700006 0.982896
Si Si8 0.314249 0.044074 0.602646
O O1 0.248187 0.243992 0.288970
O O2 0.255473 0.248544 0.161947
O O3 0.250495 0.124048 0.221705
O O4 0.000000 0.206247 0.222787
O O5 0.781423 0.377168 0.328489
O O6 0.724424 0.270494 0.411470
O O7 0.000000 0.284676 0.357903
O O8 0.500000 0.202195 0.607483
O O9 0.739621 0.240946 0.534823
O O10 0.757358 0.124521 0.605325
O O11 0.271273 0.479848 0.414663
O O12 0.221260 0.372688 0.497232
O O13 0.252042 0.503921 0.538966
O O14 0.000000 0.465193 0.470866
O O15 0.000000 0.958561 0.707537
O O16 0.224883 0.991040 0.791602
O O17 0.269760 0.001946 0.666959
O O18 0.500000 0.428276 0.343393
O O19 0.500000 0.683349 0.988775
O O20 0.500000 0.047703 0.597644
#
# Coordination Sequence:
#
# PCOD8174690 Si02
#       8
#     8   8   8   8   8   8   8   8
#     4   9  18  33  53  75 100 133 171 208 250 303
#     4  10  19  33  55  78 103 136 171 210 255 304
#     4   9  18  33  53  75 100 133 171 208 250 303
#     4  10  20  34  53  77 106 137 171 211 254 306
#     4  10  21  36  54  78 105 135 174 216 259 308
#     4  10  20  34  53  77 106 137 171 211 254 306
#     4  10  19  33  55  78 103 136 171 210 255 304
#     4  10  21  36  54  78 105 135 174 216 259 308
#
# _framework density 19.654015000000001
#
# number of rings (size 3 to 8) (size 9 to 14) (size 15 to 20)
#    0.000    2.250    0.000    4.500    0.000    5.000 
#    0.000    2.500    0.000    6.750    0.000    0.000 
#    0.000    0.000    0.000    0.000    0.000    0.000 
#
# Total GULP energy -396855.505308 kJ/mol
# GULP energy per Si atom -12401.734541 kJ/mol
# Density = 1.960928 g / cm^3
# Si number density = 19.654015 Si / 1000 Ang^3
#
#
#
# Elastic Constant Matrix: (Units=GPa)
#
#
# Indices 1 2 3 4 5 6 
#
# 1 22.9063 6.9679 15.9372 0.0000 0.0000 0.0000
# 2 6.9679 142.3600 94.8514 0.0000 0.0000 0.0000
# 3 15.9372 94.8514 158.4378 0.0000 0.0000 0.0000
# 4 0.0000 0.0000 0.0000 46.6777 0.0000 0.0000
# 5 0.0000 0.0000 0.0000 0.0000 26.4939 0.0000
# 6 0.0000 0.0000 0.0000 0.0000 0.0000 16.6469
#
#
#
# Elastic Compliance Matrix: (Units=1/GPa)
#
#
# Indices 1 2 3 4 5 6 
#
# 1 0.047112 0.001417 -0.005587 0.000000 0.000000 0.000000
# 2 0.001417 0.011728 -0.007164 0.000000 0.000000 0.000000
# 3 -0.005587 -0.007164 0.011162 0.000000 0.000000 0.000000
# 4 0.000000 0.000000 0.000000 0.021424 0.000000 0.000000
# 5 0.000000 0.000000 0.000000 0.000000 0.037745 0.000000
# 6 0.000000 0.000000 0.000000 0.000000 0.000000 0.060071
#
#
# Mechanical properties :
#
#
# Convention : Reuss Voigt Hill
#
# Bulk Modulus (GPa) = 21.12625 62.13522 41.63074
# Shear Modulus (GPa) = 21.95979 31.69354 26.82666
#
# Velocity S-wave (km/s) = 3.34626 4.02004 3.69853
# Velocity P-wave (km/s) = 5.06975 7.29594 6.28224
#
# Compressibility (1/GPa) = 0.04733448
#
# Stress axis : x y z
#
# Youngs Moduli (GPa) = 21.22580 85.26483 89.58701
#
# Poissons Ratio (x) = -0.12079 0.50053
# Poissons Ratio (y) = -0.03007 0.64178
# Poissons Ratio (z) = 0.11859 0.61082
#
# Static dielectric constant tensor:
#      x y z
#    x 3.321610 0.000000 0.000000 
#    y 0.000000 3.734570 0.000000 
#    z 0.000000 0.000000 3.837860 
# 
# 
# High freq. dielectric constant tensor:
#      x y z
#    x 1.741200 0.000000 0.000000 
#    y 0.000000 1.766150 0.000000 
#    z 0.000000 0.000000 1.782410 
# 
# From -- ./inp_files/15711.got.cif
#   From: 2010.03.12/outbox.cif.g09.slc.cpg/sg36_8_cif.got.tgz:15711.got - 2010.04.14 02:13:53.
