data_PCOD8174497
_publ_section_title
;
Structure prediction by ZEFSAII (Michael W. Deem and Ramdas Pophale) SiO2 
 PCOD8174497
Probable space group: C M C 21
;
_chemical_formula_sum "Si O2"
_cell_formula_units_Z 48
_cell_length_a 24.546227
_cell_length_b 13.910825
_cell_length_c 8.712915
_cell_angle_alpha 90.000000
_cell_angle_beta 90.000000
_cell_angle_gamma 90.000000
_cell_volume 2975.096867
_symmetry_space_group_name_H-M "C M C 21"
_symmetry_group_IT_number 36
_symmetry_cell_setting 'orthorhombic'
loop_
_space_group_symop_operation_xyz
x,y,z
-x,-y,1/2+z
x,-y,1/2+z
-x,y,z
1/2+x,1/2+y,z
1/2-x,1/2-y,1/2+z
1/2+x,1/2-y,1/2+z
1/2-x,1/2+y,z
loop_
_atom_site_type_symbol
_atom_site_label
_atom_site_fract_x
_atom_site_fract_y
_atom_site_fract_z
Si Si1 0.561180 0.372477 0.363500
Si Si2 0.159145 0.872649 0.822047
Si Si3 0.061418 0.070447 0.517202
Si Si4 0.661382 0.285967 0.497920
Si Si5 0.774893 0.052923 0.825544
Si Si6 0.261634 0.115371 0.502297
O O1 0.500000 0.330121 0.372075
O O2 0.569189 0.457162 0.487471
O O3 0.573767 0.413173 0.195278
O O4 0.604004 0.289350 0.407286
O O5 0.152699 0.803093 0.677982
O O6 0.174879 0.982943 0.772659
O O7 0.102506 0.868061 0.913979
O O8 0.207334 0.833226 0.933334
O O9 0.000000 0.102028 0.473032
O O10 0.703009 0.365625 0.437499
O O11 0.685770 0.180348 0.470227
O O12 0.745568 0.102129 0.683298
O O13 0.730845 0.988595 0.920204
#
# Coordination Sequence:
#
# PCOD8174497 Si02
#       6
#     8   8   8   8   8   8
#     4  10  20  31  46  70 100 131 170 207 242 301
#     4  10  19  32  46  70 100 135 163 204 236 291
#     4  10  19  31  48  69  99 141 168 194 250 303
#     4  12  20  32  52  73  98 137 169 202 251 298
#     4  10  19  35  46  69 104 127 168 205 245 289
#     4  10  21  33  51  71  98 137 166 206 254 296
#
# _framework density 16.133928999999998
#
# number of rings (size 3 to 8) (size 9 to 14) (size 15 to 20)
#    1.000    0.667    3.333    3.000    0.000    2.000 
#    0.000    0.000    0.000    0.000    0.000    1.167 
#    0.000    1.333    0.000    0.000    0.000    0.000 
#
# Total GULP energy -297521.691684 kJ/mol
# GULP energy per Si atom -12396.737153 kJ/mol
# Density = 1.609721 g / cm^3
# Si number density = 16.133929 Si / 1000 Ang^3
#
#
#
# Elastic Constant Matrix: (Units=GPa)
#
#
# Indices 1 2 3 4 5 6 
#
# 1 111.5813 47.2997 52.5633 0.0000 0.0000 0.0000
# 2 47.2997 53.2200 31.6987 0.0000 0.0000 0.0000
# 3 52.5633 31.6987 90.7233 0.0000 0.0000 0.0000
# 4 0.0000 0.0000 0.0000 15.5477 0.0000 0.0000
# 5 0.0000 0.0000 0.0000 0.0000 26.9936 0.0000
# 6 0.0000 0.0000 0.0000 0.0000 0.0000 28.2430
#
#
#
# Elastic Compliance Matrix: (Units=1/GPa)
#
#
# Indices 1 2 3 4 5 6 
#
# 1 0.016323 -0.011207 -0.005542 0.000000 0.000000 0.000000
# 2 -0.011207 0.031422 -0.004486 0.000000 0.000000 0.000000
# 3 -0.005542 -0.004486 0.015801 0.000000 0.000000 0.000000
# 4 0.000000 0.000000 0.000000 0.064318 0.000000 0.000000
# 5 0.000000 0.000000 0.000000 0.000000 0.037046 0.000000
# 6 0.000000 0.000000 0.000000 0.000000 0.000000 0.035407
#
#
# Mechanical properties :
#
#
# Convention : Reuss Voigt Hill
#
# Bulk Modulus (GPa) = 47.44471 57.62755 52.53613
# Shear Modulus (GPa) = 20.01515 22.42105 21.21810
#
# Velocity S-wave (km/s) = 3.52598 3.73189 3.63040
# Velocity P-wave (km/s) = 6.78582 7.37327 7.08564
#
# Compressibility (1/GPa) = 0.02107716
#
# Stress axis : x y z
#
# Youngs Moduli (GPa) = 61.26269 31.82507 63.28849
#
# Poissons Ratio (x) = 0.35665 0.35073
# Poissons Ratio (y) = 0.68655 0.28391
# Poissons Ratio (z) = 0.33950 0.14276
#
# Static dielectric constant tensor:
#      x y z
#    x 3.041550 0.000000 0.000000 
#    y 0.000000 2.642510 0.000000 
#    z 0.000000 0.000000 3.082750 
# 
# 
# High freq. dielectric constant tensor:
#      x y z
#    x 1.609150 0.000000 0.000000 
#    y 0.000000 1.566900 0.000000 
#    z 0.000000 0.000000 1.638790 
# 
# From -- ./inp_files/5591.got.cif
#   From: 2010.03.12/outbox.cif.g09.slc.cpg/sg36_3_cif.got.tgz:5591.got - 2010.04.14 02:13:53.
