data_PCOD8174943
_publ_section_title
;
Structure prediction by ZEFSAII (Michael W. Deem and Ramdas Pophale) SiO2 
 PCOD8174943
Probable space group: C M C 21
;
_chemical_formula_sum "Si O2"
_cell_formula_units_Z 64
_cell_length_a 8.623360
_cell_length_b 23.956631
_cell_length_c 14.522144
_cell_angle_alpha 90.000000
_cell_angle_beta 90.000000
_cell_angle_gamma 90.000000
_cell_volume 3000.081131
_symmetry_space_group_name_H-M "C M C 21"
_symmetry_group_IT_number 36
_symmetry_cell_setting 'orthorhombic'
loop_
_space_group_symop_operation_xyz
x,y,z
-x,-y,1/2+z
x,-y,1/2+z
-x,y,z
1/2+x,1/2+y,z
1/2-x,1/2-y,1/2+z
1/2+x,1/2-y,1/2+z
1/2-x,1/2+y,z
loop_
_atom_site_type_symbol
_atom_site_label
_atom_site_fract_x
_atom_site_fract_y
_atom_site_fract_z
Si Si1 0.675843 0.445777 0.578220
Si Si2 0.679653 0.903978 0.890727
Si Si3 0.318763 0.356733 0.718611
Si Si4 0.180936 0.798734 0.977554
Si Si5 0.320946 0.955824 0.192588
Si Si6 0.182845 0.248659 0.799128
Si Si7 0.319945 0.829770 0.162391
Si Si8 0.322428 0.482342 0.384356
O O1 0.500000 0.462922 0.601912
O O2 0.710722 0.383894 0.618371
O O3 0.777490 0.495022 0.622688
O O4 0.700017 0.438794 0.468399
O O5 0.500000 0.889362 0.909040
O O6 0.725050 0.899111 0.783987
O O7 0.787270 0.861806 0.946522
O O8 0.715927 0.966736 0.918798
O O9 0.500000 0.354444 0.745025
O O10 0.248514 0.295278 0.728644
O O11 0.251423 0.756018 0.902471
O O12 0.000000 0.787058 0.986461
O O13 0.258106 0.792271 0.077640
O O14 0.500000 0.962347 0.218162
O O15 0.287925 0.895597 0.145631
O O16 0.228306 0.956433 0.288170
O O17 0.233767 0.189487 0.756299
O O18 0.000000 0.253863 0.804987
O O19 0.500000 0.817199 0.174578
O O20 0.500000 0.502106 0.375267
#
# Coordination Sequence:
#
# PCOD8174943 Si02
#       8
#     8   8   8   8   8   8   8   8
#     4  10  22  38  60  88 121 162 204 246 302 368
#     4  11  20  33  56  87 120 157 201 251 303 357
#     4  10  19  36  60  85 115 154 197 251 305 356
#     4  11  22  39  65  95 123 161 210 260 312 368
#     4  11  24  40  62  91 125 164 203 254 311 364
#     4  11  23  41  65  93 122 162 207 257 313 370
#     4  11  24  44  65  91 127 166 209 261 313 372
#     4  11  22  37  57  86 123 164 205 246 303 371
#
# _framework density 21.332757000000001
#
# number of rings (size 3 to 8) (size 9 to 14) (size 15 to 20)
#    0.000    1.250    1.250    7.125    0.000    5.500 
#    2.250    0.000    0.000    0.000    0.000    0.000 
#    0.000    0.000    0.000    0.000    0.000    0.000 
#
# Total GULP energy -396773.985771 kJ/mol
# GULP energy per Si atom -12399.187055 kJ/mol
# Density = 2.128420 g / cm^3
# Si number density = 21.332757 Si / 1000 Ang^3
#
#
#
# Elastic Constant Matrix: (Units=GPa)
#
#
# Indices 1 2 3 4 5 6 
#
# 1 104.7664 19.1092 23.1955 0.0000 0.0000 0.0000
# 2 19.1092 36.1533 3.6013 0.0000 0.0000 0.0000
# 3 23.1955 3.6013 101.5449 0.0000 0.0000 0.0000
# 4 0.0000 0.0000 0.0000 27.9092 0.0000 0.0000
# 5 0.0000 0.0000 0.0000 0.0000 29.4263 0.0000
# 6 0.0000 0.0000 0.0000 0.0000 0.0000 30.4859
#
#
#
# Elastic Compliance Matrix: (Units=1/GPa)
#
#
# Indices 1 2 3 4 5 6 
#
# 1 0.011088 -0.005628 -0.002333 0.000000 0.000000 0.000000
# 2 -0.005628 0.030615 0.000200 0.000000 0.000000 0.000000
# 3 -0.002333 0.000200 0.010374 0.000000 0.000000 0.000000
# 4 0.000000 0.000000 0.000000 0.035830 0.000000 0.000000
# 5 0.000000 0.000000 0.000000 0.000000 0.033983 0.000000
# 6 0.000000 0.000000 0.000000 0.000000 0.000000 0.032802
#
#
# Mechanical properties :
#
#
# Convention : Reuss Voigt Hill
#
# Bulk Modulus (GPa) = 27.35711 37.14186 32.24948
# Shear Modulus (GPa) = 27.41220 30.66821 29.04021
#
# Velocity S-wave (km/s) = 3.58855 3.79570 3.69358
# Velocity P-wave (km/s) = 5.47924 6.05461 5.77410
#
# Compressibility (1/GPa) = 0.03655357
#
# Stress axis : x y z
#
# Youngs Moduli (GPa) = 90.18573 32.66370 96.39727
#
# Poissons Ratio (x) = 0.18384 0.22492
# Poissons Ratio (y) = 0.50760 -0.01927
# Poissons Ratio (z) = 0.21042 -0.00653
#
# Static dielectric constant tensor:
#      x y z
#    x 3.909370 0.000000 0.000000 
#    y 0.000000 3.645300 0.000000 
#    z 0.000000 0.000000 3.989340 
# 
# 
# High freq. dielectric constant tensor:
#      x y z
#    x 1.846360 0.000000 0.000000 
#    y 0.000000 1.817470 0.000000 
#    z 0.000000 0.000000 1.841610 
# 
# From -- ./inp_files/10869.got.cif
#   From: 2010.03.12/outbox.cif.g09.slc.cpg/sg36_6_cif.got.tgz:10869.got - 2010.04.14 02:13:53.
