data_PCOD8174525
_publ_section_title
;
Structure prediction by ZEFSAII (Michael W. Deem and Ramdas Pophale) SiO2 
 PCOD8174525
Probable space group: C M C 21
;
_chemical_formula_sum "Si O2"
_cell_formula_units_Z 64
_cell_length_a 9.655746
_cell_length_b 24.172612
_cell_length_c 14.478602
_cell_angle_alpha 90.000000
_cell_angle_beta 90.000000
_cell_angle_gamma 90.000000
_cell_volume 3379.372332
_symmetry_space_group_name_H-M "C M C 21"
_symmetry_group_IT_number 36
_symmetry_cell_setting 'orthorhombic'
loop_
_space_group_symop_operation_xyz
x,y,z
-x,-y,1/2+z
x,-y,1/2+z
-x,y,z
1/2+x,1/2+y,z
1/2-x,1/2-y,1/2+z
1/2+x,1/2-y,1/2+z
1/2-x,1/2+y,z
loop_
_atom_site_type_symbol
_atom_site_label
_atom_site_fract_x
_atom_site_fract_y
_atom_site_fract_z
Si Si1 0.663428 0.299252 0.990830
Si Si2 0.842154 0.471852 0.014020
Si Si3 0.658546 0.548135 0.342752
Si Si4 0.836199 0.304121 0.611129
Si Si5 0.842596 0.899066 0.116751
Si Si6 0.846133 0.923857 0.317359
Si Si7 0.844508 0.401581 0.481031
Si Si8 0.661906 0.668480 0.285622
O O1 0.500000 0.300457 0.988925
O O2 0.715182 0.308136 0.885369
O O3 0.714537 0.242532 0.038309
O O4 0.716103 0.347905 0.058050
O O5 0.761962 0.450132 0.103531
O O6 0.832485 0.537279 0.020277
O O7 0.000000 0.451225 0.011125
O O8 0.761819 0.445771 0.927907
O O9 0.500000 0.551243 0.378699
O O10 0.688837 0.488747 0.294498
O O11 0.686152 0.601761 0.278424
O O12 0.796179 0.361678 0.562755
O O13 0.751737 0.300980 0.706956
O O14 0.000000 0.298922 0.633060
O O15 0.836240 0.886711 0.225732
O O16 0.000000 0.914677 0.088193
O O17 0.746499 0.894872 0.390027
O O18 0.000000 0.921374 0.359574
O O19 0.000000 0.386621 0.450557
O O20 0.500000 0.682514 0.270566
#
# Coordination Sequence:
#
# PCOD8174525 Si02
#       8
#     8   8   8   8   8   8   8   8
#     4   9  19  38  59  77 106 147 184 220 270 326
#     4  10  19  31  50  78 109 142 178 220 269 322
#     4   9  17  33  53  77 109 143 179 221 272 323
#     4  10  22  39  58  80 108 148 187 222 274 330
#     4  10  19  34  55  80 109 144 182 223 272 326
#     4   9  19  32  53  83 111 144 185 224 269 324
#     4   9  20  37  52  74 112 148 178 218 274 329
#     4  10  20  36  58  83 108 140 183 230 274 322
#
# _framework density 18.938427000000001
#
# number of rings (size 3 to 8) (size 9 to 14) (size 15 to 20)
#    0.000    2.500    1.250    0.375    1.750    3.000 
#    0.000    1.250    0.000    0.000    0.000    0.000 
#    0.000    0.000    0.000    0.000    0.000    0.000 
#
# Total GULP energy -396616.285994 kJ/mol
# GULP energy per Si atom -12394.258937 kJ/mol
# Density = 1.889532 g / cm^3
# Si number density = 18.938427 Si / 1000 Ang^3
#
#
#
# Elastic Constant Matrix: (Units=GPa)
#
#
# Indices 1 2 3 4 5 6 
#
# 1 79.4894 37.4667 52.9637 0.0000 0.0000 0.0000
# 2 37.4667 69.0979 53.7487 0.0000 0.0000 0.0000
# 3 52.9637 53.7487 123.0653 0.0000 0.0000 0.0000
# 4 0.0000 0.0000 0.0000 28.4140 0.0000 0.0000
# 5 0.0000 0.0000 0.0000 0.0000 33.8182 0.0000
# 6 0.0000 0.0000 0.0000 0.0000 0.0000 19.0305
#
#
#
# Elastic Compliance Matrix: (Units=1/GPa)
#
#
# Indices 1 2 3 4 5 6 
#
# 1 0.019160 -0.006020 -0.005617 0.000000 0.000000 0.000000
# 2 -0.006020 0.023810 -0.007808 0.000000 0.000000 0.000000
# 3 -0.005617 -0.007808 0.013953 0.000000 0.000000 0.000000
# 4 0.000000 0.000000 0.000000 0.035194 0.000000 0.000000
# 5 0.000000 0.000000 0.000000 0.000000 0.029570 0.000000
# 6 0.000000 0.000000 0.000000 0.000000 0.000000 0.052547
#
#
# Mechanical properties :
#
#
# Convention : Reuss Voigt Hill
#
# Bulk Modulus (GPa) = 55.45209 62.22343 58.83776
# Shear Modulus (GPa) = 22.81687 24.75077 23.78382
#
# Velocity S-wave (km/s) = 3.47478 3.61904 3.54764
# Velocity P-wave (km/s) = 6.74111 7.09861 6.92217
#
# Compressibility (1/GPa) = 0.01803359
#
# Stress axis : x y z
#
# Youngs Moduli (GPa) = 52.19128 41.99883 71.66793
#
# Poissons Ratio (x) = 0.25284 0.40254
# Poissons Ratio (y) = 0.31420 0.55959
# Poissons Ratio (z) = 0.29314 0.32793
#
# Static dielectric constant tensor:
#      x y z
#    x 3.454770 0.000000 0.000000 
#    y 0.000000 3.561920 0.000000 
#    z 0.000000 0.000000 3.362760 
# 
# 
# High freq. dielectric constant tensor:
#      x y z
#    x 1.720340 0.000000 0.000000 
#    y 0.000000 1.730680 0.000000 
#    z 0.000000 0.000000 1.728780 
# 
# From -- ./inp_files/10936.got.cif
#   From: 2010.03.12/outbox.cif.g09.slc.cpg/sg36_6_cif.got.tgz:10936.got - 2010.04.14 02:13:53.
