data_PCOD8174741
_publ_section_title
;
Structure prediction by ZEFSAII (Michael W. Deem and Ramdas Pophale) SiO2 
 PCOD8174741
Probable space group: C M C 21
;
_chemical_formula_sum "Si O2"
_cell_formula_units_Z 64
_cell_length_a 8.865396
_cell_length_b 24.164937
_cell_length_c 14.485904
_cell_angle_alpha 90.000000
_cell_angle_beta 90.000000
_cell_angle_gamma 90.000000
_cell_volume 3103.340359
_symmetry_space_group_name_H-M "C M C 21"
_symmetry_group_IT_number 36
_symmetry_cell_setting 'orthorhombic'
loop_
_space_group_symop_operation_xyz
x,y,z
-x,-y,1/2+z
x,-y,1/2+z
-x,y,z
1/2+x,1/2+y,z
1/2-x,1/2-y,1/2+z
1/2+x,1/2-y,1/2+z
1/2-x,1/2+y,z
loop_
_atom_site_type_symbol
_atom_site_label
_atom_site_fract_x
_atom_site_fract_y
_atom_site_fract_z
Si Si1 0.321973 0.056862 0.331250
Si Si2 0.829015 0.855451 0.314928
Si Si3 0.176168 0.915518 0.640524
Si Si4 0.177855 0.956962 0.441113
Si Si5 0.671220 0.829417 0.129659
Si Si6 0.826635 0.855229 0.955277
Si Si7 0.327648 0.708692 0.182219
Si Si8 0.169562 0.735323 0.366284
O O1 0.500000 0.052361 0.325969
O O2 0.259113 0.055438 0.226845
O O3 0.271330 0.113603 0.378630
O O4 0.259926 0.009387 0.398080
O O5 0.775674 0.905318 0.378520
O O6 0.714717 0.849877 0.230795
O O7 0.819316 0.801014 0.377958
O O8 0.000000 0.863555 0.278029
O O9 0.231548 0.945165 0.546236
O O10 0.208899 0.849413 0.631458
O O11 0.000000 0.925842 0.655548
O O12 0.000000 0.967639 0.439296
O O13 0.500000 0.846510 0.110875
O O14 0.691329 0.762725 0.116668
O O15 0.774519 0.865213 0.060040
O O16 0.790289 0.790781 0.936632
O O17 0.000000 0.871150 0.943439
O O18 0.500000 0.707369 0.220898
O O19 0.207999 0.716041 0.263140
O O20 0.000000 0.715168 0.389798
#
# Coordination Sequence:
#
# PCOD8174741 Si02
#       8
#     8   8   8   8   8   8   8   8
#     4  12  26  44  65  91 125 164 209 268 320 365
#     4   9  20  39  62  90 127 166 206 249 305 371
#     4  10  21  40  67  94 122 161 207 253 307 376
#     4  10  23  43  68  94 122 166 212 254 307 375
#     4  10  21  36  59  92 131 169 208 256 311 366
#     4  12  24  39  60  88 123 167 214 257 309 375
#     4   9  18  34  59  89 125 164 203 248 305 370
#     4  10  19  33  58  90 125 161 201 253 306 362
#
# _framework density 20.62294
#
# number of rings (size 3 to 8) (size 9 to 14) (size 15 to 20)
#    0.000    1.750    1.250    3.000    1.750    3.000 
#    0.000    1.250    0.000    0.000    0.000    0.000 
#    0.000    0.000    0.000    0.000    0.000    0.000 
#
# Total GULP energy -396736.552609 kJ/mol
# GULP energy per Si atom -12398.017269 kJ/mol
# Density = 2.057600 g / cm^3
# Si number density = 20.622940 Si / 1000 Ang^3
#
#
#
# Elastic Constant Matrix: (Units=GPa)
#
#
# Indices 1 2 3 4 5 6 
#
# 1 72.5185 26.6485 39.8016 0.0000 0.0000 0.0000
# 2 26.6485 56.2536 35.0927 0.0000 0.0000 0.0000
# 3 39.8016 35.0927 111.0538 0.0000 0.0000 0.0000
# 4 0.0000 0.0000 0.0000 28.3874 0.0000 0.0000
# 5 0.0000 0.0000 0.0000 0.0000 31.1052 0.0000
# 6 0.0000 0.0000 0.0000 0.0000 0.0000 28.8053
#
#
#
# Elastic Compliance Matrix: (Units=1/GPa)
#
#
# Indices 1 2 3 4 5 6 
#
# 1 0.018563 -0.005784 -0.004825 0.000000 0.000000 0.000000
# 2 -0.005784 0.023943 -0.005493 0.000000 0.000000 0.000000
# 3 -0.004825 -0.005493 0.012470 0.000000 0.000000 0.000000
# 4 0.000000 0.000000 0.000000 0.035227 0.000000 0.000000
# 5 0.000000 0.000000 0.000000 0.000000 0.032149 0.000000
# 6 0.000000 0.000000 0.000000 0.000000 0.000000 0.034716
#
#
# Mechanical properties :
#
#
# Convention : Reuss Voigt Hill
#
# Bulk Modulus (GPa) = 43.91347 49.21239 46.56293
# Shear Modulus (GPa) = 25.39831 26.87844 26.13837
#
# Velocity S-wave (km/s) = 3.51316 3.61408 3.56398
# Velocity P-wave (km/s) = 6.14786 6.42885 6.28992
#
# Compressibility (1/GPa) = 0.02277205
#
# Stress axis : x y z
#
# Youngs Moduli (GPa) = 53.86960 41.76537 80.19289
#
# Poissons Ratio (x) = 0.24155 0.38697
# Poissons Ratio (y) = 0.31156 0.44051
# Poissons Ratio (z) = 0.25995 0.22943
#
# Static dielectric constant tensor:
#      x y z
#    x 3.628210 0.000000 0.000000 
#    y 0.000000 3.808160 0.000000 
#    z 0.000000 0.000000 3.688310 
# 
# 
# High freq. dielectric constant tensor:
#      x y z
#    x 1.800340 0.000000 0.000000 
#    y 0.000000 1.803790 0.000000 
#    z 0.000000 0.000000 1.806950 
# 
# From -- ./inp_files/11010.got.cif
#   From: 2010.03.12/outbox.cif.g09.slc.cpg/sg36_6_cif.got.tgz:11010.got - 2010.04.14 02:13:53.
