data_PCOD8174640
_publ_section_title
;
Structure prediction by ZEFSAII (Michael W. Deem and Ramdas Pophale) SiO2 
 PCOD8174640
Probable space group: C M C 21
;
_chemical_formula_sum "Si O2"
_cell_formula_units_Z 44
_cell_length_a 27.822285
_cell_length_b 10.919807
_cell_length_c 5.197455
_cell_angle_alpha 90.000000
_cell_angle_beta 90.000000
_cell_angle_gamma 90.000000
_cell_volume 1579.059502
_symmetry_space_group_name_H-M "C M C 21"
_symmetry_group_IT_number 36
_symmetry_cell_setting 'orthorhombic'
loop_
_space_group_symop_operation_xyz
x,y,z
-x,-y,1/2+z
x,-y,1/2+z
-x,y,z
1/2+x,1/2+y,z
1/2-x,1/2-y,1/2+z
1/2+x,1/2-y,1/2+z
1/2-x,1/2+y,z
loop_
_atom_site_type_symbol
_atom_site_label
_atom_site_fract_x
_atom_site_fract_y
_atom_site_fract_z
Si Si1 0.948586 0.420350 0.278000
Si Si2 0.351895 0.380957 0.218970
Si Si3 0.500000 0.417359 0.712206
Si Si4 0.606223 0.350109 0.723745
Si Si5 0.749216 0.177426 0.606594
Si Si6 0.852493 0.427133 0.108118
O O1 0.945564 0.470201 0.567669
O O2 0.899969 0.340003 0.200977
O O3 0.000000 0.351087 0.245052
O O4 0.381314 0.505057 0.267094
O O5 0.359933 0.302255 0.483420
O O6 0.295418 0.408271 0.163219
O O7 0.374081 0.295885 0.994557
O O8 0.500000 0.518120 0.489047
O O9 0.548374 0.334390 0.690019
O O10 0.746409 0.209032 0.304605
O O11 0.700129 0.113186 0.687353
O O12 0.860445 0.539205 0.311506
#
# Coordination Sequence:
#
# PCOD8174640 Si02
#       6
#     8   8   4   8   8   8
#     4   8  14  27  49  82 112 129 165 225 286 327
#     4  10  20  33  52  75 110 143 194 223 288 326
#     4  12  16  30  48  88 126 130 182 240 314 318
#     4  10  19  32  55  88 107 147 179 252 272 338
#     4  12  26  41  56  82 120 161 192 238 297 345
#     4  10  21  36  60  89 112 143 193 238 274 336
#
# _framework density 27.86469
#
# number of rings (size 3 to 8) (size 9 to 14) (size 15 to 20)
#    0.000    1.818    3.636    2.182    5.091    0.000 
#    0.000    0.000    0.000    0.000   18.909    0.000 
#    0.000    0.000    0.000    0.000    0.000    0.000 
#
# Total GULP energy -272578.928890 kJ/mol
# GULP energy per Si atom -12389.951313 kJ/mol
# Density = 2.780127 g / cm^3
# Si number density = 27.864690 Si / 1000 Ang^3
#
#
#
# Elastic Constant Matrix: (Units=GPa)
#
#
# Indices 1 2 3 4 5 6 
#
# 1 270.7054 40.8978 37.0824 0.0000 0.0000 0.0000
# 2 40.8978 43.7401 16.8269 0.0000 0.0000 0.0000
# 3 37.0824 16.8269 184.6926 0.0000 0.0000 0.0000
# 4 0.0000 0.0000 0.0000 27.7536 0.0000 0.0000
# 5 0.0000 0.0000 0.0000 0.0000 40.5116 0.0000
# 6 0.0000 0.0000 0.0000 0.0000 0.0000 50.2405
#
#
#
# Elastic Compliance Matrix: (Units=1/GPa)
#
#
# Indices 1 2 3 4 5 6 
#
# 1 0.004350 -0.003866 -0.000521 0.000000 0.000000 0.000000
# 2 -0.003866 0.027130 -0.001695 0.000000 0.000000 0.000000
# 3 -0.000521 -0.001695 0.005673 0.000000 0.000000 0.000000
# 4 0.000000 0.000000 0.000000 0.036031 0.000000 0.000000
# 5 0.000000 0.000000 0.000000 0.000000 0.024684 0.000000
# 6 0.000000 0.000000 0.000000 0.000000 0.000000 0.019904
#
#
# Mechanical properties :
#
#
# Convention : Reuss Voigt Hill
#
# Bulk Modulus (GPa) = 40.02090 76.52803 58.27446
# Shear Modulus (GPa) = 36.16178 50.65656 43.40917
#
# Velocity S-wave (km/s) = 3.60636 4.26837 3.95125
# Velocity P-wave (km/s) = 5.63337 7.19831 6.46338
#
# Compressibility (1/GPa) = 0.02498695
#
# Stress axis : x y z
#
# Youngs Moduli (GPa) = 229.90792 36.85988 176.25860
#
# Poissons Ratio (x) = 0.14252 0.09184
# Poissons Ratio (y) = 0.88893 0.29883
# Poissons Ratio (z) = 0.11979 0.06249
#
# Static dielectric constant tensor:
#      x y z
#    x 6.142660 0.000000 0.000000 
#    y 0.000000 4.756850 0.000000 
#    z 0.000000 0.000000 6.049260 
# 
# 
# High freq. dielectric constant tensor:
#      x y z
#    x 2.169240 0.000000 0.000000 
#    y 0.000000 2.116980 0.000000 
#    z 0.000000 0.000000 2.156770 
# 
# From -- ./inp_files/1712.got.cif
#   From: 2010.03.12/outbox.cif.g09.slc.cpg/sg36_1_cif.got.tgz:1712.got - 2010.04.14 02:13:53.
