data_PCOD8174118
_publ_section_title
;
Structure prediction by ZEFSAII (Michael W. Deem and Ramdas Pophale) SiO2 
 PCOD8174118
Probable space group: C M M 2
;
_chemical_formula_sum "Si O2"
_cell_formula_units_Z 48
_cell_length_a 15.545147
_cell_length_b 8.929270
_cell_length_c 17.294206
_cell_angle_alpha 90.000000
_cell_angle_beta 90.000000
_cell_angle_gamma 90.000000
_cell_volume 2400.553649
_symmetry_space_group_name_H-M "C M M 2"
_symmetry_group_IT_number 35
_symmetry_cell_setting 'orthorhombic'
loop_
_space_group_symop_operation_xyz
x,y,z
-x,-y,z
-x,y,z
x,-y,z
1/2+x,1/2+y,z
1/2-x,1/2-y,z
1/2-x,1/2+y,z
1/2+x,1/2-y,z
loop_
_atom_site_type_symbol
_atom_site_label
_atom_site_fract_x
_atom_site_fract_y
_atom_site_fract_z
Si Si1 0.662789 0.676635 0.639410
Si Si2 0.000000 0.821770 0.909654
Si Si3 0.162789 0.176635 0.005682
Si Si4 0.500000 0.678230 0.735439
Si Si5 0.406143 0.823035 0.322546
Si Si6 0.897492 0.671790 0.155692
Si Si7 0.397491 0.171790 0.489400
O O1 0.671014 0.500000 0.645688
O O2 0.750000 0.750000 0.671534
O O3 0.584407 0.738510 0.691459
O O4 0.648053 0.721080 0.550541
O O5 0.000000 0.758491 0.822546
O O6 0.915593 0.761490 0.953634
O O7 0.000000 0.000000 0.909948
O O8 0.250000 0.250000 0.973558
O O9 0.148054 0.221081 0.094551
O O10 0.171014 0.000000 0.999405
O O11 0.500000 0.500000 0.735144
O O12 0.500000 0.746618 0.322546
O O13 0.360691 0.779189 0.241074
O O14 0.360691 0.779188 0.404019
O O15 0.418832 0.000000 0.322546
O O16 0.873137 0.500000 0.136756
O O17 0.000000 0.693045 0.153333
O O18 0.500000 0.193041 0.491758
O O19 0.373135 0.000000 0.508336
#
# Coordination Sequence:
#
# PCOD8174118 Si02
#       7
#     8   4   8   4   8   8   8
#     4  11  22  37  58  85 115 148 187 228 277 332
#     4   9  20  40  63  84 111 146 180 223 281 339
#     4  11  22  37  58  85 115 148 187 228 277 332
#     4   9  20  40  63  84 111 146 180 223 281 339
#     4   7  12  24  46  77 108 144 186 228 274 323
#     4   9  16  30  54  81 112 148 188 231 277 327
#     4   9  16  30  54  81 112 148 188 231 277 327
#
# _framework density 19.995386
#
# number of rings (size 3 to 8) (size 9 to 14) (size 15 to 20)
#    0.000    2.667    1.667    3.000    0.000    0.667 
#    0.000    1.667    0.000   10.000    0.000    0.000 
#    0.000    0.000    0.000    0.000    0.000    0.000 
#
# Total GULP energy -297415.084665 kJ/mol
# GULP energy per Si atom -12392.295194 kJ/mol
# Density = 1.994988 g / cm^3
# Si number density = 19.995386 Si / 1000 Ang^3
#
#
#
# Elastic Constant Matrix: (Units=GPa)
#
#
# Indices 1 2 3 4 5 6 
#
# 1 124.9519 35.3849 67.2373 0.0000 0.0000 0.0000
# 2 35.3849 52.1885 27.8780 0.0000 0.0000 0.0000
# 3 67.2373 27.8780 157.2882 0.0000 0.0000 0.0000
# 4 0.0000 0.0000 0.0000 21.9322 0.0000 0.0000
# 5 0.0000 0.0000 0.0000 0.0000 5.4585 0.0000
# 6 0.0000 0.0000 0.0000 0.0000 0.0000 24.8538
#
#
#
# Elastic Compliance Matrix: (Units=1/GPa)
#
#
# Indices 1 2 3 4 5 6 
#
# 1 0.011827 -0.005874 -0.004015 0.000000 0.000000 0.000000
# 2 -0.005874 0.024083 -0.001757 0.000000 0.000000 0.000000
# 3 -0.004015 -0.001757 0.008385 0.000000 0.000000 0.000000
# 4 0.000000 0.000000 0.000000 0.045595 0.000000 0.000000
# 5 0.000000 0.000000 0.000000 0.000000 0.183200 0.000000
# 6 0.000000 0.000000 0.000000 0.000000 0.000000 0.040235
#
#
# Mechanical properties :
#
#
# Convention : Reuss Voigt Hill
#
# Bulk Modulus (GPa) = 47.61291 66.15876 56.88583
# Shear Modulus (GPa) = 14.55098 24.04411 19.29754
#
# Velocity S-wave (km/s) = 2.70055 3.47145 3.10998
# Velocity P-wave (km/s) = 5.79548 7.01618 6.43484
#
# Compressibility (1/GPa) = 0.02100271
#
# Stress axis : x y z
#
# Youngs Moduli (GPa) = 84.55301 41.52305 119.25543
#
# Poissons Ratio (x) = 0.24392 0.47876
# Poissons Ratio (y) = 0.49670 0.20957
# Poissons Ratio (z) = 0.33944 0.07297
#
# Static dielectric constant tensor:
#      x y z
#    x 3.560950 0.000000 0.000000 
#    y 0.000000 3.199610 0.000000 
#    z 0.000000 0.000000 4.003560 
# 
# 
# High freq. dielectric constant tensor:
#      x y z
#    x 1.766700 0.000000 0.000000 
#    y 0.000000 1.741560 0.000000 
#    z 0.000000 0.000000 1.789820 
# 
# From -- ./inp_files/17924.got.cif
#   From: 2010.03.12/outbox.cif.g09.slc.cpg/sg35_9_cif.got.tgz:17924.got - 2010.04.14 02:02:04.
