data_PCOD8174111
_publ_section_title
;
Structure prediction by ZEFSAII (Michael W. Deem and Ramdas Pophale) SiO2 
 PCOD8174111
Probable space group: C M M 2
;
_chemical_formula_sum "Si O2"
_cell_formula_units_Z 48
_cell_length_a 8.735089
_cell_length_b 18.395812
_cell_length_c 15.669945
_cell_angle_alpha 90.000000
_cell_angle_beta 90.000000
_cell_angle_gamma 90.000000
_cell_volume 2517.988655
_symmetry_space_group_name_H-M "C M M 2"
_symmetry_group_IT_number 35
_symmetry_cell_setting 'orthorhombic'
loop_
_space_group_symop_operation_xyz
x,y,z
-x,-y,z
-x,y,z
x,-y,z
1/2+x,1/2+y,z
1/2-x,1/2-y,z
1/2-x,1/2+y,z
1/2+x,1/2-y,z
loop_
_atom_site_type_symbol
_atom_site_label
_atom_site_fract_x
_atom_site_fract_y
_atom_site_fract_z
Si Si1 0.666436 0.414269 0.634890
Si Si2 0.817296 0.083134 0.819459
Si Si3 0.318679 0.828988 0.972521
Si Si4 0.818041 0.581441 0.134890
Si Si5 0.818679 0.671012 0.297259
Si Si6 0.182704 0.916866 0.450321
O O1 0.500000 0.376437 0.634890
O O2 0.642096 0.500000 0.634890
O O3 0.747811 0.393796 0.724843
O O4 0.747810 0.393796 0.544937
O O5 0.736917 0.136370 0.884848
O O6 0.000000 0.092235 0.822552
O O7 0.771483 0.000000 0.840694
O O8 0.500000 0.823599 0.972132
O O9 0.250000 0.750000 0.984237
O O10 0.257658 0.877655 0.050849
O O11 0.750046 0.500000 0.134890
O O12 0.757658 0.622345 0.218931
O O13 0.000000 0.579134 0.134890
O O14 0.750000 0.750000 0.285543
O O15 0.763084 0.636370 0.384932
O O16 0.000000 0.676401 0.297648
O O17 0.000000 0.907765 0.447228
O O18 0.228517 0.000000 0.429086
#
# Coordination Sequence:
#
# PCOD8174111 Si02
#       6
#     8   8   8   8   8   8
#     4   7  12  26  50  77 104 135 169 209 258 307
#     4   9  17  32  55  81 107 136 173 215 259 309
#     4  11  22  36  54  76 106 141 175 212 257 308
#     4   9  19  36  57  79 102 131 168 211 260 312
#     4  11  22  36  54  76 106 141 175 212 257 308
#     4   9  17  32  55  81 107 136 173 215 259 309
#
# _framework density 19.062832
#
# number of rings (size 3 to 8) (size 9 to 14) (size 15 to 20)
#    0.000    2.667    0.000    4.500    0.000    2.000 
#    0.000    4.167    0.000    9.000    0.000    0.000 
#    0.000    0.000    0.000    0.000    0.000    0.000 
#
# Total GULP energy -297411.416233 kJ/mol
# GULP energy per Si atom -12392.142343 kJ/mol
# Density = 1.901944 g / cm^3
# Si number density = 19.062832 Si / 1000 Ang^3
#
#
#
# Elastic Constant Matrix: (Units=GPa)
#
#
# Indices 1 2 3 4 5 6 
#
# 1 41.1617 33.7667 34.4863 0.0000 0.0000 0.0000
# 2 33.7667 142.7323 90.5488 0.0000 0.0000 0.0000
# 3 34.4863 90.5488 189.7145 0.0000 0.0000 0.0000
# 4 0.0000 0.0000 0.0000 -7.4950 0.0000 0.0000
# 5 0.0000 0.0000 0.0000 0.0000 14.3102 0.0000
# 6 0.0000 0.0000 0.0000 0.0000 0.0000 -338.4472
#
#
#
# Elastic Compliance Matrix: (Units=1/GPa)
#
#
# Indices 1 2 3 4 5 6 
#
# 1 0.031365 -0.005455 -0.003098 0.000000 0.000000 0.000000
# 2 -0.005455 0.010997 -0.004257 0.000000 0.000000 0.000000
# 3 -0.003098 -0.004257 0.007866 0.000000 0.000000 0.000000
# 4 0.000000 0.000000 0.000000 -0.133423 0.000000 0.000000
# 5 0.000000 0.000000 0.000000 0.000000 0.069880 0.000000
# 6 0.000000 0.000000 0.000000 0.000000 0.000000 -0.002955
#
#
# Mechanical properties :
#
#
# Convention : Reuss Voigt Hill
#
# Bulk Modulus (GPa) = 40.63683 76.80136 58.71910
# Shear Modulus (GPa) = 284.82830 -52.00595 116.41117
#
# Velocity S-wave (km/s) = 12.23683 -5.22882 7.82302
# Velocity P-wave (km/s) = 14.86663 1.98038 10.60516
#
# Compressibility (1/GPa) = 0.02460822
#
# Stress axis : x y z
#
# Youngs Moduli (GPa) = 31.88288 90.93019 127.12527
#
# Poissons Ratio (x) = 0.49600 0.39384
# Poissons Ratio (y) = 0.17391 0.54122
# Poissons Ratio (z) = 0.09877 0.38713
#
# Static dielectric constant tensor:
#      x y z
#    x 3.107610 0.000000 0.000000 
#    y 0.000000 3.386860 0.000000 
#    z 0.000000 0.000000 4.064500 
# 
# 
# High freq. dielectric constant tensor:
#      x y z
#    x 1.704470 0.000000 0.000000 
#    y 0.000000 1.726680 0.000000 
#    z 0.000000 0.000000 1.768540 
# 
# From -- ./inp_files/15158.got.cif
#   From: 2010.03.12/outbox.cif.g09.slc.cpg/sg35_8_cif.got.tgz:15158.got - 2010.04.14 02:02:04.
