data_PCOD8174263
_publ_section_title
;
Structure prediction by ZEFSAII (Michael W. Deem and Ramdas Pophale) SiO2 
 PCOD8174263
Probable space group: C M C 21
;
_chemical_formula_sum "Si O2"
_cell_formula_units_Z 64
_cell_length_a 9.144803
_cell_length_b 20.773251
_cell_length_c 19.228154
_cell_angle_alpha 90.000000
_cell_angle_beta 90.000000
_cell_angle_gamma 90.000000
_cell_volume 3652.720270
_symmetry_space_group_name_H-M "C M C 21"
_symmetry_group_IT_number 36
_symmetry_cell_setting 'orthorhombic'
loop_
_space_group_symop_operation_xyz
x,y,z
-x,-y,1/2+z
x,-y,1/2+z
-x,y,z
1/2+x,1/2+y,z
1/2-x,1/2-y,1/2+z
1/2+x,1/2-y,1/2+z
1/2-x,1/2+y,z
loop_
_atom_site_type_symbol
_atom_site_label
_atom_site_fract_x
_atom_site_fract_y
_atom_site_fract_z
Si Si1 0.672880 0.680809 0.116380
Si Si2 0.827833 0.867272 0.763603
Si Si3 0.326265 0.190052 0.548636
Si Si4 0.829928 0.639382 0.402817
Si Si5 0.673306 0.554156 0.039225
Si Si6 0.833336 0.510559 0.911759
Si Si7 0.330977 0.939985 0.116719
Si Si8 0.333466 0.998295 0.758119
O O1 0.500000 0.681986 0.107803
O O2 0.714454 0.677942 0.198095
O O3 0.741567 0.744909 0.081463
O O4 0.734305 0.618558 0.075854
O O5 0.755912 0.838908 0.833597
O O6 0.000000 0.870484 0.774935
O O7 0.773166 0.938651 0.745229
O O8 0.500000 0.192707 0.550892
O O9 0.274874 0.181541 0.468499
O O10 0.271962 0.130125 0.595250
O O11 0.798357 0.565065 0.420674
O O12 0.000000 0.650471 0.387877
O O13 0.500000 0.550830 0.041697
O O14 0.737328 0.492930 0.077930
O O15 0.727335 0.553043 0.959594
O O16 0.801378 0.531399 0.832329
O O17 0.000000 0.524785 0.933197
O O18 0.500000 0.948684 0.094427
O O19 0.310035 0.947732 0.199497
O O20 0.500000 0.971447 0.757874
#
# Coordination Sequence:
#
# PCOD8174263 Si02
#       8
#     8   8   8   8   8   8   8   8
#     4   9  19  33  49  73 103 136 170 201 245 306
#     4  10  18  30  49  74 103 132 163 203 251 304
#     4   9  17  33  54  73  98 133 173 209 244 296
#     4   9  17  31  52  75  96 126 170 213 247 292
#     4  11  20  31  49  75 104 132 164 204 253 305
#     4   9  17  31  48  74 102 127 167 209 250 297
#     4  10  18  32  55  77  95 126 171 214 251 288
#     4   9  18  31  50  75 101 128 166 211 253 298
#
# _framework density 17.521189
#
# number of rings (size 3 to 8) (size 9 to 14) (size 15 to 20)
#    0.000    2.500    2.500    1.500    0.000    2.000 
#    0.000    1.250    0.000    7.500    0.000    0.000 
#    0.000    0.000    0.000    0.000    0.000    0.000 
#
# Total GULP energy -396723.668078 kJ/mol
# GULP energy per Si atom -12397.614627 kJ/mol
# Density = 1.748131 g / cm^3
# Si number density = 17.521189 Si / 1000 Ang^3
#
#
#
# Elastic Constant Matrix: (Units=GPa)
#
#
# Indices 1 2 3 4 5 6 
#
# 1 51.0934 31.4672 46.5243 0.0000 0.0000 0.0000
# 2 31.4672 107.9709 76.5612 0.0000 0.0000 0.0000
# 3 46.5243 76.5612 162.5838 0.0000 0.0000 0.0000
# 4 0.0000 0.0000 0.0000 29.7689 0.0000 0.0000
# 5 0.0000 0.0000 0.0000 0.0000 28.3992 0.0000
# 6 0.0000 0.0000 0.0000 0.0000 0.0000 15.1383
#
#
#
# Elastic Compliance Matrix: (Units=1/GPa)
#
#
# Indices 1 2 3 4 5 6 
#
# 1 0.027390 -0.003640 -0.006123 0.000000 0.000000 0.000000
# 2 -0.003640 0.014389 -0.005734 0.000000 0.000000 0.000000
# 3 -0.006123 -0.005734 0.010603 0.000000 0.000000 0.000000
# 4 0.000000 0.000000 0.000000 0.033592 0.000000 0.000000
# 5 0.000000 0.000000 0.000000 0.000000 0.035212 0.000000
# 6 0.000000 0.000000 0.000000 0.000000 0.000000 0.066058
#
#
# Mechanical properties :
#
#
# Convention : Reuss Voigt Hill
#
# Bulk Modulus (GPa) = 46.75978 70.08372 58.42175
# Shear Modulus (GPa) = 22.18595 25.80098 23.99346
#
# Velocity S-wave (km/s) = 3.56228 3.84156 3.70455
# Velocity P-wave (km/s) = 6.60797 7.73065 7.19125
#
# Compressibility (1/GPa) = 0.02138590
#
# Stress axis : x y z
#
# Youngs Moduli (GPa) = 36.50975 69.49958 94.31253
#
# Poissons Ratio (x) = 0.25301 0.57752
# Poissons Ratio (y) = 0.13291 0.54078
# Poissons Ratio (z) = 0.22357 0.39850
#
# Static dielectric constant tensor:
#      x y z
#    x 3.034970 0.000000 0.000000 
#    y 0.000000 3.217970 0.000000 
#    z 0.000000 0.000000 3.672520 
# 
# 
# High freq. dielectric constant tensor:
#      x y z
#    x 1.652220 0.000000 0.000000 
#    y 0.000000 1.645670 0.000000 
#    z 0.000000 0.000000 1.698240 
# 
# From -- ./inp_files/15835.got.cif
#   From: 2010.03.12/outbox.cif.g09.slc.cpg/sg36_8_cif.got.tgz:15835.got - 2010.04.14 02:13:53.
