data_PCOD8174177
_publ_section_title
;
Structure prediction by ZEFSAII (Michael W. Deem and Ramdas Pophale) SiO2 
 PCOD8174177
Probable space group: C M C 21
;
_chemical_formula_sum "Si O2"
_cell_formula_units_Z 64
_cell_length_a 36.513726
_cell_length_b 5.303675
_cell_length_c 13.229673
_cell_angle_alpha 90.000000
_cell_angle_beta 90.000000
_cell_angle_gamma 90.000000
_cell_volume 2562.017934
_symmetry_space_group_name_H-M "C M C 21"
_symmetry_group_IT_number 36
_symmetry_cell_setting 'orthorhombic'
loop_
_space_group_symop_operation_xyz
x,y,z
-x,-y,1/2+z
x,-y,1/2+z
-x,y,z
1/2+x,1/2+y,z
1/2-x,1/2-y,1/2+z
1/2+x,1/2-y,1/2+z
1/2-x,1/2+y,z
loop_
_atom_site_type_symbol
_atom_site_label
_atom_site_fract_x
_atom_site_fract_y
_atom_site_fract_z
Si Si1 0.617519 0.133193 0.766470
Si Si2 0.647351 0.635996 0.751595
Si Si3 0.270998 0.765721 0.015653
Si Si4 0.882481 0.866810 0.026504
Si Si5 0.147352 0.635994 0.541379
Si Si6 0.960099 0.180127 0.581478
Si Si7 0.539901 0.180127 0.711491
Si Si8 0.270998 0.734270 0.777317
O O1 0.638134 0.378312 0.813434
O O2 0.625434 0.116045 0.646429
O O3 0.573944 0.153221 0.788636
O O4 0.633384 0.877187 0.815972
O O5 0.625433 0.616045 0.646546
O O6 0.690136 0.670751 0.727266
O O7 0.255979 0.492454 0.051031
O O8 0.309863 0.829248 0.065705
O O9 0.276349 0.749997 0.896485
O O10 0.861865 0.621692 0.979541
O O11 0.926055 0.846781 0.004334
O O12 0.866616 0.122816 0.977002
O O13 0.956807 0.454045 0.631565
O O14 0.000000 0.159678 0.526522
O O15 0.956807 0.954045 0.661403
O O16 0.500000 0.159674 0.766447
O O17 0.244022 0.507533 0.741939
#
# Coordination Sequence:
#
# PCOD8174177 Si02
#       8
#     8   8   8   8   8   8   8   8
#     4  10  17  30  43  70 100 119 145 179 221 273
#     4  10  18  30  48  65  91 121 143 183 232 265
#     4  10  21  37  52  66  85 113 154 196 229 266
#     4  10  17  30  43  70 100 119 145 179 221 273
#     4  10  18  30  48  65  91 121 143 183 232 265
#     4  10  16  25  41  63  96 129 152 174 207 258
#     4  10  16  25  41  63  96 129 152 174 207 258
#     4  10  21  37  52  66  85 113 154 196 229 266
#
# _framework density 24.980311
#
# number of rings (size 3 to 8) (size 9 to 14) (size 15 to 20)
#    0.000    2.000    5.000    1.500    0.000    0.000 
#    0.000   15.000    0.000    0.000    0.000    0.000 
#    0.000   11.000    0.000    0.000    0.000    0.000 
#
# Total GULP energy -396527.708757 kJ/mol
# GULP energy per Si atom -12391.490899 kJ/mol
# Density = 2.492345 g / cm^3
# Si number density = 24.980311 Si / 1000 Ang^3
#
#
#
# Elastic Constant Matrix: (Units=GPa)
#
#
# Indices 1 2 3 4 5 6 
#
# 1 220.2543 60.9312 -0.5468 0.0000 0.0000 0.0000
# 2 60.9312 230.3239 9.2220 0.0000 0.0000 0.0000
# 3 -0.5468 9.2220 20.1185 0.0000 0.0000 0.0000
# 4 0.0000 0.0000 0.0000 2.0432 0.0000 0.0000
# 5 0.0000 0.0000 0.0000 0.0000 -28.3659 0.0000
# 6 0.0000 0.0000 0.0000 0.0000 0.0000 47.9148
#
#
#
# Elastic Compliance Matrix: (Units=1/GPa)
#
#
# Indices 1 2 3 4 5 6 
#
# 1 0.004910 -0.001329 0.000742 0.000000 0.000000 0.000000
# 2 -0.001329 0.004782 -0.002228 0.000000 0.000000 0.000000
# 3 0.000742 -0.002228 0.050747 0.000000 0.000000 0.000000
# 4 0.000000 0.000000 0.000000 0.489438 0.000000 0.000000
# 5 0.000000 0.000000 0.000000 0.000000 -0.035254 0.000000
# 6 0.000000 0.000000 0.000000 0.000000 0.000000 0.020870
#
#
# Mechanical properties :
#
#
# Convention : Reuss Voigt Hill
#
# Bulk Modulus (GPa) = 18.24478 67.76770 43.00624
# Shear Modulus (GPa) = 8.93827 31.05778 19.99802
#
# Velocity S-wave (km/s) = 1.89365 3.52986 2.83247
# Velocity P-wave (km/s) = 3.47861 6.61820 5.28683
#
# Compressibility (1/GPa) = 0.05481020
#
# Stress axis : x y z
#
# Youngs Moduli (GPa) = 203.68363 209.10054 19.70560
#
# Poissons Ratio (x) = 0.27780 -0.01463
# Poissons Ratio (y) = 0.27060 0.04391
# Poissons Ratio (z) = -0.15122 0.46593
#
# Static dielectric constant tensor:
#      x y z
#    x 4.871880 0.000000 0.000000 
#    y 0.000000 6.418820 0.000000 
#    z 0.000000 0.000000 3.681250 
# 
# 
# High freq. dielectric constant tensor:
#      x y z
#    x 2.004040 0.000000 0.000000 
#    y 0.000000 2.037970 0.000000 
#    z 0.000000 0.000000 1.946750 
# 
# From -- ./inp_files/15200.got.cif
#   From: 2010.03.12/outbox.cif.g09.slc.cpg/sg36_8_cif.got.tgz:15200.got - 2010.04.14 02:13:53.
