data_PCOD8174025
_publ_section_title
;
Structure prediction by ZEFSAII (Michael W. Deem and Ramdas Pophale) SiO2 
 PCOD8174025
Probable space group: C M M 2
;
_chemical_formula_sum "Si O2"
_cell_formula_units_Z 48
_cell_length_a 18.024873
_cell_length_b 7.763636
_cell_length_c 17.106492
_cell_angle_alpha 90.000000
_cell_angle_beta 90.000000
_cell_angle_gamma 90.000000
_cell_volume 2393.857736
_symmetry_space_group_name_H-M "C M M 2"
_symmetry_group_IT_number 35
_symmetry_cell_setting 'orthorhombic'
loop_
_space_group_symop_operation_xyz
x,y,z
-x,-y,z
-x,y,z
x,-y,z
1/2+x,1/2+y,z
1/2-x,1/2-y,z
1/2-x,1/2+y,z
1/2+x,1/2-y,z
loop_
_atom_site_type_symbol
_atom_site_label
_atom_site_fract_x
_atom_site_fract_y
_atom_site_fract_z
Si Si1 0.088086 0.500000 0.176090
Si Si2 0.911725 0.500000 0.355083
Si Si3 0.588398 0.309372 0.072056
Si Si4 0.583650 0.298141 0.897272
Si Si5 0.666130 0.807419 0.748351
Si Si6 0.664191 0.295141 0.451416
Si Si7 0.919052 0.195156 0.603201
O O1 0.113779 0.500000 0.265063
O O2 0.120236 0.670350 0.133178
O O3 0.000000 0.500000 0.168835
O O4 0.880109 0.321931 0.389765
O O5 0.000000 0.500000 0.364903
O O6 0.500000 0.314819 0.073079
O O7 0.618958 0.500000 0.094134
O O8 0.613531 0.257574 0.984356
O O9 0.500000 0.228045 0.886821
O O10 0.585942 0.500000 0.880495
O O11 0.636547 0.203681 0.836330
O O12 0.750000 0.750000 0.746502
O O13 0.616842 0.698308 0.688824
O O14 0.660976 0.000000 0.717181
O O15 0.651445 0.500000 0.435119
O O16 0.750000 0.250000 0.445884
O O17 0.635491 0.231238 0.536543
O O18 0.000000 0.289406 0.602906
O O19 0.933063 0.000000 0.580534
#
# Coordination Sequence:
#
# PCOD8174025 Si02
#       7
#     4   4   8   8   8   8   8
#     4   9  18  32  54  87 123 154 191 247 305 360
#     4  11  24  40  64  99 132 164 207 265 320 374
#     4   8  15  29  52  82 116 152 191 242 303 360
#     4   9  18  34  56  82 113 149 191 244 300 350
#     4  12  25  37  53  79 112 159 201 245 293 355
#     4  11  23  42  67  94 125 171 211 255 313 383
#     4  10  22  40  62  88 120 153 195 250 304 356
#
# _framework density 20.051317000000001
#
# number of rings (size 3 to 8) (size 9 to 14) (size 15 to 20)
#    0.000    2.000    0.833    4.000    2.333    5.667 
#    0.000    1.667    0.000    1.000    0.000    0.000 
#    0.000    0.000    0.000    0.000    0.000    0.000 
#
# Total GULP energy -297515.359725 kJ/mol
# GULP energy per Si atom -12396.473322 kJ/mol
# Density = 2.000568 g / cm^3
# Si number density = 20.051317 Si / 1000 Ang^3
#
#
#
# Elastic Constant Matrix: (Units=GPa)
#
#
# Indices 1 2 3 4 5 6 
#
# 1 106.4888 34.1388 52.4085 0.0000 0.0000 0.0000
# 2 34.1388 107.6627 62.7940 0.0000 0.0000 0.0000
# 3 52.4085 62.7940 154.8477 0.0000 0.0000 0.0000
# 4 0.0000 0.0000 0.0000 33.8310 0.0000 0.0000
# 5 0.0000 0.0000 0.0000 0.0000 7.2497 0.0000
# 6 0.0000 0.0000 0.0000 0.0000 0.0000 20.4210
#
#
#
# Elastic Compliance Matrix: (Units=1/GPa)
#
#
# Indices 1 2 3 4 5 6 
#
# 1 0.011530 -0.001808 -0.003169 0.000000 0.000000 0.000000
# 2 -0.001808 0.012449 -0.004437 0.000000 0.000000 0.000000
# 3 -0.003169 -0.004437 0.009330 0.000000 0.000000 0.000000
# 4 0.000000 0.000000 0.000000 0.029559 0.000000 0.000000
# 5 0.000000 0.000000 0.000000 0.000000 0.137936 0.000000
# 6 0.000000 0.000000 0.000000 0.000000 0.000000 0.048969
#
#
# Mechanical properties :
#
#
# Convention : Reuss Voigt Hill
#
# Bulk Modulus (GPa) = 69.05206 74.18687 71.61947
# Shear Modulus (GPa) = 18.28641 26.94420 22.61531
#
# Velocity S-wave (km/s) = 3.02318 3.66971 3.36202
# Velocity P-wave (km/s) = 6.83363 7.41853 7.13208
#
# Compressibility (1/GPa) = 0.01448183
#
# Stress axis : x y z
#
# Youngs Moduli (GPa) = 86.73094 80.32746 107.18390
#
# Poissons Ratio (x) = 0.14519 0.33970
# Poissons Ratio (y) = 0.15677 0.47553
# Poissons Ratio (z) = 0.27488 0.35638
#
# Static dielectric constant tensor:
#      x y z
#    x 3.506930 0.000000 0.000000 
#    y 0.000000 3.835140 0.000000 
#    z 0.000000 0.000000 3.674360 
# 
# 
# High freq. dielectric constant tensor:
#      x y z
#    x 1.759270 0.000000 0.000000 
#    y 0.000000 1.788450 0.000000 
#    z 0.000000 0.000000 1.782440 
# 
# From -- ./inp_files/15186.got.cif
#   From: 2010.03.12/outbox.cif.g09.slc.cpg/sg35_8_cif.got.tgz:15186.got - 2010.04.14 02:02:04.
