data_PCOD8174576
_publ_section_title
;
Structure prediction by ZEFSAII (Michael W. Deem and Ramdas Pophale) SiO2 
 PCOD8174576
Probable space group: C M C 21
;
_chemical_formula_sum "Si O2"
_cell_formula_units_Z 64
_cell_length_a 10.679027
_cell_length_b 31.724463
_cell_length_c 9.854208
_cell_angle_alpha 90.000000
_cell_angle_beta 90.000000
_cell_angle_gamma 90.000000
_cell_volume 3338.471623
_symmetry_space_group_name_H-M "C M C 21"
_symmetry_group_IT_number 36
_symmetry_cell_setting 'orthorhombic'
loop_
_space_group_symop_operation_xyz
x,y,z
-x,-y,1/2+z
x,-y,1/2+z
-x,y,z
1/2+x,1/2+y,z
1/2-x,1/2-y,1/2+z
1/2+x,1/2-y,1/2+z
1/2-x,1/2+y,z
loop_
_atom_site_type_symbol
_atom_site_label
_atom_site_fract_x
_atom_site_fract_y
_atom_site_fract_z
Si Si1 0.641721 0.913550 0.012140
Si Si2 0.273608 0.997454 0.443767
Si Si3 0.357532 0.280646 0.796638
Si Si4 0.857440 0.584086 0.807978
Si Si5 0.358027 0.855387 0.523994
Si Si6 0.646458 0.761682 0.576638
Si Si7 0.213438 0.874747 0.779208
Si Si8 0.636247 0.534743 0.204598
O O1 0.500000 0.896745 0.008867
O O2 0.706876 0.913598 0.160541
O O3 0.640612 0.961370 0.957929
O O4 0.726470 0.882074 0.925663
O O5 0.159304 0.009937 0.345113
O O6 0.355252 0.962176 0.370910
O O7 0.232631 0.979345 0.589182
O O8 0.500000 0.264124 0.762180
O O9 0.250142 0.258994 0.699245
O O10 0.363799 0.331226 0.780018
O O11 0.325657 0.271323 0.955394
O O12 0.000000 0.596501 0.780554
O O13 0.786952 0.617799 0.906666
O O14 0.500000 0.868359 0.505344
O O15 0.333938 0.806243 0.502270
O O16 0.325376 0.870057 0.673631
O O17 0.500000 0.757540 0.629615
O O18 0.133286 0.914980 0.732640
O O19 0.500000 0.521752 0.152088
#
# Coordination Sequence:
#
# PCOD8174576 Si02
#       8
#     8   8   8   8   8   8   8   8
#     4  10  21  34  51  79 110 143 182 226 282 340
#     4  11  20  36  50  73 104 135 180 233 281 332
#     4  10  21  39  62  90 122 157 195 239 292 352
#     4  10  19  32  51  76 106 137 173 222 279 335
#     4   9  17  32  54  79 106 138 175 225 282 334
#     4   9  20  37  59  88 119 152 193 240 292 352
#     4  10  20  35  56  79 111 144 187 229 275 336
#     4  11  22  35  53  72  99 142 188 234 278 331
#
# _framework density 19.170449000000001
#
# number of rings (size 3 to 8) (size 9 to 14) (size 15 to 20)
#    0.000    2.000    2.500    1.500    0.000    2.000 
#    0.000    1.250    0.000    0.000    0.000    0.000 
#    0.000    0.000    0.000    0.000    0.000    0.000 
#
# Total GULP energy -396481.048200 kJ/mol
# GULP energy per Si atom -12390.032756 kJ/mol
# Density = 1.912682 g / cm^3
# Si number density = 19.170449 Si / 1000 Ang^3
#
#
#
# Elastic Constant Matrix: (Units=GPa)
#
#
# Indices 1 2 3 4 5 6 
#
# 1 76.5060 11.3574 33.9154 0.0000 0.0000 0.0000
# 2 11.3574 53.5484 30.0922 0.0000 0.0000 0.0000
# 3 33.9154 30.0922 124.1767 0.0000 0.0000 0.0000
# 4 0.0000 0.0000 0.0000 34.1360 0.0000 0.0000
# 5 0.0000 0.0000 0.0000 0.0000 23.4404 0.0000
# 6 0.0000 0.0000 0.0000 0.0000 0.0000 6.2480
#
#
#
# Elastic Compliance Matrix: (Units=1/GPa)
#
#
# Indices 1 2 3 4 5 6 
#
# 1 0.014919 -0.001012 -0.003829 0.000000 0.000000 0.000000
# 2 -0.001012 0.021687 -0.004979 0.000000 0.000000 0.000000
# 3 -0.003829 -0.004979 0.010306 0.000000 0.000000 0.000000
# 4 0.000000 0.000000 0.000000 0.029295 0.000000 0.000000
# 5 0.000000 0.000000 0.000000 0.000000 0.042661 0.000000
# 6 0.000000 0.000000 0.000000 0.000000 0.000000 0.160050
#
#
# Mechanical properties :
#
#
# Convention : Reuss Voigt Hill
#
# Bulk Modulus (GPa) = 36.67001 44.99570 40.83286
# Shear Modulus (GPa) = 16.25226 24.68929 20.47078
#
# Velocity S-wave (km/s) = 2.91482 3.59260 3.27131
# Velocity P-wave (km/s) = 5.52251 6.38211 5.96781
#
# Compressibility (1/GPa) = 0.02727024
#
# Stress axis : x y z
#
# Youngs Moduli (GPa) = 67.03000 46.10958 97.03536
#
# Poissons Ratio (x) = 0.04668 0.37158
# Poissons Ratio (y) = 0.06785 0.48315
# Poissons Ratio (z) = 0.25668 0.22959
#
# Static dielectric constant tensor:
#      x y z
#    x 3.254110 0.000000 0.000000 
#    y 0.000000 3.502570 0.000000 
#    z 0.000000 0.000000 3.708450 
# 
# 
# High freq. dielectric constant tensor:
#      x y z
#    x 1.721360 0.000000 0.000000 
#    y 0.000000 1.742810 0.000000 
#    z 0.000000 0.000000 1.755150 
# 
# From -- ./inp_files/3590.got.cif
#   From: 2010.03.12/outbox.cif.g09.slc.cpg/sg36_2_cif.got.tgz:3590.got - 2010.04.14 02:13:53.
