data_PCOD8174338
_publ_section_title
;
Structure prediction by ZEFSAII (Michael W. Deem and Ramdas Pophale) SiO2 
 PCOD8174338
Probable space group: C M C 21
;
_chemical_formula_sum "Si O2"
_cell_formula_units_Z 64
_cell_length_a 8.698206
_cell_length_b 27.484967
_cell_length_c 13.132110
_cell_angle_alpha 90.000000
_cell_angle_beta 90.000000
_cell_angle_gamma 90.000000
_cell_volume 3139.492288
_symmetry_space_group_name_H-M "C M C 21"
_symmetry_group_IT_number 36
_symmetry_cell_setting 'orthorhombic'
loop_
_space_group_symop_operation_xyz
x,y,z
-x,-y,1/2+z
x,-y,1/2+z
-x,y,z
1/2+x,1/2+y,z
1/2-x,1/2-y,1/2+z
1/2+x,1/2-y,1/2+z
1/2-x,1/2+y,z
loop_
_atom_site_type_symbol
_atom_site_label
_atom_site_fract_x
_atom_site_fract_y
_atom_site_fract_z
Si Si1 0.682292 0.552752 0.111850
Si Si2 0.183473 0.910054 0.828638
Si Si3 0.323256 0.304317 0.791628
Si Si4 0.319717 0.375470 0.436220
Si Si5 0.672415 0.736136 0.938838
Si Si6 0.673611 0.773518 0.153888
Si Si7 0.682801 0.553678 0.548022
Si Si8 0.182964 0.623185 0.720015
O O1 0.500000 0.555414 0.113821
O O2 0.743373 0.561916 0.227318
O O3 0.740291 0.500493 0.073783
O O4 0.743748 0.593137 0.031685
O O5 0.255551 0.855331 0.821094
O O6 0.000000 0.910391 0.832088
O O7 0.244447 0.933612 0.934068
O O8 0.500000 0.317935 0.776336
O O9 0.301831 0.260572 0.870920
O O10 0.252168 0.278114 0.691076
O O11 0.500000 0.384610 0.421452
O O12 0.281772 0.319411 0.461721
O O13 0.238195 0.393009 0.332017
O O14 0.500000 0.737747 0.891299
O O15 0.677527 0.772218 0.033897
O O16 0.500000 0.773880 0.196310
O O17 0.752223 0.822662 0.197114
O O18 0.500000 0.558081 0.552925
O O19 0.752465 0.588623 0.632734
O O20 0.000000 0.621990 0.713696
#
# Coordination Sequence:
#
# PCOD8174338 Si02
#       8
#     8   8   8   8   8   8   8   8
#     4   9  19  35  59  86 112 143 184 236 289 331
#     4   9  18  33  55  85 113 142 185 234 280 333
#     4  10  18  32  52  74 106 144 181 213 259 323
#     4  10  20  35  58  87 114 145 189 236 277 327
#     4  10  19  32  52  79 110 142 182 225 265 316
#     4   9  18  32  51  74 106 149 182 211 264 325
#     4  10  21  36  59  86 110 141 186 238 285 331
#     4  11  22  37  56  81 117 154 187 225 279 342
#
# _framework density 20.385463000000001
#
# number of rings (size 3 to 8) (size 9 to 14) (size 15 to 20)
#    0.000    2.250    1.250    1.875    1.750    3.000 
#    0.000    1.875    0.000    3.750    0.000    0.000 
#    0.000    0.000    0.000    0.000    0.000    0.000 
#
# Total GULP energy -396458.709500 kJ/mol
# GULP energy per Si atom -12389.334672 kJ/mol
# Density = 2.033906 g / cm^3
# Si number density = 20.385463 Si / 1000 Ang^3
#
#
#
# Elastic Constant Matrix: (Units=GPa)
#
#
# Indices 1 2 3 4 5 6 
#
# 1 15.7003 12.1576 14.4135 0.0000 0.0000 0.0000
# 2 12.1576 143.9537 63.9571 0.0000 0.0000 0.0000
# 3 14.4135 63.9571 147.7827 0.0000 0.0000 0.0000
# 4 0.0000 0.0000 0.0000 41.6688 0.0000 0.0000
# 5 0.0000 0.0000 0.0000 0.0000 18.8286 0.0000
# 6 0.0000 0.0000 0.0000 0.0000 0.0000 19.4879
#
#
#
# Elastic Compliance Matrix: (Units=1/GPa)
#
#
# Indices 1 2 3 4 5 6 
#
# 1 0.071464 -0.003638 -0.005395 0.000000 0.000000 0.000000
# 2 -0.003638 0.008786 -0.003447 0.000000 0.000000 0.000000
# 3 -0.005395 -0.003447 0.008785 0.000000 0.000000 0.000000
# 4 0.000000 0.000000 0.000000 0.023999 0.000000 0.000000
# 5 0.000000 0.000000 0.000000 0.000000 0.053111 0.000000
# 6 0.000000 0.000000 0.000000 0.000000 0.000000 0.051314
#
#
# Mechanical properties :
#
#
# Convention : Reuss Voigt Hill
#
# Bulk Modulus (GPa) = 15.60746 54.27701 34.94224
# Shear Modulus (GPa) = 18.95541 30.45763 24.70652
#
# Velocity S-wave (km/s) = 3.05265 3.86953 3.48511
# Velocity P-wave (km/s) = 4.48305 6.82990 5.77690
#
# Compressibility (1/GPa) = 0.06407190
#
# Stress axis : x y z
#
# Youngs Moduli (GPa) = 13.99314 113.82301 113.83233
#
# Poissons Ratio (x) = 0.41412 0.61417
# Poissons Ratio (y) = 0.05091 0.39242
# Poissons Ratio (z) = 0.07550 0.39239
#
# Static dielectric constant tensor:
#      x y z
#    x 3.206330 0.000000 0.000000 
#    y 0.000000 3.940530 0.000000 
#    z 0.000000 0.000000 3.988000 
# 
# 
# High freq. dielectric constant tensor:
#      x y z
#    x 1.738090 0.000000 0.000000 
#    y 0.000000 1.808780 0.000000 
#    z 0.000000 0.000000 1.811640 
# 
# From -- ./inp_files/7057.got.cif
#   From: 2010.03.12/outbox.cif.g09.slc.cpg/sg36_4_cif.got.tgz:7057.got - 2010.04.14 02:13:53.
