data_PCOD8174990
_publ_section_title
;
Structure prediction by ZEFSAII (Michael W. Deem and Ramdas Pophale) SiO2 
 PCOD8174990
Probable space group: C M C 21
;
_chemical_formula_sum "Si O2"
_cell_formula_units_Z 48
_cell_length_a 8.564010
_cell_length_b 19.497185
_cell_length_c 14.017756
_cell_angle_alpha 90.000000
_cell_angle_beta 90.000000
_cell_angle_gamma 90.000000
_cell_volume 2340.602014
_symmetry_space_group_name_H-M "C M C 21"
_symmetry_group_IT_number 36
_symmetry_cell_setting 'orthorhombic'
loop_
_space_group_symop_operation_xyz
x,y,z
-x,-y,1/2+z
x,-y,1/2+z
-x,y,z
1/2+x,1/2+y,z
1/2-x,1/2-y,1/2+z
1/2+x,1/2-y,1/2+z
1/2-x,1/2+y,z
loop_
_atom_site_type_symbol
_atom_site_label
_atom_site_fract_x
_atom_site_fract_y
_atom_site_fract_z
Si Si1 0.177697 0.418253 0.894570
Si Si2 0.180861 0.801299 0.777567
Si Si3 0.319025 0.677640 0.887638
Si Si4 0.184218 0.644166 0.084442
Si Si5 0.823118 0.444539 0.285022
Si Si6 0.685223 0.010876 0.583348
O O1 0.282417 0.355229 0.861115
O O2 0.183314 0.476464 0.814809
O O3 0.000000 0.392408 0.909255
O O4 0.250268 0.448208 0.992240
O O5 0.225056 0.726841 0.816673
O O6 0.277672 0.817078 0.682296
O O7 0.000000 0.803508 0.751120
O O8 0.500000 0.696307 0.883223
O O9 0.290114 0.600515 0.850192
O O10 0.261494 0.684777 0.996394
O O11 0.252661 0.566533 0.086944
O O12 0.000000 0.644032 0.068876
O O13 0.765956 0.444607 0.175452
O O14 0.000000 0.416572 0.296045
O O15 0.500000 0.004246 0.575877
#
# Coordination Sequence:
#
# PCOD8174990 Si02
#       6
#     8   8   8   8   8   8
#     4  10  19  37  64  93 125 165 211 260 316 377
#     4  12  26  43  63  93 130 172 215 264 318 378
#     4  12  26  43  63  93 130 172 215 264 318 378
#     4  11  21  42  69  94 123 165 211 260 324 389
#     4  10  19  37  64  93 125 165 211 260 316 377
#     4   9  18  34  63  96 125 163 209 256 314 379
#
# _framework density 20.507542999999998
#
# number of rings (size 3 to 8) (size 9 to 14) (size 15 to 20)
#    0.000    1.333    3.333    3.500    0.000    2.000 
#    0.000    5.833    0.000    0.000    0.000    0.000 
#    0.000    0.000    0.000    0.000    0.000    0.000 
#
# Total GULP energy -297694.307129 kJ/mol
# GULP energy per Si atom -12403.929464 kJ/mol
# Density = 2.046087 g / cm^3
# Si number density = 20.507543 Si / 1000 Ang^3
#
#
#
# Elastic Constant Matrix: (Units=GPa)
#
#
# Indices 1 2 3 4 5 6 
#
# 1 63.3866 16.7495 14.7269 0.0000 0.0000 0.0000
# 2 16.7495 61.4737 14.4788 0.0000 0.0000 0.0000
# 3 14.7269 14.4788 123.7243 0.0000 0.0000 0.0000
# 4 0.0000 0.0000 0.0000 34.6990 0.0000 0.0000
# 5 0.0000 0.0000 0.0000 0.0000 31.6155 0.0000
# 6 0.0000 0.0000 0.0000 0.0000 0.0000 26.6920
#
#
#
# Elastic Compliance Matrix: (Units=1/GPa)
#
#
# Indices 1 2 3 4 5 6 
#
# 1 0.017284 -0.004345 -0.001549 0.000000 0.000000 0.000000
# 2 -0.004345 0.017820 -0.001568 0.000000 0.000000 0.000000
# 3 -0.001549 -0.001568 0.008450 0.000000 0.000000 0.000000
# 4 0.000000 0.000000 0.000000 0.028819 0.000000 0.000000
# 5 0.000000 0.000000 0.000000 0.000000 0.031630 0.000000
# 6 0.000000 0.000000 0.000000 0.000000 0.000000 0.037464
#
#
# Mechanical properties :
#
#
# Convention : Reuss Voigt Hill
#
# Bulk Modulus (GPa) = 34.92685 37.83279 36.37982
# Shear Modulus (GPa) = 30.13217 32.10993 31.12105
#
# Velocity S-wave (km/s) = 3.83733 3.96126 3.89979
# Velocity P-wave (km/s) = 6.05819 6.27777 6.16896
#
# Compressibility (1/GPa) = 0.02863127
#
# Stress axis : x y z
#
# Youngs Moduli (GPa) = 57.85674 56.11595 118.33784
#
# Poissons Ratio (x) = 0.24380 0.18329
# Poissons Ratio (y) = 0.25136 0.18559
# Poissons Ratio (z) = 0.08961 0.08801
#
# Static dielectric constant tensor:
#      x y z
#    x 3.437180 0.000000 0.000000 
#    y 0.000000 3.581150 0.000000 
#    z 0.000000 0.000000 3.913610 
# 
# 
# High freq. dielectric constant tensor:
#      x y z
#    x 1.777180 0.000000 0.000000 
#    y 0.000000 1.793930 0.000000 
#    z 0.000000 0.000000 1.819880 
# 
# From -- ./inp_files/10393.got.cif
#   From: 2010.03.12/outbox.cif.g09.slc.cpg/sg36_6_cif.got.tgz:10393.got - 2010.04.14 02:13:53.
