data_PCOD8174107
_publ_section_title
;
Structure prediction by ZEFSAII (Michael W. Deem and Ramdas Pophale) SiO2 
 PCOD8174107
Probable space group: C M M 2
;
_chemical_formula_sum "Si O2"
_cell_formula_units_Z 56
_cell_length_a 8.765451
_cell_length_b 19.196614
_cell_length_c 17.621700
_cell_angle_alpha 90.000000
_cell_angle_beta 90.000000
_cell_angle_gamma 90.000000
_cell_volume 2965.150231
_symmetry_space_group_name_H-M "C M M 2"
_symmetry_group_IT_number 35
_symmetry_cell_setting 'orthorhombic'
loop_
_space_group_symop_operation_xyz
x,y,z
-x,-y,z
-x,y,z
x,-y,z
1/2+x,1/2+y,z
1/2-x,1/2-y,z
1/2-x,1/2+y,z
1/2+x,1/2-y,z
loop_
_atom_site_type_symbol
_atom_site_label
_atom_site_fract_x
_atom_site_fract_y
_atom_site_fract_z
Si Si1 0.678591 0.176563 0.396110
Si Si2 0.679739 0.825955 0.813103
Si Si3 0.320882 0.676170 0.238481
Si Si4 0.818937 0.422744 0.946641
Si Si5 0.672945 0.419108 0.514669
Si Si6 0.322785 0.579665 0.689320
Si Si7 0.325923 0.918151 0.116754
O O1 0.500000 0.185648 0.384037
O O2 0.750000 0.250000 0.420121
O O3 0.751216 0.149225 0.317709
O O4 0.709514 0.122015 0.462544
O O5 0.500000 0.818160 0.818516
O O6 0.750000 0.750000 0.810626
O O7 0.746317 0.867578 0.886014
O O8 0.720713 0.868227 0.737734
O O9 0.500000 0.684846 0.248295
O O10 0.250000 0.750000 0.214940
O O11 0.286152 0.620489 0.173729
O O12 0.752504 0.500000 0.928728
O O13 0.000000 0.426669 0.941458
O O14 0.772010 0.399341 0.031363
O O15 0.500000 0.395383 0.496976
O O16 0.692668 0.500000 0.496652
O O17 0.712719 0.403715 0.601892
O O18 0.500000 0.592311 0.707345
O O19 0.277909 0.500000 0.708278
O O20 0.500000 0.893720 0.130262
O O21 0.311374 0.000000 0.130798
#
# Coordination Sequence:
#
# PCOD8174107 Si02
#       7
#     8   8   8   8   8   8   8
#     4  11  22  37  57  80 108 142 181 221 265 318
#     4  11  22  35  53  79 111 144 181 223 266 315
#     4  11  22  37  56  78 108 143 181 222 266 318
#     4   8  16  33  56  79 104 138 178 220 268 319
#     4   9  19  37  59  82 109 140 175 218 268 319
#     4   9  19  37  59  81 107 140 177 219 269 321
#     4   9  18  35  58  82 109 140 176 219 267 319
#
# _framework density 18.886058999999999
#
# number of rings (size 3 to 8) (size 9 to 14) (size 15 to 20)
#    0.000    2.286    0.000    6.000    0.000    3.714 
#    0.000    4.286    0.000    1.714    0.000    0.000 
#    0.000    0.000    0.000    0.000    0.000    0.000 
#
# Total GULP energy -347239.708336 kJ/mol
# GULP energy per Si atom -12401.418155 kJ/mol
# Density = 1.884307 g / cm^3
# Si number density = 18.886059 Si / 1000 Ang^3
#
#
#
# Elastic Constant Matrix: (Units=GPa)
#
#
# Indices 1 2 3 4 5 6 
#
# 1 101.7267 44.5327 48.4420 0.0000 0.0000 0.0000
# 2 44.5327 100.6675 76.3105 0.0000 0.0000 0.0000
# 3 48.4420 76.3105 122.0871 0.0000 0.0000 0.0000
# 4 0.0000 0.0000 0.0000 10.6054 0.0000 0.0000
# 5 0.0000 0.0000 0.0000 0.0000 26.6594 0.0000
# 6 0.0000 0.0000 0.0000 0.0000 0.0000 20.4966
#
#
#
# Elastic Compliance Matrix: (Units=1/GPa)
#
#
# Indices 1 2 3 4 5 6 
#
# 1 0.012711 -0.003421 -0.002906 0.000000 0.000000 0.000000
# 2 -0.003421 0.019799 -0.011018 0.000000 0.000000 0.000000
# 3 -0.002906 -0.011018 0.016231 0.000000 0.000000 0.000000
# 4 0.000000 0.000000 0.000000 0.094292 0.000000 0.000000
# 5 0.000000 0.000000 0.000000 0.000000 0.037510 0.000000
# 6 0.000000 0.000000 0.000000 0.000000 0.000000 0.048789
#
#
# Mechanical properties :
#
#
# Convention : Reuss Voigt Hill
#
# Bulk Modulus (GPa) = 71.16234 73.67239 72.41737
# Shear Modulus (GPa) = 18.60780 21.89870 20.25325
#
# Velocity S-wave (km/s) = 3.14230 3.40886 3.27829
# Velocity P-wave (km/s) = 7.13632 7.38832 7.26341
#
# Compressibility (1/GPa) = 0.01405238
#
# Stress axis : x y z
#
# Youngs Moduli (GPa) = 78.67003 50.50707 61.61157
#
# Poissons Ratio (x) = 0.17276 0.17902
# Poissons Ratio (y) = 0.26910 0.67885
# Poissons Ratio (z) = 0.22858 0.55650
#
# Static dielectric constant tensor:
#      x y z
#    x 3.291530 0.000000 0.000000 
#    y 0.000000 3.489520 0.000000 
#    z 0.000000 0.000000 3.555400 
# 
# 
# High freq. dielectric constant tensor:
#      x y z
#    x 1.722190 0.000000 0.000000 
#    y 0.000000 1.731780 0.000000 
#    z 0.000000 0.000000 1.743100 
# 
# From -- ./inp_files/15615.got.cif
#   From: 2010.03.12/outbox.cif.g09.slc.cpg/sg35_8_cif.got.tgz:15615.got - 2010.04.14 02:02:04.
