data_PCOD8174974
_publ_section_title
;
Structure prediction by ZEFSAII (Michael W. Deem and Ramdas Pophale) SiO2 
 PCOD8174974
Probable space group: C M C 21
;
_chemical_formula_sum "Si O2"
_cell_formula_units_Z 64
_cell_length_a 24.002986
_cell_length_b 9.688548
_cell_length_c 14.701176
_cell_angle_alpha 90.000000
_cell_angle_beta 90.000000
_cell_angle_gamma 90.000000
_cell_volume 3418.818489
_symmetry_space_group_name_H-M "C M C 21"
_symmetry_group_IT_number 36
_symmetry_cell_setting 'orthorhombic'
loop_
_space_group_symop_operation_xyz
x,y,z
-x,-y,1/2+z
x,-y,1/2+z
-x,y,z
1/2+x,1/2+y,z
1/2-x,1/2-y,1/2+z
1/2+x,1/2-y,1/2+z
1/2-x,1/2+y,z
loop_
_atom_site_type_symbol
_atom_site_label
_atom_site_fract_x
_atom_site_fract_y
_atom_site_fract_z
Si Si1 0.643211 0.331170 0.026590
Si Si2 0.858350 0.902121 0.419794
Si Si3 0.934770 0.357736 0.923919
Si Si4 0.937221 0.595444 0.060126
Si Si5 0.329495 0.358086 0.226579
Si Si6 0.622306 0.068820 0.242219
Si Si7 0.783922 0.581998 0.655296
Si Si8 0.745340 0.323314 0.535490
O O1 0.599995 0.209323 0.011235
O O2 0.642549 0.392852 0.129408
O O3 0.704250 0.273351 0.000025
O O4 0.623044 0.455020 0.963611
O O5 0.903754 0.785838 0.442865
O O6 0.859472 0.930562 0.311437
O O7 0.795965 0.862728 0.453413
O O8 0.907586 0.441874 0.839506
O O9 0.000000 0.330269 0.904421
O O10 0.925510 0.448148 0.013875
O O11 0.925603 0.587741 0.167280
O O12 0.000000 0.642623 0.044963
O O13 0.333423 0.193800 0.241403
O O14 0.265985 0.407474 0.227254
O O15 0.659725 0.937516 0.213873
O O16 0.772009 0.458373 0.583115
O O17 0.790209 0.729423 0.605225
#
# Coordination Sequence:
#
# PCOD8174974 Si02
#       8
#     8   8   8   8   8   8   8   8
#     4  10  21  39  53  83 119 147 192 238 289 345
#     4  11  22  36  60  82 113 158 189 232 297 345
#     4  10  23  40  59  87 112 145 206 252 286 348
#     4  10  20  38  60  81 109 150 197 245 295 341
#     4   9  20  35  52  80 112 150 187 225 272 354
#     4  10  19  37  59  81 114 155 190 232 296 343
#     4  11  18  36  55  80 120 151 184 232 280 341
#     4  11  20  35  56  84 123 150 182 242 277 349
#
# _framework density 18.719918
#
# number of rings (size 3 to 8) (size 9 to 14) (size 15 to 20)
#    0.000    1.750    6.250    1.125    0.000    3.500 
#    2.250    0.000    0.000    0.000    0.000    0.000 
#    0.000    0.000    0.000    0.000    0.000    0.000 
#
# Total GULP energy -396676.785868 kJ/mol
# GULP energy per Si atom -12396.149558 kJ/mol
# Density = 1.867731 g / cm^3
# Si number density = 18.719918 Si / 1000 Ang^3
#
#
#
# Elastic Constant Matrix: (Units=GPa)
#
#
# Indices 1 2 3 4 5 6 
#
# 1 95.6794 26.8664 17.7718 0.0000 0.0000 0.0000
# 2 26.8664 59.0061 14.7396 0.0000 0.0000 0.0000
# 3 17.7718 14.7396 52.6661 0.0000 0.0000 0.0000
# 4 0.0000 0.0000 0.0000 27.7588 0.0000 0.0000
# 5 0.0000 0.0000 0.0000 0.0000 25.6243 0.0000
# 6 0.0000 0.0000 0.0000 0.0000 0.0000 28.6196
#
#
#
# Elastic Compliance Matrix: (Units=1/GPa)
#
#
# Indices 1 2 3 4 5 6 
#
# 1 0.012353 -0.004928 -0.002789 0.000000 0.000000 0.000000
# 2 -0.004928 0.020187 -0.003987 0.000000 0.000000 0.000000
# 3 -0.002789 -0.003987 0.021045 0.000000 0.000000 0.000000
# 4 0.000000 0.000000 0.000000 0.036025 0.000000 0.000000
# 5 0.000000 0.000000 0.000000 0.000000 0.039025 0.000000
# 6 0.000000 0.000000 0.000000 0.000000 0.000000 0.034941
#
#
# Mechanical properties :
#
#
# Convention : Reuss Voigt Hill
#
# Bulk Modulus (GPa) = 33.13807 36.23414 34.68610
# Shear Modulus (GPa) = 25.37511 26.26546 25.82028
#
# Velocity S-wave (km/s) = 3.68572 3.74983 3.71791
# Velocity P-wave (km/s) = 5.98776 6.17626 6.08274
#
# Compressibility (1/GPa) = 0.03017677
#
# Stress axis : x y z
#
# Youngs Moduli (GPa) = 80.94924 49.53667 47.51809
#
# Poissons Ratio (x) = 0.24411 0.13255
# Poissons Ratio (y) = 0.39891 0.18945
# Poissons Ratio (z) = 0.22580 0.19749
#
# Static dielectric constant tensor:
#      x y z
#    x 3.452250 0.000000 0.000000 
#    y 0.000000 3.431300 0.000000 
#    z 0.000000 0.000000 3.541340 
# 
# 
# High freq. dielectric constant tensor:
#      x y z
#    x 1.718750 0.000000 0.000000 
#    y 0.000000 1.720550 0.000000 
#    z 0.000000 0.000000 1.722010 
# 
# From -- ./inp_files/12992.got.cif
#   From: 2010.03.12/outbox.cif.g09.slc.cpg/sg36_7_cif.got.tgz:12992.got - 2010.04.14 02:13:53.
