data_PCOD8174081
_publ_section_title
;
Structure prediction by ZEFSAII (Michael W. Deem and Ramdas Pophale) SiO2 
 PCOD8174081
Probable space group: C M M 2
;
_chemical_formula_sum "Si O2"
_cell_formula_units_Z 64
_cell_length_a 28.142413
_cell_length_b 9.134557
_cell_length_c 15.597065
_cell_angle_alpha 90.000000
_cell_angle_beta 90.000000
_cell_angle_gamma 90.000000
_cell_volume 4009.513724
_symmetry_space_group_name_H-M "C M M 2"
_symmetry_group_IT_number 35
_symmetry_cell_setting 'orthorhombic'
loop_
_space_group_symop_operation_xyz
x,y,z
-x,-y,z
-x,y,z
x,-y,z
1/2+x,1/2+y,z
1/2-x,1/2-y,z
1/2-x,1/2+y,z
1/2+x,1/2-y,z
loop_
_atom_site_type_symbol
_atom_site_label
_atom_site_fract_x
_atom_site_fract_y
_atom_site_fract_z
Si Si1 0.056624 0.668470 0.076090
Si Si2 0.443802 0.166165 0.390383
Si Si3 0.296137 0.329878 0.292582
Si Si4 0.551600 0.172381 0.890383
Si Si5 0.398083 0.327726 0.231842
Si Si6 0.898083 0.172275 0.548924
Si Si7 0.296137 0.670122 0.488183
Si Si8 0.556624 0.168471 0.704676
O O1 0.069092 0.500000 0.098106
O O2 0.082917 0.775791 0.140631
O O3 0.000000 0.691355 0.080663
O O4 0.076783 0.713260 0.980817
O O5 0.500000 0.168114 0.390381
O O6 0.426440 0.247143 0.305988
O O7 0.426442 0.247145 0.474779
O O8 0.424555 0.000000 0.390385
O O9 0.285244 0.500000 0.288661
O O10 0.250000 0.250000 0.253637
O O11 0.342310 0.288426 0.237236
O O12 0.305574 0.278880 0.390382
O O13 0.500000 0.248992 0.890382
O O14 0.576783 0.213257 0.799949
O O15 0.543689 0.000000 0.890386
O O16 0.406429 0.500000 0.243032
O O17 0.842310 0.211577 0.543528
O O18 0.917082 0.224209 0.640136
O O19 0.906428 0.000000 0.537735
O O20 0.285245 0.500000 0.492105
O O21 0.250000 0.750000 0.527128
O O22 0.500000 0.191358 0.700103
O O23 0.569091 0.000000 0.682659
#
# Coordination Sequence:
#
# PCOD8174081 Si02
#       8
#     8   8   8   8   8   8   8   8
#     4   9  17  30  48  70  95 125 162 196 226 268
#     4  11  23  35  46  63  90 127 168 197 216 257
#     4   9  18  33  49  66  88 116 152 192 233 277
#     4   7  12  26  47  67  90 121 156 197 234 261
#     4  11  21  33  47  68  97 125 152 188 237 283
#     4  11  21  33  47  68  97 125 152 188 237 283
#     4   9  18  33  49  66  88 116 152 192 233 277
#     4   9  17  30  48  70  95 125 162 196 226 268
#
# _framework density 15.962035999999999
#
# number of rings (size 3 to 8) (size 9 to 14) (size 15 to 20)
#    0.000    2.500    1.250    3.375    0.000    6.500 
#    0.000    0.625    0.000    2.250    0.000    0.875 
#    0.000    0.000    0.000    0.000    0.000    0.000 
#
# Total GULP energy -396596.765916 kJ/mol
# GULP energy per Si atom -12393.648935 kJ/mol
# Density = 1.592571 g / cm^3
# Si number density = 15.962036 Si / 1000 Ang^3
#
#
#
# Elastic Constant Matrix: (Units=GPa)
#
#
# Indices 1 2 3 4 5 6 
#
# 1 80.1783 47.1012 48.1628 0.0000 0.0000 0.0000
# 2 47.1012 74.5789 48.6434 0.0000 0.0000 0.0000
# 3 48.1628 48.6434 124.3848 0.0000 0.0000 0.0000
# 4 0.0000 0.0000 0.0000 14.1235 0.0000 0.0000
# 5 0.0000 0.0000 0.0000 0.0000 -12.7102 0.0000
# 6 0.0000 0.0000 0.0000 0.0000 0.0000 27.2057
#
#
#
# Elastic Compliance Matrix: (Units=1/GPa)
#
#
# Indices 1 2 3 4 5 6 
#
# 1 0.021210 -0.010791 -0.003992 0.000000 0.000000 0.000000
# 2 -0.010791 0.023490 -0.005008 0.000000 0.000000 0.000000
# 3 -0.003992 -0.005008 0.011544 0.000000 0.000000 0.000000
# 4 0.000000 0.000000 0.000000 0.070804 0.000000 0.000000
# 5 0.000000 0.000000 0.000000 0.000000 -0.078677 0.000000
# 6 0.000000 0.000000 0.000000 0.000000 0.000000 0.036757
#
#
# Mechanical properties :
#
#
# Convention : Reuss Voigt Hill
#
# Bulk Modulus (GPa) = 60.02119 62.99519 61.50819
# Shear Modulus (GPa) = 38.38319 14.73944 26.56132
#
# Velocity S-wave (km/s) = 4.90905 3.04206 4.08368
# Velocity P-wave (km/s) = 8.35558 7.20348 7.80083
#
# Compressibility (1/GPa) = 0.01666078
#
# Stress axis : x y z
#
# Youngs Moduli (GPa) = 47.14789 42.57061 86.62556
#
# Poissons Ratio (x) = 0.45939 0.34585
# Poissons Ratio (y) = 0.50879 0.43382
# Poissons Ratio (z) = 0.18824 0.21319
#
# Static dielectric constant tensor:
#      x y z
#    x 2.939290 0.000000 0.000000 
#    y 0.000000 2.999670 0.000000 
#    z 0.000000 0.000000 3.270240 
# 
# 
# High freq. dielectric constant tensor:
#      x y z
#    x 1.591420 0.000000 0.000000 
#    y 0.000000 1.609860 0.000000 
#    z 0.000000 0.000000 1.607890 
# 
# From -- ./inp_files/17759.got.cif
#   From: 2010.03.12/outbox.cif.g09.slc.cpg/sg35_9_cif.got.tgz:17759.got - 2010.04.14 02:02:04.
