data_PCOD8174829
_publ_section_title
;
Structure prediction by ZEFSAII (Michael W. Deem and Ramdas Pophale) SiO2 
 PCOD8174829
Probable space group: C M C 21
;
_chemical_formula_sum "Si O2"
_cell_formula_units_Z 64
_cell_length_a 8.754895
_cell_length_b 24.474510
_cell_length_c 14.284173
_cell_angle_alpha 90.000000
_cell_angle_beta 90.000000
_cell_angle_gamma 90.000000
_cell_volume 3060.694964
_symmetry_space_group_name_H-M "C M C 21"
_symmetry_group_IT_number 36
_symmetry_cell_setting 'orthorhombic'
loop_
_space_group_symop_operation_xyz
x,y,z
-x,-y,1/2+z
x,-y,1/2+z
-x,y,z
1/2+x,1/2+y,z
1/2-x,1/2-y,1/2+z
1/2+x,1/2-y,1/2+z
1/2-x,1/2+y,z
loop_
_atom_site_type_symbol
_atom_site_label
_atom_site_fract_x
_atom_site_fract_y
_atom_site_fract_z
Si Si1 0.324105 0.374657 0.025680
Si Si2 0.821204 0.560919 0.998967
Si Si3 0.180309 0.917128 0.689767
Si Si4 0.182265 0.034782 0.389013
Si Si5 0.670937 0.801570 0.708822
Si Si6 0.176292 0.838751 0.409631
Si Si7 0.182777 0.817654 0.203248
Si Si8 0.166177 0.716531 0.428212
O O1 0.500000 0.388583 0.034376
O O2 0.257166 0.363550 0.129649
O O3 0.247887 0.424241 0.968247
O O4 0.303411 0.318742 0.968968
O O5 0.746452 0.524018 0.917270
O O6 0.782491 0.622771 0.971643
O O7 0.000000 0.550375 0.001461
O O8 0.753898 0.549755 0.102847
O O9 0.238881 0.945251 0.786439
O O10 0.222909 0.853058 0.684759
O O11 0.000000 0.922244 0.680979
O O12 0.000000 0.033836 0.389518
O O13 0.500000 0.814226 0.670517
O O14 0.738185 0.743363 0.670342
O O15 0.664256 0.790837 0.818244
O O16 0.242844 0.836848 0.304023
O O17 0.192993 0.779365 0.455722
O O18 0.000000 0.858814 0.411675
O O19 0.000000 0.814352 0.206700
O O20 0.000000 0.697536 0.467626
#
# Coordination Sequence:
#
# PCOD8174829 Si02
#       8
#     8   8   8   8   8   8   8   8
#     4  10  19  34  58  89 120 155 205 250 297 360
#     4  12  27  43  63  91 121 159 207 259 312 362
#     4  11  23  41  64  90 121 158 203 250 302 368
#     4  10  23  43  64  88 120 161 208 258 306 361
#     4   9  17  33  56  86 124 161 199 242 300 358
#     4   9  19  39  60  84 122 164 205 246 301 366
#     4   8  17  33  57  88 124 164 198 242 301 362
#     4   9  18  32  54  84 122 162 197 243 301 357
#
# _framework density 20.910281999999999
#
# number of rings (size 3 to 8) (size 9 to 14) (size 15 to 20)
#    0.000    2.250    1.250    3.000    1.750    3.000 
#    0.000    5.000    0.000    0.000    0.000    0.000 
#    0.000    0.000    0.000    0.000    0.000    0.000 
#
# Total GULP energy -396597.253144 kJ/mol
# GULP energy per Si atom -12393.664161 kJ/mol
# Density = 2.086269 g / cm^3
# Si number density = 20.910282 Si / 1000 Ang^3
#
#
#
# Elastic Constant Matrix: (Units=GPa)
#
#
# Indices 1 2 3 4 5 6 
#
# 1 36.6351 15.1014 19.7432 0.0000 0.0000 0.0000
# 2 15.1014 69.1240 29.5344 0.0000 0.0000 0.0000
# 3 19.7432 29.5344 70.7255 0.0000 0.0000 0.0000
# 4 0.0000 0.0000 0.0000 32.8776 0.0000 0.0000
# 5 0.0000 0.0000 0.0000 0.0000 22.7950 0.0000
# 6 0.0000 0.0000 0.0000 0.0000 0.0000 28.6887
#
#
#
# Elastic Compliance Matrix: (Units=1/GPa)
#
#
# Indices 1 2 3 4 5 6 
#
# 1 0.033008 -0.003985 -0.007550 0.000000 0.000000 0.000000
# 2 -0.003985 0.018090 -0.006442 0.000000 0.000000 0.000000
# 3 -0.007550 -0.006442 0.018937 0.000000 0.000000 0.000000
# 4 0.000000 0.000000 0.000000 0.030416 0.000000 0.000000
# 5 0.000000 0.000000 0.000000 0.000000 0.043869 0.000000
# 6 0.000000 0.000000 0.000000 0.000000 0.000000 0.034857
#
#
# Mechanical properties :
#
#
# Convention : Reuss Voigt Hill
#
# Bulk Modulus (GPa) = 29.34234 33.91585 31.62909
# Shear Modulus (GPa) = 22.07600 24.34597 23.21098
#
# Velocity S-wave (km/s) = 3.25275 3.41589 3.33532
# Velocity P-wave (km/s) = 5.30756 5.64027 5.47644
#
# Compressibility (1/GPa) = 0.03408045
#
# Stress axis : x y z
#
# Youngs Moduli (GPa) = 30.29587 55.28005 52.80737
#
# Poissons Ratio (x) = 0.22031 0.39870
# Poissons Ratio (y) = 0.12074 0.34016
# Poissons Ratio (z) = 0.22873 0.35609
#
# Static dielectric constant tensor:
#      x y z
#    x 3.602370 0.000000 0.000000 
#    y 0.000000 3.867050 0.000000 
#    z 0.000000 0.000000 4.067370 
# 
# 
# High freq. dielectric constant tensor:
#      x y z
#    x 1.785720 0.000000 0.000000 
#    y 0.000000 1.813960 0.000000 
#    z 0.000000 0.000000 1.827680 
# 
# From -- ./inp_files/11099.got.cif
#   From: 2010.03.12/outbox.cif.g09.slc.cpg/sg36_6_cif.got.tgz:11099.got - 2010.04.14 02:13:53.
