data_PCOD8174185
_publ_section_title
;
Structure prediction by ZEFSAII (Michael W. Deem and Ramdas Pophale) SiO2 
 PCOD8174185
Probable space group: C M C 21
;
_chemical_formula_sum "Si O2"
_cell_formula_units_Z 64
_cell_length_a 8.690372
_cell_length_b 19.278132
_cell_length_c 21.019606
_cell_angle_alpha 90.000000
_cell_angle_beta 90.000000
_cell_angle_gamma 90.000000
_cell_volume 3521.501584
_symmetry_space_group_name_H-M "C M C 21"
_symmetry_group_IT_number 36
_symmetry_cell_setting 'orthorhombic'
loop_
_space_group_symop_operation_xyz
x,y,z
-x,-y,1/2+z
x,-y,1/2+z
-x,y,z
1/2+x,1/2+y,z
1/2-x,1/2-y,1/2+z
1/2+x,1/2-y,1/2+z
1/2-x,1/2+y,z
loop_
_atom_site_type_symbol
_atom_site_label
_atom_site_fract_x
_atom_site_fract_y
_atom_site_fract_z
Si Si1 0.176655 0.187788 0.723670
Si Si2 0.681864 0.528743 0.743925
Si Si3 0.680454 0.723142 0.116071
Si Si4 0.821468 0.192116 0.863910
Si Si5 0.319602 0.213324 0.986999
Si Si6 0.679781 0.042320 0.872839
Si Si7 0.179162 0.062727 0.995505
Si Si8 0.679103 0.431630 0.634367
O O1 0.227047 0.107553 0.727214
O O2 0.284938 0.224753 0.673080
O O3 0.200562 0.224041 0.793192
O O4 0.000000 0.194786 0.701682
O O5 0.500000 0.522283 0.750354
O O6 0.755215 0.503530 0.810588
O O7 0.753630 0.479019 0.689350
O O8 0.500000 0.718791 0.103520
O O9 0.757809 0.751310 0.050691
O O10 0.746720 0.646673 0.134147
O O11 0.720408 0.122910 0.866820
O O12 0.000000 0.172920 0.874276
O O13 0.760532 0.241929 0.921266
O O14 0.500000 0.225243 0.981430
O O15 0.276079 0.133109 0.993000
O O16 0.500000 0.029690 0.877558
O O17 0.758809 0.013399 0.938387
O O18 0.207249 0.030805 0.065799
O O19 0.000000 0.079714 0.985487
O O20 0.500000 0.426613 0.649210
#
# Coordination Sequence:
#
# PCOD8174185 Si02
#       8
#     8   8   8   8   8   8   8   8
#     4   9  18  30  47  70  94 121 150 187 232 273
#     4   9  17  32  50  67  91 121 154 190 227 270
#     4  10  19  31  48  69  95 124 154 189 228 275
#     4   9  16  28  45  65  90 120 154 190 229 270
#     4  10  17  26  43  67  93 118 150 192 232 270
#     4  10  17  25  40  66  94 118 149 187 228 270
#     4   9  15  26  44  66  90 117 151 189 230 270
#     4   8  16  30  49  70  89 117 156 190 222 266
#
# _framework density 18.174064999999999
#
# number of rings (size 3 to 8) (size 9 to 14) (size 15 to 20)
#    0.000    2.750    0.000    6.375    0.000    2.500 
#    0.000    3.750    0.000    1.500    0.000    3.500 
#    0.000    0.000    0.000    0.000    0.000    0.000 
#
# Total GULP energy -396455.625492 kJ/mol
# GULP energy per Si atom -12389.238297 kJ/mol
# Density = 1.813270 g / cm^3
# Si number density = 18.174065 Si / 1000 Ang^3
#
#
#
# Elastic Constant Matrix: (Units=GPa)
#
#
# Indices 1 2 3 4 5 6 
#
# 1 57.0839 4.8866 12.0684 0.0000 0.0000 0.0000
# 2 4.8866 16.8121 -3.8273 0.0000 0.0000 0.0000
# 3 12.0684 -3.8273 54.8464 0.0000 0.0000 0.0000
# 4 0.0000 0.0000 0.0000 25.2223 0.0000 0.0000
# 5 0.0000 0.0000 0.0000 0.0000 31.5112 0.0000
# 6 0.0000 0.0000 0.0000 0.0000 0.0000 11.4733
#
#
#
# Elastic Compliance Matrix: (Units=1/GPa)
#
#
# Indices 1 2 3 4 5 6 
#
# 1 0.019068 -0.006602 -0.004656 0.000000 0.000000 0.000000
# 2 -0.006602 0.062727 0.005830 0.000000 0.000000 0.000000
# 3 -0.004656 0.005830 0.019664 0.000000 0.000000 0.000000
# 4 0.000000 0.000000 0.000000 0.039648 0.000000 0.000000
# 5 0.000000 0.000000 0.000000 0.000000 0.031735 0.000000
# 6 0.000000 0.000000 0.000000 0.000000 0.000000 0.087159
#
#
# Mechanical properties :
#
#
# Convention : Reuss Voigt Hill
#
# Bulk Modulus (GPa) = 11.03732 17.22201 14.12966
# Shear Modulus (GPa) = 16.60811 21.34901 18.97856
#
# Velocity S-wave (km/s) = 3.02625 3.43110 3.23502
# Velocity P-wave (km/s) = 4.27753 5.01930 4.66318
#
# Compressibility (1/GPa) = 0.09060170
#
# Stress axis : x y z
#
# Youngs Moduli (GPa) = 52.44473 15.94204 50.85397
#
# Poissons Ratio (x) = 0.10525 0.23680
# Poissons Ratio (y) = 0.34626 -0.29648
# Poissons Ratio (z) = 0.24420 -0.09294
#
# Static dielectric constant tensor:
#      x y z
#    x 3.179340 0.000000 0.000000 
#    y 0.000000 2.820140 0.000000 
#    z 0.000000 0.000000 4.343790 
# 
# 
# High freq. dielectric constant tensor:
#      x y z
#    x 1.697890 0.000000 0.000000 
#    y 0.000000 1.622850 0.000000 
#    z 0.000000 0.000000 1.738550 
# 
# From -- ./inp_files/15858.got.cif
#   From: 2010.03.12/outbox.cif.g09.slc.cpg/sg36_8_cif.got.tgz:15858.got - 2010.04.14 02:13:53.
