data_PCOD8174273
_publ_section_title
;
Structure prediction by ZEFSAII (Michael W. Deem and Ramdas Pophale) SiO2 
 PCOD8174273
Probable space group: C M C 21
;
_chemical_formula_sum "Si O2"
_cell_formula_units_Z 48
_cell_length_a 8.613035
_cell_length_b 18.494412
_cell_length_c 16.448218
_cell_angle_alpha 90.000000
_cell_angle_beta 90.000000
_cell_angle_gamma 90.000000
_cell_volume 2620.086284
_symmetry_space_group_name_H-M "C M C 21"
_symmetry_group_IT_number 36
_symmetry_cell_setting 'orthorhombic'
loop_
_space_group_symop_operation_xyz
x,y,z
-x,-y,1/2+z
x,-y,1/2+z
-x,y,z
1/2+x,1/2+y,z
1/2-x,1/2-y,1/2+z
1/2+x,1/2-y,1/2+z
1/2-x,1/2+y,z
loop_
_atom_site_type_symbol
_atom_site_label
_atom_site_fract_x
_atom_site_fract_y
_atom_site_fract_z
Si Si1 0.818780 0.829359 0.541700
Si Si2 0.818875 0.418741 0.396043
Si Si3 0.821281 0.201155 0.805120
Si Si4 0.318259 0.163644 0.209527
Si Si5 0.818684 0.210897 0.448667
Si Si6 0.317121 0.917375 0.872272
O O1 0.771111 0.887922 0.473935
O O2 0.775463 0.860874 0.630070
O O3 0.725962 0.752682 0.531823
O O4 0.000000 0.814683 0.536054
O O5 0.780470 0.371821 0.314543
O O6 0.763694 0.500001 0.379290
O O7 0.000000 0.414246 0.414723
O O8 0.779238 0.251463 0.727885
O O9 0.790544 0.250391 0.883240
O O10 0.000000 0.177975 0.803067
O O11 0.500000 0.153013 0.193935
O O12 0.264359 0.112927 0.284335
O O13 0.770845 0.126459 0.444792
O O14 0.000000 0.220860 0.429903
O O15 0.500000 0.908438 0.884508
#
# Coordination Sequence:
#
# PCOD8174273 Si02
#       6
#     8   8   8   8   8   8
#     4  11  21  33  51  75 103 134 170 212 255 298
#     4  10  19  33  54  77 103 136 171 205 249 305
#     4   9  17  31  51  73  99 129 163 204 246 292
#     4   9  18  34  53  73  99 132 170 212 257 300
#     4  10  18  30  51  74  97 128 166 205 244 293
#     4   9  19  35  54  76 103 135 168 206 253 304
#
# _framework density 18.320007
#
# number of rings (size 3 to 8) (size 9 to 14) (size 15 to 20)
#    0.000    2.333    0.000    7.000    0.000    4.667 
#    0.000    1.667    0.000    6.000    0.000    0.000 
#    0.000    0.000    0.000    0.000    0.000    0.000 
#
# Total GULP energy -297452.204879 kJ/mol
# GULP energy per Si atom -12393.841870 kJ/mol
# Density = 1.827831 g / cm^3
# Si number density = 18.320007 Si / 1000 Ang^3
#
#
#
# Elastic Constant Matrix: (Units=GPa)
#
#
# Indices 1 2 3 4 5 6 
#
# 1 61.9694 40.8862 30.2526 0.0000 0.0000 0.0000
# 2 40.8862 143.1181 42.8342 0.0000 0.0000 0.0000
# 3 30.2526 42.8342 79.2682 0.0000 0.0000 0.0000
# 4 0.0000 0.0000 0.0000 19.3331 0.0000 0.0000
# 5 0.0000 0.0000 0.0000 0.0000 26.2897 0.0000
# 6 0.0000 0.0000 0.0000 0.0000 0.0000 29.2112
#
#
#
# Elastic Compliance Matrix: (Units=1/GPa)
#
#
# Indices 1 2 3 4 5 6 
#
# 1 0.022024 -0.004505 -0.005971 0.000000 0.000000 0.000000
# 2 -0.004505 0.009257 -0.003283 0.000000 0.000000 0.000000
# 3 -0.005971 -0.003283 0.016668 0.000000 0.000000 0.000000
# 4 0.000000 0.000000 0.000000 0.051725 0.000000 0.000000
# 5 0.000000 0.000000 0.000000 0.000000 0.038038 0.000000
# 6 0.000000 0.000000 0.000000 0.000000 0.000000 0.034233
#
#
# Mechanical properties :
#
#
# Convention : Reuss Voigt Hill
#
# Bulk Modulus (GPa) = 48.94405 56.92242 52.93323
# Shear Modulus (GPa) = 24.23970 26.32566 25.28268
#
# Velocity S-wave (km/s) = 3.64143 3.79488 3.71894
# Velocity P-wave (km/s) = 6.66740 7.09507 6.88456
#
# Compressibility (1/GPa) = 0.02043149
#
# Stress axis : x y z
#
# Youngs Moduli (GPa) = 45.40450 108.03004 59.99424
#
# Poissons Ratio (x) = 0.48665 0.35824
# Poissons Ratio (y) = 0.20454 0.19695
# Poissons Ratio (z) = 0.27112 0.35464
#
# Static dielectric constant tensor:
#      x y z
#    x 3.274140 0.000000 0.000000 
#    y 0.000000 3.689230 0.000000 
#    z 0.000000 0.000000 3.355290 
# 
# 
# High freq. dielectric constant tensor:
#      x y z
#    x 1.715200 0.000000 0.000000 
#    y 0.000000 1.704300 0.000000 
#    z 0.000000 0.000000 1.683870 
# 
# From -- ./inp_files/10395.got.cif
#   From: 2010.03.12/outbox.cif.g09.slc.cpg/sg36_6_cif.got.tgz:10395.got - 2010.04.14 02:13:53.
