data_PCOD8174970
_publ_section_title
;
Structure prediction by ZEFSAII (Michael W. Deem and Ramdas Pophale) SiO2 
 PCOD8174970
Probable space group: C M C 21
;
_chemical_formula_sum "Si O2"
_cell_formula_units_Z 64
_cell_length_a 8.642048
_cell_length_b 15.282362
_cell_length_c 23.665157
_cell_angle_alpha 90.000000
_cell_angle_beta 90.000000
_cell_angle_gamma 90.000000
_cell_volume 3125.478725
_symmetry_space_group_name_H-M "C M C 21"
_symmetry_group_IT_number 36
_symmetry_cell_setting 'orthorhombic'
loop_
_space_group_symop_operation_xyz
x,y,z
-x,-y,1/2+z
x,-y,1/2+z
-x,y,z
1/2+x,1/2+y,z
1/2-x,1/2-y,1/2+z
1/2+x,1/2-y,1/2+z
1/2-x,1/2+y,z
loop_
_atom_site_type_symbol
_atom_site_label
_atom_site_fract_x
_atom_site_fract_y
_atom_site_fract_z
Si Si1 0.817537 0.156660 0.366780
Si Si2 0.324007 0.598892 0.981619
Si Si3 0.322547 0.393637 0.989523
Si Si4 0.820463 0.350953 0.593071
Si Si5 0.318422 0.146958 0.862941
Si Si6 0.820319 0.328200 0.101600
Si Si7 0.320768 0.508904 0.660301
Si Si8 0.318768 0.500022 0.790335
O O1 0.753839 0.138588 0.429702
O O2 0.769692 0.253765 0.347141
O O3 0.751091 0.084889 0.323104
O O4 0.000000 0.145030 0.368536
O O5 0.500000 0.630921 0.988118
O O6 0.309486 0.497030 0.994384
O O7 0.269158 0.616740 0.918641
O O8 0.218828 0.651348 0.026236
O O9 0.500000 0.362789 0.998148
O O10 0.216300 0.351898 0.037152
O O11 0.774104 0.258064 0.620076
O O12 0.722465 0.426623 0.622317
O O13 0.000000 0.369601 0.602751
O O14 0.500000 0.140273 0.874252
O O15 0.269711 0.086488 0.810811
O O16 0.776180 0.406250 0.143445
O O17 0.000000 0.307527 0.107925
O O18 0.500000 0.530481 0.650199
O O19 0.283600 0.485338 0.724785
O O20 0.500000 0.513130 0.802230
#
# Coordination Sequence:
#
# PCOD8174970 Si02
#       8
#     8   8   8   8   8   8   8   8
#     4   9  19  38  61  87 119 160 198 242 302 363
#     4  11  21  37  64  93 126 165 206 252 311 377
#     4  10  19  36  64  90 124 164 204 251 309 374
#     4  12  25  42  65  93 128 164 207 261 317 379
#     4  11  22  36  61  94 127 161 206 257 307 365
#     4  12  25  41  64  93 128 165 208 258 313 380
#     4  11  24  43  66  91 122 165 215 266 318 373
#     4  10  22  43  65  85 118 164 210 255 311 373
#
# _framework density 20.476862000000001
#
# number of rings (size 3 to 8) (size 9 to 14) (size 15 to 20)
#    0.000    1.250    2.500    4.125    0.000    3.500 
#    0.000    3.125    0.000    0.000    0.000    0.000 
#    0.000    0.000    0.000    0.000    0.000    0.000 
#
# Total GULP energy -396974.620869 kJ/mol
# GULP energy per Si atom -12405.456902 kJ/mol
# Density = 2.043026 g / cm^3
# Si number density = 20.476862 Si / 1000 Ang^3
#
#
#
# Elastic Constant Matrix: (Units=GPa)
#
#
# Indices 1 2 3 4 5 6 
#
# 1 65.9763 25.8208 26.8733 0.0000 0.0000 0.0000
# 2 25.8208 101.9767 23.4201 0.0000 0.0000 0.0000
# 3 26.8733 23.4201 84.4862 0.0000 0.0000 0.0000
# 4 0.0000 0.0000 0.0000 13.0684 0.0000 0.0000
# 5 0.0000 0.0000 0.0000 0.0000 21.6575 0.0000
# 6 0.0000 0.0000 0.0000 0.0000 0.0000 32.5365
#
#
#
# Elastic Compliance Matrix: (Units=1/GPa)
#
#
# Indices 1 2 3 4 5 6 
#
# 1 0.018555 -0.003570 -0.004912 0.000000 0.000000 0.000000
# 2 -0.003570 0.011160 -0.001958 0.000000 0.000000 0.000000
# 3 -0.004912 -0.001958 0.013942 0.000000 0.000000 0.000000
# 4 0.000000 0.000000 0.000000 0.076520 0.000000 0.000000
# 5 0.000000 0.000000 0.000000 0.000000 0.046173 0.000000
# 6 0.000000 0.000000 0.000000 0.000000 0.000000 0.030735
#
#
# Mechanical properties :
#
#
# Convention : Reuss Voigt Hill
#
# Bulk Modulus (GPa) = 43.90663 44.96308 44.43486
# Shear Modulus (GPa) = 22.16730 25.20748 23.68739
#
# Velocity S-wave (km/s) = 3.29379 3.51240 3.40485
# Velocity P-wave (km/s) = 5.99617 6.20120 6.09955
#
# Compressibility (1/GPa) = 0.02277560
#
# Stress axis : x y z
#
# Youngs Moduli (GPa) = 53.89382 89.60749 71.72813
#
# Poissons Ratio (x) = 0.31990 0.35235
# Poissons Ratio (y) = 0.19240 0.14044
# Poissons Ratio (z) = 0.26474 0.17545
#
# Static dielectric constant tensor:
#      x y z
#    x 3.591020 0.000000 0.000000 
#    y 0.000000 3.971490 0.000000 
#    z 0.000000 0.000000 3.713210 
# 
# 
# High freq. dielectric constant tensor:
#      x y z
#    x 1.790060 0.000000 0.000000 
#    y 0.000000 1.816250 0.000000 
#    z 0.000000 0.000000 1.797290 
# 
# From -- ./inp_files/16611.got.cif
#   From: 2010.03.12/outbox.cif.g09.slc.cpg/sg36_9_cif.got.tgz:16611.got - 2010.04.14 02:13:53.
