data_PCOD8174026
_publ_section_title
;
Structure prediction by ZEFSAII (Michael W. Deem and Ramdas Pophale) SiO2 
 PCOD8174026
Probable space group: C M M 2
;
_chemical_formula_sum "Si O2"
_cell_formula_units_Z 48
_cell_length_a 17.155886
_cell_length_b 13.653875
_cell_length_c 10.308470
_cell_angle_alpha 90.000000
_cell_angle_beta 90.000000
_cell_angle_gamma 90.000000
_cell_volume 2414.700576
_symmetry_space_group_name_H-M "C M M 2"
_symmetry_group_IT_number 35
_symmetry_cell_setting 'orthorhombic'
loop_
_space_group_symop_operation_xyz
x,y,z
-x,-y,z
-x,y,z
x,-y,z
1/2+x,1/2+y,z
1/2-x,1/2-y,z
1/2-x,1/2+y,z
1/2+x,1/2-y,z
loop_
_atom_site_type_symbol
_atom_site_label
_atom_site_fract_x
_atom_site_fract_y
_atom_site_fract_z
Si Si1 0.339236 0.788195 0.799090
Si Si2 0.908682 0.796046 0.540835
Si Si3 0.814541 0.000000 0.146060
Si Si4 0.404942 0.000000 0.860694
Si Si5 0.411451 0.199032 0.289786
Si Si6 0.591347 0.500000 0.413094
Si Si7 0.134071 0.500000 0.165230
Si Si8 0.334326 0.704388 0.057401
O O1 0.250000 0.750000 0.812468
O O2 0.370131 0.732411 0.675304
O O3 0.361041 0.904865 0.796850
O O4 0.378883 0.748195 0.931881
O O5 0.874995 0.720399 0.432009
O O6 0.000000 0.786555 0.562979
O O7 0.884845 0.905678 0.498311
O O8 0.725209 0.000000 0.188809
O O9 0.830186 0.911776 0.047622
O O10 0.864765 0.000000 0.276205
O O11 0.500000 0.000000 0.833603
O O12 0.390576 0.000000 0.014966
O O13 0.500000 0.227650 0.307596
O O14 0.401728 0.090174 0.241038
O O15 0.380262 0.275829 0.187749
O O16 0.500000 0.500000 0.380939
O O17 0.250000 0.750000 0.076483
#
# Coordination Sequence:
#
# PCOD8174026 Si02
#       8
#     8   8   4   4   8   4   4   8
#     4  11  25  42  66  97 136 174 225 279 335 401
#     4  10  23  42  62  90 130 174 224 274 330 398
#     4  12  22  37  66  95 132 167 214 272 332 397
#     4  12  24  44  72 100 136 184 224 272 346 405
#     4  11  22  38  63  92 124 163 218 268 317 388
#     4  10  22  40  62  88 124 174 220 272 334 392
#     4  12  22  37  64  99 130 167 214 270 336 396
#     4  11  22  39  61  93 128 164 211 269 324 385
#
# _framework density 19.878242
#
# number of rings (size 3 to 8) (size 9 to 14) (size 15 to 20)
#    0.000    1.000    5.000    2.250    0.000    4.667 
#    0.000    0.833    0.000    0.000    0.000    0.000 
#    0.000    0.000    0.000    0.000    0.000    0.000 
#
# Total GULP energy -297390.498964 kJ/mol
# GULP energy per Si atom -12391.270790 kJ/mol
# Density = 1.983300 g / cm^3
# Si number density = 19.878242 Si / 1000 Ang^3
#
#
#
# Elastic Constant Matrix: (Units=GPa)
#
#
# Indices 1 2 3 4 5 6 
#
# 1 67.3334 38.3620 36.2397 0.0000 0.0000 0.0000
# 2 38.3620 145.9826 41.6860 0.0000 0.0000 0.0000
# 3 36.2397 41.6860 121.1758 0.0000 0.0000 0.0000
# 4 0.0000 0.0000 0.0000 36.2504 0.0000 0.0000
# 5 0.0000 0.0000 0.0000 0.0000 22.2671 0.0000
# 6 0.0000 0.0000 0.0000 0.0000 0.0000 24.7271
#
#
#
# Elastic Compliance Matrix: (Units=1/GPa)
#
#
# Indices 1 2 3 4 5 6 
#
# 1 0.019455 -0.003827 -0.004502 0.000000 0.000000 0.000000
# 2 -0.003827 0.008349 -0.001728 0.000000 0.000000 0.000000
# 3 -0.004502 -0.001728 0.010193 0.000000 0.000000 0.000000
# 4 0.000000 0.000000 0.000000 0.027586 0.000000 0.000000
# 5 0.000000 0.000000 0.000000 0.000000 0.044909 0.000000
# 6 0.000000 0.000000 0.000000 0.000000 0.000000 0.040442
#
#
# Mechanical properties :
#
#
# Convention : Reuss Voigt Hill
#
# Bulk Modulus (GPa) = 55.91510 63.00745 59.46128
# Shear Modulus (GPa) = 28.24736 31.19588 29.72162
#
# Velocity S-wave (km/s) = 3.77373 3.96580 3.87096
# Velocity P-wave (km/s) = 6.86862 7.26193 7.06801
#
# Compressibility (1/GPa) = 0.01788426
#
# Stress axis : x y z
#
# Youngs Moduli (GPa) = 51.40153 119.77292 98.10511
#
# Poissons Ratio (x) = 0.45836 0.44164
# Poissons Ratio (y) = 0.19671 0.16950
# Poissons Ratio (z) = 0.23140 0.20693
#
# Static dielectric constant tensor:
#      x y z
#    x 3.655840 0.000000 0.000000 
#    y 0.000000 3.907390 0.000000 
#    z 0.000000 0.000000 3.907500 
# 
# 
# High freq. dielectric constant tensor:
#      x y z
#    x 1.767730 0.000000 0.000000 
#    y 0.000000 1.792940 0.000000 
#    z 0.000000 0.000000 1.783310 
# 
# From -- ./inp_files/8420.got.cif
#   From: 2010.03.12/outbox.cif.g09.slc.cpg/sg35_5_cif.got.tgz:8420.got - 2010.04.14 02:02:04.
