data_PCOD8174283
_publ_section_title
;
Structure prediction by ZEFSAII (Michael W. Deem and Ramdas Pophale) SiO2 
 PCOD8174283
Probable space group: C M C 21
;
_chemical_formula_sum "Si O2"
_cell_formula_units_Z 64
_cell_length_a 8.865406
_cell_length_b 14.888675
_cell_length_c 24.534084
_cell_angle_alpha 90.000000
_cell_angle_beta 90.000000
_cell_angle_gamma 90.000000
_cell_volume 3238.355531
_symmetry_space_group_name_H-M "C M C 21"
_symmetry_group_IT_number 36
_symmetry_cell_setting 'orthorhombic'
loop_
_space_group_symop_operation_xyz
x,y,z
-x,-y,1/2+z
x,-y,1/2+z
-x,y,z
1/2+x,1/2+y,z
1/2-x,1/2-y,1/2+z
1/2+x,1/2-y,1/2+z
1/2-x,1/2+y,z
loop_
_atom_site_type_symbol
_atom_site_label
_atom_site_fract_x
_atom_site_fract_y
_atom_site_fract_z
Si Si1 0.328107 0.581536 0.694730
Si Si2 0.826455 0.882258 0.078544
Si Si3 0.320786 0.586112 0.073102
Si Si4 0.828258 0.081666 0.813627
Si Si5 0.176270 0.602428 0.183454
Si Si6 0.321567 0.623044 0.293388
Si Si7 0.822478 0.731222 0.878251
Si Si8 0.820179 0.728595 0.001369
O O1 0.500000 0.540826 0.691457
O O2 0.303901 0.646954 0.642546
O O3 0.307918 0.628453 0.753591
O O4 0.206669 0.502999 0.690521
O O5 0.000000 0.883953 0.062276
O O6 0.762538 0.982833 0.069764
O O7 0.751158 0.809230 0.038633
O O8 0.500000 0.591737 0.074404
O O9 0.254995 0.634350 0.127360
O O10 0.255106 0.635937 0.020449
O O11 0.729143 0.133931 0.857332
O O12 0.000000 0.087622 0.833337
O O13 0.775759 0.978111 0.810460
O O14 0.245015 0.652331 0.236341
O O15 0.000000 0.623528 0.179718
O O16 0.500000 0.631058 0.285993
O O17 0.258233 0.689294 0.340136
O O18 0.766380 0.746958 0.939765
O O19 0.000000 0.732967 0.876406
O O20 0.000000 0.719634 0.006241
#
# Coordination Sequence:
#
# PCOD8174283 Si02
#       8
#     8   8   8   8   8   8   8   8
#     4   8  15  31  53  78 106 137 172 214 262 319
#     4   8  16  33  57  78 102 136 173 211 261 320
#     4  10  20  36  57  81 108 140 174 215 265 321
#     4   9  18  33  55  79 106 138 176 218 264 320
#     4  10  18  30  53  84 111 136 169 215 266 320
#     4   9  19  37  56  76 106 145 180 216 264 320
#     4  10  22  37  53  75 107 142 181 226 269 309
#     4  10  21  37  54  77 106 140 183 227 265 309
#
# _framework density 19.763117000000001
#
# number of rings (size 3 to 8) (size 9 to 14) (size 15 to 20)
#    0.000    2.750    0.000    3.000    0.000    5.000 
#    0.000    6.875    0.000    0.000    0.000    0.000 
#    0.000    0.000    0.000    0.000    0.000    0.000 
#
# Total GULP energy -396600.835310 kJ/mol
# GULP energy per Si atom -12393.776103 kJ/mol
# Density = 1.971814 g / cm^3
# Si number density = 19.763117 Si / 1000 Ang^3
#
#
#
# Elastic Constant Matrix: (Units=GPa)
#
#
# Indices 1 2 3 4 5 6 
#
# 1 41.9192 13.8023 33.2945 0.0000 0.0000 0.0000
# 2 13.8023 57.6325 35.6703 0.0000 0.0000 0.0000
# 3 33.2945 35.6703 125.3711 0.0000 0.0000 0.0000
# 4 0.0000 0.0000 0.0000 35.8050 0.0000 0.0000
# 5 0.0000 0.0000 0.0000 0.0000 28.2207 0.0000
# 6 0.0000 0.0000 0.0000 0.0000 0.0000 22.9883
#
#
#
# Elastic Compliance Matrix: (Units=1/GPa)
#
#
# Indices 1 2 3 4 5 6 
#
# 1 0.030597 -0.002790 -0.007332 0.000000 0.000000 0.000000
# 2 -0.002790 0.021314 -0.005323 0.000000 0.000000 0.000000
# 3 -0.007332 -0.005323 0.011438 0.000000 0.000000 0.000000
# 4 0.000000 0.000000 0.000000 0.027929 0.000000 0.000000
# 5 0.000000 0.000000 0.000000 0.000000 0.035435 0.000000
# 6 0.000000 0.000000 0.000000 0.000000 0.000000 0.043500
#
#
# Mechanical properties :
#
#
# Convention : Reuss Voigt Hill
#
# Bulk Modulus (GPa) = 30.80769 43.38411 37.09590
# Shear Modulus (GPa) = 23.59336 26.87985 25.23661
#
# Velocity S-wave (km/s) = 3.45890 3.69196 3.57733
# Velocity P-wave (km/s) = 5.61910 6.33828 5.98949
#
# Compressibility (1/GPa) = 0.03245943
#
# Stress axis : x y z
#
# Youngs Moduli (GPa) = 32.68257 46.91694 87.42750
#
# Poissons Ratio (x) = 0.13089 0.64101
# Poissons Ratio (y) = 0.09118 0.46541
# Poissons Ratio (z) = 0.23963 0.24976
#
# Static dielectric constant tensor:
#      x y z
#    x 3.268470 0.000000 0.000000 
#    y 0.000000 3.463940 0.000000 
#    z 0.000000 0.000000 3.958940 
# 
# 
# High freq. dielectric constant tensor:
#      x y z
#    x 1.743440 0.000000 0.000000 
#    y 0.000000 1.752300 0.000000 
#    z 0.000000 0.000000 1.779610 
# 
# From -- ./inp_files/16578.got.cif
#   From: 2010.03.12/outbox.cif.g09.slc.cpg/sg36_9_cif.got.tgz:16578.got - 2010.04.14 02:13:53.
