data_PCOD8174979
_publ_section_title
;
Structure prediction by ZEFSAII (Michael W. Deem and Ramdas Pophale) SiO2 
 PCOD8174979
Probable space group: C M C 21
;
_chemical_formula_sum "Si O2"
_cell_formula_units_Z 56
_cell_length_a 28.221991
_cell_length_b 5.257917
_cell_length_c 17.197471
_cell_angle_alpha 90.000000
_cell_angle_beta 90.000000
_cell_angle_gamma 90.000000
_cell_volume 2551.913568
_symmetry_space_group_name_H-M "C M C 21"
_symmetry_group_IT_number 36
_symmetry_cell_setting 'orthorhombic'
loop_
_space_group_symop_operation_xyz
x,y,z
-x,-y,1/2+z
x,-y,1/2+z
-x,y,z
1/2+x,1/2+y,z
1/2-x,1/2-y,1/2+z
1/2+x,1/2-y,1/2+z
1/2-x,1/2+y,z
loop_
_atom_site_type_symbol
_atom_site_label
_atom_site_fract_x
_atom_site_fract_y
_atom_site_fract_z
Si Si1 0.554713 0.538965 0.492970
Si Si2 0.384273 0.515916 0.146691
Si Si3 0.306505 0.447882 0.533913
Si Si4 0.616082 0.991889 0.743118
Si Si5 0.445258 0.960215 0.896573
Si Si6 0.223657 0.474851 0.291638
Si Si7 0.705131 0.051506 0.970121
O O1 0.500000 0.524251 0.517276
O O2 0.584794 0.510151 0.570174
O O3 0.566758 0.809054 0.454310
O O4 0.567529 0.309175 0.435020
O O5 0.328738 0.532991 0.120240
O O6 0.400301 0.770978 0.190711
O O7 0.392897 0.273718 0.200602
O O8 0.324713 0.690320 0.482699
O O9 0.249277 0.434460 0.531641
O O10 0.326900 0.191846 0.492400
O O11 0.586464 0.994941 0.821191
O O12 0.670741 0.028201 0.762058
O O13 0.500000 0.969394 0.870966
O O14 0.249989 0.724833 0.259624
O O15 0.226030 0.475526 0.384842
#
# Coordination Sequence:
#
# PCOD8174979 Si02
#       7
#     8   8   8   8   8   8   8
#     4  10  23  43  73 105 132 171 228 282 329 393
#     4  12  26  44  63 101 139 178 220 273 345 412
#     4  10  20  36  59  86 120 155 219 266 310 385
#     4  12  28  44  65 101 142 184 219 269 357 413
#     4  10  23  45  73 105 134 174 227 283 332 400
#     4  12  23  43  64  90 131 174 232 276 332 395
#     4  10  19  37  61  90 109 160 225 267 323 360
#
# _framework density 21.944315
#
# number of rings (size 3 to 8) (size 9 to 14) (size 15 to 20)
#    0.000    1.143    2.857    3.429    4.000    1.143 
#   15.429    0.000    0.000    0.000    0.000    0.000 
#    0.000    0.000    0.000    0.000    0.000    0.000 
#
# Total GULP energy -347156.968274 kJ/mol
# GULP energy per Si atom -12398.463153 kJ/mol
# Density = 2.189437 g / cm^3
# Si number density = 21.944315 Si / 1000 Ang^3
#
#
#
# Elastic Constant Matrix: (Units=GPa)
#
#
# Indices 1 2 3 4 5 6 
#
# 1 57.0462 -1.4617 36.5462 0.0000 0.0000 0.0000
# 2 -1.4617 166.8825 15.4838 0.0000 0.0000 0.0000
# 3 36.5462 15.4838 75.7452 0.0000 0.0000 0.0000
# 4 0.0000 0.0000 0.0000 31.7883 0.0000 0.0000
# 5 0.0000 0.0000 0.0000 0.0000 724.0941 0.0000
# 6 0.0000 0.0000 0.0000 0.0000 0.0000 19.1703
#
#
#
# Elastic Compliance Matrix: (Units=1/GPa)
#
#
# Indices 1 2 3 4 5 6 
#
# 1 0.025690 0.001402 -0.012682 0.000000 0.000000 0.000000
# 2 0.001402 0.006185 -0.001941 0.000000 0.000000 0.000000
# 3 -0.012682 -0.001941 0.019718 0.000000 0.000000 0.000000
# 4 0.000000 0.000000 0.000000 0.031458 0.000000 0.000000
# 5 0.000000 0.000000 0.000000 0.000000 0.001381 0.000000
# 6 0.000000 0.000000 0.000000 0.000000 0.000000 0.052164
#
#
# Mechanical properties :
#
#
# Convention : Reuss Voigt Hill
#
# Bulk Modulus (GPa) = 39.75974 44.53452 42.14713
# Shear Modulus (GPa) = 29.16813 171.61758 100.39285
#
# Velocity S-wave (km/s) = 3.64976 8.85301 6.77113
# Velocity P-wave (km/s) = 5.99323 11.17315 8.96544
#
# Compressibility (1/GPa) = 0.02515107
#
# Stress axis : x y z
#
# Youngs Moduli (GPa) = 38.92572 161.69289 50.71614
#
# Poissons Ratio (x) = -0.22664 0.64316
# Poissons Ratio (y) = -0.05456 0.09842
# Poissons Ratio (z) = 0.49364 0.31377
#
# Static dielectric constant tensor:
#      x y z
#    x 3.805250 0.000000 0.000000 
#    y 0.000000 5.006600 0.000000 
#    z 0.000000 0.000000 3.938960 
# 
# 
# High freq. dielectric constant tensor:
#      x y z
#    x 1.853860 0.000000 0.000000 
#    y 0.000000 1.900160 0.000000 
#    z 0.000000 0.000000 1.850580 
# 
# From -- ./inp_files/13162.got.cif
#   From: 2010.03.12/outbox.cif.g09.slc.cpg/sg36_7_cif.got.tgz:13162.got - 2010.04.14 02:13:53.
