data_PCOD8174374
_publ_section_title
;
Structure prediction by ZEFSAII (Michael W. Deem and Ramdas Pophale) SiO2 
 PCOD8174374
Probable space group: C M C 21
;
_chemical_formula_sum "Si O2"
_cell_formula_units_Z 64
_cell_length_a 9.064570
_cell_length_b 30.772520
_cell_length_c 11.961869
_cell_angle_alpha 90.000000
_cell_angle_beta 90.000000
_cell_angle_gamma 90.000000
_cell_volume 3336.639691
_symmetry_space_group_name_H-M "C M C 21"
_symmetry_group_IT_number 36
_symmetry_cell_setting 'orthorhombic'
loop_
_space_group_symop_operation_xyz
x,y,z
-x,-y,1/2+z
x,-y,1/2+z
-x,y,z
1/2+x,1/2+y,z
1/2-x,1/2-y,1/2+z
1/2+x,1/2-y,1/2+z
1/2-x,1/2+y,z
loop_
_atom_site_type_symbol
_atom_site_label
_atom_site_fract_x
_atom_site_fract_y
_atom_site_fract_z
Si Si1 0.824115 0.052499 0.868190
Si Si2 0.166635 0.331925 0.133526
Si Si3 0.670058 0.208536 0.404216
Si Si4 0.175504 0.298767 0.372101
Si Si5 0.670071 0.457700 0.907181
Si Si6 0.172695 0.869146 0.522489
Si Si7 0.674328 0.628153 0.284583
Si Si8 0.331023 0.415816 0.133665
O O1 0.773369 0.085879 0.964855
O O2 0.759851 0.069074 0.750219
O O3 0.000000 0.049006 0.867862
O O4 0.754512 0.004330 0.883009
O O5 0.229786 0.316091 0.251891
O O6 0.257109 0.372515 0.088054
O O7 0.000000 0.347273 0.150093
O O8 0.179787 0.295410 0.038594
O O9 0.500000 0.213754 0.366510
O O10 0.764016 0.250398 0.375457
O O11 0.738350 0.167448 0.340731
O O12 0.241379 0.328427 0.470182
O O13 0.000000 0.297633 0.383296
O O14 0.500000 0.460048 0.872851
O O15 0.736127 0.417307 0.836347
O O16 0.690832 0.452173 0.039831
O O17 0.208803 0.872179 0.653043
O O18 0.000000 0.861512 0.500605
O O19 0.500000 0.633733 0.308859
O O20 0.500000 0.404688 0.154129
#
# Coordination Sequence:
#
# PCOD8174374 Si02
#       8
#     8   8   8   8   8   8   8   8
#     4   9  18  31  52  85 117 146 186 236 283 327
#     4  10  22  40  60  81 112 147 183 236 289 333
#     4  11  24  41  61  85 113 148 189 234 287 341
#     4  11  24  41  61  85 113 148 189 234 287 341
#     4   9  18  31  52  85 117 146 186 236 283 327
#     4  10  21  37  57  83 118 154 188 233 286 336
#     4  10  21  37  57  83 118 154 188 233 286 336
#     4  10  18  32  58  83 108 147 195 236 275 335
#
# _framework density 19.180973000000002
#
# number of rings (size 3 to 8) (size 9 to 14) (size 15 to 20)
#    0.000    2.000    2.500    0.750    3.500    1.500 
#    0.000    0.000    0.000    3.000    0.000    0.000 
#    0.000    0.000    0.000    0.000    0.000    0.000 
#
# Total GULP energy -396745.235654 kJ/mol
# GULP energy per Si atom -12398.288614 kJ/mol
# Density = 1.913732 g / cm^3
# Si number density = 19.180973 Si / 1000 Ang^3
#
#
#
# Elastic Constant Matrix: (Units=GPa)
#
#
# Indices 1 2 3 4 5 6 
#
# 1 46.4741 34.5440 30.5164 0.0000 0.0000 0.0000
# 2 34.5440 142.2187 43.2870 0.0000 0.0000 0.0000
# 3 30.5164 43.2870 108.6338 0.0000 0.0000 0.0000
# 4 0.0000 0.0000 0.0000 24.8875 0.0000 0.0000
# 5 0.0000 0.0000 0.0000 0.0000 23.3634 0.0000
# 6 0.0000 0.0000 0.0000 0.0000 0.0000 20.8261
#
#
#
# Elastic Compliance Matrix: (Units=1/GPa)
#
#
# Indices 1 2 3 4 5 6 
#
# 1 0.029505 -0.005285 -0.006182 0.000000 0.000000 0.000000
# 2 -0.005285 0.008949 -0.002081 0.000000 0.000000 0.000000
# 3 -0.006182 -0.002081 0.011771 0.000000 0.000000 0.000000
# 4 0.000000 0.000000 0.000000 0.040181 0.000000 0.000000
# 5 0.000000 0.000000 0.000000 0.000000 0.042802 0.000000
# 6 0.000000 0.000000 0.000000 0.000000 0.000000 0.048017
#
#
# Mechanical properties :
#
#
# Convention : Reuss Voigt Hill
#
# Bulk Modulus (GPa) = 43.23763 57.11349 50.17556
# Shear Modulus (GPa) = 23.14486 26.41400 24.77943
#
# Velocity S-wave (km/s) = 3.47747 3.71495 3.59817
# Velocity P-wave (km/s) = 6.22210 6.94564 6.59380
#
# Compressibility (1/GPa) = 0.02312800
#
# Stress axis : x y z
#
# Youngs Moduli (GPa) = 33.89237 111.75045 84.95302
#
# Poissons Ratio (x) = 0.59059 0.52522
# Poissons Ratio (y) = 0.17912 0.17680
# Poissons Ratio (z) = 0.20954 0.23257
#
# Static dielectric constant tensor:
#      x y z
#    x 3.220940 0.000000 0.000000 
#    y 0.000000 3.633540 0.000000 
#    z 0.000000 0.000000 3.676930 
# 
# 
# High freq. dielectric constant tensor:
#      x y z
#    x 1.711560 0.000000 0.000000 
#    y 0.000000 1.755020 0.000000 
#    z 0.000000 0.000000 1.761290 
# 
# From -- ./inp_files/7189.got.cif
#   From: 2010.03.12/outbox.cif.g09.slc.cpg/sg36_4_cif.got.tgz:7189.got - 2010.04.14 02:13:53.
