data_PCOD8174387
_publ_section_title
;
Structure prediction by ZEFSAII (Michael W. Deem and Ramdas Pophale) SiO2 
 PCOD8174387
Probable space group: C M C 21
;
_chemical_formula_sum "Si O2"
_cell_formula_units_Z 64
_cell_length_a 9.061967
_cell_length_b 20.116983
_cell_length_c 19.890360
_cell_angle_alpha 90.000000
_cell_angle_beta 90.000000
_cell_angle_gamma 90.000000
_cell_volume 3626.001412
_symmetry_space_group_name_H-M "C M C 21"
_symmetry_group_IT_number 36
_symmetry_cell_setting 'orthorhombic'
loop_
_space_group_symop_operation_xyz
x,y,z
-x,-y,1/2+z
x,-y,1/2+z
-x,y,z
1/2+x,1/2+y,z
1/2-x,1/2-y,1/2+z
1/2+x,1/2-y,1/2+z
1/2-x,1/2+y,z
loop_
_atom_site_type_symbol
_atom_site_label
_atom_site_fract_x
_atom_site_fract_y
_atom_site_fract_z
Si Si1 0.670955 0.669794 0.432810
Si Si2 0.826343 0.407250 0.163171
Si Si3 0.673617 0.724211 0.684864
Si Si4 0.673278 0.835794 0.792404
Si Si5 0.328265 0.550401 0.527691
Si Si6 0.174576 0.421521 0.550878
Si Si7 0.327977 0.050432 0.199742
Si Si8 0.825440 0.273445 0.540991
O O1 0.500000 0.684454 0.420535
O O2 0.752318 0.677089 0.362995
O O3 0.695965 0.596609 0.462935
O O4 0.738248 0.724729 0.483938
O O5 0.756776 0.344571 0.201298
O O6 0.752891 0.415856 0.090490
O O7 0.794295 0.472194 0.209709
O O8 0.000000 0.397755 0.152464
O O9 0.500000 0.710289 0.681388
O O10 0.713849 0.775333 0.743369
O O11 0.735351 0.752762 0.614232
O O12 0.500000 0.840889 0.804624
O O13 0.738543 0.904107 0.759444
O O14 0.500000 0.543443 0.545687
O O15 0.258800 0.478686 0.509024
O O16 0.232786 0.426259 0.627469
O O17 0.219342 0.349150 0.522876
O O18 0.000000 0.434733 0.545903
O O19 0.500000 0.066099 0.198621
O O20 0.000000 0.266869 0.544674
#
# Coordination Sequence:
#
# PCOD8174387 Si02
#       8
#     8   8   8   8   8   8   8   8
#     4  10  21  36  53  74 106 146 178 212 265 324
#     4  10  19  31  53  81 106 131 171 224 263 306
#     4  10  18  33  56  79 105 140 177 216 269 319
#     4  10  20  35  56  77 102 140 182 221 261 317
#     4  10  19  33  52  75 106 140 170 211 268 320
#     4   9  16  30  55  80 100 126 172 222 258 304
#     4   8  15  30  51  75 100 129 167 212 259 304
#     4   9  16  32  56  77 101 140 179 212 259 320
#
# _framework density 17.650296000000001
#
# number of rings (size 3 to 8) (size 9 to 14) (size 15 to 20)
#    0.000    2.500    2.500    1.500    0.000    1.500 
#    0.000    5.625    0.000    7.500    0.000    0.000 
#    0.000    0.000    0.000    0.000    0.000    0.000 
#
# Total GULP energy -396699.600307 kJ/mol
# GULP energy per Si atom -12396.862510 kJ/mol
# Density = 1.761012 g / cm^3
# Si number density = 17.650296 Si / 1000 Ang^3
#
#
#
# Elastic Constant Matrix: (Units=GPa)
#
#
# Indices 1 2 3 4 5 6 
#
# 1 54.1728 54.4663 41.8848 0.0000 0.0000 0.0000
# 2 54.4663 157.0924 70.7928 0.0000 0.0000 0.0000
# 3 41.8848 70.7928 115.9231 0.0000 0.0000 0.0000
# 4 0.0000 0.0000 0.0000 23.7874 0.0000 0.0000
# 5 0.0000 0.0000 0.0000 0.0000 26.5666 0.0000
# 6 0.0000 0.0000 0.0000 0.0000 0.0000 30.1327
#
#
#
# Elastic Compliance Matrix: (Units=1/GPa)
#
#
# Indices 1 2 3 4 5 6 
#
# 1 0.031536 -0.008001 -0.006508 0.000000 0.000000 0.000000
# 2 -0.008001 0.010813 -0.003712 0.000000 0.000000 0.000000
# 3 -0.006508 -0.003712 0.013245 0.000000 0.000000 0.000000
# 4 0.000000 0.000000 0.000000 0.042039 0.000000 0.000000
# 5 0.000000 0.000000 0.000000 0.000000 0.037641 0.000000
# 6 0.000000 0.000000 0.000000 0.000000 0.000000 0.033187
#
#
# Mechanical properties :
#
#
# Convention : Reuss Voigt Hill
#
# Bulk Modulus (GPa) = 52.21836 73.49734 62.85785
# Shear Modulus (GPa) = 23.66451 26.76696 25.21573
#
# Velocity S-wave (km/s) = 3.66559 3.89847 3.78382
# Velocity P-wave (km/s) = 6.89671 7.87371 7.40135
#
# Compressibility (1/GPa) = 0.01915035
#
# Stress axis : x y z
#
# Youngs Moduli (GPa) = 31.71002 92.48416 75.50028
#
# Poissons Ratio (x) = 0.73997 0.49137
# Poissons Ratio (y) = 0.25371 0.28028
# Poissons Ratio (z) = 0.20638 0.34333
#
# Static dielectric constant tensor:
#      x y z
#    x 3.046990 0.000000 0.000000 
#    y 0.000000 3.626650 0.000000 
#    z 0.000000 0.000000 3.075890 
# 
# 
# High freq. dielectric constant tensor:
#      x y z
#    x 1.657540 0.000000 0.000000 
#    y 0.000000 1.701320 0.000000 
#    z 0.000000 0.000000 1.653970 
# 
# From -- ./inp_files/13825.got.cif
#   From: 2010.03.12/outbox.cif.g09.slc.cpg/sg36_7_cif.got.tgz:13825.got - 2010.04.14 02:13:53.
