data_PCOD8174313
_publ_section_title
;
Structure prediction by ZEFSAII (Michael W. Deem and Ramdas Pophale) SiO2 
 PCOD8174313
Probable space group: C M C 21
;
_chemical_formula_sum "Si O2"
_cell_formula_units_Z 56
_cell_length_a 18.116240
_cell_length_b 9.092858
_cell_length_c 18.915039
_cell_angle_alpha 90.000000
_cell_angle_beta 90.000000
_cell_angle_gamma 90.000000
_cell_volume 3115.844069
_symmetry_space_group_name_H-M "C M C 21"
_symmetry_group_IT_number 36
_symmetry_cell_setting 'orthorhombic'
loop_
_space_group_symop_operation_xyz
x,y,z
-x,-y,1/2+z
x,-y,1/2+z
-x,y,z
1/2+x,1/2+y,z
1/2-x,1/2-y,1/2+z
1/2+x,1/2-y,1/2+z
1/2-x,1/2+y,z
loop_
_atom_site_type_symbol
_atom_site_label
_atom_site_fract_x
_atom_site_fract_y
_atom_site_fract_z
Si Si1 0.308409 0.061256 0.538590
Si Si2 0.083921 0.932318 0.043869
Si Si3 0.192369 0.863930 0.611080
Si Si4 0.701476 0.094994 0.231853
Si Si5 0.701617 0.403479 0.921816
Si Si6 0.583222 0.881602 0.610499
Si Si7 0.749691 0.656682 0.826846
O O1 0.307485 0.191002 0.595969
O O2 0.282390 0.112256 0.460882
O O3 0.249260 0.937330 0.557529
O O4 0.388182 0.982003 0.544337
O O5 0.089163 0.787973 0.091207
O O6 0.000000 0.966497 0.021128
O O7 0.112603 0.065236 0.093888
O O8 0.132276 0.909367 0.973871
O O9 0.219641 0.891715 0.690992
O O10 0.632832 0.089396 0.179073
O O11 0.694920 0.236420 0.282976
O O12 0.700153 0.943996 0.275863
O O13 0.699377 0.551206 0.875261
O O14 0.695114 0.258079 0.873387
O O15 0.500000 0.928491 0.627792
#
# Coordination Sequence:
#
# PCOD8174313 Si02
#       7
#     8   8   8   8   8   8   8
#     4  10  18  31  54  77 100 128 163 212 259 296
#     4  10  20  34  53  76 103 133 165 210 264 303
#     4  10  18  31  54  77 100 128 163 212 259 296
#     4  10  18  33  50  75 100 129 170 208 244 298
#     4  10  18  33  50  75 100 129 170 208 244 298
#     4  10  20  34  53  76 103 133 165 210 264 303
#     4  10  20  30  52  72  96 134 172 204 242 292
#
# _framework density 17.972659
#
# number of rings (size 3 to 8) (size 9 to 14) (size 15 to 20)
#    0.000    2.000    0.000    8.571    0.000    0.571 
#    0.000    1.429    0.000    6.857    0.000    0.000 
#    0.000    0.000    0.000    0.000    0.000    0.000 
#
# Total GULP energy -347079.583390 kJ/mol
# GULP energy per Si atom -12395.699407 kJ/mol
# Density = 1.793175 g / cm^3
# Si number density = 17.972659 Si / 1000 Ang^3
#
#
#
# Elastic Constant Matrix: (Units=GPa)
#
#
# Indices 1 2 3 4 5 6 
#
# 1 122.1774 39.9036 49.2667 0.0000 0.0000 0.0000
# 2 39.9036 89.6699 26.6993 0.0000 0.0000 0.0000
# 3 49.2667 26.6993 93.1499 0.0000 0.0000 0.0000
# 4 0.0000 0.0000 0.0000 31.2738 0.0000 0.0000
# 5 0.0000 0.0000 0.0000 0.0000 20.3959 0.0000
# 6 0.0000 0.0000 0.0000 0.0000 0.0000 19.1696
#
#
#
# Elastic Compliance Matrix: (Units=1/GPa)
#
#
# Indices 1 2 3 4 5 6 
#
# 1 0.011362 -0.003572 -0.004985 0.000000 0.000000 0.000000
# 2 -0.003572 0.013315 -0.001928 0.000000 0.000000 0.000000
# 3 -0.004985 -0.001928 0.013925 0.000000 0.000000 0.000000
# 4 0.000000 0.000000 0.000000 0.031976 0.000000 0.000000
# 5 0.000000 0.000000 0.000000 0.000000 0.049029 0.000000
# 6 0.000000 0.000000 0.000000 0.000000 0.000000 0.052166
#
#
# Mechanical properties :
#
#
# Convention : Reuss Voigt Hill
#
# Bulk Modulus (GPa) = 56.71337 59.63737 58.17537
# Shear Modulus (GPa) = 25.17382 26.77637 25.97509
#
# Velocity S-wave (km/s) = 3.74662 3.86403 3.80578
# Velocity P-wave (km/s) = 7.09507 7.29122 7.19382
#
# Compressibility (1/GPa) = 0.01763253
#
# Stress axis : x y z
#
# Youngs Moduli (GPa) = 88.01549 75.10152 71.81510
#
# Poissons Ratio (x) = 0.26823 0.35803
# Poissons Ratio (y) = 0.31435 0.13843
# Poissons Ratio (z) = 0.43880 0.14476
#
# Static dielectric constant tensor:
#      x y z
#    x 3.289850 0.000000 0.000000 
#    y 0.000000 3.582000 0.000000 
#    z 0.000000 0.000000 3.504770 
# 
# 
# High freq. dielectric constant tensor:
#      x y z
#    x 1.655360 0.000000 0.000000 
#    y 0.000000 1.719270 0.000000 
#    z 0.000000 0.000000 1.695960 
# 
# From -- ./inp_files/14984.got.cif
#   From: 2010.03.12/outbox.cif.g09.slc.cpg/sg36_8_cif.got.tgz:14984.got - 2010.04.14 02:13:53.
