data_PCOD8174897
_publ_section_title
;
Structure prediction by ZEFSAII (Michael W. Deem and Ramdas Pophale) SiO2 
 PCOD8174897
Probable space group: C M C 21
;
_chemical_formula_sum "Si O2"
_cell_formula_units_Z 48
_cell_length_a 9.165646
_cell_length_b 20.251992
_cell_length_c 13.969766
_cell_angle_alpha 90.000000
_cell_angle_beta 90.000000
_cell_angle_gamma 90.000000
_cell_volume 2593.104139
_symmetry_space_group_name_H-M "C M C 21"
_symmetry_group_IT_number 36
_symmetry_cell_setting 'orthorhombic'
loop_
_space_group_symop_operation_xyz
x,y,z
-x,-y,1/2+z
x,-y,1/2+z
-x,y,z
1/2+x,1/2+y,z
1/2-x,1/2-y,1/2+z
1/2+x,1/2-y,1/2+z
1/2-x,1/2+y,z
loop_
_atom_site_type_symbol
_atom_site_label
_atom_site_fract_x
_atom_site_fract_y
_atom_site_fract_z
Si Si1 0.333368 0.561383 0.460470
Si Si2 0.326409 0.358429 0.657478
Si Si3 0.667282 0.489643 0.169051
Si Si4 0.171647 0.549046 0.849690
Si Si5 0.826470 0.677144 0.966472
Si Si6 0.670472 0.693891 0.360366
O O1 0.500000 0.545154 0.429858
O O2 0.309578 0.550077 0.571843
O O3 0.224787 0.516537 0.401125
O O4 0.293004 0.636462 0.436047
O O5 0.500000 0.353062 0.645164
O O6 0.277168 0.435081 0.659187
O O7 0.249169 0.321517 0.569826
O O8 0.267999 0.323759 0.754850
O O9 0.500000 0.490239 0.202310
O O10 0.760118 0.448117 0.244593
O O11 0.223389 0.611916 0.910342
O O12 0.000000 0.547462 0.838922
O O13 0.765293 0.738519 0.903936
O O14 0.000000 0.680661 0.981204
O O15 0.500000 0.702987 0.347669
#
# Coordination Sequence:
#
# PCOD8174897 Si02
#       6
#     8   8   8   8   8   8
#     4  10  19  36  60  82 105 141 191 234 270 319
#     4  10  19  35  60  83 106 144 189 232 276 325
#     4  10  20  34  58  86 109 142 189 235 273 320
#     4  11  22  34  53  82 115 146 178 224 280 335
#     4  10  22  38  55  80 116 151 180 221 282 341
#     4   9  19  37  58  79 109 148 183 222 277 332
#
# _framework density 18.510632999999999
#
# number of rings (size 3 to 8) (size 9 to 14) (size 15 to 20)
#    0.000    2.000    3.333    0.500    0.000    3.333 
#    0.000    1.667    0.000    0.000    0.000    0.000 
#    0.000    0.000    0.000    0.000    0.000    0.000 
#
# Total GULP energy -297631.324557 kJ/mol
# GULP energy per Si atom -12401.305190 kJ/mol
# Density = 1.846850 g / cm^3
# Si number density = 18.510633 Si / 1000 Ang^3
#
#
#
# Elastic Constant Matrix: (Units=GPa)
#
#
# Indices 1 2 3 4 5 6 
#
# 1 32.0019 11.7831 34.3767 0.0000 0.0000 0.0000
# 2 11.7831 54.4627 47.5774 0.0000 0.0000 0.0000
# 3 34.3767 47.5774 141.8872 0.0000 0.0000 0.0000
# 4 0.0000 0.0000 0.0000 34.8792 0.0000 0.0000
# 5 0.0000 0.0000 0.0000 0.0000 35.3381 0.0000
# 6 0.0000 0.0000 0.0000 0.0000 0.0000 17.6721
#
#
#
# Elastic Compliance Matrix: (Units=1/GPa)
#
#
# Indices 1 2 3 4 5 6 
#
# 1 0.042245 -0.000281 -0.010141 0.000000 0.000000 0.000000
# 2 -0.000281 0.025970 -0.008640 0.000000 0.000000 0.000000
# 3 -0.010141 -0.008640 0.012402 0.000000 0.000000 0.000000
# 4 0.000000 0.000000 0.000000 0.028670 0.000000 0.000000
# 5 0.000000 0.000000 0.000000 0.000000 0.028298 0.000000
# 6 0.000000 0.000000 0.000000 0.000000 0.000000 0.056586
#
#
# Mechanical properties :
#
#
# Convention : Reuss Voigt Hill
#
# Bulk Modulus (GPa) = 23.53331 46.20293 34.86812
# Shear Modulus (GPa) = 20.28725 26.55217 23.41971
#
# Velocity S-wave (km/s) = 3.31415 3.79149 3.56083
# Velocity P-wave (km/s) = 5.23314 6.64693 5.98195
#
# Compressibility (1/GPa) = 0.04249296
#
# Stress axis : x y z
#
# Youngs Moduli (GPa) = 23.67131 38.50639 80.63195
#
# Poissons Ratio (x) = 0.01081 0.81770
# Poissons Ratio (y) = 0.00665 0.69667
# Poissons Ratio (z) = 0.24005 0.33270
#
# Static dielectric constant tensor:
#      x y z
#    x 3.168340 0.000000 0.000000 
#    y 0.000000 3.514790 0.000000 
#    z 0.000000 0.000000 3.654010 
# 
# 
# High freq. dielectric constant tensor:
#      x y z
#    x 1.693080 0.000000 0.000000 
#    y 0.000000 1.717090 0.000000 
#    z 0.000000 0.000000 1.734070 
# 
# From -- ./inp_files/10348.got.cif
#   From: 2010.03.12/outbox.cif.g09.slc.cpg/sg36_6_cif.got.tgz:10348.got - 2010.04.14 02:13:53.
