data_PCOD8174505
_publ_section_title
;
Structure prediction by ZEFSAII (Michael W. Deem and Ramdas Pophale) SiO2 
 PCOD8174505
Probable space group: C M C 21
;
_chemical_formula_sum "Si O2"
_cell_formula_units_Z 48
_cell_length_a 9.189904
_cell_length_b 19.090309
_cell_length_c 15.430309
_cell_angle_alpha 90.000000
_cell_angle_beta 90.000000
_cell_angle_gamma 90.000000
_cell_volume 2707.064202
_symmetry_space_group_name_H-M "C M C 21"
_symmetry_group_IT_number 36
_symmetry_cell_setting 'orthorhombic'
loop_
_space_group_symop_operation_xyz
x,y,z
-x,-y,1/2+z
x,-y,1/2+z
-x,y,z
1/2+x,1/2+y,z
1/2-x,1/2-y,1/2+z
1/2+x,1/2-y,1/2+z
1/2-x,1/2+y,z
loop_
_atom_site_type_symbol
_atom_site_label
_atom_site_fract_x
_atom_site_fract_y
_atom_site_fract_z
Si Si1 0.329271 0.537600 0.961660
Si Si2 0.835877 0.460718 0.632145
Si Si3 0.670590 0.283772 0.783057
Si Si4 0.172342 0.318908 0.432195
Si Si5 0.331120 0.442987 0.798354
Si Si6 0.160435 0.705601 0.119450
O O1 0.500000 0.548963 0.978954
O O2 0.260509 0.609286 0.926775
O O3 0.299351 0.479048 0.889629
O O4 0.253947 0.510017 0.049906
O O5 0.758321 0.482196 0.722226
O O6 0.837247 0.377711 0.625424
O O7 0.000000 0.491197 0.630807
O O8 0.500000 0.278152 0.776617
O O9 0.729036 0.230367 0.855139
O O10 0.719996 0.362326 0.807365
O O11 0.732658 0.260360 0.689674
O O12 0.207643 0.276497 0.521121
O O13 0.000000 0.335644 0.427554
O O14 0.500000 0.447273 0.772644
O O15 0.000000 0.735080 0.139210
#
# Coordination Sequence:
#
# PCOD8174505 Si02
#       6
#     8   8   8   8   8   8
#     4  10  19  31  49  72  98 126 157 195 236 281
#     4   9  17  30  49  70  94 126 160 194 232 279
#     4   9  17  31  50  69  91 120 154 193 233 274
#     4   9  18  32  49  69  94 124 157 192 233 280
#     4   9  18  32  50  72  96 124 158 195 237 282
#     4   8  15  28  45  66  91 120 154 187 223 274
#
# _framework density 17.731386000000001
#
# number of rings (size 3 to 8) (size 9 to 14) (size 15 to 20)
#    0.000    3.000    0.000    2.000    0.000    6.000 
#    0.000    1.667    0.000    4.000    0.000    0.000 
#    0.000    0.000    0.000    0.000    0.000    0.000 
#
# Total GULP energy -297517.176284 kJ/mol
# GULP energy per Si atom -12396.549012 kJ/mol
# Density = 1.769103 g / cm^3
# Si number density = 17.731386 Si / 1000 Ang^3
#
#
#
# Elastic Constant Matrix: (Units=GPa)
#
#
# Indices 1 2 3 4 5 6 
#
# 1 59.6373 12.1078 20.5187 0.0000 0.0000 0.0000
# 2 12.1078 22.5161 -0.9096 0.0000 0.0000 0.0000
# 3 20.5187 -0.9096 51.9238 0.0000 0.0000 0.0000
# 4 0.0000 0.0000 0.0000 27.9434 0.0000 0.0000
# 5 0.0000 0.0000 0.0000 0.0000 35.1234 0.0000
# 6 0.0000 0.0000 0.0000 0.0000 0.0000 18.1126
#
#
#
# Elastic Compliance Matrix: (Units=1/GPa)
#
#
# Indices 1 2 3 4 5 6 
#
# 1 0.022411 -0.012418 -0.009074 0.000000 0.000000 0.000000
# 2 -0.012418 0.051325 0.005806 0.000000 0.000000 0.000000
# 3 -0.009074 0.005806 0.022946 0.000000 0.000000 0.000000
# 4 0.000000 0.000000 0.000000 0.035787 0.000000 0.000000
# 5 0.000000 0.000000 0.000000 0.000000 0.028471 0.000000
# 6 0.000000 0.000000 0.000000 0.000000 0.000000 0.055210
#
#
# Mechanical properties :
#
#
# Convention : Reuss Voigt Hill
#
# Bulk Modulus (GPa) = 15.31124 21.94568 18.62846
# Shear Modulus (GPa) = 18.56727 23.05990 20.81359
#
# Velocity S-wave (km/s) = 3.23947 3.61018 3.42983
# Velocity P-wave (km/s) = 4.75879 5.45724 5.11994
#
# Compressibility (1/GPa) = 0.06531149
#
# Stress axis : x y z
#
# Youngs Moduli (GPa) = 44.62083 19.48379 43.57989
#
# Poissons Ratio (x) = 0.24195 0.39543
# Poissons Ratio (y) = 0.55410 -0.25304
# Poissons Ratio (z) = 0.40488 -0.11313
#
# Static dielectric constant tensor:
#      x y z
#    x 3.381560 0.000000 0.000000 
#    y 0.000000 2.951350 0.000000 
#    z 0.000000 0.000000 3.648540 
# 
# 
# High freq. dielectric constant tensor:
#      x y z
#    x 1.687380 0.000000 0.000000 
#    y 0.000000 1.639790 0.000000 
#    z 0.000000 0.000000 1.701970 
# 
# From -- ./inp_files/6737.got.cif
#   From: 2010.03.12/outbox.cif.g09.slc.cpg/sg36_4_cif.got.tgz:6737.got - 2010.04.14 02:13:53.
