data_PCOD8174059
_publ_section_title
;
Structure prediction by ZEFSAII (Michael W. Deem and Ramdas Pophale) SiO2 
 PCOD8174059
Probable space group: C M M 2
;
_chemical_formula_sum "Si O2"
_cell_formula_units_Z 48
_cell_length_a 17.008764
_cell_length_b 9.658606
_cell_length_c 13.460957
_cell_angle_alpha 90.000000
_cell_angle_beta 90.000000
_cell_angle_gamma 90.000000
_cell_volume 2211.378804
_symmetry_space_group_name_H-M "C M M 2"
_symmetry_group_IT_number 35
_symmetry_cell_setting 'orthorhombic'
loop_
_space_group_symop_operation_xyz
x,y,z
-x,-y,z
-x,y,z
x,-y,z
1/2+x,1/2+y,z
1/2-x,1/2-y,z
1/2-x,1/2+y,z
1/2+x,1/2-y,z
loop_
_atom_site_type_symbol
_atom_site_label
_atom_site_fract_x
_atom_site_fract_y
_atom_site_fract_z
Si Si1 0.324630 0.000000 0.356771
Si Si2 0.091063 0.656431 0.928680
Si Si3 0.674802 0.338912 0.086510
Si Si4 0.089424 0.241953 0.277517
Si Si5 0.088638 0.254201 0.708710
Si Si6 0.822218 0.000000 0.631540
Si Si7 0.858828 0.500000 0.584065
Si Si8 0.356845 0.500000 0.404404
O O1 0.351943 0.868049 0.295250
O O2 0.230824 0.000000 0.360278
O O3 0.362102 0.000000 0.465576
O O4 0.115317 0.500000 0.960188
O O5 0.108445 0.672303 0.812276
O O6 0.000000 0.681725 0.952609
O O7 0.140731 0.770842 0.986688
O O8 0.695788 0.500000 0.065991
O O9 0.750000 0.250000 0.119497
O O10 0.610933 0.331527 0.174105
O O11 0.000000 0.295411 0.272405
O O12 0.097670 0.135144 0.367903
O O13 0.150699 0.133085 0.692316
O O14 0.095987 0.364696 0.620598
O O15 0.000000 0.194411 0.708371
O O16 0.728998 0.000000 0.626069
O O17 0.859929 0.000000 0.522669
#
# Coordination Sequence:
#
# PCOD8174059 Si02
#       8
#     4   8   8   8   8   4   4   4
#     4  11  25  43  66  97 132 181 225 274 332 403
#     4  10  23  45  70  97 134 178 224 278 339 401
#     4  12  27  46  71 101 135 176 222 275 339 407
#     4  12  26  43  68 100 133 172 222 279 332 394
#     4  11  23  42  67  97 135 178 223 276 333 393
#     4  11  25  39  64 101 134 179 223 280 332 395
#     4  11  23  43  66  93 134 179 229 274 336 393
#     4  11  23  45  66  91 138 179 225 274 340 391
#
# _framework density 21.705915000000001
#
# number of rings (size 3 to 8) (size 9 to 14) (size 15 to 20)
#    0.000    0.833    1.667    5.000    3.500    9.000 
#    0.000    0.000    0.000    0.000    0.000    0.000 
#    0.000    0.000    0.000    0.000    0.000    0.000 
#
# Total GULP energy -297773.188491 kJ/mol
# GULP energy per Si atom -12407.216187 kJ/mol
# Density = 2.165651 g / cm^3
# Si number density = 21.705915 Si / 1000 Ang^3
#
#
#
# Elastic Constant Matrix: (Units=GPa)
#
#
# Indices 1 2 3 4 5 6 
#
# 1 81.1092 23.4250 30.5689 0.0000 0.0000 0.0000
# 2 23.4250 142.6843 21.9303 0.0000 0.0000 0.0000
# 3 30.5689 21.9303 79.9563 0.0000 0.0000 0.0000
# 4 0.0000 0.0000 0.0000 41.5088 0.0000 0.0000
# 5 0.0000 0.0000 0.0000 0.0000 36.6464 0.0000
# 6 0.0000 0.0000 0.0000 0.0000 0.0000 71.9546
#
#
#
# Elastic Compliance Matrix: (Units=1/GPa)
#
#
# Indices 1 2 3 4 5 6 
#
# 1 0.014756 -0.001624 -0.005196 0.000000 0.000000 0.000000
# 2 -0.001624 0.007496 -0.001435 0.000000 0.000000 0.000000
# 3 -0.005196 -0.001435 0.014887 0.000000 0.000000 0.000000
# 4 0.000000 0.000000 0.000000 0.024091 0.000000 0.000000
# 5 0.000000 0.000000 0.000000 0.000000 0.027288 0.000000
# 6 0.000000 0.000000 0.000000 0.000000 0.000000 0.013898
#
#
# Mechanical properties :
#
#
# Convention : Reuss Voigt Hill
#
# Bulk Modulus (GPa) = 48.47622 50.62201 49.54911
# Shear Modulus (GPa) = 39.74479 45.21034 42.47757
#
# Velocity S-wave (km/s) = 4.28373 4.56879 4.42855
# Velocity P-wave (km/s) = 6.84462 7.15571 7.00189
#
# Compressibility (1/GPa) = 0.02062867
#
# Stress axis : x y z
#
# Youngs Moduli (GPa) = 67.76692 133.41074 67.17239
#
# Poissons Ratio (x) = 0.21665 0.34905
# Poissons Ratio (y) = 0.11005 0.09639
# Poissons Ratio (z) = 0.35214 0.19145
#
# Static dielectric constant tensor:
#      x y z
#    x 3.883380 0.000000 0.000000 
#    y 0.000000 3.501970 0.000000 
#    z 0.000000 0.000000 3.858650 
# 
# 
# High freq. dielectric constant tensor:
#      x y z
#    x 1.857680 0.000000 0.000000 
#    y 0.000000 1.861240 0.000000 
#    z 0.000000 0.000000 1.858920 
# 
# From -- ./inp_files/15359.got.cif
#   From: 2010.03.12/outbox.cif.g09.slc.cpg/sg35_8_cif.got.tgz:15359.got - 2010.04.14 02:02:04.
