data_PCOD8174414
_publ_section_title
;
Structure prediction by ZEFSAII (Michael W. Deem and Ramdas Pophale) SiO2 
 PCOD8174414
Probable space group: C M C 21
;
_chemical_formula_sum "Si O2"
_cell_formula_units_Z 64
_cell_length_a 8.789546
_cell_length_b 20.106967
_cell_length_c 19.777920
_cell_angle_alpha 90.000000
_cell_angle_beta 90.000000
_cell_angle_gamma 90.000000
_cell_volume 3495.373782
_symmetry_space_group_name_H-M "C M C 21"
_symmetry_group_IT_number 36
_symmetry_cell_setting 'orthorhombic'
loop_
_space_group_symop_operation_xyz
x,y,z
-x,-y,1/2+z
x,-y,1/2+z
-x,y,z
1/2+x,1/2+y,z
1/2-x,1/2-y,1/2+z
1/2+x,1/2-y,1/2+z
1/2-x,1/2+y,z
loop_
_atom_site_type_symbol
_atom_site_label
_atom_site_fract_x
_atom_site_fract_y
_atom_site_fract_z
Si Si1 0.320337 0.312714 0.877520
Si Si2 0.179515 0.525351 0.862106
Si Si3 0.323114 0.787400 0.199862
Si Si4 0.822840 0.583185 0.469817
Si Si5 0.820884 0.020639 0.223270
Si Si6 0.676776 0.083112 0.623900
Si Si7 0.178817 0.670302 0.846152
Si Si8 0.320359 0.155811 0.234371
O O1 0.500000 0.318407 0.866678
O O2 0.269465 0.353466 0.942859
O O3 0.269522 0.235423 0.888527
O O4 0.241129 0.341202 0.810780
O O5 0.220844 0.482611 0.928007
O O6 0.264490 0.495633 0.798134
O O7 0.241300 0.600582 0.875867
O O8 0.000000 0.523730 0.846667
O O9 0.500000 0.768329 0.204844
O O10 0.289959 0.839181 0.139708
O O11 0.265842 0.822027 0.268932
O O12 0.230674 0.719112 0.189404
O O13 0.775892 0.569824 0.546836
O O14 0.000000 0.600357 0.463599
O O15 0.745173 0.089692 0.199053
O O16 0.000000 0.029210 0.224265
O O17 0.777123 0.963289 0.171067
O O18 0.500000 0.067055 0.637657
O O19 0.000000 0.665348 0.847320
O O20 0.500000 0.151682 0.236457
#
# Coordination Sequence:
#
# PCOD8174414 Si02
#       8
#     8   8   8   8   8   8   8   8
#     4  10  19  33  53  79 111 146 183 228 282 334
#     4  10  18  34  57  82 112 149 189 231 281 334
#     4   9  17  33  55  78 108 145 185 229 281 334
#     4  10  21  35  57  84 112 152 194 230 278 346
#     4  12  23  35  55  85 114 147 193 238 288 339
#     4  10  21  39  58  80 115 157 194 231 285 345
#     4   8  15  29  52  78 103 139 180 220 273 325
#     4  11  21  34  55  82 111 141 184 237 286 335
#
# _framework density 18.309916000000001
#
# number of rings (size 3 to 8) (size 9 to 14) (size 15 to 20)
#    0.000    2.000    2.500    3.375    0.000    1.000 
#    0.000    1.875    0.000    1.500    0.000    0.000 
#    0.000    0.000    0.000    0.000    0.000    0.000 
#
# Total GULP energy -396757.722803 kJ/mol
# GULP energy per Si atom -12398.678838 kJ/mol
# Density = 1.826824 g / cm^3
# Si number density = 18.309916 Si / 1000 Ang^3
#
#
#
# Elastic Constant Matrix: (Units=GPa)
#
#
# Indices 1 2 3 4 5 6 
#
# 1 92.5547 52.5469 39.3855 0.0000 0.0000 0.0000
# 2 52.5469 137.4252 37.8907 0.0000 0.0000 0.0000
# 3 39.3855 37.8907 73.7496 0.0000 0.0000 0.0000
# 4 0.0000 0.0000 0.0000 23.6825 0.0000 0.0000
# 5 0.0000 0.0000 0.0000 0.0000 18.6719 0.0000
# 6 0.0000 0.0000 0.0000 0.0000 0.0000 28.5009
#
#
#
# Elastic Compliance Matrix: (Units=1/GPa)
#
#
# Indices 1 2 3 4 5 6 
#
# 1 0.015957 -0.004371 -0.006276 0.000000 0.000000 0.000000
# 2 -0.004371 0.009675 -0.002636 0.000000 0.000000 0.000000
# 3 -0.006276 -0.002636 0.018266 0.000000 0.000000 0.000000
# 4 0.000000 0.000000 0.000000 0.042225 0.000000 0.000000
# 5 0.000000 0.000000 0.000000 0.000000 0.053557 0.000000
# 6 0.000000 0.000000 0.000000 0.000000 0.000000 0.035087
#
#
# Mechanical properties :
#
#
# Convention : Reuss Voigt Hill
#
# Bulk Modulus (GPa) = 57.70152 62.59729 60.14941
# Shear Modulus (GPa) = 24.14192 25.76481 24.95337
#
# Velocity S-wave (km/s) = 3.63508 3.75527 3.69566
# Velocity P-wave (km/s) = 7.01431 7.28455 7.15071
#
# Compressibility (1/GPa) = 0.01733056
#
# Stress axis : x y z
#
# Youngs Moduli (GPa) = 62.67027 103.36025 54.74795
#
# Poissons Ratio (x) = 0.45178 0.34359
# Poissons Ratio (y) = 0.27392 0.14434
# Poissons Ratio (z) = 0.39331 0.27251
#
# Static dielectric constant tensor:
#      x y z
#    x 3.227130 0.000000 0.000000 
#    y 0.000000 3.911330 0.000000 
#    z 0.000000 0.000000 3.165810 
# 
# 
# High freq. dielectric constant tensor:
#      x y z
#    x 1.697280 0.000000 0.000000 
#    y 0.000000 1.730600 0.000000 
#    z 0.000000 0.000000 1.676020 
# 
# From -- ./inp_files/13851.got.cif
#   From: 2010.03.12/outbox.cif.g09.slc.cpg/sg36_7_cif.got.tgz:13851.got - 2010.04.14 02:13:53.
