data_PCOD8174796
_publ_section_title
;
Structure prediction by ZEFSAII (Michael W. Deem and Ramdas Pophale) SiO2 
 PCOD8174796
Probable space group: C M C 21
;
_chemical_formula_sum "Si O2"
_cell_formula_units_Z 64
_cell_length_a 8.851966
_cell_length_b 29.335704
_cell_length_c 12.452588
_cell_angle_alpha 90.000000
_cell_angle_beta 90.000000
_cell_angle_gamma 90.000000
_cell_volume 3233.671296
_symmetry_space_group_name_H-M "C M C 21"
_symmetry_group_IT_number 36
_symmetry_cell_setting 'orthorhombic'
loop_
_space_group_symop_operation_xyz
x,y,z
-x,-y,1/2+z
x,-y,1/2+z
-x,y,z
1/2+x,1/2+y,z
1/2-x,1/2-y,1/2+z
1/2+x,1/2-y,1/2+z
1/2-x,1/2+y,z
loop_
_atom_site_type_symbol
_atom_site_label
_atom_site_fract_x
_atom_site_fract_y
_atom_site_fract_z
Si Si1 0.675973 0.682593 0.044140
Si Si2 0.178651 0.629125 0.517089
Si Si3 0.820276 0.915439 0.607879
Si Si4 0.177920 0.435755 0.832865
Si Si5 0.331790 0.081662 0.725908
Si Si6 0.322130 0.474710 0.402307
Si Si7 0.665936 0.821419 0.330898
Si Si8 0.822127 0.278603 0.111576
O O1 0.500000 0.682496 0.067783
O O2 0.744233 0.636295 0.095885
O O3 0.752257 0.729153 0.088499
O O4 0.703687 0.682624 0.917748
O O5 0.220117 0.610525 0.398709
O O6 0.237976 0.593737 0.608573
O O7 0.244434 0.680455 0.535663
O O8 0.000000 0.631383 0.536050
O O9 0.754587 0.936399 0.716606
O O10 0.767058 0.945092 0.504971
O O11 0.000000 0.915717 0.614553
O O12 0.238071 0.476988 0.906006
O O13 0.000000 0.440259 0.817720
O O14 0.500000 0.059366 0.717341
O O15 0.219661 0.048316 0.788728
O O16 0.344977 0.127447 0.792480
O O17 0.500000 0.482488 0.405877
O O18 0.500000 0.806895 0.375470
O O19 0.715751 0.788643 0.234549
O O20 0.000000 0.275755 0.090389
#
# Coordination Sequence:
#
# PCOD8174796 Si02
#       8
#     8   8   8   8   8   8   8   8
#     4  10  19  34  57  82 112 151 190 229 280 344
#     4   8  17  35  56  83 114 143 183 236 287 331
#     4  10  23  41  57  82 120 155 188 230 286 345
#     4  11  24  39  59  85 115 151 194 238 286 343
#     4   9  17  33  58  82 106 140 185 236 285 336
#     4  11  23  39  58  82 114 147 188 236 287 345
#     4   9  17  31  52  79 109 142 186 237 283 329
#     4   8  16  32  55  81 112 151 188 228 284 341
#
# _framework density 19.791746
#
# number of rings (size 3 to 8) (size 9 to 14) (size 15 to 20)
#    0.000    2.500    1.250    2.250    1.750    2.500 
#    0.000    1.250    0.000    3.000    0.000    0.000 
#    0.000    0.000    0.000    0.000    0.000    0.000 
#
# Total GULP energy -396593.206610 kJ/mol
# GULP energy per Si atom -12393.537707 kJ/mol
# Density = 1.974670 g / cm^3
# Si number density = 19.791746 Si / 1000 Ang^3
#
#
#
# Elastic Constant Matrix: (Units=GPa)
#
#
# Indices 1 2 3 4 5 6 
#
# 1 20.1890 22.3162 19.3935 0.0000 0.0000 0.0000
# 2 22.3162 121.8807 53.0282 0.0000 0.0000 0.0000
# 3 19.3935 53.0282 89.3749 0.0000 0.0000 0.0000
# 4 0.0000 0.0000 0.0000 22.8687 0.0000 0.0000
# 5 0.0000 0.0000 0.0000 0.0000 24.3197 0.0000
# 6 0.0000 0.0000 0.0000 0.0000 0.0000 16.5242
#
#
#
# Elastic Compliance Matrix: (Units=1/GPa)
#
#
# Indices 1 2 3 4 5 6 
#
# 1 0.068081 -0.008139 -0.009944 0.000000 0.000000 0.000000
# 2 -0.008139 0.012033 -0.005373 0.000000 0.000000 0.000000
# 3 -0.009944 -0.005373 0.016535 0.000000 0.000000 0.000000
# 4 0.000000 0.000000 0.000000 0.043728 0.000000 0.000000
# 5 0.000000 0.000000 0.000000 0.000000 0.041119 0.000000
# 6 0.000000 0.000000 0.000000 0.000000 0.000000 0.060517
#
#
# Mechanical properties :
#
#
# Convention : Reuss Voigt Hill
#
# Bulk Modulus (GPa) = 20.10622 46.76892 33.43757
# Shear Modulus (GPa) = 16.36647 21.85631 19.11139
#
# Velocity S-wave (km/s) = 2.87877 3.32673 3.11082
# Velocity P-wave (km/s) = 4.60768 6.19984 5.46208
#
# Compressibility (1/GPa) = 0.04973585
#
# Stress axis : x y z
#
# Youngs Moduli (GPa) = 14.68849 83.10619 60.47938
#
# Poissons Ratio (x) = 0.67641 0.60139
# Poissons Ratio (y) = 0.11955 0.32497
# Poissons Ratio (z) = 0.14606 0.44655
#
# Static dielectric constant tensor:
#      x y z
#    x 3.362650 0.000000 0.000000 
#    y 0.000000 4.024060 0.000000 
#    z 0.000000 0.000000 3.687970 
# 
# 
# High freq. dielectric constant tensor:
#      x y z
#    x 1.734600 0.000000 0.000000 
#    y 0.000000 1.780420 0.000000 
#    z 0.000000 0.000000 1.769180 
# 
# From -- ./inp_files/7076.got.cif
#   From: 2010.03.12/outbox.cif.g09.slc.cpg/sg36_4_cif.got.tgz:7076.got - 2010.04.14 02:13:53.
