data_PCOD8174197
_publ_section_title
;
Structure prediction by ZEFSAII (Michael W. Deem and Ramdas Pophale) SiO2 
 PCOD8174197
Probable space group: C M C 21
;
_chemical_formula_sum "Si O2"
_cell_formula_units_Z 52
_cell_length_a 28.599795
_cell_length_b 23.351486
_cell_length_c 5.208295
_cell_angle_alpha 90.000000
_cell_angle_beta 90.000000
_cell_angle_gamma 90.000000
_cell_volume 3478.347902
_symmetry_space_group_name_H-M "C M C 21"
_symmetry_group_IT_number 36
_symmetry_cell_setting 'orthorhombic'
loop_
_space_group_symop_operation_xyz
x,y,z
-x,-y,1/2+z
x,-y,1/2+z
-x,y,z
1/2+x,1/2+y,z
1/2-x,1/2-y,1/2+z
1/2+x,1/2-y,1/2+z
1/2-x,1/2+y,z
loop_
_atom_site_type_symbol
_atom_site_label
_atom_site_fract_x
_atom_site_fract_y
_atom_site_fract_z
Si Si1 0.791592 0.693829 0.527200
Si Si2 0.639257 0.639043 0.020921
Si Si3 0.892351 0.269265 0.021965
Si Si4 0.000000 0.036621 0.493448
Si Si5 0.054670 0.250226 0.520880
Si Si6 0.740170 0.324815 0.527340
Si Si7 0.586391 0.380242 0.020126
O O1 0.847791 0.688533 0.525320
O O2 0.771049 0.662085 0.277997
O O3 0.776435 0.759586 0.526709
O O4 0.771510 0.662274 0.778019
O O5 0.619697 0.609853 0.764249
O O6 0.625832 0.705006 0.025788
O O7 0.695378 0.633275 0.026848
O O8 0.617129 0.607942 0.267300
O O9 0.924048 0.280712 0.270565
O O10 0.922479 0.280386 0.767582
O O11 0.954474 0.074291 0.536802
O O12 0.000000 0.986418 0.703255
O O13 0.064053 0.182620 0.518414
O O14 0.000000 0.261953 0.526813
#
# Coordination Sequence:
#
# PCOD8174197 Si02
#       7
#     8   8   8   4   8   8   8
#     4   9  15  23  33  49  74  91 110 132 158 196
#     4   9  17  27  42  56  70  87 110 132 170 210
#     4   9  17  24  35  52  69  92 114 140 172 208
#     4  12  24  36  48  60  72  92 116 144 196 248
#     4  10  17  27  39  51  67  89 120 150 184 210
#     4   9  15  23  36  52  69  92 109 128 156 202
#     4  10  19  32  43  56  71  85 107 148 180 220
#
# _framework density 14.949626
#
# number of rings (size 3 to 8) (size 9 to 14) (size 15 to 20)
#    0.000    2.462    0.769    3.231    0.000    7.385 
#    0.000    0.000    0.000    0.000    0.000    0.000 
#    0.000    0.000    0.000    0.000    0.000    0.000 
#
# Total GULP energy -322386.564824 kJ/mol
# GULP energy per Si atom -12399.483262 kJ/mol
# Density = 1.491560 g / cm^3
# Si number density = 14.949626 Si / 1000 Ang^3
#
#
#
# Elastic Constant Matrix: (Units=GPa)
#
#
# Indices 1 2 3 4 5 6 
#
# 1 143.6959 22.2766 73.3371 0.0000 0.0000 0.0000
# 2 22.2766 13.3269 12.9153 0.0000 0.0000 0.0000
# 3 73.3371 12.9153 151.5890 0.0000 0.0000 0.0000
# 4 0.0000 0.0000 0.0000 9.3952 0.0000 0.0000
# 5 0.0000 0.0000 0.0000 0.0000 31.1178 0.0000
# 6 0.0000 0.0000 0.0000 0.0000 0.0000 5.6340
#
#
#
# Elastic Compliance Matrix: (Units=1/GPa)
#
#
# Indices 1 2 3 4 5 6 
#
# 1 0.011467 -0.015033 -0.004267 0.000000 0.000000 0.000000
# 2 -0.015033 0.101497 -0.001375 0.000000 0.000000 0.000000
# 3 -0.004267 -0.001375 0.008778 0.000000 0.000000 0.000000
# 4 0.000000 0.000000 0.000000 0.106438 0.000000 0.000000
# 5 0.000000 0.000000 0.000000 0.000000 0.032136 0.000000
# 6 0.000000 0.000000 0.000000 0.000000 0.000000 0.177495
#
#
# Mechanical properties :
#
#
# Convention : Reuss Voigt Hill
#
# Bulk Modulus (GPa) = 12.43889 58.40777 35.42333
# Shear Modulus (GPa) = 9.88224 22.56824 16.22524
#
# Velocity S-wave (km/s) = 2.57385 3.88960 3.29800
# Velocity P-wave (km/s) = 4.14386 7.70237 6.18458
#
# Compressibility (1/GPa) = 0.08039304
#
# Stress axis : x y z
#
# Youngs Moduli (GPa) = 87.20399 9.85252 113.91828
#
# Poissons Ratio (x) = 0.14811 0.48609
# Poissons Ratio (y) = 1.31094 0.15660
# Poissons Ratio (z) = 0.37210 0.01354
#
# Static dielectric constant tensor:
#      x y z
#    x 3.062600 0.000000 0.000000 
#    y 0.000000 2.185590 0.000000 
#    z 0.000000 0.000000 3.205370 
# 
# 
# High freq. dielectric constant tensor:
#      x y z
#    x 1.585590 0.000000 0.000000 
#    y 0.000000 1.473400 0.000000 
#    z 0.000000 0.000000 1.598840 
# 
# From -- ./inp_files/1764.got.cif
#   From: 2010.03.12/outbox.cif.g09.slc.cpg/sg36_1_cif.got.tgz:1764.got - 2010.04.14 02:13:53.
