data_PCOD8174042
_publ_section_title
;
Structure prediction by ZEFSAII (Michael W. Deem and Ramdas Pophale) SiO2 
 PCOD8174042
Probable space group: C M M 2
;
_chemical_formula_sum "Si O2"
_cell_formula_units_Z 48
_cell_length_a 15.255971
_cell_length_b 10.068404
_cell_length_c 15.417894
_cell_angle_alpha 90.000000
_cell_angle_beta 90.000000
_cell_angle_gamma 90.000000
_cell_volume 2368.239080
_symmetry_space_group_name_H-M "C M M 2"
_symmetry_group_IT_number 35
_symmetry_cell_setting 'orthorhombic'
loop_
_space_group_symop_operation_xyz
x,y,z
-x,-y,z
-x,y,z
x,-y,z
1/2+x,1/2+y,z
1/2-x,1/2-y,z
1/2-x,1/2+y,z
1/2+x,1/2-y,z
loop_
_atom_site_type_symbol
_atom_site_label
_atom_site_fract_x
_atom_site_fract_y
_atom_site_fract_z
Si Si1 0.150735 0.246890 0.264660
Si Si2 0.103827 0.647993 0.898209
Si Si3 0.897076 0.156165 0.747166
Si Si4 0.594464 0.000000 0.357776
Si Si5 0.896677 0.651443 0.090850
Si Si6 0.403078 0.500000 0.372448
Si Si7 0.750000 0.750000 0.616862
Si Si8 0.257292 0.000000 0.498948
O O1 0.250000 0.250000 0.297604
O O2 0.098562 0.374689 0.295406
O O3 0.146677 0.246528 0.159619
O O4 0.105744 0.122349 0.308063
O O5 0.138867 0.500000 0.871359
O O6 0.134311 0.761626 0.831538
O O7 0.000000 0.641108 0.900519
O O8 0.137908 0.687252 0.994178
O O9 0.836603 0.210931 0.670366
O O10 0.000000 0.181413 0.725388
O O11 0.879838 0.000000 0.763068
O O12 0.500000 0.000000 0.405419
O O13 0.671011 0.000000 0.425611
O O14 0.869673 0.500000 0.112662
O O15 0.000000 0.669823 0.095328
O O16 0.500000 0.500000 0.414064
O O17 0.338255 0.500000 0.454567
O O18 0.725326 0.872330 0.556747
#
# Coordination Sequence:
#
# PCOD8174042 Si02
#       8
#     8   8   8   4   8   4   4   4
#     4  12  22  40  63  93 134 170 210 263 312 367
#     4   8  16  33  61  94 128 167 215 262 299 358
#     4  10  22  43  68  96 130 169 206 252 323 386
#     4  12  24  44  72  93 119 168 215 255 312 382
#     4   9  17  33  60  93 125 169 222 259 298 358
#     4  12  26  44  66  93 129 170 207 261 328 380
#     4  12  26  44  70  94 130 162 200 266 330 382
#     4  12  26  46  66  96 128 156 208 270 324 380
#
# _framework density 20.268222999999999
#
# number of rings (size 3 to 8) (size 9 to 14) (size 15 to 20)
#    0.000    1.500    3.333    3.500    1.167    1.333 
#    3.000    0.000    0.000    0.000    0.000    0.000 
#    0.000    0.000    0.000    0.000    0.000    0.000 
#
# Total GULP energy -297542.387782 kJ/mol
# GULP energy per Si atom -12397.599491 kJ/mol
# Density = 2.022209 g / cm^3
# Si number density = 20.268223 Si / 1000 Ang^3
#
#
#
# Elastic Constant Matrix: (Units=GPa)
#
#
# Indices 1 2 3 4 5 6 
#
# 1 93.8011 28.7512 32.6180 0.0000 0.0000 0.0000
# 2 28.7512 147.1511 65.1527 0.0000 0.0000 0.0000
# 3 32.6180 65.1527 120.6543 0.0000 0.0000 0.0000
# 4 0.0000 0.0000 0.0000 24.5928 0.0000 0.0000
# 5 0.0000 0.0000 0.0000 0.0000 42.4080 0.0000
# 6 0.0000 0.0000 0.0000 0.0000 0.0000 25.3019
#
#
#
# Elastic Compliance Matrix: (Units=1/GPa)
#
#
# Indices 1 2 3 4 5 6 
#
# 1 0.011922 -0.001186 -0.002583 0.000000 0.000000 0.000000
# 2 -0.001186 0.009049 -0.004566 0.000000 0.000000 0.000000
# 3 -0.002583 -0.004566 0.011452 0.000000 0.000000 0.000000
# 4 0.000000 0.000000 0.000000 0.040662 0.000000 0.000000
# 5 0.000000 0.000000 0.000000 0.000000 0.023580 0.000000
# 6 0.000000 0.000000 0.000000 0.000000 0.000000 0.039523
#
#
# Mechanical properties :
#
#
# Convention : Reuss Voigt Hill
#
# Bulk Modulus (GPa) = 63.47445 68.29448 65.88446
# Shear Modulus (GPa) = 31.62371 34.13286 32.87828
#
# Velocity S-wave (km/s) = 3.95430 4.10818 4.03197
# Velocity P-wave (km/s) = 7.22730 7.50142 7.36564
#
# Compressibility (1/GPa) = 0.01575437
#
# Stress axis : x y z
#
# Youngs Moduli (GPa) = 83.87516 110.50935 87.32197
#
# Poissons Ratio (x) = 0.13106 0.22553
# Poissons Ratio (y) = 0.09947 0.39869
# Poissons Ratio (z) = 0.21663 0.50456
#
# Static dielectric constant tensor:
#      x y z
#    x 3.557070 0.000000 0.000000 
#    y 0.000000 3.915630 0.000000 
#    z 0.000000 0.000000 3.906510 
# 
# 
# High freq. dielectric constant tensor:
#      x y z
#    x 1.785170 0.000000 0.000000 
#    y 0.000000 1.795040 0.000000 
#    z 0.000000 0.000000 1.795630 
# 
# From -- ./inp_files/18811.got.cif
#   From: 2010.03.12/outbox.cif.g09.slc.cpg/sg35_10_cif.got.tgz:18811.got - 2010.04.14 02:02:04.
