data_PCOD8174213
_publ_section_title
;
Structure prediction by ZEFSAII (Michael W. Deem and Ramdas Pophale) SiO2 
 PCOD8174213
Probable space group: C M C 21
;
_chemical_formula_sum "Si O2"
_cell_formula_units_Z 48
_cell_length_a 10.630893
_cell_length_b 13.552472
_cell_length_c 19.555071
_cell_angle_alpha 90.000000
_cell_angle_beta 90.000000
_cell_angle_gamma 90.000000
_cell_volume 2817.394502
_symmetry_space_group_name_H-M "C M C 21"
_symmetry_group_IT_number 36
_symmetry_cell_setting 'orthorhombic'
loop_
_space_group_symop_operation_xyz
x,y,z
-x,-y,1/2+z
x,-y,1/2+z
-x,y,z
1/2+x,1/2+y,z
1/2-x,1/2-y,1/2+z
1/2+x,1/2-y,1/2+z
1/2-x,1/2+y,z
loop_
_atom_site_type_symbol
_atom_site_label
_atom_site_fract_x
_atom_site_fract_y
_atom_site_fract_z
Si Si1 0.000000 0.721900 0.321970
Si Si2 0.746731 0.637920 0.364100
Si Si3 0.500000 0.554172 0.309440
Si Si4 0.755474 0.026978 0.977972
Si Si5 0.000000 0.884324 0.205368
Si Si6 0.861176 0.882064 0.075043
Si Si7 0.859272 0.723915 0.971289
Si Si8 0.500000 0.391755 0.425458
O O1 0.125572 0.653909 0.320280
O O2 0.000000 0.794023 0.257198
O O3 0.000000 0.784373 0.391498
O O4 0.627575 0.619818 0.313581
O O5 0.764967 0.544361 0.413637
O O6 0.725189 0.736733 0.408619
O O7 0.500000 0.491852 0.239462
O O8 0.500000 0.479169 0.371349
O O9 0.643471 0.105885 0.981522
O O10 0.877341 0.096939 0.971844
O O11 0.763796 0.965157 0.048675
O O12 0.126323 0.876007 0.157634
O O13 0.000000 0.910097 0.044742
O O14 0.820151 0.776943 0.042769
O O15 0.000000 0.753877 0.951201
#
# Coordination Sequence:
#
# PCOD8174213 Si02
#       8
#     4   8   4   8   4   8   8   4
#     4  11  20  32  50  81 109 137 170 223 265 311
#     4  10  20  32  52  82 110 133 175 217 271 323
#     4   9  18  34  51  71 101 144 178 211 248 309
#     4  10  17  30  53  78 104 131 167 227 266 313
#     4   9  19  38  53  67 102 147 195 211 238 325
#     4   8  17  34  51  71  94 138 187 210 248 314
#     4  10  18  31  52  78 109 136 165 221 279 318
#     4   9  15  28  50  71  96 130 171 197 259 305
#
# _framework density 17.037016999999999
#
# number of rings (size 3 to 8) (size 9 to 14) (size 15 to 20)
#    0.500    2.000    3.333    0.000    1.167    0.000 
#    3.000    0.000    0.000    0.000    2.167    0.000 
#    0.000    0.000    0.000    0.000    0.000    0.000 
#
# Total GULP energy -297358.732058 kJ/mol
# GULP energy per Si atom -12389.947169 kJ/mol
# Density = 1.699824 g / cm^3
# Si number density = 17.037017 Si / 1000 Ang^3
#
#
#
# Elastic Constant Matrix: (Units=GPa)
#
#
# Indices 1 2 3 4 5 6 
#
# 1 84.1981 33.3272 31.2609 0.0000 0.0000 0.0000
# 2 33.3272 99.7083 36.7976 0.0000 0.0000 0.0000
# 3 31.2609 36.7976 88.9507 0.0000 0.0000 0.0000
# 4 0.0000 0.0000 0.0000 14.8406 0.0000 0.0000
# 5 0.0000 0.0000 0.0000 0.0000 19.7224 0.0000
# 6 0.0000 0.0000 0.0000 0.0000 0.0000 28.7670
#
#
#
# Elastic Compliance Matrix: (Units=1/GPa)
#
#
# Indices 1 2 3 4 5 6 
#
# 1 0.014644 -0.003535 -0.003684 0.000000 0.000000 0.000000
# 2 -0.003535 0.012690 -0.004007 0.000000 0.000000 0.000000
# 3 -0.003684 -0.004007 0.014195 0.000000 0.000000 0.000000
# 4 0.000000 0.000000 0.000000 0.067383 0.000000 0.000000
# 5 0.000000 0.000000 0.000000 0.000000 0.050704 0.000000
# 6 0.000000 0.000000 0.000000 0.000000 0.000000 0.034762
#
#
# Mechanical properties :
#
#
# Convention : Reuss Voigt Hill
#
# Bulk Modulus (GPa) = 52.42303 52.84762 52.63532
# Shear Modulus (GPa) = 22.40265 24.09742 23.25004
#
# Velocity S-wave (km/s) = 3.63014 3.76495 3.69816
# Velocity P-wave (km/s) = 6.95755 7.07011 7.01405
#
# Compressibility (1/GPa) = 0.01907559
#
# Stress axis : x y z
#
# Youngs Moduli (GPa) = 68.28827 78.80409 70.44924
#
# Poissons Ratio (x) = 0.27858 0.25954
# Poissons Ratio (y) = 0.24140 0.28230
# Poissons Ratio (z) = 0.25158 0.31578
#
# Static dielectric constant tensor:
#      x y z
#    x 3.076670 0.000000 0.000000 
#    y 0.000000 3.088630 0.000000 
#    z 0.000000 0.000000 2.887140 
# 
# 
# High freq. dielectric constant tensor:
#      x y z
#    x 1.642280 0.000000 0.000000 
#    y 0.000000 1.659090 0.000000 
#    z 0.000000 0.000000 1.622790 
# 
# From -- ./inp_files/14287.got.cif
#   From: 2010.03.12/outbox.cif.g09.slc.cpg/sg36_8_cif.got.tgz:14287.got - 2010.04.14 02:13:53.
