data_PCOD8174272
_publ_section_title
;
Structure prediction by ZEFSAII (Michael W. Deem and Ramdas Pophale) SiO2 
 PCOD8174272
Probable space group: C M C 21
;
_chemical_formula_sum "Si O2"
_cell_formula_units_Z 48
_cell_length_a 8.650093
_cell_length_b 18.262774
_cell_length_c 16.624558
_cell_angle_alpha 90.000000
_cell_angle_beta 90.000000
_cell_angle_gamma 90.000000
_cell_volume 2626.259455
_symmetry_space_group_name_H-M "C M C 21"
_symmetry_group_IT_number 36
_symmetry_cell_setting 'orthorhombic'
loop_
_space_group_symop_operation_xyz
x,y,z
-x,-y,1/2+z
x,-y,1/2+z
-x,y,z
1/2+x,1/2+y,z
1/2-x,1/2-y,1/2+z
1/2+x,1/2-y,1/2+z
1/2-x,1/2+y,z
loop_
_atom_site_type_symbol
_atom_site_label
_atom_site_fract_x
_atom_site_fract_y
_atom_site_fract_z
Si Si1 0.180038 0.211159 0.284540
Si Si2 0.178411 0.838224 0.011204
Si Si3 0.180188 0.072381 0.841095
Si Si4 0.179938 0.829090 0.191084
Si Si5 0.179752 0.416805 0.861270
Si Si6 0.677568 0.288722 0.433426
O O1 0.223731 0.252962 0.202070
O O2 0.225714 0.125298 0.289923
O O3 0.290684 0.248099 0.349997
O O4 0.000000 0.220986 0.304138
O O5 0.217650 0.860873 0.102676
O O6 0.000000 0.850927 0.990822
O O7 0.275676 0.888148 0.950264
O O8 0.218260 0.751263 0.000923
O O9 0.229518 0.110572 0.757031
O O10 0.215256 0.125802 0.917448
O O11 0.000000 0.051242 0.838891
O O12 0.283761 0.001956 0.854246
O O13 0.000000 0.809779 0.199009
O O14 0.000000 0.404199 0.847463
O O15 0.500000 0.278571 0.457934
#
# Coordination Sequence:
#
# PCOD8174272 Si02
#       6
#     8   8   8   8   8   8
#     4  10  18  30  51  74  97 128 166 203 242 295
#     4  10  19  33  54  77 102 132 167 208 255 304
#     4   9  18  34  53  73 100 134 170 205 249 302
#     4   9  19  35  54  76 102 131 165 211 259 301
#     4  11  21  33  51  75 104 135 170 210 251 298
#     4   9  17  31  51  73  99 130 164 203 244 292
#
# _framework density 18.276944
#
# number of rings (size 3 to 8) (size 9 to 14) (size 15 to 20)
#    0.000    2.333    0.000    7.000    0.000    4.667 
#    0.000    1.667    0.000    2.000    0.000    0.000 
#    0.000    0.000    0.000    0.000    0.000    0.000 
#
# Total GULP energy -297428.523279 kJ/mol
# GULP energy per Si atom -12392.855137 kJ/mol
# Density = 1.823535 g / cm^3
# Si number density = 18.276944 Si / 1000 Ang^3
#
#
#
# Elastic Constant Matrix: (Units=GPa)
#
#
# Indices 1 2 3 4 5 6 
#
# 1 63.4544 36.1756 29.7304 0.0000 0.0000 0.0000
# 2 36.1756 108.1415 37.4117 0.0000 0.0000 0.0000
# 3 29.7304 37.4117 80.6293 0.0000 0.0000 0.0000
# 4 0.0000 0.0000 0.0000 18.9622 0.0000 0.0000
# 5 0.0000 0.0000 0.0000 0.0000 23.5774 0.0000
# 6 0.0000 0.0000 0.0000 0.0000 0.0000 32.9096
#
#
#
# Elastic Compliance Matrix: (Units=1/GPa)
#
#
# Indices 1 2 3 4 5 6 
#
# 1 0.021288 -0.005248 -0.005414 0.000000 0.000000 0.000000
# 2 -0.005248 0.012309 -0.003776 0.000000 0.000000 0.000000
# 3 -0.005414 -0.003776 0.016151 0.000000 0.000000 0.000000
# 4 0.000000 0.000000 0.000000 0.052737 0.000000 0.000000
# 5 0.000000 0.000000 0.000000 0.000000 0.042413 0.000000
# 6 0.000000 0.000000 0.000000 0.000000 0.000000 0.030386
#
#
# Mechanical properties :
#
#
# Convention : Reuss Voigt Hill
#
# Bulk Modulus (GPa) = 47.91416 50.98453 49.44935
# Shear Modulus (GPa) = 23.68327 25.01700 24.35013
#
# Velocity S-wave (km/s) = 3.60363 3.70371 3.65401
# Velocity P-wave (km/s) = 6.60207 6.80044 6.70199
#
# Compressibility (1/GPa) = 0.02087066
#
# Stress axis : x y z
#
# Youngs Moduli (GPa) = 46.97431 81.24017 61.91548
#
# Poissons Ratio (x) = 0.42637 0.33524
# Poissons Ratio (y) = 0.24653 0.23381
# Poissons Ratio (z) = 0.25434 0.30678
#
# Static dielectric constant tensor:
#      x y z
#    x 3.311420 0.000000 0.000000 
#    y 0.000000 3.580750 0.000000 
#    z 0.000000 0.000000 3.389220 
# 
# 
# High freq. dielectric constant tensor:
#      x y z
#    x 1.714930 0.000000 0.000000 
#    y 0.000000 1.700170 0.000000 
#    z 0.000000 0.000000 1.683480 
# 
# From -- ./inp_files/10387.got.cif
#   From: 2010.03.12/outbox.cif.g09.slc.cpg/sg36_6_cif.got.tgz:10387.got - 2010.04.14 02:13:53.
