data_PCOD8174468
_publ_section_title
;
Structure prediction by ZEFSAII (Michael W. Deem and Ramdas Pophale) SiO2 
 PCOD8174468
Probable space group: C M C 21
;
_chemical_formula_sum "Si O2"
_cell_formula_units_Z 64
_cell_length_a 9.000430
_cell_length_b 18.843771
_cell_length_c 20.752971
_cell_angle_alpha 90.000000
_cell_angle_beta 90.000000
_cell_angle_gamma 90.000000
_cell_volume 3519.746255
_symmetry_space_group_name_H-M "C M C 21"
_symmetry_group_IT_number 36
_symmetry_cell_setting 'orthorhombic'
loop_
_space_group_symop_operation_xyz
x,y,z
-x,-y,1/2+z
x,-y,1/2+z
-x,y,z
1/2+x,1/2+y,z
1/2-x,1/2-y,1/2+z
1/2+x,1/2-y,1/2+z
1/2-x,1/2+y,z
loop_
_atom_site_type_symbol
_atom_site_label
_atom_site_fract_x
_atom_site_fract_y
_atom_site_fract_z
Si Si1 0.335019 0.198540 0.645400
Si Si2 0.676969 0.260752 0.408580
Si Si3 0.326112 0.419794 0.432451
Si Si4 0.327622 0.321475 0.021119
Si Si5 0.825046 0.710598 0.784927
Si Si6 0.326956 0.560487 0.792844
Si Si7 0.673732 0.515122 0.546092
Si Si8 0.333671 0.031874 0.672256
O O1 0.500000 0.217694 0.620168
O O2 0.219784 0.216533 0.588416
O O3 0.300876 0.241682 0.712048
O O4 0.327517 0.116111 0.664021
O O5 0.500000 0.257192 0.399626
O O6 0.734706 0.339297 0.429272
O O7 0.728615 0.206368 0.462834
O O8 0.758464 0.238679 0.341084
O O9 0.500000 0.414863 0.443919
O O10 0.294411 0.464002 0.366403
O O11 0.255854 0.463428 0.491795
O O12 0.500000 0.305526 0.008563
O O13 0.292080 0.404535 0.025786
O O14 0.727895 0.640460 0.789797
O O15 0.000000 0.695549 0.796228
O O16 0.500000 0.558399 0.775984
O O17 0.243052 0.511585 0.740469
O O18 0.500000 0.503217 0.555012
O O19 0.749696 0.494328 0.613375
O O20 0.500000 0.002510 0.673916
#
# Coordination Sequence:
#
# PCOD8174468 Si02
#       8
#     8   8   8   8   8   8   8   8
#     4   8  15  27  43  63  89 118 147 184 226 269
#     4  10  19  31  48  68  94 125 154 187 227 276
#     4   8  16  30  48  69  90 117 154 189 222 266
#     4  10  19  29  46  70  94 120 150 189 230 269
#     4   9  16  27  44  67  93 117 148 192 234 270
#     4   9  15  25  43  66  90 118 152 188 227 269
#     4   9  17  31  49  68  91 119 153 190 227 270
#     4   9  16  26  41  65  93 118 148 187 229 269
#
# _framework density 18.183128
#
# number of rings (size 3 to 8) (size 9 to 14) (size 15 to 20)
#    0.000    3.000    0.000    3.375    0.000    4.000 
#    0.000    3.750    0.000    1.500    0.000    5.250 
#    0.000    0.000    0.000    0.000    0.000    0.000 
#
# Total GULP energy -396510.838382 kJ/mol
# GULP energy per Si atom -12390.963699 kJ/mol
# Density = 1.814174 g / cm^3
# Si number density = 18.183128 Si / 1000 Ang^3
#
#
#
# Elastic Constant Matrix: (Units=GPa)
#
#
# Indices 1 2 3 4 5 6 
#
# 1 62.5990 6.4275 12.8544 0.0000 0.0000 0.0000
# 2 6.4275 11.3227 -6.8895 0.0000 0.0000 0.0000
# 3 12.8544 -6.8895 32.7218 0.0000 0.0000 0.0000
# 4 0.0000 0.0000 0.0000 21.3732 0.0000 0.0000
# 5 0.0000 0.0000 0.0000 0.0000 35.1293 0.0000
# 6 0.0000 0.0000 0.0000 0.0000 0.0000 11.6418
#
#
#
# Elastic Compliance Matrix: (Units=1/GPa)
#
#
# Indices 1 2 3 4 5 6 
#
# 1 0.020367 -0.018844 -0.011969 0.000000 0.000000 0.000000
# 2 -0.018844 0.118731 0.032401 0.000000 0.000000 0.000000
# 3 -0.011969 0.032401 0.042084 0.000000 0.000000 0.000000
# 4 0.000000 0.000000 0.000000 0.046788 0.000000 0.000000
# 5 0.000000 0.000000 0.000000 0.000000 0.028466 0.000000
# 6 0.000000 0.000000 0.000000 0.000000 0.000000 0.085897
#
#
# Mechanical properties :
#
#
# Convention : Reuss Voigt Hill
#
# Bulk Modulus (GPa) = 5.42420 14.60313 10.01367
# Shear Modulus (GPa) = 12.48096 19.91226 16.19661
#
# Velocity S-wave (km/s) = 2.62277 3.31281 2.98778
# Velocity P-wave (km/s) = 3.48733 4.76251 4.17391
#
# Compressibility (1/GPa) = 0.18435887
#
# Stress axis : x y z
#
# Youngs Moduli (GPa) = 49.09836 8.42242 23.76177
#
# Poissons Ratio (x) = 0.15871 0.28440
# Poissons Ratio (y) = 0.92522 -0.76991
# Poissons Ratio (z) = 0.58764 -0.27290
#
# Static dielectric constant tensor:
#      x y z
#    x 3.358730 0.000000 0.000000 
#    y 0.000000 2.852400 0.000000 
#    z 0.000000 0.000000 4.027790 
# 
# 
# High freq. dielectric constant tensor:
#      x y z
#    x 1.703880 0.000000 0.000000 
#    y 0.000000 1.631610 0.000000 
#    z 0.000000 0.000000 1.729690 
# 
# From -- ./inp_files/14052.got.cif
#   From: 2010.03.12/outbox.cif.g09.slc.cpg/sg36_8_cif.got.tgz:14052.got - 2010.04.14 02:13:53.
