data_PCOD8174245
_publ_section_title
;
Structure prediction by ZEFSAII (Michael W. Deem and Ramdas Pophale) SiO2 
 PCOD8174245
Probable space group: C M C 21
;
_chemical_formula_sum "Si O2"
_cell_formula_units_Z 56
_cell_length_a 12.557454
_cell_length_b 17.763919
_cell_length_c 9.765431
_cell_angle_alpha 90.000000
_cell_angle_beta 90.000000
_cell_angle_gamma 90.000000
_cell_volume 2178.370745
_symmetry_space_group_name_H-M "C M C 21"
_symmetry_group_IT_number 36
_symmetry_cell_setting 'orthorhombic'
loop_
_space_group_symop_operation_xyz
x,y,z
-x,-y,1/2+z
x,-y,1/2+z
-x,y,z
1/2+x,1/2+y,z
1/2-x,1/2-y,1/2+z
1/2+x,1/2-y,1/2+z
1/2-x,1/2+y,z
loop_
_atom_site_type_symbol
_atom_site_label
_atom_site_fract_x
_atom_site_fract_y
_atom_site_fract_z
Si Si1 0.121843 0.544481 0.990420
Si Si2 0.125393 0.878955 0.461959
Si Si3 0.873628 0.829993 0.171511
Si Si4 0.686488 0.333178 0.753314
Si Si5 0.619470 0.079571 0.291428
Si Si6 0.623478 0.546899 0.465606
Si Si7 0.125350 0.289126 0.460058
O O1 0.172026 0.472399 0.910869
O O2 0.000000 0.547738 0.935624
O O3 0.124382 0.530412 0.152434
O O4 0.177698 0.626557 0.956806
O O5 0.166661 0.832536 0.328069
O O6 0.151932 0.830368 0.595550
O O7 0.000000 0.888700 0.443368
O O8 0.178925 0.963249 0.468091
O O9 0.830815 0.904185 0.092088
O O10 0.826635 0.756927 0.090837
O O11 0.000000 0.827488 0.156488
O O12 0.813876 0.343617 0.773759
O O13 0.634666 0.407640 0.822833
O O14 0.646798 0.255738 0.820298
O O15 0.500000 0.106091 0.325603
O O16 0.500000 0.531392 0.489871
O O17 0.000000 0.300839 0.481510
#
# Coordination Sequence:
#
# PCOD8174245 Si02
#       7
#     8   8   8   8   8   8   8
#     4   9  20  44  72  91 118 161 216 272 320 369
#     4  10  18  29  48  84 133 174 207 247 303 381
#     4   8  15  28  48  79 121 166 204 239 297 377
#     4  11  21  33  59  94 127 164 207 268 313 378
#     4  10  23  44  68  92 120 167 221 274 318 359
#     4   9  17  30  49  80 127 174 209 246 308 381
#     4   9  18  38  66  96 130 170 202 246 323 393
#
# _framework density 25.707284999999999
#
# number of rings (size 3 to 8) (size 9 to 14) (size 15 to 20)
#    0.000    2.571    0.000    3.000    2.000    2.286 
#    0.000    4.286    0.000    6.857    0.000    2.000 
#    0.000    0.000    0.000    0.000    0.000    0.000 
#
# Total GULP energy -347243.267110 kJ/mol
# GULP energy per Si atom -12401.545254 kJ/mol
# Density = 2.564877 g / cm^3
# Si number density = 25.707285 Si / 1000 Ang^3
#
#
#
# Elastic Constant Matrix: (Units=GPa)
#
#
# Indices 1 2 3 4 5 6 
#
# 1 20.7515 13.3975 3.3010 0.0000 0.0000 0.0000
# 2 13.3975 121.0989 37.4984 0.0000 0.0000 0.0000
# 3 3.3010 37.4984 163.9477 0.0000 0.0000 0.0000
# 4 0.0000 0.0000 0.0000 18.7535 0.0000 0.0000
# 5 0.0000 0.0000 0.0000 0.0000 26.1696 0.0000
# 6 0.0000 0.0000 0.0000 0.0000 0.0000 31.4090
#
#
#
# Elastic Compliance Matrix: (Units=1/GPa)
#
#
# Indices 1 2 3 4 5 6 
#
# 1 0.051909 -0.005832 0.000289 0.000000 0.000000 0.000000
# 2 -0.005832 0.009542 -0.002065 0.000000 0.000000 0.000000
# 3 0.000289 -0.002065 0.006566 0.000000 0.000000 0.000000
# 4 0.000000 0.000000 0.000000 0.053323 0.000000 0.000000
# 5 0.000000 0.000000 0.000000 0.000000 0.038212 0.000000
# 6 0.000000 0.000000 0.000000 0.000000 0.000000 0.031838
#
#
# Mechanical properties :
#
#
# Convention : Reuss Voigt Hill
#
# Bulk Modulus (GPa) = 18.93939 46.02132 32.48036
# Shear Modulus (GPa) = 22.30073 32.03983 27.17028
#
# Velocity S-wave (km/s) = 2.94851 3.53417 3.25454
# Velocity P-wave (km/s) = 4.35602 5.88173 5.17541
#
# Compressibility (1/GPa) = 0.05280002
#
# Stress axis : x y z
#
# Youngs Moduli (GPa) = 19.26460 104.79521 152.29895
#
# Poissons Ratio (x) = 0.61119 -0.04399
# Poissons Ratio (y) = 0.11236 0.31452
# Poissons Ratio (z) = -0.00556 0.21642
#
# Static dielectric constant tensor:
#      x y z
#    x 4.893320 0.000000 0.000000 
#    y 0.000000 4.700970 0.000000 
#    z 0.000000 0.000000 4.568300 
# 
# 
# High freq. dielectric constant tensor:
#      x y z
#    x 2.056470 0.000000 0.000000 
#    y 0.000000 2.024990 0.000000 
#    z 0.000000 0.000000 2.022030 
# 
# From -- ./inp_files/4205.got.cif
#   From: 2010.03.12/outbox.cif.g09.slc.cpg/sg36_3_cif.got.tgz:4205.got - 2010.04.14 02:13:53.
