data_PCOD8174855
_publ_section_title
;
Structure prediction by ZEFSAII (Michael W. Deem and Ramdas Pophale) SiO2 
 PCOD8174855
Probable space group: C M C 21
;
_chemical_formula_sum "Si O2"
_cell_formula_units_Z 64
_cell_length_a 8.544744
_cell_length_b 22.595358
_cell_length_c 16.430336
_cell_angle_alpha 90.000000
_cell_angle_beta 90.000000
_cell_angle_gamma 90.000000
_cell_volume 3172.230434
_symmetry_space_group_name_H-M "C M C 21"
_symmetry_group_IT_number 36
_symmetry_cell_setting 'orthorhombic'
loop_
_space_group_symop_operation_xyz
x,y,z
-x,-y,1/2+z
x,-y,1/2+z
-x,y,z
1/2+x,1/2+y,z
1/2-x,1/2-y,1/2+z
1/2+x,1/2-y,1/2+z
1/2-x,1/2+y,z
loop_
_atom_site_type_symbol
_atom_site_label
_atom_site_fract_x
_atom_site_fract_y
_atom_site_fract_z
Si Si1 0.678562 0.738821 0.572790
Si Si2 0.683157 0.530359 0.430445
Si Si3 0.679182 0.407027 0.379480
Si Si4 0.179665 0.100254 0.582639
Si Si5 0.679554 0.036855 0.725430
Si Si6 0.313859 0.578531 0.260557
Si Si7 0.685251 0.287912 0.739909
Si Si8 0.682336 0.781702 0.399249
O O1 0.500000 0.760426 0.580588
O O2 0.691130 0.669102 0.567355
O O3 0.766594 0.760468 0.653566
O O4 0.753792 0.762166 0.487192
O O5 0.500000 0.541191 0.424451
O O6 0.719354 0.460118 0.442847
O O7 0.751066 0.566655 0.505156
O O8 0.753678 0.558595 0.348404
O O9 0.500000 0.385516 0.387340
O O10 0.704105 0.437498 0.292946
O O11 0.791769 0.351624 0.391267
O O12 0.299129 0.081899 0.652053
O O13 0.000000 0.081427 0.601635
O O14 0.500000 0.037623 0.754275
O O15 0.735728 0.970231 0.700242
O O16 0.500000 0.575655 0.252312
O O17 0.252965 0.644575 0.241988
O O18 0.500000 0.285840 0.745367
O O19 0.753749 0.252276 0.819385
O O20 0.500000 0.767090 0.401649
#
# Coordination Sequence:
#
# PCOD8174855 Si02
#       8
#     8   8   8   8   8   8   8   8
#     4  10  22  37  56  83 115 148 186 230 281 336
#     4   8  16  32  56  79  99 129 178 229 267 313
#     4  10  20  36  57  81 107 142 186 227 269 327
#     4  10  19  35  57  79 105 142 184 225 270 326
#     4  11  22  35  53  80 111 142 175 223 280 330
#     4   9  18  36  58  79 103 138 183 226 270 329
#     4  10  21  37  59  82 110 149 191 231 275 328
#     4  10  21  38  58  83 116 152 185 229 284 333
#
# _framework density 20.175080000000001
#
# number of rings (size 3 to 8) (size 9 to 14) (size 15 to 20)
#    0.000    2.250    0.000    3.750    0.000    8.000 
#    0.000    6.875    0.000    4.500    0.000    0.000 
#    0.000    0.000    0.000    0.000    0.000    0.000 
#
# Total GULP energy -396590.351136 kJ/mol
# GULP energy per Si atom -12393.448473 kJ/mol
# Density = 2.012916 g / cm^3
# Si number density = 20.175080 Si / 1000 Ang^3
#
#
#
# Elastic Constant Matrix: (Units=GPa)
#
#
# Indices 1 2 3 4 5 6 
#
# 1 29.6124 18.5684 11.9279 0.0000 0.0000 0.0000
# 2 18.5684 121.9475 47.7426 0.0000 0.0000 0.0000
# 3 11.9279 47.7426 111.4427 0.0000 0.0000 0.0000
# 4 0.0000 0.0000 0.0000 35.1809 0.0000 0.0000
# 5 0.0000 0.0000 0.0000 0.0000 20.3624 0.0000
# 6 0.0000 0.0000 0.0000 0.0000 0.0000 23.4023
#
#
#
# Elastic Compliance Matrix: (Units=1/GPa)
#
#
# Indices 1 2 3 4 5 6 
#
# 1 0.037663 -0.004994 -0.001892 0.000000 0.000000 0.000000
# 2 -0.004994 0.010515 -0.003970 0.000000 0.000000 0.000000
# 3 -0.001892 -0.003970 0.010877 0.000000 0.000000 0.000000
# 4 0.000000 0.000000 0.000000 0.028425 0.000000 0.000000
# 5 0.000000 0.000000 0.000000 0.000000 0.049110 0.000000
# 6 0.000000 0.000000 0.000000 0.000000 0.000000 0.042731
#
#
# Mechanical properties :
#
#
# Convention : Reuss Voigt Hill
#
# Bulk Modulus (GPa) = 26.77894 46.60893 36.69394
# Shear Modulus (GPa) = 23.42143 28.10671 25.76407
#
# Velocity S-wave (km/s) = 3.41091 3.73653 3.57742
# Velocity P-wave (km/s) = 5.36791 6.46281 5.94064
#
# Compressibility (1/GPa) = 0.03734277
#
# Stress axis : x y z
#
# Youngs Moduli (GPa) = 26.55109 95.10201 91.94129
#
# Poissons Ratio (x) = 0.47496 0.17391
# Poissons Ratio (y) = 0.13260 0.36502
# Poissons Ratio (z) = 0.05022 0.37757
#
# Static dielectric constant tensor:
#      x y z
#    x 3.348560 0.000000 0.000000 
#    y 0.000000 3.857540 0.000000 
#    z 0.000000 0.000000 3.879280 
# 
# 
# High freq. dielectric constant tensor:
#      x y z
#    x 1.755500 0.000000 0.000000 
#    y 0.000000 1.803220 0.000000 
#    z 0.000000 0.000000 1.785000 
# 
# From -- ./inp_files/11104.got.cif
#   From: 2010.03.12/outbox.cif.g09.slc.cpg/sg36_6_cif.got.tgz:11104.got - 2010.04.14 02:13:53.
