data_PCOD8174908
_publ_section_title
;
Structure prediction by ZEFSAII (Michael W. Deem and Ramdas Pophale) SiO2 
 PCOD8174908
Probable space group: C M C 21
;
_chemical_formula_sum "Si O2"
_cell_formula_units_Z 64
_cell_length_a 9.047696
_cell_length_b 15.356155
_cell_length_c 23.722951
_cell_angle_alpha 90.000000
_cell_angle_beta 90.000000
_cell_angle_gamma 90.000000
_cell_volume 3296.015147
_symmetry_space_group_name_H-M "C M C 21"
_symmetry_group_IT_number 36
_symmetry_cell_setting 'orthorhombic'
loop_
_space_group_symop_operation_xyz
x,y,z
-x,-y,1/2+z
x,-y,1/2+z
-x,y,z
1/2+x,1/2+y,z
1/2-x,1/2-y,1/2+z
1/2+x,1/2-y,1/2+z
1/2-x,1/2+y,z
loop_
_atom_site_type_symbol
_atom_site_label
_atom_site_fract_x
_atom_site_fract_y
_atom_site_fract_z
Si Si1 0.672209 0.150401 0.350340
Si Si2 0.325222 0.596288 0.980060
Si Si3 0.168318 0.418043 0.973657
Si Si4 0.826929 0.333986 0.588506
Si Si5 0.175185 0.154868 0.859023
Si Si6 0.831711 0.336185 0.090269
Si Si7 0.171899 0.497223 0.663681
Si Si8 0.324638 0.498473 0.781775
O O1 0.500000 0.138676 0.336129
O O2 0.705318 0.128988 0.415272
O O3 0.725886 0.249338 0.339137
O O4 0.764445 0.089581 0.309192
O O5 0.500000 0.604571 0.984891
O O6 0.280702 0.495932 0.984125
O O7 0.263614 0.634643 0.921318
O O8 0.254503 0.651241 0.029816
O O9 0.000000 0.454036 0.974755
O O10 0.190495 0.348285 0.023306
O O11 0.773488 0.240969 0.612525
O O12 0.783875 0.407406 0.633561
O O13 0.000000 0.333563 0.577208
O O14 0.000000 0.150700 0.861213
O O15 0.236555 0.082065 0.816120
O O16 0.787544 0.424890 0.121555
O O17 0.000000 0.310732 0.104178
O O18 0.270393 0.507816 0.718504
O O19 0.000000 0.497763 0.680465
O O20 0.500000 0.494830 0.783012
#
# Coordination Sequence:
#
# PCOD8174908 Si02
#       8
#     8   8   8   8   8   8   8   8
#     4  10  20  37  62  86 116 157 194 227 289 360
#     4  11  20  35  61  89 122 157 193 237 295 354
#     4  10  19  35  60  89 122 157 191 234 292 355
#     4  11  23  40  61  89 121 153 196 243 293 354
#     4   9  20  38  59  85 118 155 189 234 291 347
#     4  10  21  40  63  88 121 156 193 239 296 353
#     4  10  23  43  62  81 115 158 198 241 294 353
#     4  11  23  40  60  85 117 149 198 253 292 336
#
# _framework density 19.417387999999999
#
# number of rings (size 3 to 8) (size 9 to 14) (size 15 to 20)
#    0.000    1.750    2.500    1.875    0.000    5.000 
#    0.000    7.500    0.000    0.000    0.000    0.000 
#    0.000    0.000    0.000    0.000    0.000    0.000 
#
# Total GULP energy -396916.964880 kJ/mol
# GULP energy per Si atom -12403.655153 kJ/mol
# Density = 1.937319 g / cm^3
# Si number density = 19.417388 Si / 1000 Ang^3
#
#
#
# Elastic Constant Matrix: (Units=GPa)
#
#
# Indices 1 2 3 4 5 6 
#
# 1 59.3951 34.3932 34.1630 0.0000 0.0000 0.0000
# 2 34.3932 116.3384 23.1537 0.0000 0.0000 0.0000
# 3 34.1630 23.1537 88.7163 0.0000 0.0000 0.0000
# 4 0.0000 0.0000 0.0000 14.5034 0.0000 0.0000
# 5 0.0000 0.0000 0.0000 0.0000 30.5126 0.0000
# 6 0.0000 0.0000 0.0000 0.0000 0.0000 35.2727
#
#
#
# Elastic Compliance Matrix: (Units=1/GPa)
#
#
# Indices 1 2 3 4 5 6 
#
# 1 0.024780 -0.005724 -0.008049 0.000000 0.000000 0.000000
# 2 -0.005724 0.010389 -0.000507 0.000000 0.000000 0.000000
# 3 -0.008049 -0.000507 0.014504 0.000000 0.000000 0.000000
# 4 0.000000 0.000000 0.000000 0.068949 0.000000 0.000000
# 5 0.000000 0.000000 0.000000 0.000000 0.032773 0.000000
# 6 0.000000 0.000000 0.000000 0.000000 0.000000 0.028351
#
#
# Mechanical properties :
#
#
# Convention : Reuss Voigt Hill
#
# Bulk Modulus (GPa) = 47.36347 49.76328 48.56338
# Shear Modulus (GPa) = 23.21877 27.57372 25.39624
#
# Velocity S-wave (km/s) = 3.46174 3.77245 3.62043
# Velocity P-wave (km/s) = 6.35795 6.68274 6.52236
#
# Compressibility (1/GPa) = 0.02111332
#
# Stress axis : x y z
#
# Youngs Moduli (GPa) = 40.35461 96.25816 68.94850
#
# Poissons Ratio (x) = 0.55098 0.55494
# Poissons Ratio (y) = 0.23099 0.03496
# Poissons Ratio (z) = 0.32480 0.04881
#
# Static dielectric constant tensor:
#      x y z
#    x 3.420670 0.000000 0.000000 
#    y 0.000000 3.764200 0.000000 
#    z 0.000000 0.000000 3.556470 
# 
# 
# High freq. dielectric constant tensor:
#      x y z
#    x 1.741300 0.000000 0.000000 
#    y 0.000000 1.769070 0.000000 
#    z 0.000000 0.000000 1.756300 
# 
# From -- ./inp_files/16594.got.cif
#   From: 2010.03.12/outbox.cif.g09.slc.cpg/sg36_9_cif.got.tgz:16594.got - 2010.04.14 02:13:53.
