data_PCOD8174379
_publ_section_title
;
Structure prediction by ZEFSAII (Michael W. Deem and Ramdas Pophale) SiO2 
 PCOD8174379
Probable space group: C M C 21
;
_chemical_formula_sum "Si O2"
_cell_formula_units_Z 56
_cell_length_a 26.087095
_cell_length_b 5.320900
_cell_length_c 18.896494
_cell_angle_alpha 90.000000
_cell_angle_beta 90.000000
_cell_angle_gamma 90.000000
_cell_volume 2622.962313
_symmetry_space_group_name_H-M "C M C 21"
_symmetry_group_IT_number 36
_symmetry_cell_setting 'orthorhombic'
loop_
_space_group_symop_operation_xyz
x,y,z
-x,-y,1/2+z
x,-y,1/2+z
-x,y,z
1/2+x,1/2+y,z
1/2-x,1/2-y,1/2+z
1/2+x,1/2-y,1/2+z
1/2-x,1/2+y,z
loop_
_atom_site_type_symbol
_atom_site_label
_atom_site_fract_x
_atom_site_fract_y
_atom_site_fract_z
Si Si1 0.882791 0.999941 0.903190
Si Si2 0.442182 0.000056 0.401933
Si Si3 0.233346 0.999941 0.893673
Si Si4 0.557063 0.999930 0.069775
Si Si5 0.310090 0.499940 0.691573
Si Si6 0.202877 0.500061 0.248363
Si Si7 0.615038 0.499928 0.071075
O O1 0.912553 0.248790 0.876473
O O2 0.825830 0.999938 0.871078
O O3 0.912555 0.751099 0.876471
O O4 0.875404 0.999938 0.987641
O O5 0.500000 0.000062 0.370463
O O6 0.445244 0.000044 0.485637
O O7 0.249999 0.249943 0.937396
O O8 0.269815 0.999957 0.824399
O O9 0.500000 0.000022 0.101567
O O10 0.584744 0.252024 0.096142
O O11 0.584706 0.747729 0.096135
O O12 0.248353 0.499926 0.689460
O O13 0.330279 0.251978 0.734692
O O14 0.330848 0.499967 0.611484
O O15 0.330277 0.747889 0.734700
#
# Coordination Sequence:
#
# PCOD8174379 Si02
#       7
#     8   8   8   8   8   8   8
#     4  10  21  33  51  84 112 141 174 211 274 322
#     4   9  17  33  54  77 110 143 175 213 256 321
#     4  12  21  38  55  74 109 139 186 226 255 314
#     4   9  17  30  50  74 107 142 167 202 250 315
#     4  10  18  33  52  73  98 130 167 226 244 293
#     4  10  19  35  53  71  94 125 189 216 243 289
#     4  10  19  32  49  79 111 132 170 208 262 318
#
# _framework density 21.349907000000002
#
# number of rings (size 3 to 8) (size 9 to 14) (size 15 to 20)
#    0.000    2.000    2.857    2.571    0.000    3.429 
#    5.143    0.000    0.000    0.000    0.000    6.000 
#    0.000    0.000    0.000    0.000    0.000    0.000 
#
# Total GULP energy -346918.705879 kJ/mol
# GULP energy per Si atom -12389.953781 kJ/mol
# Density = 2.130131 g / cm^3
# Si number density = 21.349907 Si / 1000 Ang^3
#
#
#
# Elastic Constant Matrix: (Units=GPa)
#
#
# Indices 1 2 3 4 5 6 
#
# 1 87.9330 46.6976 -1.5222 0.0000 0.0000 0.0000
# 2 46.6976 245.3195 6.3635 0.0000 0.0000 0.0000
# 3 -1.5222 6.3635 24.9541 0.0000 0.0000 0.0000
# 4 0.0000 0.0000 0.0000 1.4566 0.0000 0.0000
# 5 0.0000 0.0000 0.0000 0.0000 15.6742 0.0000
# 6 0.0000 0.0000 0.0000 0.0000 0.0000 34.4856
#
#
#
# Elastic Compliance Matrix: (Units=1/GPa)
#
#
# Indices 1 2 3 4 5 6 
#
# 1 0.012700 -0.002454 0.001400 0.000000 0.000000 0.000000
# 2 -0.002454 0.004578 -0.001317 0.000000 0.000000 0.000000
# 3 0.001400 -0.001317 0.040495 0.000000 0.000000 0.000000
# 4 0.000000 0.000000 0.000000 0.686522 0.000000 0.000000
# 5 0.000000 0.000000 0.000000 0.000000 0.063799 0.000000
# 6 0.000000 0.000000 0.000000 0.000000 0.000000 0.028998
#
#
# Mechanical properties :
#
#
# Convention : Reuss Voigt Hill
#
# Bulk Modulus (GPa) = 18.85677 51.25382 35.05529
# Shear Modulus (GPa) = 5.81728 30.76780 18.29254
#
# Velocity S-wave (km/s) = 1.65247 3.80033 2.93029
# Velocity P-wave (km/s) = 3.53444 6.58144 5.28241
#
# Compressibility (1/GPa) = 0.05303136
#
# Stress axis : x y z
#
# Youngs Moduli (GPa) = 78.74254 218.45695 24.69449
#
# Poissons Ratio (x) = 0.53604 -0.03458
# Poissons Ratio (y) = 0.19321 0.03252
# Poissons Ratio (z) = -0.11027 0.28771
#
# Static dielectric constant tensor:
#      x y z
#    x 3.766380 0.000000 0.000000 
#    y 0.000000 5.455310 0.000000 
#    z 0.000000 0.000000 3.208740 
# 
# 
# High freq. dielectric constant tensor:
#      x y z
#    x 1.815340 0.000000 0.000000 
#    y 0.000000 1.882210 0.000000 
#    z 0.000000 0.000000 1.772260 
# 
# From -- ./inp_files/16322.got.cif
#   From: 2010.03.12/outbox.cif.g09.slc.cpg/sg36_9_cif.got.tgz:16322.got - 2010.04.14 02:13:53.
