data_PCOD8174426
_publ_section_title
;
Structure prediction by ZEFSAII (Michael W. Deem and Ramdas Pophale) SiO2 
 PCOD8174426
Probable space group: C M C 21
;
_chemical_formula_sum "Si O2"
_cell_formula_units_Z 64
_cell_length_a 17.633630
_cell_length_b 20.282172
_cell_length_c 9.428534
_cell_angle_alpha 90.000000
_cell_angle_beta 90.000000
_cell_angle_gamma 90.000000
_cell_volume 3372.099314
_symmetry_space_group_name_H-M "C M C 21"
_symmetry_group_IT_number 36
_symmetry_cell_setting 'orthorhombic'
loop_
_space_group_symop_operation_xyz
x,y,z
-x,-y,1/2+z
x,-y,1/2+z
-x,y,z
1/2+x,1/2+y,z
1/2-x,1/2-y,1/2+z
1/2+x,1/2-y,1/2+z
1/2-x,1/2+y,z
loop_
_atom_site_type_symbol
_atom_site_label
_atom_site_fract_x
_atom_site_fract_y
_atom_site_fract_z
Si Si1 0.665804 0.500534 0.752360
Si Si2 0.166255 0.409188 0.078586
Si Si3 0.188056 0.441994 0.634156
Si Si4 0.587869 0.427242 0.991717
Si Si5 0.203434 0.177119 0.473045
Si Si6 0.087758 0.644815 0.328826
Si Si7 0.737824 0.883303 0.360899
Si Si8 0.206116 0.751472 0.259408
O O1 0.729932 0.448081 0.707205
O O2 0.627306 0.533406 0.617722
O O3 0.706627 0.554816 0.848650
O O4 0.601761 0.464351 0.843563
O O5 0.159746 0.488216 0.071311
O O6 0.171528 0.384340 0.240960
O O7 0.243660 0.386622 0.000974
O O8 0.096833 0.374127 0.995878
O O9 0.125494 0.415195 0.742520
O O10 0.195032 0.387199 0.510768
O O11 0.500000 0.421977 0.024200
O O12 0.618723 0.351975 0.978891
O O13 0.215057 0.234076 0.592085
O O14 0.224016 0.206908 0.318660
O O15 0.127270 0.714604 0.293272
O O16 0.000000 0.651226 0.289660
O O17 0.791171 0.819471 0.347154
#
# Coordination Sequence:
#
# PCOD8174426 Si02
#       8
#     8   8   8   8   8   8   8   8
#     4  11  20  39  60  90 117 156 193 239 296 356
#     4   9  18  36  60  80 109 140 186 240 289 331
#     4  11  19  35  64  84 109 143 194 246 279 345
#     4  12  23  37  58  90 129 156 186 243 312 363
#     4  10  19  38  58  87 107 152 200 244 281 341
#     4  11  24  37  52  83 118 150 183 233 298 350
#     4  10  18  34  62  88 100 143 207 237 272 329
#     4  10  20  36  59  78 111 152 201 242 274 341
#
# _framework density 18.979275000000001
#
# number of rings (size 3 to 8) (size 9 to 14) (size 15 to 20)
#    0.000    1.500    5.000    4.125    0.000    1.000 
#    0.000    0.625    0.000    9.750    0.000    0.000 
#    0.000    0.000    0.000    0.000    0.000    0.000 
#
# Total GULP energy -396736.265669 kJ/mol
# GULP energy per Si atom -12398.008302 kJ/mol
# Density = 1.893608 g / cm^3
# Si number density = 18.979275 Si / 1000 Ang^3
#
#
#
# Elastic Constant Matrix: (Units=GPa)
#
#
# Indices 1 2 3 4 5 6 
#
# 1 111.6312 38.8328 45.2605 0.0000 0.0000 0.0000
# 2 38.8328 100.3604 38.4688 0.0000 0.0000 0.0000
# 3 45.2605 38.4688 70.4442 0.0000 0.0000 0.0000
# 4 0.0000 0.0000 0.0000 26.2602 0.0000 0.0000
# 5 0.0000 0.0000 0.0000 0.0000 21.6890 0.0000
# 6 0.0000 0.0000 0.0000 0.0000 0.0000 17.3257
#
#
#
# Elastic Compliance Matrix: (Units=1/GPa)
#
#
# Indices 1 2 3 4 5 6 
#
# 1 0.012494 -0.002223 -0.006814 0.000000 0.000000 0.000000
# 2 -0.002223 0.012997 -0.005670 0.000000 0.000000 0.000000
# 3 -0.006814 -0.005670 0.021669 0.000000 0.000000 0.000000
# 4 0.000000 0.000000 0.000000 0.038080 0.000000 0.000000
# 5 0.000000 0.000000 0.000000 0.000000 0.046106 0.000000
# 6 0.000000 0.000000 0.000000 0.000000 0.000000 0.057718
#
#
# Mechanical properties :
#
#
# Convention : Reuss Voigt Hill
#
# Bulk Modulus (GPa) = 56.34126 58.61776 57.47951
# Shear Modulus (GPa) = 22.28235 23.71323 22.99779
#
# Velocity S-wave (km/s) = 3.43014 3.53856 3.48477
# Velocity P-wave (km/s) = 6.74077 6.90271 6.82222
#
# Compressibility (1/GPa) = 0.01774898
#
# Stress axis : x y z
#
# Youngs Moduli (GPa) = 80.03996 76.93905 46.14785
#
# Poissons Ratio (x) = 0.17100 0.31443
# Poissons Ratio (y) = 0.17790 0.26164
# Poissons Ratio (z) = 0.54535 0.43622
#
# Static dielectric constant tensor:
#      x y z
#    x 3.162590 0.000000 0.000000 
#    y 0.000000 3.569570 0.000000 
#    z 0.000000 0.000000 3.678440 
# 
# 
# High freq. dielectric constant tensor:
#      x y z
#    x 1.694510 0.000000 0.000000 
#    y 0.000000 1.746060 0.000000 
#    z 0.000000 0.000000 1.750480 
# 
# From -- ./inp_files/4944.got.cif
#   From: 2010.03.12/outbox.cif.g09.slc.cpg/sg36_3_cif.got.tgz:4944.got - 2010.04.14 02:13:53.
