data_PCOD8174037
_publ_section_title
;
Structure prediction by ZEFSAII (Michael W. Deem and Ramdas Pophale) SiO2 
 PCOD8174037
Probable space group: C M M 2
;
_chemical_formula_sum "Si O2"
_cell_formula_units_Z 48
_cell_length_a 27.251158
_cell_length_b 9.961842
_cell_length_c 8.874821
_cell_angle_alpha 90.000000
_cell_angle_beta 90.000000
_cell_angle_gamma 90.000000
_cell_volume 2409.263013
_symmetry_space_group_name_H-M "C M M 2"
_symmetry_group_IT_number 35
_symmetry_cell_setting 'orthorhombic'
loop_
_space_group_symop_operation_xyz
x,y,z
-x,-y,z
-x,y,z
x,-y,z
1/2+x,1/2+y,z
1/2-x,1/2-y,z
1/2-x,1/2+y,z
1/2+x,1/2-y,z
loop_
_atom_site_type_symbol
_atom_site_label
_atom_site_fract_x
_atom_site_fract_y
_atom_site_fract_z
Si Si1 0.788715 0.000000 0.242540
Si Si2 0.943941 0.346766 0.769151
Si Si3 0.643520 0.748545 0.219981
Si Si4 0.555830 0.345583 0.041958
Si Si5 0.809278 0.000000 0.585050
Si Si6 0.707607 0.000000 0.721100
Si Si7 0.856060 0.720865 0.567452
Si Si8 0.186615 0.500000 0.071779
O O1 0.816887 0.132664 0.189624
O O2 0.735610 0.000000 0.169994
O O3 0.783092 0.000000 0.422549
O O4 0.936333 0.500000 0.824533
O O5 0.909805 0.318167 0.626011
O O6 0.000000 0.321544 0.718744
O O7 0.928537 0.247188 0.902398
O O8 0.589709 0.689758 0.184425
O O9 0.644583 0.803253 0.389289
O O10 0.654985 0.869143 0.107694
O O11 0.500000 0.316350 0.091111
O O12 0.562840 0.500000 0.993365
O O13 0.844783 0.874132 0.607478
O O14 0.766325 0.000000 0.707763
O O15 0.685863 0.131725 0.643290
O O16 0.696484 0.000000 0.896078
#
# Coordination Sequence:
#
# PCOD8174037 Si02
#       8
#     4   8   8   8   4   4   8   4
#     4  10  22  44  61  88 123 161 204 252 305 361
#     4  10  22  41  64  92 126 163 203 252 305 362
#     4  11  23  41  64  91 122 162 205 253 306 362
#     4  10  22  41  65  93 126 162 202 252 308 364
#     4  10  24  40  63  88 123 163 202 252 305 363
#     4  12  24  42  59  92 125 160 206 252 303 366
#     4  11  23  41  64  90 123 162 206 252 305 361
#     4  12  26  38  63  92 123 160 204 254 307 366
#
# _framework density 19.923105
#
# number of rings (size 3 to 8) (size 9 to 14) (size 15 to 20)
#    0.000    1.333    1.667    3.500    2.333    7.333 
#    0.000    0.000    0.000    0.000    0.000    0.000 
#    0.000    0.000    0.000    0.000    0.000    0.000 
#
# Total GULP energy -297743.630624 kJ/mol
# GULP energy per Si atom -12405.984609 kJ/mol
# Density = 1.987776 g / cm^3
# Si number density = 19.923105 Si / 1000 Ang^3
#
#
#
# Elastic Constant Matrix: (Units=GPa)
#
#
# Indices 1 2 3 4 5 6 
#
# 1 96.3684 33.5224 32.4780 0.0000 0.0000 0.0000
# 2 33.5224 134.8210 45.0335 0.0000 0.0000 0.0000
# 3 32.4780 45.0335 88.7987 0.0000 0.0000 0.0000
# 4 0.0000 0.0000 0.0000 22.2787 0.0000 0.0000
# 5 0.0000 0.0000 0.0000 0.0000 36.4312 0.0000
# 6 0.0000 0.0000 0.0000 0.0000 0.0000 34.6893
#
#
#
# Elastic Compliance Matrix: (Units=1/GPa)
#
#
# Indices 1 2 3 4 5 6 
#
# 1 0.012211 -0.001859 -0.003523 0.000000 0.000000 0.000000
# 2 -0.001859 0.009213 -0.003992 0.000000 0.000000 0.000000
# 3 -0.003523 -0.003992 0.014575 0.000000 0.000000 0.000000
# 4 0.000000 0.000000 0.000000 0.044886 0.000000 0.000000
# 5 0.000000 0.000000 0.000000 0.000000 0.027449 0.000000
# 6 0.000000 0.000000 0.000000 0.000000 0.000000 0.028827
#
#
# Mechanical properties :
#
#
# Convention : Reuss Voigt Hill
#
# Bulk Modulus (GPa) = 57.97405 60.22845 59.10125
# Shear Modulus (GPa) = 30.92905 32.61013 31.76959
#
# Velocity S-wave (km/s) = 3.94435 4.05013 3.99759
# Velocity P-wave (km/s) = 7.06442 7.22270 7.14400
#
# Compressibility (1/GPa) = 0.01724910
#
# Stress axis : x y z
#
# Youngs Moduli (GPa) = 81.89322 108.54142 68.61217
#
# Poissons Ratio (x) = 0.20182 0.24174
# Poissons Ratio (y) = 0.15227 0.27392
# Poissons Ratio (z) = 0.28853 0.43333
#
# Static dielectric constant tensor:
#      x y z
#    x 3.654240 0.000000 0.000000 
#    y 0.000000 3.882510 0.000000 
#    z 0.000000 0.000000 3.494470 
# 
# 
# High freq. dielectric constant tensor:
#      x y z
#    x 1.786390 0.000000 0.000000 
#    y 0.000000 1.798480 0.000000 
#    z 0.000000 0.000000 1.767310 
# 
# From -- ./inp_files/10535.got.cif
#   From: 2010.03.12/outbox.cif.g09.slc.cpg/sg35_6_cif.got.tgz:10535.got - 2010.04.14 02:02:04.
