data_PCOD8174427
_publ_section_title
;
Structure prediction by ZEFSAII (Michael W. Deem and Ramdas Pophale) SiO2 
 PCOD8174427
Probable space group: C M C 21
;
_chemical_formula_sum "Si O2"
_cell_formula_units_Z 44
_cell_length_a 14.903714
_cell_length_b 19.123809
_cell_length_c 7.534794
_cell_angle_alpha 90.000000
_cell_angle_beta 90.000000
_cell_angle_gamma 90.000000
_cell_volume 2147.535188
_symmetry_space_group_name_H-M "C M C 21"
_symmetry_group_IT_number 36
_symmetry_cell_setting 'orthorhombic'
loop_
_space_group_symop_operation_xyz
x,y,z
-x,-y,1/2+z
x,-y,1/2+z
-x,y,z
1/2+x,1/2+y,z
1/2-x,1/2-y,1/2+z
1/2+x,1/2-y,1/2+z
1/2-x,1/2+y,z
loop_
_atom_site_type_symbol
_atom_site_label
_atom_site_fract_x
_atom_site_fract_y
_atom_site_fract_z
Si Si1 0.500000 0.756217 0.151271
Si Si2 0.830093 0.684910 0.832346
Si Si3 0.000000 0.818934 0.995739
Si Si4 0.102203 0.452317 0.271510
Si Si5 0.500000 0.199877 0.273198
Si Si6 0.307773 0.323963 0.039774
Si Si7 0.350506 0.903065 0.884811
O O1 0.591109 0.798337 0.191422
O O2 0.500000 0.688385 0.279798
O O3 0.500000 0.744042 0.938363
O O4 0.854954 0.606855 0.904469
O O5 0.734738 0.678892 0.733462
O O6 0.820930 0.743294 0.981397
O O7 0.000000 0.741313 0.087236
O O8 0.091930 0.858269 0.051880
O O9 0.158053 0.524265 0.277638
O O10 0.000000 0.467233 0.329080
O O11 0.106979 0.421875 0.074083
O O12 0.587601 0.151342 0.279654
O O13 0.248396 0.369000 0.903270
#
# Coordination Sequence:
#
# PCOD8174427 Si02
#       7
#     4   8   4   8   4   8   8
#     4  10  18  35  54  83 122 147 186 240 293 357
#     4  10  19  35  55  79 119 151 192 242 297 358
#     4  10  24  34  59  83 112 160 207 245 293 336
#     4  11  19  35  54  82 119 154 182 241 305 376
#     4  12  18  37  57  86 120 159 183 243 300 367
#     4  10  21  36  53  84 113 157 200 249 285 358
#     4  11  22  35  55  84 124 157 195 239 306 368
#
# _framework density 20.488605
#
# number of rings (size 3 to 8) (size 9 to 14) (size 15 to 20)
#    0.000    1.455    6.364    1.091    0.000    4.364 
#    0.000    0.000    0.000    4.364    0.000    0.000 
#    0.000    0.000    0.000    0.000    0.000    0.000 
#
# Total GULP energy -272610.240728 kJ/mol
# GULP energy per Si atom -12391.374579 kJ/mol
# Density = 2.044197 g / cm^3
# Si number density = 20.488605 Si / 1000 Ang^3
#
#
#
# Elastic Constant Matrix: (Units=GPa)
#
#
# Indices 1 2 3 4 5 6 
#
# 1 168.0406 32.9231 2.7773 0.0000 0.0000 0.0000
# 2 32.9231 82.4360 14.1458 0.0000 0.0000 0.0000
# 3 2.7773 14.1458 24.8040 0.0000 0.0000 0.0000
# 4 0.0000 0.0000 0.0000 24.5038 0.0000 0.0000
# 5 0.0000 0.0000 0.0000 0.0000 22.2959 0.0000
# 6 0.0000 0.0000 0.0000 0.0000 0.0000 29.4203
#
#
#
# Elastic Compliance Matrix: (Units=1/GPa)
#
#
# Indices 1 2 3 4 5 6 
#
# 1 0.006472 -0.002727 0.000831 0.000000 0.000000 0.000000
# 2 -0.002727 0.014596 -0.008019 0.000000 0.000000 0.000000
# 3 0.000831 -0.008019 0.044796 0.000000 0.000000 0.000000
# 4 0.000000 0.000000 0.000000 0.040810 0.000000 0.000000
# 5 0.000000 0.000000 0.000000 0.000000 0.044851 0.000000
# 6 0.000000 0.000000 0.000000 0.000000 0.000000 0.033990
#
#
# Mechanical properties :
#
#
# Convention : Reuss Voigt Hill
#
# Bulk Modulus (GPa) = 21.72348 41.66367 31.69357
# Shear Modulus (GPa) = 22.65629 30.27296 26.46462
#
# Velocity S-wave (km/s) = 3.32896 3.84806 3.59789
# Velocity P-wave (km/s) = 5.04001 6.33424 5.72383
#
# Compressibility (1/GPa) = 0.04603315
#
# Stress axis : x y z
#
# Youngs Moduli (GPa) = 154.52311 68.51307 22.32340
#
# Poissons Ratio (x) = 0.18684 -0.01854
# Poissons Ratio (y) = 0.42140 0.17900
# Poissons Ratio (z) = -0.12836 0.54938
#
# Static dielectric constant tensor:
#      x y z
#    x 4.066940 0.000000 0.000000 
#    y 0.000000 3.840130 0.000000 
#    z 0.000000 0.000000 3.521010 
# 
# 
# High freq. dielectric constant tensor:
#      x y z
#    x 1.801200 0.000000 0.000000 
#    y 0.000000 1.768690 0.000000 
#    z 0.000000 0.000000 1.790000 
# 
# From -- ./inp_files/3958.got.cif
#   From: 2010.03.12/outbox.cif.g09.slc.cpg/sg36_2_cif.got.tgz:3958.got - 2010.04.14 02:13:53.
