data_PCOD8174925
_publ_section_title
;
Structure prediction by ZEFSAII (Michael W. Deem and Ramdas Pophale) SiO2 
 PCOD8174925
Probable space group: C M C 21
;
_chemical_formula_sum "Si O2"
_cell_formula_units_Z 64
_cell_length_a 13.958059
_cell_length_b 18.080216
_cell_length_c 12.009512
_cell_angle_alpha 90.000000
_cell_angle_beta 90.000000
_cell_angle_gamma 90.000000
_cell_volume 3030.777153
_symmetry_space_group_name_H-M "C M C 21"
_symmetry_group_IT_number 36
_symmetry_cell_setting 'orthorhombic'
loop_
_space_group_symop_operation_xyz
x,y,z
-x,-y,1/2+z
x,-y,1/2+z
-x,y,z
1/2+x,1/2+y,z
1/2-x,1/2-y,1/2+z
1/2+x,1/2-y,1/2+z
1/2-x,1/2+y,z
loop_
_atom_site_type_symbol
_atom_site_label
_atom_site_fract_x
_atom_site_fract_y
_atom_site_fract_z
Si Si1 0.607898 0.431616 0.373830
Si Si2 0.393512 0.261723 0.837782
Si Si3 0.351702 0.204163 0.609456
Si Si4 0.684334 0.587324 0.415133
Si Si5 0.103325 0.382341 0.906744
Si Si6 0.604880 0.187322 0.174855
Si Si7 0.759462 0.669831 0.991050
Si Si8 0.658199 0.354667 0.151968
O O1 0.500000 0.419130 0.421234
O O2 0.629487 0.518347 0.363150
O O3 0.687963 0.394460 0.451947
O O4 0.610114 0.399833 0.250166
O O5 0.500000 0.267352 0.890934
O O6 0.409726 0.243743 0.707068
O O7 0.337474 0.339441 0.843280
O O8 0.334115 0.196075 0.896401
O O9 0.416202 0.156660 0.525742
O O10 0.301913 0.259903 0.524268
O O11 0.271797 0.153821 0.670700
O O12 0.799505 0.569102 0.415027
O O13 0.641612 0.601087 0.537786
O O14 0.122392 0.324270 0.806307
O O15 0.000000 0.424467 0.884091
O O16 0.500000 0.158396 0.141500
O O17 0.611306 0.273780 0.145188
O O18 0.681174 0.141613 0.099719
#
# Coordination Sequence:
#
# PCOD8174925 Si02
#       8
#     8   8   8   8   8   8   8   8
#     4  12  27  43  63  92 130 174 212 258 322 391
#     4  12  22  38  65  97 125 161 209 267 321 366
#     4  10  20  37  64  96 128 157 207 275 320 356
#     4  11  24  43  62  92 136 169 212 258 318 390
#     4  10  20  38  64  94 126 169 214 259 316 372
#     4  10  19  35  66  98 126 165 213 262 313 371
#     4  11  22  39  62  92 124 160 216 263 307 363
#     4  10  20  39  62  89 129 171 209 256 317 387
#
# _framework density 21.116696000000001
#
# number of rings (size 3 to 8) (size 9 to 14) (size 15 to 20)
#    0.000    1.250    5.000    3.750    0.000    5.500 
#    0.000    1.250    0.000    1.500    0.000    0.000 
#    0.000    0.000    0.000    0.000    0.000    0.000 
#
# Total GULP energy -396520.281138 kJ/mol
# GULP energy per Si atom -12391.258786 kJ/mol
# Density = 2.106863 g / cm^3
# Si number density = 21.116696 Si / 1000 Ang^3
#
#
#
# Elastic Constant Matrix: (Units=GPa)
#
#
# Indices 1 2 3 4 5 6 
#
# 1 148.1743 33.4668 38.6339 0.0000 0.0000 0.0000
# 2 33.4668 61.6633 23.0728 0.0000 0.0000 0.0000
# 3 38.6339 23.0728 99.5967 0.0000 0.0000 0.0000
# 4 0.0000 0.0000 0.0000 17.4192 0.0000 0.0000
# 5 0.0000 0.0000 0.0000 0.0000 10.7341 0.0000
# 6 0.0000 0.0000 0.0000 0.0000 0.0000 22.4878
#
#
#
# Elastic Compliance Matrix: (Units=1/GPa)
#
#
# Indices 1 2 3 4 5 6 
#
# 1 0.008162 -0.003553 -0.002343 0.000000 0.000000 0.000000
# 2 -0.003553 0.019303 -0.003093 0.000000 0.000000 0.000000
# 3 -0.002343 -0.003093 0.011666 0.000000 0.000000 0.000000
# 4 0.000000 0.000000 0.000000 0.057408 0.000000 0.000000
# 5 0.000000 0.000000 0.000000 0.000000 0.093161 0.000000
# 6 0.000000 0.000000 0.000000 0.000000 0.000000 0.044468
#
#
# Mechanical properties :
#
#
# Convention : Reuss Voigt Hill
#
# Bulk Modulus (GPa) = 47.27718 55.53126 51.40422
# Shear Modulus (GPa) = 19.29023 24.41228 21.85126
#
# Velocity S-wave (km/s) = 3.02571 3.40378 3.22030
# Velocity P-wave (km/s) = 5.88589 6.46545 6.18246
#
# Compressibility (1/GPa) = 0.02115185
#
# Stress axis : x y z
#
# Youngs Moduli (GPa) = 122.51530 51.80522 85.71916
#
# Poissons Ratio (x) = 0.18408 0.20084
# Poissons Ratio (y) = 0.43533 0.26517
# Poissons Ratio (z) = 0.28706 0.16026
#
# Static dielectric constant tensor:
#      x y z
#    x 4.467560 0.000000 0.000000 
#    y 0.000000 3.357290 0.000000 
#    z 0.000000 0.000000 3.963430 
# 
# 
# High freq. dielectric constant tensor:
#      x y z
#    x 1.850980 0.000000 0.000000 
#    y 0.000000 1.771480 0.000000 
#    z 0.000000 0.000000 1.838670 
# 
# From -- ./inp_files/8630.got.cif
#   From: 2010.03.12/outbox.cif.g09.slc.cpg/sg36_5_cif.got.tgz:8630.got - 2010.04.14 02:13:53.
