data_PCOD8174403
_publ_section_title
;
Structure prediction by ZEFSAII (Michael W. Deem and Ramdas Pophale) SiO2 
 PCOD8174403
Probable space group: C M C 21
;
_chemical_formula_sum "Si O2"
_cell_formula_units_Z 64
_cell_length_a 8.764320
_cell_length_b 29.380801
_cell_length_c 12.649419
_cell_angle_alpha 90.000000
_cell_angle_beta 90.000000
_cell_angle_gamma 90.000000
_cell_volume 3257.260075
_symmetry_space_group_name_H-M "C M C 21"
_symmetry_group_IT_number 36
_symmetry_cell_setting 'orthorhombic'
loop_
_space_group_symop_operation_xyz
x,y,z
-x,-y,1/2+z
x,-y,1/2+z
-x,y,z
1/2+x,1/2+y,z
1/2-x,1/2-y,1/2+z
1/2+x,1/2-y,1/2+z
1/2-x,1/2+y,z
loop_
_atom_site_type_symbol
_atom_site_label
_atom_site_fract_x
_atom_site_fract_y
_atom_site_fract_z
Si Si1 0.181085 0.815256 0.281400
Si Si2 0.828263 0.720726 0.359614
Si Si3 0.319350 0.585524 0.852636
Si Si4 0.818917 0.627452 0.266036
Si Si5 0.180664 0.972324 0.154080
Si Si6 0.319408 0.429010 0.589493
Si Si7 0.177300 0.088848 0.466157
Si Si8 0.827227 0.671600 0.566565
O O1 0.241697 0.770999 0.344831
O O2 0.232822 0.862194 0.336762
O O3 0.273577 0.807905 0.175200
O O4 0.000000 0.816085 0.262753
O O5 0.752558 0.677844 0.296174
O O6 0.819729 0.712746 0.484187
O O7 0.000000 0.722811 0.317353
O O8 0.500000 0.581203 0.849763
O O9 0.250841 0.553489 0.758095
O O10 0.259363 0.569846 0.968101
O O11 0.755821 0.613088 0.151737
O O12 0.766725 0.590959 0.355231
O O13 0.000000 0.627822 0.265620
O O14 0.000000 0.966679 0.157920
O O15 0.229768 0.025038 0.151118
O O16 0.237657 0.951584 0.042154
O O17 0.500000 0.422223 0.590540
O O18 0.205451 0.133757 0.534374
O O19 0.000000 0.083012 0.438787
O O20 0.000000 0.651684 0.571071
#
# Coordination Sequence:
#
# PCOD8174403 Si02
#       8
#     8   8   8   8   8   8   8   8
#     4  10  18  34  57  78 105 145 192 231 276 332
#     4   8  18  34  53  74 103 148 185 223 275 330
#     4   9  18  33  54  83 111 136 179 236 279 322
#     4  10  21  38  54  77 116 149 182 232 291 336
#     4   9  18  32  55  85 109 135 180 237 280 319
#     4  10  21  35  57  83 111 147 186 229 282 338
#     4  10  18  33  59  83 103 141 192 235 274 328
#     4  10  19  33  51  79 114 143 178 231 291 335
#
# _framework density 19.648416000000001
#
# number of rings (size 3 to 8) (size 9 to 14) (size 15 to 20)
#    0.000    2.500    1.250    1.875    1.750    1.000 
#    0.000    6.875    0.000    0.000    0.000    0.000 
#    0.000    0.000    0.000    0.000    0.000    0.000 
#
# Total GULP energy -396535.323891 kJ/mol
# GULP energy per Si atom -12391.728872 kJ/mol
# Density = 1.960370 g / cm^3
# Si number density = 19.648416 Si / 1000 Ang^3
#
#
#
# Elastic Constant Matrix: (Units=GPa)
#
#
# Indices 1 2 3 4 5 6 
#
# 1 31.5086 18.2351 23.1531 0.0000 0.0000 0.0000
# 2 18.2351 122.3471 65.7688 0.0000 0.0000 0.0000
# 3 23.1531 65.7688 126.2389 0.0000 0.0000 0.0000
# 4 0.0000 0.0000 0.0000 26.0817 0.0000 0.0000
# 5 0.0000 0.0000 0.0000 0.0000 23.1847 0.0000
# 6 0.0000 0.0000 0.0000 0.0000 0.0000 16.5955
#
#
#
# Elastic Compliance Matrix: (Units=1/GPa)
#
#
# Indices 1 2 3 4 5 6 
#
# 1 0.037272 -0.002612 -0.005475 0.000000 0.000000 0.000000
# 2 -0.002612 0.011536 -0.005531 0.000000 0.000000 0.000000
# 3 -0.005475 -0.005531 0.011807 0.000000 0.000000 0.000000
# 4 0.000000 0.000000 0.000000 0.038341 0.000000 0.000000
# 5 0.000000 0.000000 0.000000 0.000000 0.043132 0.000000
# 6 0.000000 0.000000 0.000000 0.000000 0.000000 0.060257
#
#
# Mechanical properties :
#
#
# Convention : Reuss Voigt Hill
#
# Bulk Modulus (GPa) = 29.95885 54.93428 42.44656
# Shear Modulus (GPa) = 20.77202 24.70158 22.73680
#
# Velocity S-wave (km/s) = 3.25497 3.54952 3.40543
# Velocity P-wave (km/s) = 5.42282 6.69463 6.09201
#
# Compressibility (1/GPa) = 0.03337912
#
# Stress axis : x y z
#
# Youngs Moduli (GPa) = 26.82963 86.68488 84.69348
#
# Poissons Ratio (x) = 0.22642 0.46371
# Poissons Ratio (y) = 0.07008 0.46845
# Poissons Ratio (z) = 0.14690 0.47946
#
# Static dielectric constant tensor:
#      x y z
#    x 3.185510 0.000000 0.000000 
#    y 0.000000 3.756870 0.000000 
#    z 0.000000 0.000000 3.766280 
# 
# 
# High freq. dielectric constant tensor:
#      x y z
#    x 1.721610 0.000000 0.000000 
#    y 0.000000 1.766160 0.000000 
#    z 0.000000 0.000000 1.772180 
# 
# From -- ./inp_files/7226.got.cif
#   From: 2010.03.12/outbox.cif.g09.slc.cpg/sg36_4_cif.got.tgz:7226.got - 2010.04.14 02:13:53.
