data_PCOD8174830
_publ_section_title
;
Structure prediction by ZEFSAII (Michael W. Deem and Ramdas Pophale) SiO2 
 PCOD8174830
Probable space group: C M C 21
;
_chemical_formula_sum "Si O2"
_cell_formula_units_Z 64
_cell_length_a 8.968518
_cell_length_b 14.955336
_cell_length_c 23.800296
_cell_angle_alpha 90.000000
_cell_angle_beta 90.000000
_cell_angle_gamma 90.000000
_cell_volume 3192.267064
_symmetry_space_group_name_H-M "C M C 21"
_symmetry_group_IT_number 36
_symmetry_cell_setting 'orthorhombic'
loop_
_space_group_symop_operation_xyz
x,y,z
-x,-y,1/2+z
x,-y,1/2+z
-x,y,z
1/2+x,1/2+y,z
1/2-x,1/2-y,1/2+z
1/2+x,1/2-y,1/2+z
1/2-x,1/2+y,z
loop_
_atom_site_type_symbol
_atom_site_label
_atom_site_fract_x
_atom_site_fract_y
_atom_site_fract_z
Si Si1 0.675977 0.860485 0.520210
Si Si2 0.330430 0.737427 0.834593
Si Si3 0.829467 0.971948 0.324580
Si Si4 0.676631 0.044158 0.711446
Si Si5 0.677121 0.400296 0.637695
Si Si6 0.671437 0.209292 0.456499
Si Si7 0.675072 0.247689 0.722687
Si Si8 0.329809 0.986934 0.934469
O O1 0.500000 0.862707 0.531635
O O2 0.764225 0.884742 0.575728
O O3 0.725607 0.762360 0.500081
O O4 0.725298 0.931639 0.472960
O O5 0.500000 0.766787 0.825555
O O6 0.310507 0.631866 0.837259
O O7 0.269209 0.775853 0.893132
O O8 0.239482 0.778549 0.782702
O O9 0.735041 0.998340 0.269679
O O10 0.000000 0.999456 0.313721
O O11 0.768338 0.023879 0.378623
O O12 0.500000 0.034104 0.708189
O O13 0.728395 0.147656 0.706422
O O14 0.751467 0.991786 0.660178
O O15 0.500000 0.409611 0.637330
O O16 0.730581 0.316409 0.675393
O O17 0.500000 0.242358 0.462007
O O18 0.685270 0.104202 0.470494
O O19 0.500000 0.249765 0.728899
O O20 0.500000 0.002579 0.915502
#
# Coordination Sequence:
#
# PCOD8174830 Si02
#       8
#     8   8   8   8   8   8   8   8
#     4  11  24  42  61  86 119 158 202 249 296 351
#     4   9  18  33  57  87 120 153 189 236 293 349
#     4  10  19  34  58  89 123 155 192 240 294 350
#     4  10  21  39  61  87 119 155 195 241 294 352
#     4  11  24  42  63  87 117 158 202 247 297 353
#     4  10  21  39  60  86 117 156 197 241 297 351
#     4   9  21  39  59  85 118 155 194 239 295 349
#     4  10  22  38  59  87 119 156 199 243 296 353
#
# _framework density 20.048448
#
# number of rings (size 3 to 8) (size 9 to 14) (size 15 to 20)
#    0.000    2.000    1.250    1.500    1.750    4.500 
#    0.000    5.000    0.000    0.000    0.000    0.000 
#    0.000    0.000    0.000    0.000    0.000    0.000 
#
# Total GULP energy -396923.041288 kJ/mol
# GULP energy per Si atom -12403.845040 kJ/mol
# Density = 2.000282 g / cm^3
# Si number density = 20.048448 Si / 1000 Ang^3
#
#
#
# Elastic Constant Matrix: (Units=GPa)
#
#
# Indices 1 2 3 4 5 6 
#
# 1 58.0551 21.8206 24.3071 0.0000 0.0000 0.0000
# 2 21.8206 51.0654 13.4353 0.0000 0.0000 0.0000
# 3 24.3071 13.4353 77.6537 0.0000 0.0000 0.0000
# 4 0.0000 0.0000 0.0000 23.4719 0.0000 0.0000
# 5 0.0000 0.0000 0.0000 0.0000 39.1017 0.0000
# 6 0.0000 0.0000 0.0000 0.0000 0.0000 27.9330
#
#
#
# Elastic Compliance Matrix: (Units=1/GPa)
#
#
# Indices 1 2 3 4 5 6 
#
# 1 0.022686 -0.008199 -0.005683 0.000000 0.000000 0.000000
# 2 -0.008199 0.023480 -0.001496 0.000000 0.000000 0.000000
# 3 -0.005683 -0.001496 0.014915 0.000000 0.000000 0.000000
# 4 0.000000 0.000000 0.000000 0.042604 0.000000 0.000000
# 5 0.000000 0.000000 0.000000 0.000000 0.025574 0.000000
# 6 0.000000 0.000000 0.000000 0.000000 0.000000 0.035800
#
#
# Mechanical properties :
#
#
# Convention : Reuss Voigt Hill
#
# Bulk Modulus (GPa) = 32.97481 33.98891 33.48186
# Shear Modulus (GPa) = 24.28098 26.58208 25.43153
#
# Velocity S-wave (km/s) = 3.48388 3.64523 3.56547
# Velocity P-wave (km/s) = 5.71546 5.89128 5.80404
#
# Compressibility (1/GPa) = 0.03032618
#
# Stress axis : x y z
#
# Youngs Moduli (GPa) = 44.08031 42.59004 67.04533
#
# Poissons Ratio (x) = 0.34918 0.38099
# Poissons Ratio (y) = 0.36140 0.10030
# Poissons Ratio (z) = 0.25049 0.06371
#
# Static dielectric constant tensor:
#      x y z
#    x 3.575370 0.000000 0.000000 
#    y 0.000000 3.817860 0.000000 
#    z 0.000000 0.000000 3.587510 
# 
# 
# High freq. dielectric constant tensor:
#      x y z
#    x 1.779710 0.000000 0.000000 
#    y 0.000000 1.787700 0.000000 
#    z 0.000000 0.000000 1.777370 
# 
# From -- ./inp_files/15732.got.cif
#   From: 2010.03.12/outbox.cif.g09.slc.cpg/sg36_8_cif.got.tgz:15732.got - 2010.04.14 02:13:53.
