data_PCOD8174360
_publ_section_title
;
Structure prediction by ZEFSAII (Michael W. Deem and Ramdas Pophale) SiO2 
 PCOD8174360
Probable space group: C M C 21
;
_chemical_formula_sum "Si O2"
_cell_formula_units_Z 64
_cell_length_a 9.370259
_cell_length_b 21.323359
_cell_length_c 15.893743
_cell_angle_alpha 90.000000
_cell_angle_beta 90.000000
_cell_angle_gamma 90.000000
_cell_volume 3175.655623
_symmetry_space_group_name_H-M "C M C 21"
_symmetry_group_IT_number 36
_symmetry_cell_setting 'orthorhombic'
loop_
_space_group_symop_operation_xyz
x,y,z
-x,-y,1/2+z
x,-y,1/2+z
-x,y,z
1/2+x,1/2+y,z
1/2-x,1/2-y,1/2+z
1/2+x,1/2-y,1/2+z
1/2-x,1/2+y,z
loop_
_atom_site_type_symbol
_atom_site_label
_atom_site_fract_x
_atom_site_fract_y
_atom_site_fract_z
Si Si1 0.155218 0.608355 0.669660
Si Si2 0.343469 0.465657 0.274530
Si Si3 0.659057 0.580574 0.152487
Si Si4 0.834695 0.208827 0.574477
Si Si5 0.663575 0.443540 0.916869
Si Si6 0.155122 0.498438 0.551826
Si Si7 0.167813 0.306494 0.722973
Si Si8 0.162985 0.799795 0.883315
O O1 0.247149 0.595676 0.754220
O O2 0.239189 0.651094 0.603711
O O3 0.129677 0.538246 0.635919
O O4 0.000000 0.638737 0.690345
O O5 0.500000 0.438641 0.295410
O O6 0.358954 0.514939 0.199157
O O7 0.280526 0.503563 0.352947
O O8 0.500000 0.607163 0.131230
O O9 0.749756 0.564140 0.068065
O O10 0.747620 0.629261 0.208403
O O11 0.807399 0.265492 0.638983
O O12 0.793581 0.225785 0.477033
O O13 0.000000 0.187331 0.575681
O O14 0.500000 0.455454 0.943055
O O15 0.680033 0.374624 0.879445
O O16 0.766237 0.450839 0.994877
O O17 0.000000 0.477362 0.515954
O O18 0.234491 0.273956 0.807789
O O19 0.000000 0.318939 0.737741
O O20 0.000000 0.780118 0.863234
#
# Coordination Sequence:
#
# PCOD8174360 Si02
#       8
#     8   8   8   8   8   8   8   8
#     4  10  20  33  52  81 111 143 182 226 284 338
#     4   9  18  32  52  78 109 142 181 225 277 338
#     4  10  19  35  56  79 108 150 191 226 277 343
#     4  10  22  40  61  83 114 157 198 240 292 349
#     4  10  18  32  55  83 110 146 193 234 280 348
#     4  10  20  32  50  82 117 144 176 230 291 337
#     4  11  23  38  59  88 118 150 193 249 303 343
#     4  10  20  38  61  84 111 150 200 242 286 354
#
# _framework density 20.153317999999999
#
# number of rings (size 3 to 8) (size 9 to 14) (size 15 to 20)
#    0.000    2.000    2.500    1.500    0.000    4.000 
#    0.000    1.250    0.000    3.000    0.000    0.000 
#    0.000    0.000    0.000    0.000    0.000    0.000 
#
# Total GULP energy -396458.780480 kJ/mol
# GULP energy per Si atom -12389.336890 kJ/mol
# Density = 2.010745 g / cm^3
# Si number density = 20.153318 Si / 1000 Ang^3
#
#
#
# Elastic Constant Matrix: (Units=GPa)
#
#
# Indices 1 2 3 4 5 6 
#
# 1 126.8479 31.5448 47.1165 0.0000 0.0000 0.0000
# 2 31.5448 31.9614 24.5109 0.0000 0.0000 0.0000
# 3 47.1165 24.5109 70.6753 0.0000 0.0000 0.0000
# 4 0.0000 0.0000 0.0000 32.9195 0.0000 0.0000
# 5 0.0000 0.0000 0.0000 0.0000 27.0422 0.0000
# 6 0.0000 0.0000 0.0000 0.0000 0.0000 15.0670
#
#
#
# Elastic Compliance Matrix: (Units=1/GPa)
#
#
# Indices 1 2 3 4 5 6 
#
# 1 0.011684 -0.007572 -0.005163 0.000000 0.000000 0.000000
# 2 -0.007572 0.047532 -0.011436 0.000000 0.000000 0.000000
# 3 -0.005163 -0.011436 0.021558 0.000000 0.000000 0.000000
# 4 0.000000 0.000000 0.000000 0.030377 0.000000 0.000000
# 5 0.000000 0.000000 0.000000 0.000000 0.036979 0.000000
# 6 0.000000 0.000000 0.000000 0.000000 0.000000 0.066370
#
#
# Mechanical properties :
#
#
# Convention : Reuss Voigt Hill
#
# Bulk Modulus (GPa) = 30.83586 48.42544 39.63065
# Shear Modulus (GPa) = 18.27120 23.42655 20.84887
#
# Velocity S-wave (km/s) = 3.01426 3.41312 3.21987
# Velocity P-wave (km/s) = 5.23911 6.29390 5.79057
#
# Compressibility (1/GPa) = 0.03242978
#
# Stress axis : x y z
#
# Youngs Moduli (GPa) = 85.58350 21.03856 46.38722
#
# Poissons Ratio (x) = 0.15931 0.23952
# Poissons Ratio (y) = 0.64808 0.53050
# Poissons Ratio (z) = 0.44190 0.24060
#
# Static dielectric constant tensor:
#      x y z
#    x 4.220590 0.000000 0.000000 
#    y 0.000000 3.228590 0.000000 
#    z 0.000000 0.000000 3.669730 
# 
# 
# High freq. dielectric constant tensor:
#      x y z
#    x 1.798220 0.000000 0.000000 
#    y 0.000000 1.747380 0.000000 
#    z 0.000000 0.000000 1.776490 
# 
# From -- ./inp_files/13766.got.cif
#   From: 2010.03.12/outbox.cif.g09.slc.cpg/sg36_7_cif.got.tgz:13766.got - 2010.04.14 02:13:53.
