data_PCOD8174882
_publ_section_title
;
Structure prediction by ZEFSAII (Michael W. Deem and Ramdas Pophale) SiO2 
 PCOD8174882
Probable space group: C M C 21
;
_chemical_formula_sum "Si O2"
_cell_formula_units_Z 64
_cell_length_a 9.061755
_cell_length_b 20.484223
_cell_length_c 19.010410
_cell_angle_alpha 90.000000
_cell_angle_beta 90.000000
_cell_angle_gamma 90.000000
_cell_volume 3528.769529
_symmetry_space_group_name_H-M "C M C 21"
_symmetry_group_IT_number 36
_symmetry_cell_setting 'orthorhombic'
loop_
_space_group_symop_operation_xyz
x,y,z
-x,-y,1/2+z
x,-y,1/2+z
-x,y,z
1/2+x,1/2+y,z
1/2-x,1/2-y,1/2+z
1/2+x,1/2-y,1/2+z
1/2-x,1/2+y,z
loop_
_atom_site_type_symbol
_atom_site_label
_atom_site_fract_x
_atom_site_fract_y
_atom_site_fract_z
Si Si1 0.327890 0.693468 0.916440
Si Si2 0.830476 0.446914 0.931738
Si Si3 0.826861 0.933837 0.501369
Si Si4 0.829940 0.684877 0.513538
Si Si5 0.670848 0.120832 0.290539
Si Si6 0.173058 0.237773 0.642969
Si Si7 0.830607 0.611986 0.132941
Si Si8 0.325008 0.756428 0.286263
O O1 0.500000 0.689974 0.896812
O O2 0.231352 0.693959 0.845864
O O3 0.276553 0.631224 0.961158
O O4 0.289600 0.757988 0.959906
O O5 0.794952 0.433213 0.849595
O O6 0.000000 0.467479 0.941377
O O7 0.728084 0.504668 0.957642
O O8 0.793619 0.383053 0.976691
O O9 0.763015 0.932871 0.580432
O O10 0.000000 0.938527 0.508505
O O11 0.727283 0.689997 0.581761
O O12 0.000000 0.690038 0.536891
O O13 0.500000 0.144111 0.295335
O O14 0.703257 0.090575 0.213494
O O15 0.770457 0.183760 0.304351
O O16 0.212555 0.312265 0.623099
O O17 0.258570 0.217857 0.713296
O O18 0.000000 0.228981 0.655826
O O19 0.000000 0.600164 0.113998
O O20 0.500000 0.757352 0.282294
#
# Coordination Sequence:
#
# PCOD8174882 Si02
#       8
#     8   8   8   8   8   8   8   8
#     4  10  20  37  57  79 112 148 186 230 280 329
#     4  10  21  38  59  81 113 151 186 228 279 338
#     4  11  23  37  56  82 115 150 186 232 279 328
#     4  10  19  35  59  83 110 145 187 230 277 329
#     4   9  18  36  58  82 110 146 185 228 282 333
#     4  10  20  34  55  83 116 148 183 233 285 333
#     4   9  18  33  56  82 109 143 186 226 274 336
#     4  11  21  32  54  86 115 145 187 235 280 334
#
# _framework density 18.136633
#
# number of rings (size 3 to 8) (size 9 to 14) (size 15 to 20)
#    0.000    2.000    2.500    2.625    0.000    4.500 
#    0.000    1.250    0.000    4.500    0.000    0.000 
#    0.000    0.000    0.000    0.000    0.000    0.000 
#
# Total GULP energy -396897.469307 kJ/mol
# GULP energy per Si atom -12403.045916 kJ/mol
# Density = 1.809535 g / cm^3
# Si number density = 18.136633 Si / 1000 Ang^3
#
#
#
# Elastic Constant Matrix: (Units=GPa)
#
#
# Indices 1 2 3 4 5 6 
#
# 1 86.7050 37.1276 66.5054 0.0000 0.0000 0.0000
# 2 37.1276 68.7548 44.8677 0.0000 0.0000 0.0000
# 3 66.5054 44.8677 141.8762 0.0000 0.0000 0.0000
# 4 0.0000 0.0000 0.0000 25.2381 0.0000 0.0000
# 5 0.0000 0.0000 0.0000 0.0000 33.1168 0.0000
# 6 0.0000 0.0000 0.0000 0.0000 0.0000 27.2318
#
#
#
# Elastic Compliance Matrix: (Units=1/GPa)
#
#
# Indices 1 2 3 4 5 6 
#
# 1 0.019692 -0.005809 -0.007394 0.000000 0.000000 0.000000
# 2 -0.005809 0.020040 -0.003615 0.000000 0.000000 0.000000
# 3 -0.007394 -0.003615 0.011657 0.000000 0.000000 0.000000
# 4 0.000000 0.000000 0.000000 0.039623 0.000000 0.000000
# 5 0.000000 0.000000 0.000000 0.000000 0.030196 0.000000
# 6 0.000000 0.000000 0.000000 0.000000 0.000000 0.036722
#
#
# Mechanical properties :
#
#
# Convention : Reuss Voigt Hill
#
# Bulk Modulus (GPa) = 56.32196 66.03750 61.17973
# Shear Modulus (GPa) = 25.31870 27.03968 26.17919
#
# Velocity S-wave (km/s) = 3.74036 3.86539 3.80339
# Velocity P-wave (km/s) = 7.05517 7.51078 7.28654
#
# Compressibility (1/GPa) = 0.01775506
#
# Stress axis : x y z
#
# Youngs Moduli (GPa) = 50.78230 49.90026 85.78236
#
# Poissons Ratio (x) = 0.28985 0.63425
# Poissons Ratio (y) = 0.29498 0.31008
# Poissons Ratio (z) = 0.37547 0.18037
#
# Static dielectric constant tensor:
#      x y z
#    x 3.258720 0.000000 0.000000 
#    y 0.000000 3.101550 0.000000 
#    z 0.000000 0.000000 3.554370 
# 
# 
# High freq. dielectric constant tensor:
#      x y z
#    x 1.701860 0.000000 0.000000 
#    y 0.000000 1.671940 0.000000 
#    z 0.000000 0.000000 1.718510 
# 
# From -- ./inp_files/15693.got.cif
#   From: 2010.03.12/outbox.cif.g09.slc.cpg/sg36_8_cif.got.tgz:15693.got - 2010.04.14 02:13:53.
