data_PCOD8174930
_publ_section_title
;
Structure prediction by ZEFSAII (Michael W. Deem and Ramdas Pophale) SiO2 
 PCOD8174930
Probable space group: C M C 21
;
_chemical_formula_sum "Si O2"
_cell_formula_units_Z 64
_cell_length_a 8.982759
_cell_length_b 28.432013
_cell_length_c 12.616019
_cell_angle_alpha 90.000000
_cell_angle_beta 90.000000
_cell_angle_gamma 90.000000
_cell_volume 3222.105020
_symmetry_space_group_name_H-M "C M C 21"
_symmetry_group_IT_number 36
_symmetry_cell_setting 'orthorhombic'
loop_
_space_group_symop_operation_xyz
x,y,z
-x,-y,1/2+z
x,-y,1/2+z
-x,y,z
1/2+x,1/2+y,z
1/2-x,1/2-y,1/2+z
1/2+x,1/2-y,1/2+z
1/2-x,1/2+y,z
loop_
_atom_site_type_symbol
_atom_site_label
_atom_site_fract_x
_atom_site_fract_y
_atom_site_fract_z
Si Si1 0.326260 0.083600 0.375000
Si Si2 0.827107 0.563184 0.613773
Si Si3 0.170741 0.626494 0.801639
Si Si4 0.837034 0.086564 0.985947
Si Si5 0.326904 0.813966 0.796915
Si Si6 0.177071 0.970896 0.684085
Si Si7 0.334848 0.312554 0.583760
Si Si8 0.324305 0.775035 0.393184
O O1 0.500000 0.073646 0.358275
O O2 0.273108 0.070046 0.493235
O O3 0.291558 0.138749 0.361662
O O4 0.238066 0.052080 0.291418
O O5 0.801028 0.611694 0.679469
O O6 0.730436 0.524119 0.673338
O O7 0.000000 0.548638 0.617076
O O8 0.226173 0.679997 0.821377
O O9 0.000000 0.624145 0.832623
O O10 0.243995 0.586929 0.877698
O O11 0.760893 0.056497 0.080093
O O12 0.853651 0.139710 0.021403
O O13 0.000000 0.065232 0.960687
O O14 0.500000 0.800148 0.804668
O O15 0.280232 0.822706 0.676837
O O16 0.223305 0.772205 0.836053
O O17 0.000000 0.967537 0.689235
O O18 0.500000 0.294991 0.621010
O O19 0.260749 0.274685 0.505470
O O20 0.500000 0.774940 0.413027
#
# Coordination Sequence:
#
# PCOD8174930 Si02
#       8
#     8   8   8   8   8   8   8   8
#     4  10  23  42  63  88 122 162 205 249 298 366
#     4  10  23  42  61  86 120 161 205 247 300 360
#     4   9  20  38  60  85 117 157 202 248 295 356
#     4   9  19  35  57  83 113 148 190 245 302 353
#     4  11  22  37  60  90 121 158 203 251 305 365
#     4  11  23  39  60  89 120 153 197 250 307 361
#     4  10  19  36  58  82 114 155 198 250 304 355
#     4  10  21  37  59  89 121 160 206 252 305 364
#
# _framework density 19.862793
#
# number of rings (size 3 to 8) (size 9 to 14) (size 15 to 20)
#    0.000    2.000    1.250    1.500    1.750    4.500 
#    0.000    2.500    0.000    0.000    0.000    0.000 
#    0.000    0.000    0.000    0.000    0.000    0.000 
#
# Total GULP energy -396741.172901 kJ/mol
# GULP energy per Si atom -12398.161653 kJ/mol
# Density = 1.981758 g / cm^3
# Si number density = 19.862793 Si / 1000 Ang^3
#
#
#
# Elastic Constant Matrix: (Units=GPa)
#
#
# Indices 1 2 3 4 5 6 
#
# 1 63.4433 42.8569 40.9052 0.0000 0.0000 0.0000
# 2 42.8569 90.9815 47.2086 0.0000 0.0000 0.0000
# 3 40.9052 47.2086 119.1723 0.0000 0.0000 0.0000
# 4 0.0000 0.0000 0.0000 12.0040 0.0000 0.0000
# 5 0.0000 0.0000 0.0000 0.0000 32.5216 0.0000
# 6 0.0000 0.0000 0.0000 0.0000 0.0000 26.5656
#
#
#
# Elastic Compliance Matrix: (Units=1/GPa)
#
#
# Indices 1 2 3 4 5 6 
#
# 1 0.025269 -0.009318 -0.004982 0.000000 0.000000 0.000000
# 2 -0.009318 0.017271 -0.003643 0.000000 0.000000 0.000000
# 3 -0.004982 -0.003643 0.011545 0.000000 0.000000 0.000000
# 4 0.000000 0.000000 0.000000 0.083305 0.000000 0.000000
# 5 0.000000 0.000000 0.000000 0.000000 0.030749 0.000000
# 6 0.000000 0.000000 0.000000 0.000000 0.000000 0.037643
#
#
# Mechanical properties :
#
#
# Convention : Reuss Voigt Hill
#
# Bulk Modulus (GPa) = 54.95252 59.50429 57.22840
# Shear Modulus (GPa) = 20.18300 23.72666 21.95483
#
# Velocity S-wave (km/s) = 3.19112 3.45994 3.32825
# Velocity P-wave (km/s) = 6.42680 6.78117 6.60637
#
# Compressibility (1/GPa) = 0.01819753
#
# Stress axis : x y z
#
# Youngs Moduli (GPa) = 39.57478 57.90119 86.62041
#
# Poissons Ratio (x) = 0.53950 0.43157
# Poissons Ratio (y) = 0.36874 0.31559
# Poissons Ratio (z) = 0.19717 0.21096
#
# Static dielectric constant tensor:
#      x y z
#    x 3.777350 0.000000 0.000000 
#    y 0.000000 3.538200 0.000000 
#    z 0.000000 0.000000 3.732970 
# 
# 
# High freq. dielectric constant tensor:
#      x y z
#    x 1.774530 0.000000 0.000000 
#    y 0.000000 1.768040 0.000000 
#    z 0.000000 0.000000 1.779000 
# 
# From -- ./inp_files/7228.got.cif
#   From: 2010.03.12/outbox.cif.g09.slc.cpg/sg36_4_cif.got.tgz:7228.got - 2010.04.14 02:13:53.
