data_PCOD8174516
_publ_section_title
;
Structure prediction by ZEFSAII (Michael W. Deem and Ramdas Pophale) SiO2 
 PCOD8174516
Probable space group: C M C 21
;
_chemical_formula_sum "Si O2"
_cell_formula_units_Z 64
_cell_length_a 9.096014
_cell_length_b 28.800951
_cell_length_c 13.965771
_cell_angle_alpha 90.000000
_cell_angle_beta 90.000000
_cell_angle_gamma 90.000000
_cell_volume 3658.666846
_symmetry_space_group_name_H-M "C M C 21"
_symmetry_group_IT_number 36
_symmetry_cell_setting 'orthorhombic'
loop_
_space_group_symop_operation_xyz
x,y,z
-x,-y,1/2+z
x,-y,1/2+z
-x,y,z
1/2+x,1/2+y,z
1/2-x,1/2-y,1/2+z
1/2+x,1/2-y,1/2+z
1/2-x,1/2+y,z
loop_
_atom_site_type_symbol
_atom_site_label
_atom_site_fract_x
_atom_site_fract_y
_atom_site_fract_z
Si Si1 0.671235 0.320829 0.097440
Si Si2 0.670220 0.746548 0.765706
Si Si3 0.327039 0.548389 0.382848
Si Si4 0.333264 0.905395 0.725833
Si Si5 0.173130 0.178575 0.149053
Si Si6 0.833277 0.507315 0.739723
Si Si7 0.329462 0.745857 0.982748
Si Si8 0.327817 0.426097 0.096721
O O1 0.500000 0.320296 0.074594
O O2 0.708309 0.297623 0.199749
O O3 0.729900 0.373309 0.098529
O O4 0.747122 0.292825 0.011818
O O5 0.500000 0.760853 0.754577
O O6 0.769236 0.790390 0.737033
O O7 0.708821 0.732427 0.874075
O O8 0.500000 0.549288 0.362926
O O9 0.252690 0.592650 0.328326
O O10 0.256027 0.500828 0.339685
O O11 0.290940 0.551088 0.494747
O O12 0.500000 0.888170 0.742938
O O13 0.250806 0.871446 0.652419
O O14 0.331169 0.957882 0.682289
O O15 0.000000 0.171774 0.158278
O O16 0.219559 0.202743 0.049251
O O17 0.757906 0.546939 0.678476
O O18 0.000000 0.522211 0.763671
O O19 0.500000 0.755994 0.997753
O O20 0.500000 0.428684 0.119740
#
# Coordination Sequence:
#
# PCOD8174516 Si02
#       8
#     8   8   8   8   8   8   8   8
#     4   9  19  34  52  78 106 136 173 216 262 311
#     4   9  18  34  52  71 104 139 170 213 263 314
#     4   9  18  33  53  78 105 132 171 216 260 311
#     4   9  19  34  51  75 102 132 169 209 259 310
#     4  10  19  31  50  74 101 133 172 217 258 307
#     4   9  20  35  52  75 105 138 171 214 265 315
#     4   9  19  33  49  73 101 136 176 211 257 313
#     4  10  20  34  55  80 106 138 176 220 268 317
#
# _framework density 17.492711
#
# number of rings (size 3 to 8) (size 9 to 14) (size 15 to 20)
#    0.750    2.000    0.000    1.125    1.750    2.500 
#    0.000    1.250    0.000    3.000    0.000    0.000 
#    0.000    0.000    0.000    0.000    0.000    0.000 
#
# Total GULP energy -396650.664329 kJ/mol
# GULP energy per Si atom -12395.333260 kJ/mol
# Density = 1.745290 g / cm^3
# Si number density = 17.492711 Si / 1000 Ang^3
#
#
#
# Elastic Constant Matrix: (Units=GPa)
#
#
# Indices 1 2 3 4 5 6 
#
# 1 74.5258 31.7529 33.9487 0.0000 0.0000 0.0000
# 2 31.7529 67.8504 28.8354 0.0000 0.0000 0.0000
# 3 33.9487 28.8354 87.3077 0.0000 0.0000 0.0000
# 4 0.0000 0.0000 0.0000 21.7678 0.0000 0.0000
# 5 0.0000 0.0000 0.0000 0.0000 19.2815 0.0000
# 6 0.0000 0.0000 0.0000 0.0000 0.0000 30.6081
#
#
#
# Elastic Compliance Matrix: (Units=1/GPa)
#
#
# Indices 1 2 3 4 5 6 
#
# 1 0.018487 -0.006510 -0.005038 0.000000 0.000000 0.000000
# 2 -0.006510 0.019438 -0.003888 0.000000 0.000000 0.000000
# 3 -0.005038 -0.003888 0.014697 0.000000 0.000000 0.000000
# 4 0.000000 0.000000 0.000000 0.045939 0.000000 0.000000
# 5 0.000000 0.000000 0.000000 0.000000 0.051863 0.000000
# 6 0.000000 0.000000 0.000000 0.000000 0.000000 0.032671
#
#
# Mechanical properties :
#
#
# Convention : Reuss Voigt Hill
#
# Bulk Modulus (GPa) = 45.98170 46.52864 46.25517
# Shear Modulus (GPa) = 22.60210 23.34128 22.97169
#
# Velocity S-wave (km/s) = 3.59846 3.65683 3.62776
# Velocity P-wave (km/s) = 6.60367 6.66982 6.63683
#
# Compressibility (1/GPa) = 0.02174778
#
# Stress axis : x y z
#
# Youngs Moduli (GPa) = 54.09166 51.44691 68.04115
#
# Poissons Ratio (x) = 0.33494 0.34281
# Poissons Ratio (y) = 0.35216 0.26455
# Poissons Ratio (z) = 0.27253 0.20003
#
# Static dielectric constant tensor:
#      x y z
#    x 3.281210 0.000000 0.000000 
#    y 0.000000 3.157690 0.000000 
#    z 0.000000 0.000000 3.139890 
# 
# 
# High freq. dielectric constant tensor:
#      x y z
#    x 1.683450 0.000000 0.000000 
#    y 0.000000 1.663490 0.000000 
#    z 0.000000 0.000000 1.661040 
# 
# From -- ./inp_files/11215.got.cif
#   From: 2010.03.12/outbox.cif.g09.slc.cpg/sg36_6_cif.got.tgz:11215.got - 2010.04.14 02:13:53.
