data_PCOD8174671
_publ_section_title
;
Structure prediction by ZEFSAII (Michael W. Deem and Ramdas Pophale) SiO2 
 PCOD8174671
Probable space group: C M C 21
;
_chemical_formula_sum "Si O2"
_cell_formula_units_Z 64
_cell_length_a 8.719078
_cell_length_b 29.267946
_cell_length_c 12.461675
_cell_angle_alpha 90.000000
_cell_angle_beta 90.000000
_cell_angle_gamma 90.000000
_cell_volume 3180.088663
_symmetry_space_group_name_H-M "C M C 21"
_symmetry_group_IT_number 36
_symmetry_cell_setting 'orthorhombic'
loop_
_space_group_symop_operation_xyz
x,y,z
-x,-y,1/2+z
x,-y,1/2+z
-x,y,z
1/2+x,1/2+y,z
1/2-x,1/2-y,1/2+z
1/2+x,1/2-y,1/2+z
1/2-x,1/2+y,z
loop_
_atom_site_type_symbol
_atom_site_label
_atom_site_fract_x
_atom_site_fract_y
_atom_site_fract_z
Si Si1 0.177864 0.815020 0.281400
Si Si2 0.824886 0.719612 0.347925
Si Si3 0.318394 0.586546 0.840158
Si Si4 0.819940 0.624213 0.261437
Si Si5 0.175991 0.977183 0.144984
Si Si6 0.176955 0.434576 0.564677
Si Si7 0.175001 0.092686 0.462413
Si Si8 0.827645 0.675823 0.566301
O O1 0.257809 0.768293 0.324463
O O2 0.251334 0.861975 0.328469
O O3 0.200965 0.813787 0.154494
O O4 0.000000 0.815012 0.310808
O O5 0.755145 0.675789 0.283547
O O6 0.810501 0.713897 0.475037
O O7 0.000000 0.723387 0.309689
O O8 0.500000 0.588925 0.831241
O O9 0.259149 0.555042 0.741265
O O10 0.272492 0.566474 0.955072
O O11 0.790567 0.610330 0.137717
O O12 0.728523 0.588382 0.338366
O O13 0.000000 0.621523 0.290288
O O14 0.000000 0.990186 0.169402
O O15 0.276921 0.022593 0.138504
O O16 0.189382 0.954262 0.027486
O O17 0.000000 0.438053 0.533142
O O18 0.294157 0.126984 0.515939
O O19 0.000000 0.110700 0.468221
O O20 0.000000 0.675829 0.614093
#
# Coordination Sequence:
#
# PCOD8174671 Si02
#       8
#     8   8   8   8   8   8   8   8
#     4  10  19  36  60  84 112 153 199 240 286 344
#     4   8  17  34  57  81 112 154 192 233 288 344
#     4  10  22  41  61  85 118 152 193 242 291 344
#     4   9  20  39  57  83 121 155 189 238 296 343
#     4  10  22  40  60  84 113 148 195 245 291 340
#     4  11  25  40  58  86 121 158 195 235 293 357
#     4  10  19  35  60  85 107 143 194 242 286 343
#     4  10  19  33  53  82 116 149 187 239 297 343
#
# _framework density 20.125222999999998
#
# number of rings (size 3 to 8) (size 9 to 14) (size 15 to 20)
#    0.000    2.250    1.250    1.875    1.750    4.000 
#    0.000    3.125    0.000    0.000    0.000    0.000 
#    0.000    0.000    0.000    0.000    0.000    0.000 
#
# Total GULP energy -396625.154747 kJ/mol
# GULP energy per Si atom -12394.536086 kJ/mol
# Density = 2.007942 g / cm^3
# Si number density = 20.125223 Si / 1000 Ang^3
#
#
#
# Elastic Constant Matrix: (Units=GPa)
#
#
# Indices 1 2 3 4 5 6 
#
# 1 19.3181 18.1337 15.6955 0.0000 0.0000 0.0000
# 2 18.1337 117.0384 47.7975 0.0000 0.0000 0.0000
# 3 15.6955 47.7975 97.9345 0.0000 0.0000 0.0000
# 4 0.0000 0.0000 0.0000 21.1276 0.0000 0.0000
# 5 0.0000 0.0000 0.0000 0.0000 32.0223 0.0000
# 6 0.0000 0.0000 0.0000 0.0000 0.0000 18.3835
#
#
#
# Elastic Compliance Matrix: (Units=1/GPa)
#
#
# Indices 1 2 3 4 5 6 
#
# 1 0.063971 -0.007150 -0.006763 0.000000 0.000000 0.000000
# 2 -0.007150 0.011470 -0.004452 0.000000 0.000000 0.000000
# 3 -0.006763 -0.004452 0.013468 0.000000 0.000000 0.000000
# 4 0.000000 0.000000 0.000000 0.047332 0.000000 0.000000
# 5 0.000000 0.000000 0.000000 0.000000 0.031228 0.000000
# 6 0.000000 0.000000 0.000000 0.000000 0.000000 0.054397
#
#
# Mechanical properties :
#
#
# Convention : Reuss Voigt Hill
#
# Bulk Modulus (GPa) = 19.16470 44.17160 31.66815
# Shear Modulus (GPa) = 18.11673 24.48428 21.30051
#
# Velocity S-wave (km/s) = 3.00359 3.49176 3.25683
# Velocity P-wave (km/s) = 4.64458 6.18486 5.46922
#
# Compressibility (1/GPa) = 0.05217925
#
# Stress axis : x y z
#
# Youngs Moduli (GPa) = 15.63210 87.18221 74.25158
#
# Poissons Ratio (x) = 0.62332 0.50216
# Poissons Ratio (y) = 0.11176 0.33059
# Poissons Ratio (z) = 0.10572 0.38816
#
# Static dielectric constant tensor:
#      x y z
#    x 3.430280 0.000000 0.000000 
#    y 0.000000 3.891250 0.000000 
#    z 0.000000 0.000000 3.738610 
# 
# 
# High freq. dielectric constant tensor:
#      x y z
#    x 1.760810 0.000000 0.000000 
#    y 0.000000 1.786340 0.000000 
#    z 0.000000 0.000000 1.784090 
# 
# From -- ./inp_files/7234.got.cif
#   From: 2010.03.12/outbox.cif.g09.slc.cpg/sg36_4_cif.got.tgz:7234.got - 2010.04.14 02:13:53.
