data_PCOD8174551
_publ_section_title
;
Structure prediction by ZEFSAII (Michael W. Deem and Ramdas Pophale) SiO2 
 PCOD8174551
Probable space group: C M C 21
;
_chemical_formula_sum "Si O2"
_cell_formula_units_Z 64
_cell_length_a 8.931749
_cell_length_b 19.753821
_cell_length_c 19.697045
_cell_angle_alpha 90.000000
_cell_angle_beta 90.000000
_cell_angle_gamma 90.000000
_cell_volume 3475.271199
_symmetry_space_group_name_H-M "C M C 21"
_symmetry_group_IT_number 36
_symmetry_cell_setting 'orthorhombic'
loop_
_space_group_symop_operation_xyz
x,y,z
-x,-y,1/2+z
x,-y,1/2+z
-x,y,z
1/2+x,1/2+y,z
1/2-x,1/2-y,1/2+z
1/2+x,1/2-y,1/2+z
1/2-x,1/2+y,z
loop_
_atom_site_type_symbol
_atom_site_label
_atom_site_fract_x
_atom_site_fract_y
_atom_site_fract_z
Si Si1 0.172900 0.078518 0.045290
Si Si2 0.825382 0.984817 0.284937
Si Si3 0.170576 0.187510 0.939004
Si Si4 0.173066 0.966625 0.935437
Si Si5 0.825914 0.349838 0.303988
Si Si6 0.174980 0.200738 0.266019
Si Si7 0.327845 0.835899 0.903908
Si Si8 0.676517 0.908902 0.685613
O O1 0.277078 0.070370 0.110145
O O2 0.000000 0.072638 0.067284
O O3 0.204916 0.151103 0.010167
O O4 0.217915 0.019653 0.993130
O O5 0.767562 0.909315 0.268392
O O6 0.000000 0.989632 0.268258
O O7 0.788594 0.000421 0.363077
O O8 0.738206 0.036875 0.238302
O O9 0.280598 0.158773 0.882200
O O10 0.193595 0.267934 0.948468
O O11 0.000000 0.170725 0.915891
O O12 0.269666 0.898970 0.947933
O O13 0.000000 0.946743 0.939878
O O14 0.790072 0.280632 0.263476
O O15 0.000000 0.368037 0.300958
O O16 0.232481 0.167460 0.335370
O O17 0.256780 0.165173 0.202838
O O18 0.000000 0.185462 0.261364
O O19 0.500000 0.846455 0.883591
O O20 0.500000 0.906353 0.691168
#
# Coordination Sequence:
#
# PCOD8174551 Si02
#       8
#     8   8   8   8   8   8   8   8
#     4  10  21  40  60  79 110 155 196 233 286 352
#     4  11  21  37  60  85 116 154 192 235 289 347
#     4   9  18  35  56  81 112 149 190 228 281 343
#     4  10  20  35  58  84 113 151 193 233 283 348
#     4  10  20  33  56  88 117 144 186 240 286 329
#     4  10  20  36  56  81 114 152 188 230 285 343
#     4  10  19  31  55  87 116 144 183 240 286 326
#     4  12  25  39  57  85 116 151 196 243 288 344
#
# _framework density 18.41583
#
# number of rings (size 3 to 8) (size 9 to 14) (size 15 to 20)
#    0.000    1.750    2.500    2.625    0.000    3.500 
#    0.000    1.250    0.000    4.500    0.000    0.000 
#    0.000    0.000    0.000    0.000    0.000    0.000 
#
# Total GULP energy -396910.297885 kJ/mol
# GULP energy per Si atom -12403.446809 kJ/mol
# Density = 1.837392 g / cm^3
# Si number density = 18.415830 Si / 1000 Ang^3
#
#
#
# Elastic Constant Matrix: (Units=GPa)
#
#
# Indices 1 2 3 4 5 6 
#
# 1 108.4955 57.7600 45.0503 0.0000 0.0000 0.0000
# 2 57.7600 109.7575 29.6801 0.0000 0.0000 0.0000
# 3 45.0503 29.6801 72.8401 0.0000 0.0000 0.0000
# 4 0.0000 0.0000 0.0000 21.7989 0.0000 0.0000
# 5 0.0000 0.0000 0.0000 0.0000 27.7682 0.0000
# 6 0.0000 0.0000 0.0000 0.0000 0.0000 35.3046
#
#
#
# Elastic Compliance Matrix: (Units=1/GPa)
#
#
# Indices 1 2 3 4 5 6 
#
# 1 0.015448 -0.006232 -0.007015 0.000000 0.000000 0.000000
# 2 -0.006232 0.012754 -0.001342 0.000000 0.000000 0.000000
# 3 -0.007015 -0.001342 0.018614 0.000000 0.000000 0.000000
# 4 0.000000 0.000000 0.000000 0.045874 0.000000 0.000000
# 5 0.000000 0.000000 0.000000 0.000000 0.036012 0.000000
# 6 0.000000 0.000000 0.000000 0.000000 0.000000 0.028325
#
#
# Mechanical properties :
#
#
# Convention : Reuss Voigt Hill
#
# Bulk Modulus (GPa) = 56.69865 61.78599 59.24232
# Shear Modulus (GPa) = 26.03033 27.54787 26.78910
#
# Velocity S-wave (km/s) = 3.76370 3.87186 3.81816
# Velocity P-wave (km/s) = 7.05281 7.32200 7.18866
#
# Compressibility (1/GPa) = 0.01763710
#
# Stress axis : x y z
#
# Youngs Moduli (GPa) = 64.73494 78.40826 53.72321
#
# Poissons Ratio (x) = 0.48868 0.37684
# Poissons Ratio (y) = 0.40346 0.07210
# Poissons Ratio (z) = 0.45409 0.10523
#
# Static dielectric constant tensor:
#      x y z
#    x 3.427820 0.000000 0.000000 
#    y 0.000000 3.691110 0.000000 
#    z 0.000000 0.000000 3.168060 
# 
# 
# High freq. dielectric constant tensor:
#      x y z
#    x 1.721830 0.000000 0.000000 
#    y 0.000000 1.730200 0.000000 
#    z 0.000000 0.000000 1.680890 
# 
# From -- ./inp_files/13929.got.cif
#   From: 2010.03.12/outbox.cif.g09.slc.cpg/sg36_7_cif.got.tgz:13929.got - 2010.04.14 02:13:53.
