data_PCOD8174488
_publ_section_title
;
Structure prediction by ZEFSAII (Michael W. Deem and Ramdas Pophale) SiO2 
 PCOD8174488
Probable space group: C M C 21
;
_chemical_formula_sum "Si O2"
_cell_formula_units_Z 64
_cell_length_a 8.879686
_cell_length_b 20.825807
_cell_length_c 19.368515
_cell_angle_alpha 90.000000
_cell_angle_beta 90.000000
_cell_angle_gamma 90.000000
_cell_volume 3581.754146
_symmetry_space_group_name_H-M "C M C 21"
_symmetry_group_IT_number 36
_symmetry_cell_setting 'orthorhombic'
loop_
_space_group_symop_operation_xyz
x,y,z
-x,-y,1/2+z
x,-y,1/2+z
-x,y,z
1/2+x,1/2+y,z
1/2-x,1/2-y,1/2+z
1/2+x,1/2-y,1/2+z
1/2-x,1/2+y,z
loop_
_atom_site_type_symbol
_atom_site_label
_atom_site_fract_x
_atom_site_fract_y
_atom_site_fract_z
Si Si1 0.326890 0.753849 0.840550
Si Si2 0.822063 0.236595 0.201608
Si Si3 0.177683 0.619051 0.848317
Si Si4 0.178176 0.308779 0.567885
Si Si5 0.178166 0.434951 0.490125
Si Si6 0.326961 0.194631 0.487144
Si Si7 0.822572 0.616861 0.696845
Si Si8 0.320998 0.936082 0.056188
O O1 0.500000 0.744586 0.819607
O O2 0.238099 0.785066 0.776463
O O3 0.259964 0.685664 0.863098
O O4 0.308872 0.801983 0.904795
O O5 0.749827 0.191382 0.143850
O O6 0.768207 0.309758 0.188088
O O7 0.000000 0.229279 0.200024
O O8 0.226011 0.590954 0.772921
O O9 0.000000 0.634004 0.849053
O O10 0.223108 0.569494 0.908877
O O11 0.239711 0.372708 0.530286
O O12 0.225672 0.247129 0.524363
O O13 0.000000 0.309675 0.574665
O O14 0.249958 0.499336 0.523183
O O15 0.000000 0.437400 0.497065
O O16 0.500000 0.206353 0.510039
O O17 0.271432 0.124331 0.509906
O O18 0.756419 0.573537 0.634488
O O19 0.000000 0.615902 0.689836
O O20 0.500000 0.942135 0.057230
#
# Coordination Sequence:
#
# PCOD8174488 Si02
#       8
#     8   8   8   8   8   8   8   8
#     4  10  19  30  48  78 106 131 166 216 265 306
#     4  10  19  33  52  75 101 135 173 214 260 311
#     4   9  16  29  47  72  99 132 172 209 255 313
#     4  11  20  31  50  78 107 132 166 214 260 305
#     4   9  18  30  47  73 106 136 170 216 260 300
#     4  10  19  32  52  76 103 135 172 211 257 307
#     4   8  14  25  47  71  93 122 168 212 246 295
#     4   9  16  30  49  73 101 133 173 218 255 295
#
# _framework density 17.868338999999999
#
# number of rings (size 3 to 8) (size 9 to 14) (size 15 to 20)
#    0.000    2.500    2.500    1.875    0.000    0.500 
#    0.000    1.250    0.000    8.250    0.000    3.500 
#    0.000    0.000    0.000    0.000    0.000    0.000 
#
# Total GULP energy -396663.913913 kJ/mol
# GULP energy per Si atom -12395.747310 kJ/mol
# Density = 1.782767 g / cm^3
# Si number density = 17.868339 Si / 1000 Ang^3
#
#
#
# Elastic Constant Matrix: (Units=GPa)
#
#
# Indices 1 2 3 4 5 6 
#
# 1 46.9082 22.1640 31.0979 0.0000 0.0000 0.0000
# 2 22.1640 111.9397 79.7004 0.0000 0.0000 0.0000
# 3 31.0979 79.7004 169.8818 0.0000 0.0000 0.0000
# 4 0.0000 0.0000 0.0000 29.1466 0.0000 0.0000
# 5 0.0000 0.0000 0.0000 0.0000 24.6568 0.0000
# 6 0.0000 0.0000 0.0000 0.0000 0.0000 15.3954
#
#
#
# Elastic Compliance Matrix: (Units=1/GPa)
#
#
# Indices 1 2 3 4 5 6 
#
# 1 0.024724 -0.002512 -0.003347 0.000000 0.000000 0.000000
# 2 -0.002512 0.013669 -0.005953 0.000000 0.000000 0.000000
# 3 -0.003347 -0.005953 0.009292 0.000000 0.000000 0.000000
# 4 0.000000 0.000000 0.000000 0.034309 0.000000 0.000000
# 5 0.000000 0.000000 0.000000 0.000000 0.040557 0.000000
# 6 0.000000 0.000000 0.000000 0.000000 0.000000 0.064955
#
#
# Mechanical properties :
#
#
# Convention : Reuss Voigt Hill
#
# Bulk Modulus (GPa) = 41.56174 66.07270 53.81722
# Shear Modulus (GPa) = 22.81522 26.89092 24.85307
#
# Velocity S-wave (km/s) = 3.57718 3.88357 3.73352
# Velocity P-wave (km/s) = 6.35391 7.56091 6.98353
#
# Compressibility (1/GPa) = 0.02406059
#
# Stress axis : x y z
#
# Youngs Moduli (GPa) = 40.44598 73.15612 107.61766
#
# Poissons Ratio (x) = 0.18377 0.36024
# Poissons Ratio (y) = 0.10160 0.64067
# Poissons Ratio (z) = 0.13539 0.43551
#
# Static dielectric constant tensor:
#      x y z
#    x 3.018610 0.000000 0.000000 
#    y 0.000000 3.293540 0.000000 
#    z 0.000000 0.000000 3.762150 
# 
# 
# High freq. dielectric constant tensor:
#      x y z
#    x 1.659030 0.000000 0.000000 
#    y 0.000000 1.658840 0.000000 
#    z 0.000000 0.000000 1.714910 
# 
# From -- ./inp_files/15725.got.cif
#   From: 2010.03.12/outbox.cif.g09.slc.cpg/sg36_8_cif.got.tgz:15725.got - 2010.04.14 02:13:53.
