data_PCOD8174323
_publ_section_title
;
Structure prediction by ZEFSAII (Michael W. Deem and Ramdas Pophale) SiO2 
 PCOD8174323
Probable space group: C M C 21
;
_chemical_formula_sum "Si O2"
_cell_formula_units_Z 64
_cell_length_a 9.225793
_cell_length_b 15.433609
_cell_length_c 24.000195
_cell_angle_alpha 90.000000
_cell_angle_beta 90.000000
_cell_angle_gamma 90.000000
_cell_volume 3417.322531
_symmetry_space_group_name_H-M "C M C 21"
_symmetry_group_IT_number 36
_symmetry_cell_setting 'orthorhombic'
loop_
_space_group_symop_operation_xyz
x,y,z
-x,-y,1/2+z
x,-y,1/2+z
-x,y,z
1/2+x,1/2+y,z
1/2-x,1/2-y,1/2+z
1/2+x,1/2-y,1/2+z
1/2-x,1/2+y,z
loop_
_atom_site_type_symbol
_atom_site_label
_atom_site_fract_x
_atom_site_fract_y
_atom_site_fract_z
Si Si1 0.329001 0.215043 0.548550
Si Si2 0.834497 0.977806 0.931164
Si Si3 0.328693 0.279506 0.665515
Si Si4 0.836542 0.956791 0.055212
Si Si5 0.666345 0.470301 0.673077
Si Si6 0.170735 0.621057 0.862507
Si Si7 0.169922 0.220851 0.438025
Si Si8 0.327604 0.880413 0.235965
O O1 0.500000 0.218909 0.539039
O O2 0.276607 0.270505 0.601708
O O3 0.282669 0.117109 0.561504
O O4 0.251248 0.251675 0.493769
O O5 0.737347 0.039150 0.893664
O O6 0.000000 0.989851 0.912179
O O7 0.785746 0.877521 0.921973
O O8 0.813637 0.004926 0.996005
O O9 0.500000 0.270285 0.666343
O O10 0.282635 0.373282 0.688974
O O11 0.263162 0.204255 0.704764
O O12 0.000000 0.916792 0.055617
O O13 0.816043 0.022473 0.106221
O O14 0.500000 0.487045 0.690512
O O15 0.767951 0.534571 0.706373
O O16 0.216802 0.712838 0.889576
O O17 0.227490 0.622447 0.799321
O O18 0.000000 0.608915 0.865144
O O19 0.000000 0.225060 0.450304
O O20 0.500000 0.883284 0.232744
#
# Coordination Sequence:
#
# PCOD8174323 Si02
#       8
#     8   8   8   8   8   8   8   8
#     4  10  18  31  56  84 111 143 181 224 269 322
#     4   9  19  35  56  81 111 143 181 226 270 321
#     4   9  19  34  55  81 108 142 182 220 270 327
#     4   9  18  33  54  80 115 147 173 219 279 329
#     4  10  20  35  57  83 109 142 185 226 269 326
#     4  10  22  38  58  79 108 149 188 225 271 326
#     4   9  20  38  55  79 112 148 180 218 275 330
#     4  10  21  40  57  77 112 148 184 228 273 323
#
# _framework density 18.728110999999998
#
# number of rings (size 3 to 8) (size 9 to 14) (size 15 to 20)
#    0.000    2.500    1.250    1.125    1.750    4.000 
#    0.000    4.375    0.000    0.000    0.000    0.000 
#    0.000    0.000    0.000    0.000    0.000    0.000 
#
# Total GULP energy -396726.325036 kJ/mol
# GULP energy per Si atom -12397.697657 kJ/mol
# Density = 1.868549 g / cm^3
# Si number density = 18.728111 Si / 1000 Ang^3
#
#
#
# Elastic Constant Matrix: (Units=GPa)
#
#
# Indices 1 2 3 4 5 6 
#
# 1 30.2706 26.6926 38.3995 0.0000 0.0000 0.0000
# 2 26.6926 121.3651 79.6686 0.0000 0.0000 0.0000
# 3 38.3995 79.6686 143.8942 0.0000 0.0000 0.0000
# 4 0.0000 0.0000 0.0000 22.6867 0.0000 0.0000
# 5 0.0000 0.0000 0.0000 0.0000 26.5673 0.0000
# 6 0.0000 0.0000 0.0000 0.0000 0.0000 28.0870
#
#
#
# Elastic Compliance Matrix: (Units=1/GPa)
#
#
# Indices 1 2 3 4 5 6 
#
# 1 0.050913 -0.003580 -0.011605 0.000000 0.000000 0.000000
# 2 -0.003580 0.013196 -0.006351 0.000000 0.000000 0.000000
# 3 -0.011605 -0.006351 0.013562 0.000000 0.000000 0.000000
# 4 0.000000 0.000000 0.000000 0.044079 0.000000 0.000000
# 5 0.000000 0.000000 0.000000 0.000000 0.037640 0.000000
# 6 0.000000 0.000000 0.000000 0.000000 0.000000 0.035604
#
#
# Mechanical properties :
#
#
# Convention : Reuss Voigt Hill
#
# Bulk Modulus (GPa) = 28.90095 65.00570 46.95332
# Shear Modulus (GPa) = 20.03225 25.51949 22.77587
#
# Velocity S-wave (km/s) = 3.27408 3.69539 3.49109
# Velocity P-wave (km/s) = 5.45510 7.27966 6.43240
#
# Compressibility (1/GPa) = 0.03460094
#
# Stress axis : x y z
#
# Youngs Moduli (GPa) = 19.64136 75.78202 73.73314
#
# Poissons Ratio (x) = 0.27130 0.85564
# Poissons Ratio (y) = 0.07031 0.46825
# Poissons Ratio (z) = 0.22793 0.48126
#
# Static dielectric constant tensor:
#      x y z
#    x 3.238170 0.000000 0.000000 
#    y 0.000000 3.463230 0.000000 
#    z 0.000000 0.000000 3.691790 
# 
# 
# High freq. dielectric constant tensor:
#      x y z
#    x 1.706720 0.000000 0.000000 
#    y 0.000000 1.727160 0.000000 
#    z 0.000000 0.000000 1.730410 
# 
# From -- ./inp_files/16654.got.cif
#   From: 2010.03.12/outbox.cif.g09.slc.cpg/sg36_9_cif.got.tgz:16654.got - 2010.04.14 02:13:53.
