data_PCOD8174861
_publ_section_title
;
Structure prediction by ZEFSAII (Michael W. Deem and Ramdas Pophale) SiO2 
 PCOD8174861
Probable space group: C M C 21
;
_chemical_formula_sum "Si O2"
_cell_formula_units_Z 64
_cell_length_a 8.656136
_cell_length_b 29.413895
_cell_length_c 12.525877
_cell_angle_alpha 90.000000
_cell_angle_beta 90.000000
_cell_angle_gamma 90.000000
_cell_volume 3189.222003
_symmetry_space_group_name_H-M "C M C 21"
_symmetry_group_IT_number 36
_symmetry_cell_setting 'orthorhombic'
loop_
_space_group_symop_operation_xyz
x,y,z
-x,-y,1/2+z
x,-y,1/2+z
-x,y,z
1/2+x,1/2+y,z
1/2-x,1/2-y,1/2+z
1/2+x,1/2-y,1/2+z
1/2-x,1/2+y,z
loop_
_atom_site_type_symbol
_atom_site_label
_atom_site_fract_x
_atom_site_fract_y
_atom_site_fract_z
Si Si1 0.683802 0.412172 0.326830
Si Si2 0.672667 0.913696 0.940610
Si Si3 0.182445 0.968867 0.122204
Si Si4 0.815305 0.277920 0.829783
Si Si5 0.670570 0.819819 0.041342
Si Si6 0.684305 0.816565 0.271898
Si Si7 0.182702 0.865351 0.740110
Si Si8 0.182658 0.066803 0.061825
O O1 0.500000 0.411764 0.322799
O O2 0.749136 0.442117 0.226660
O O3 0.743478 0.360661 0.325658
O O4 0.745933 0.432213 0.439836
O O5 0.500000 0.929093 0.906668
O O6 0.765405 0.898282 0.836176
O O7 0.758689 0.952627 0.006428
O O8 0.661849 0.873337 0.025234
O O9 0.000000 0.963386 0.122538
O O10 0.236051 0.021511 0.125659
O O11 0.738776 0.228953 0.828249
O O12 0.759389 0.315000 0.742326
O O13 0.000000 0.275405 0.824176
O O14 0.746624 0.296136 0.941922
O O15 0.500000 0.798432 0.049222
O O16 0.756105 0.811482 0.152833
O O17 0.500000 0.821332 0.272201
O O18 0.237238 0.889240 0.629797
O O19 0.000000 0.859469 0.745671
O O20 0.000000 0.066894 0.055546
#
# Coordination Sequence:
#
# PCOD8174861 Si02
#       8
#     8   8   8   8   8   8   8   8
#     4  10  21  38  59  87 120 153 195 246 300 351
#     4  10  19  35  57  82 113 150 188 242 298 344
#     4  10  20  35  60  88 112 150 201 246 287 350
#     4  10  21  38  58  84 116 154 197 245 300 352
#     4   8  17  34  54  74 105 145 184 231 290 344
#     4  11  21  37  59  84 114 153 197 242 295 355
#     4  10  20  37  60  86 116 155 200 245 293 351
#     4   9  21  38  59  87 122 160 196 243 301 353
#
# _framework density 20.067589000000002
#
# number of rings (size 3 to 8) (size 9 to 14) (size 15 to 20)
#    0.000    2.250    1.250    2.250    1.750    1.000 
#    0.000   10.000    0.000    0.000    0.000    0.000 
#    0.000    0.000    0.000    0.000    0.000    0.000 
#
# Total GULP energy -396532.485132 kJ/mol
# GULP energy per Si atom -12391.640160 kJ/mol
# Density = 2.002191 g / cm^3
# Si number density = 20.067589 Si / 1000 Ang^3
#
#
#
# Elastic Constant Matrix: (Units=GPa)
#
#
# Indices 1 2 3 4 5 6 
#
# 1 37.9192 13.1633 18.0948 0.0000 0.0000 0.0000
# 2 13.1633 127.3489 49.4156 0.0000 0.0000 0.0000
# 3 18.0948 49.4156 96.9118 0.0000 0.0000 0.0000
# 4 0.0000 0.0000 0.0000 28.6611 0.0000 0.0000
# 5 0.0000 0.0000 0.0000 0.0000 19.0184 0.0000
# 6 0.0000 0.0000 0.0000 0.0000 0.0000 25.4170
#
#
#
# Elastic Compliance Matrix: (Units=1/GPa)
#
#
# Indices 1 2 3 4 5 6 
#
# 1 0.029079 -0.001121 -0.004858 0.000000 0.000000 0.000000
# 2 -0.001121 0.009833 -0.004804 0.000000 0.000000 0.000000
# 3 -0.004858 -0.004804 0.013676 0.000000 0.000000 0.000000
# 4 0.000000 0.000000 0.000000 0.034890 0.000000 0.000000
# 5 0.000000 0.000000 0.000000 0.000000 0.052581 0.000000
# 6 0.000000 0.000000 0.000000 0.000000 0.000000 0.039344
#
#
# Mechanical properties :
#
#
# Convention : Reuss Voigt Hill
#
# Bulk Modulus (GPa) = 32.23630 47.05859 39.64744
# Shear Modulus (GPa) = 23.66210 26.71974 25.19092
#
# Velocity S-wave (km/s) = 3.43756 3.65291 3.54687
# Velocity P-wave (km/s) = 5.64398 6.42594 6.04761
#
# Compressibility (1/GPa) = 0.03102093
#
# Stress axis : x y z
#
# Youngs Moduli (GPa) = 34.38897 101.70310 73.12346
#
# Poissons Ratio (x) = 0.11397 0.35524
# Poissons Ratio (y) = 0.03854 0.35131
# Poissons Ratio (z) = 0.16706 0.48862
#
# Static dielectric constant tensor:
#      x y z
#    x 3.414110 0.000000 0.000000 
#    y 0.000000 3.697620 0.000000 
#    z 0.000000 0.000000 3.906760 
# 
# 
# High freq. dielectric constant tensor:
#      x y z
#    x 1.758350 0.000000 0.000000 
#    y 0.000000 1.784950 0.000000 
#    z 0.000000 0.000000 1.788210 
# 
# From -- ./inp_files/7261.got.cif
#   From: 2010.03.12/outbox.cif.g09.slc.cpg/sg36_4_cif.got.tgz:7261.got - 2010.04.14 02:13:53.
