data_PCOD8174973
_publ_section_title
;
Structure prediction by ZEFSAII (Michael W. Deem and Ramdas Pophale) SiO2 
 PCOD8174973
Probable space group: C M C 21
;
_chemical_formula_sum "Si O2"
_cell_formula_units_Z 56
_cell_length_a 11.781288
_cell_length_b 16.867999
_cell_length_c 14.436477
_cell_angle_alpha 90.000000
_cell_angle_beta 90.000000
_cell_angle_gamma 90.000000
_cell_volume 2868.914216
_symmetry_space_group_name_H-M "C M C 21"
_symmetry_group_IT_number 36
_symmetry_cell_setting 'orthorhombic'
loop_
_space_group_symop_operation_xyz
x,y,z
-x,-y,1/2+z
x,-y,1/2+z
-x,y,z
1/2+x,1/2+y,z
1/2-x,1/2-y,1/2+z
1/2+x,1/2-y,1/2+z
1/2-x,1/2+y,z
loop_
_atom_site_type_symbol
_atom_site_label
_atom_site_fract_x
_atom_site_fract_y
_atom_site_fract_z
Si Si1 0.128733 0.338490 0.474410
Si Si2 0.870686 0.944178 0.789752
Si Si3 0.368565 0.752855 0.789298
Si Si4 0.782497 0.172540 0.139081
Si Si5 0.777819 0.830680 0.937889
Si Si6 0.769465 0.398254 0.292281
Si Si7 0.627903 0.161764 0.605252
O O1 0.221239 0.367571 0.550393
O O2 0.141564 0.244137 0.458371
O O3 0.149609 0.388349 0.381090
O O4 0.000000 0.355277 0.507251
O O5 0.851181 0.891236 0.698506
O O6 0.852974 0.895396 0.884563
O O7 0.000000 0.975368 0.788056
O O8 0.780242 0.014212 0.786749
O O9 0.500000 0.761320 0.781148
O O10 0.317874 0.786420 0.695377
O O11 0.327731 0.804193 0.875599
O O12 0.335714 0.661434 0.802024
O O13 0.868995 0.242252 0.110102
O O14 0.721707 0.867680 0.030548
O O15 0.844500 0.379557 0.202471
O O16 0.500000 0.137227 0.576717
#
# Coordination Sequence:
#
# PCOD8174973 Si02
#       7
#     8   8   8   8   8   8   8
#     4  10  19  37  58  81 110 143 179 228 270 313
#     4  11  22  40  57  78 110 142 175 225 273 321
#     4   9  16  32  53  78 108 140 175 229 275 309
#     4   9  20  34  58  85 104 135 189 225 266 327
#     4   9  20  34  58  85 104 135 189 225 266 327
#     4  10  22  34  52  80 112 148 188 212 260 332
#     4  10  19  37  58  81 110 143 179 228 270 313
#
# _framework density 19.519579
#
# number of rings (size 3 to 8) (size 9 to 14) (size 15 to 20)
#    0.000    2.286    0.000    3.429    0.000    1.143 
#    0.000   15.714    0.000    0.000    0.000    0.000 
#    0.000    0.000    0.000    0.000    0.000    0.000 
#
# Total GULP energy -347208.143723 kJ/mol
# GULP energy per Si atom -12400.290847 kJ/mol
# Density = 1.947515 g / cm^3
# Si number density = 19.519579 Si / 1000 Ang^3
#
#
#
# Elastic Constant Matrix: (Units=GPa)
#
#
# Indices 1 2 3 4 5 6 
#
# 1 100.8735 14.7843 20.7891 0.0000 0.0000 0.0000
# 2 14.7843 58.8510 15.2306 0.0000 0.0000 0.0000
# 3 20.7891 15.2306 114.1350 0.0000 0.0000 0.0000
# 4 0.0000 0.0000 0.0000 13.7052 0.0000 0.0000
# 5 0.0000 0.0000 0.0000 0.0000 19.2548 0.0000
# 6 0.0000 0.0000 0.0000 0.0000 0.0000 16.4869
#
#
#
# Elastic Compliance Matrix: (Units=1/GPa)
#
#
# Indices 1 2 3 4 5 6 
#
# 1 0.010577 -0.002236 -0.001628 0.000000 0.000000 0.000000
# 2 -0.002236 0.018072 -0.002004 0.000000 0.000000 0.000000
# 3 -0.001628 -0.002004 0.009326 0.000000 0.000000 0.000000
# 4 0.000000 0.000000 0.000000 0.072965 0.000000 0.000000
# 5 0.000000 0.000000 0.000000 0.000000 0.051935 0.000000
# 6 0.000000 0.000000 0.000000 0.000000 0.000000 0.060654
#
#
# Mechanical properties :
#
#
# Convention : Reuss Voigt Hill
#
# Bulk Modulus (GPa) = 38.11238 41.71860 39.91549
# Shear Modulus (GPa) = 20.49085 24.75975 22.62530
#
# Velocity S-wave (km/s) = 3.24351 3.56540 3.40826
# Velocity P-wave (km/s) = 5.79610 6.19424 5.99847
#
# Compressibility (1/GPa) = 0.02623819
#
# Stress axis : x y z
#
# Youngs Moduli (GPa) = 94.54819 55.33283 107.23182
#
# Poissons Ratio (x) = 0.12370 0.17459
# Poissons Ratio (y) = 0.21138 0.21494
# Poissons Ratio (z) = 0.15394 0.11091
#
# Static dielectric constant tensor:
#      x y z
#    x 3.325310 0.000000 0.000000 
#    y 0.000000 3.292970 0.000000 
#    z 0.000000 0.000000 3.856060 
# 
# 
# High freq. dielectric constant tensor:
#      x y z
#    x 1.759450 0.000000 0.000000 
#    y 0.000000 1.731650 0.000000 
#    z 0.000000 0.000000 1.772890 
# 
# From -- ./inp_files/11601.got.cif
#   From: 2010.03.12/outbox.cif.g09.slc.cpg/sg36_6_cif.got.tgz:11601.got - 2010.04.14 02:13:53.
