data_PCOD8174603
_publ_section_title
;
Structure prediction by ZEFSAII (Michael W. Deem and Ramdas Pophale) SiO2 
 PCOD8174603
Probable space group: C M C 21
;
_chemical_formula_sum "Si O2"
_cell_formula_units_Z 64
_cell_length_a 9.327157
_cell_length_b 19.944022
_cell_length_c 19.551807
_cell_angle_alpha 90.000000
_cell_angle_beta 90.000000
_cell_angle_gamma 90.000000
_cell_volume 3637.047167
_symmetry_space_group_name_H-M "C M C 21"
_symmetry_group_IT_number 36
_symmetry_cell_setting 'orthorhombic'
loop_
_space_group_symop_operation_xyz
x,y,z
-x,-y,1/2+z
x,-y,1/2+z
-x,y,z
1/2+x,1/2+y,z
1/2-x,1/2-y,1/2+z
1/2+x,1/2-y,1/2+z
1/2-x,1/2+y,z
loop_
_atom_site_type_symbol
_atom_site_label
_atom_site_fract_x
_atom_site_fract_y
_atom_site_fract_z
Si Si1 0.665343 0.701845 0.793730
Si Si2 0.835928 0.802224 0.973317
Si Si3 0.830277 0.407224 0.055807
Si Si4 0.164027 0.661142 0.923753
Si Si5 0.833469 0.021669 0.307776
Si Si6 0.834999 0.083079 0.693972
Si Si7 0.335950 0.671622 0.316909
Si Si8 0.834947 0.487200 0.443388
O O1 0.500000 0.713282 0.811815
O O2 0.736682 0.663845 0.857285
O O3 0.684059 0.656438 0.726774
O O4 0.737418 0.773831 0.779041
O O5 0.802318 0.722473 0.975298
O O6 0.802168 0.829931 0.897727
O O7 0.000000 0.817260 0.994057
O O8 0.732633 0.837595 0.027453
O O9 0.766551 0.423379 0.129306
O O10 0.000000 0.400350 0.061692
O O11 0.781963 0.468022 0.006580
O O12 0.189476 0.590997 0.962759
O O13 0.000000 0.668022 0.898017
O O14 0.782534 0.973895 0.246702
O O15 0.750752 0.004614 0.376080
O O16 0.000000 0.010106 0.323909
O O17 0.802818 0.098517 0.286007
O O18 0.000000 0.071114 0.672750
O O19 0.500000 0.692693 0.304706
O O20 0.000000 0.502511 0.427553
#
# Coordination Sequence:
#
# PCOD8174603 Si02
#       8
#     8   8   8   8   8   8   8   8
#     4  10  19  32  53  80 107 135 176 226 266 313
#     4   9  17  32  54  77 104 141 177 214 264 322
#     4  11  23  36  53  79 110 145 182 225 275 326
#     4   9  18  33  54  79 108 140 173 216 272 322
#     4  10  19  35  57  81 108 142 183 223 267 324
#     4  10  22  38  55  77 107 146 186 223 269 327
#     4   9  18  32  54  81 109 139 172 216 271 323
#     4  10  20  34  54  82 111 140 179 227 274 319
#
# _framework density 17.596692000000001
#
# number of rings (size 3 to 8) (size 9 to 14) (size 15 to 20)
#    0.000    2.250    2.500    1.500    0.000    4.500 
#    0.000    1.250    0.000    4.500    0.000    0.000 
#    0.000    0.000    0.000    0.000    0.000    0.000 
#
# Total GULP energy -396826.945402 kJ/mol
# GULP energy per Si atom -12400.842044 kJ/mol
# Density = 1.755664 g / cm^3
# Si number density = 17.596692 Si / 1000 Ang^3
#
#
#
# Elastic Constant Matrix: (Units=GPa)
#
#
# Indices 1 2 3 4 5 6 
#
# 1 85.6728 55.0039 60.4846 0.0000 0.0000 0.0000
# 2 55.0039 127.5299 60.8085 0.0000 0.0000 0.0000
# 3 60.4846 60.8085 102.3601 0.0000 0.0000 0.0000
# 4 0.0000 0.0000 0.0000 23.4892 0.0000 0.0000
# 5 0.0000 0.0000 0.0000 0.0000 30.1905 0.0000
# 6 0.0000 0.0000 0.0000 0.0000 0.0000 27.7191
#
#
#
# Elastic Compliance Matrix: (Units=1/GPa)
#
#
# Indices 1 2 3 4 5 6 
#
# 1 0.021761 -0.004541 -0.010161 0.000000 0.000000 0.000000
# 2 -0.004541 0.011888 -0.004379 0.000000 0.000000 0.000000
# 3 -0.010161 -0.004379 0.018375 0.000000 0.000000 0.000000
# 4 0.000000 0.000000 0.000000 0.042573 0.000000 0.000000
# 5 0.000000 0.000000 0.000000 0.000000 0.033123 0.000000
# 6 0.000000 0.000000 0.000000 0.000000 0.000000 0.036076
#
#
# Mechanical properties :
#
#
# Convention : Reuss Voigt Hill
#
# Bulk Modulus (GPa) = 72.13826 74.23964 73.18895
# Shear Modulus (GPa) = 24.20384 25.56416 24.88400
#
# Velocity S-wave (km/s) = 3.71277 3.81567 3.76457
# Velocity P-wave (km/s) = 7.71128 7.85453 7.78323
#
# Compressibility (1/GPa) = 0.01386227
#
# Stress axis : x y z
#
# Youngs Moduli (GPa) = 45.95304 84.12096 54.42121
#
# Poissons Ratio (x) = 0.38196 0.55299
# Poissons Ratio (y) = 0.20865 0.23831
# Poissons Ratio (z) = 0.46695 0.36836
#
# Static dielectric constant tensor:
#      x y z
#    x 3.286080 0.000000 0.000000 
#    y 0.000000 3.702350 0.000000 
#    z 0.000000 0.000000 2.950300 
# 
# 
# High freq. dielectric constant tensor:
#      x y z
#    x 1.683040 0.000000 0.000000 
#    y 0.000000 1.697780 0.000000 
#    z 0.000000 0.000000 1.645870 
# 
# From -- ./inp_files/15806.got.cif
#   From: 2010.03.12/outbox.cif.g09.slc.cpg/sg36_8_cif.got.tgz:15806.got - 2010.04.14 02:13:53.
