data_PCOD8174871
_publ_section_title
;
Structure prediction by ZEFSAII (Michael W. Deem and Ramdas Pophale) SiO2 
 PCOD8174871
Probable space group: C M C 21
;
_chemical_formula_sum "Si O2"
_cell_formula_units_Z 64
_cell_length_a 8.659537
_cell_length_b 19.863166
_cell_length_c 19.533103
_cell_angle_alpha 90.000000
_cell_angle_beta 90.000000
_cell_angle_gamma 90.000000
_cell_volume 3359.807417
_symmetry_space_group_name_H-M "C M C 21"
_symmetry_group_IT_number 36
_symmetry_cell_setting 'orthorhombic'
loop_
_space_group_symop_operation_xyz
x,y,z
-x,-y,1/2+z
x,-y,1/2+z
-x,y,z
1/2+x,1/2+y,z
1/2-x,1/2-y,1/2+z
1/2+x,1/2-y,1/2+z
1/2-x,1/2+y,z
loop_
_atom_site_type_symbol
_atom_site_label
_atom_site_fract_x
_atom_site_fract_y
_atom_site_fract_z
Si Si1 0.822103 0.926026 0.363740
Si Si2 0.321135 0.910871 0.982797
Si Si3 0.679544 0.271743 0.989491
Si Si4 0.319838 0.839511 0.600042
Si Si5 0.179879 0.045602 0.017844
Si Si6 0.179709 0.825317 0.745140
Si Si7 0.178403 0.441241 0.826842
Si Si8 0.678930 0.725771 0.849905
O O1 0.772797 0.926302 0.443266
O O2 0.789517 0.852477 0.332929
O O3 0.000000 0.947228 0.357100
O O4 0.722230 0.980027 0.321388
O O5 0.500000 0.924660 0.996499
O O6 0.273211 0.838221 0.011056
O O7 0.282483 0.913463 0.902179
O O8 0.224104 0.967157 0.023228
O O9 0.500000 0.288961 0.993306
O O10 0.718723 0.248855 0.913223
O O11 0.727013 0.213354 0.041592
O O12 0.500000 0.837057 0.618188
O O13 0.276261 0.913867 0.574259
O O14 0.220517 0.820600 0.665811
O O15 0.000000 0.055416 0.032978
O O16 0.221915 0.899278 0.772885
O O17 0.277473 0.768223 0.783521
O O18 0.000000 0.811396 0.756222
O O19 0.000000 0.432006 0.808335
O O20 0.500000 0.737782 0.868823
#
# Coordination Sequence:
#
# PCOD8174871 Si02
#       8
#     8   8   8   8   8   8   8   8
#     4   9  19  34  57  87 118 150 189 240 291 345
#     4  10  20  34  57  87 119 153 192 243 293 342
#     4  11  22  36  59  89 119 154 197 248 296 351
#     4  11  24  41  60  85 120 158 199 244 299 359
#     4  10  19  35  58  86 118 151 193 241 291 349
#     4  12  25  40  60  85 118 159 202 244 297 358
#     4  10  20  35  57  85 117 152 192 241 292 344
#     4  11  21  37  60  88 121 155 194 243 297 352
#
# _framework density 19.048711000000001
#
# number of rings (size 3 to 8) (size 9 to 14) (size 15 to 20)
#    0.000    1.500    2.500    3.375    0.000    4.000 
#    0.000    1.250    0.000    4.500    0.000    0.000 
#    0.000    0.000    0.000    0.000    0.000    0.000 
#
# Total GULP energy -397001.937452 kJ/mol
# GULP energy per Si atom -12406.310545 kJ/mol
# Density = 1.900535 g / cm^3
# Si number density = 19.048711 Si / 1000 Ang^3
#
#
#
# Elastic Constant Matrix: (Units=GPa)
#
#
# Indices 1 2 3 4 5 6 
#
# 1 57.1884 28.9069 17.2850 0.0000 0.0000 0.0000
# 2 28.9069 111.8151 32.7948 0.0000 0.0000 0.0000
# 3 17.2850 32.7948 64.7419 0.0000 0.0000 0.0000
# 4 0.0000 0.0000 0.0000 23.2102 0.0000 0.0000
# 5 0.0000 0.0000 0.0000 0.0000 28.7137 0.0000
# 6 0.0000 0.0000 0.0000 0.0000 0.0000 36.8426
#
#
#
# Elastic Compliance Matrix: (Units=1/GPa)
#
#
# Indices 1 2 3 4 5 6 
#
# 1 0.020700 -0.004382 -0.003307 0.000000 0.000000 0.000000
# 2 -0.004382 0.011431 -0.004621 0.000000 0.000000 0.000000
# 3 -0.003307 -0.004621 0.018670 0.000000 0.000000 0.000000
# 4 0.000000 0.000000 0.000000 0.043085 0.000000 0.000000
# 5 0.000000 0.000000 0.000000 0.000000 0.034827 0.000000
# 6 0.000000 0.000000 0.000000 0.000000 0.000000 0.027142
#
#
# Mechanical properties :
#
#
# Convention : Reuss Voigt Hill
#
# Bulk Modulus (GPa) = 38.19369 43.52430 40.85900
# Shear Modulus (GPa) = 26.42690 28.07055 27.24872
#
# Velocity S-wave (km/s) = 3.72873 3.84294 3.78627
# Velocity P-wave (km/s) = 6.21546 6.52606 6.37265
#
# Compressibility (1/GPa) = 0.02618233
#
# Stress axis : x y z
#
# Youngs Moduli (GPa) = 48.30826 87.47911 53.56329
#
# Poissons Ratio (x) = 0.38330 0.17714
# Poissons Ratio (y) = 0.21167 0.24750
# Poissons Ratio (z) = 0.15976 0.40421
#
# Static dielectric constant tensor:
#      x y z
#    x 3.511030 0.000000 0.000000 
#    y 0.000000 3.626770 0.000000 
#    z 0.000000 0.000000 3.203620 
# 
# 
# High freq. dielectric constant tensor:
#      x y z
#    x 1.751600 0.000000 0.000000 
#    y 0.000000 1.753610 0.000000 
#    z 0.000000 0.000000 1.708880 
# 
# From -- ./inp_files/13889.got.cif
#   From: 2010.03.12/outbox.cif.g09.slc.cpg/sg36_7_cif.got.tgz:13889.got - 2010.04.14 02:13:53.
