data_PCOD8174808
_publ_section_title
;
Structure prediction by ZEFSAII (Michael W. Deem and Ramdas Pophale) SiO2 
 PCOD8174808
Probable space group: C M C 21
;
_chemical_formula_sum "Si O2"
_cell_formula_units_Z 64
_cell_length_a 8.942813
_cell_length_b 24.133640
_cell_length_c 14.360889
_cell_angle_alpha 90.000000
_cell_angle_beta 90.000000
_cell_angle_gamma 90.000000
_cell_volume 3099.404826
_symmetry_space_group_name_H-M "C M C 21"
_symmetry_group_IT_number 36
_symmetry_cell_setting 'orthorhombic'
loop_
_space_group_symop_operation_xyz
x,y,z
-x,-y,1/2+z
x,-y,1/2+z
-x,y,z
1/2+x,1/2+y,z
1/2-x,1/2-y,1/2+z
1/2+x,1/2-y,1/2+z
1/2-x,1/2+y,z
loop_
_atom_site_type_symbol
_atom_site_label
_atom_site_fract_x
_atom_site_fract_y
_atom_site_fract_z
Si Si1 0.831478 0.549296 0.695180
Si Si2 0.322460 0.000841 0.888387
Si Si3 0.171468 0.731602 0.290953
Si Si4 0.173455 0.920103 0.015691
Si Si5 0.324339 0.393618 0.468925
Si Si6 0.670600 0.812669 0.595129
Si Si7 0.331297 0.839638 0.301501
Si Si8 0.826206 0.204295 0.480251
O O1 0.772506 0.511346 0.780935
O O2 0.726607 0.544354 0.605295
O O3 0.826568 0.613073 0.724949
O O4 0.000000 0.532039 0.667295
O O5 0.500000 0.003690 0.894268
O O6 0.257006 0.047824 0.956281
O O7 0.260657 0.942040 0.923958
O O8 0.186591 0.688273 0.206634
O O9 0.268943 0.783787 0.256977
O O10 0.232088 0.705529 0.385681
O O11 0.000000 0.749671 0.304653
O O12 0.000000 0.932008 0.001044
O O13 0.207581 0.854920 0.028918
O O14 0.500000 0.403783 0.468509
O O15 0.273936 0.363924 0.564098
O O16 0.276408 0.351832 0.387828
O O17 0.500000 0.824802 0.566022
O O18 0.721727 0.754045 0.549023
O O19 0.500000 0.831442 0.339067
O O20 0.000000 0.208627 0.454106
#
# Coordination Sequence:
#
# PCOD8174808 Si02
#       8
#     8   8   8   8   8   8   8   8
#     4   9  20  38  62  90 116 157 206 248 301 363
#     4  10  22  42  65  88 119 159 200 249 306 363
#     4  11  22  35  56  88 120 158 204 245 293 358
#     4  11  23  40  63  92 123 160 203 254 305 357
#     4  11  21  35  59  88 114 147 197 250 296 351
#     4  10  21  38  58  84 122 163 197 241 303 362
#     4  10  19  34  57  84 119 158 195 244 299 350
#     4  10  22  40  60  84 123 166 198 243 305 360
#
# _framework density 20.649125000000002
#
# number of rings (size 3 to 8) (size 9 to 14) (size 15 to 20)
#    0.000    1.750    1.250    4.125    0.000    6.000 
#    2.250    0.000    0.000    0.000    0.000    0.000 
#    0.000    0.000    0.000    0.000    0.000    0.000 
#
# Total GULP energy -396810.070108 kJ/mol
# GULP energy per Si atom -12400.314691 kJ/mol
# Density = 2.060213 g / cm^3
# Si number density = 20.649125 Si / 1000 Ang^3
#
#
#
# Elastic Constant Matrix: (Units=GPa)
#
#
# Indices 1 2 3 4 5 6 
#
# 1 92.7881 18.4336 34.9184 0.0000 0.0000 0.0000
# 2 18.4336 42.8735 7.5724 0.0000 0.0000 0.0000
# 3 34.9184 7.5724 93.3265 0.0000 0.0000 0.0000
# 4 0.0000 0.0000 0.0000 23.6866 0.0000 0.0000
# 5 0.0000 0.0000 0.0000 0.0000 31.6284 0.0000
# 6 0.0000 0.0000 0.0000 0.0000 0.0000 32.0394
#
#
#
# Elastic Compliance Matrix: (Units=1/GPa)
#
#
# Indices 1 2 3 4 5 6 
#
# 1 0.013520 -0.004991 -0.004654 0.000000 0.000000 0.000000
# 2 -0.004991 0.025506 -0.000202 0.000000 0.000000 0.000000
# 3 -0.004654 -0.000202 0.012473 0.000000 0.000000 0.000000
# 4 0.000000 0.000000 0.000000 0.042218 0.000000 0.000000
# 5 0.000000 0.000000 0.000000 0.000000 0.031617 0.000000
# 6 0.000000 0.000000 0.000000 0.000000 0.000000 0.031212
#
#
# Mechanical properties :
#
#
# Convention : Reuss Voigt Hill
#
# Bulk Modulus (GPa) = 31.44140 38.98189 35.21164
# Shear Modulus (GPa) = 26.76078 28.67514 27.71796
#
# Velocity S-wave (km/s) = 3.60387 3.73055 3.66776
# Velocity P-wave (km/s) = 5.70761 6.12170 5.91828
#
# Compressibility (1/GPa) = 0.03180520
#
# Stress axis : x y z
#
# Youngs Moduli (GPa) = 73.96425 39.20636 80.17560
#
# Poissons Ratio (x) = 0.19568 0.37311
# Poissons Ratio (y) = 0.36916 0.01620
# Poissons Ratio (z) = 0.34420 0.00792
#
# Static dielectric constant tensor:
#      x y z
#    x 3.726490 0.000000 0.000000 
#    y 0.000000 3.673930 0.000000 
#    z 0.000000 0.000000 3.627250 
# 
# 
# High freq. dielectric constant tensor:
#      x y z
#    x 1.807910 0.000000 0.000000 
#    y 0.000000 1.797580 0.000000 
#    z 0.000000 0.000000 1.804320 
# 
# From -- ./inp_files/11108.got.cif
#   From: 2010.03.12/outbox.cif.g09.slc.cpg/sg36_6_cif.got.tgz:11108.got - 2010.04.14 02:13:53.
