data_PCOD8174962
_publ_section_title
;
Structure prediction by ZEFSAII (Michael W. Deem and Ramdas Pophale) SiO2 
 PCOD8174962
Probable space group: C M C 21
;
_chemical_formula_sum "Si O2"
_cell_formula_units_Z 64
_cell_length_a 9.174341
_cell_length_b 28.072430
_cell_length_c 12.560885
_cell_angle_alpha 90.000000
_cell_angle_beta 90.000000
_cell_angle_gamma 90.000000
_cell_volume 3235.006260
_symmetry_space_group_name_H-M "C M C 21"
_symmetry_group_IT_number 36
_symmetry_cell_setting 'orthorhombic'
loop_
_space_group_symop_operation_xyz
x,y,z
-x,-y,1/2+z
x,-y,1/2+z
-x,y,z
1/2+x,1/2+y,z
1/2-x,1/2-y,1/2+z
1/2+x,1/2-y,1/2+z
1/2-x,1/2+y,z
loop_
_atom_site_type_symbol
_atom_site_label
_atom_site_fract_x
_atom_site_fract_y
_atom_site_fract_z
Si Si1 0.341502 0.064835 0.522900
Si Si2 0.328256 0.369233 0.301842
Si Si3 0.331435 0.937324 0.783824
Si Si4 0.334041 0.179986 0.978589
Si Si5 0.830603 0.029114 0.705732
Si Si6 0.662403 0.831320 0.111202
Si Si7 0.829502 0.666162 0.218914
Si Si8 0.831747 0.786276 0.915836
O O1 0.500000 0.039151 0.524115
O O2 0.288282 0.074620 0.404378
O O3 0.225645 0.032664 0.584719
O O4 0.356471 0.114662 0.579581
O O5 0.500000 0.360333 0.296841
O O6 0.268118 0.358695 0.420129
O O7 0.289552 0.424037 0.274125
O O8 0.252764 0.331464 0.221324
O O9 0.500000 0.950505 0.769208
O O10 0.290652 0.890079 0.717699
O O11 0.238082 0.982580 0.754783
O O12 0.500000 0.161170 0.974298
O O13 0.318446 0.229501 0.916528
O O14 0.287429 0.185941 0.102289
O O15 0.000000 0.021168 0.700632
O O16 0.500000 0.808806 0.127691
O O17 0.749057 0.803984 0.020281
O O18 0.738255 0.694477 0.307094
O O19 0.000000 0.673509 0.246133
O O20 0.000000 0.802843 0.921590
#
# Coordination Sequence:
#
# PCOD8174962 Si02
#       8
#     8   8   8   8   8   8   8   8
#     4   9  18  35  57  82 111 149 200 246 289 350
#     4  10  22  40  60  86 122 160 203 250 303 360
#     4  10  20  37  61  87 114 153 206 250 295 356
#     4  10  24  42  61  88 124 164 204 248 304 365
#     4  10  22  37  56  87 122 157 197 245 309 364
#     4  10  19  36  62  87 115 152 198 249 299 353
#     4  10  22  43  64  87 121 161 206 252 302 361
#     4  11  23  38  59  92 123 154 200 248 305 365
#
# _framework density 19.783577999999999
#
# number of rings (size 3 to 8) (size 9 to 14) (size 15 to 20)
#    0.000    2.000    1.250    1.500    1.750    5.500 
#    0.000    3.750    0.000    0.000    0.000    0.000 
#    0.000    0.000    0.000    0.000    0.000    0.000 
#
# Total GULP energy -396761.304354 kJ/mol
# GULP energy per Si atom -12398.790761 kJ/mol
# Density = 1.973855 g / cm^3
# Si number density = 19.783578 Si / 1000 Ang^3
#
#
#
# Elastic Constant Matrix: (Units=GPa)
#
#
# Indices 1 2 3 4 5 6 
#
# 1 106.7326 58.0684 50.9725 0.0000 0.0000 0.0000
# 2 58.0684 66.9382 41.4837 0.0000 0.0000 0.0000
# 3 50.9725 41.4837 98.9817 0.0000 0.0000 0.0000
# 4 0.0000 0.0000 0.0000 6.1315 0.0000 0.0000
# 5 0.0000 0.0000 0.0000 0.0000 37.4746 0.0000
# 6 0.0000 0.0000 0.0000 0.0000 0.0000 33.0040
#
#
#
# Elastic Compliance Matrix: (Units=1/GPa)
#
#
# Indices 1 2 3 4 5 6 
#
# 1 0.018764 -0.013899 -0.003838 0.000000 0.000000 0.000000
# 2 -0.013899 0.030477 -0.005615 0.000000 0.000000 0.000000
# 3 -0.003838 -0.005615 0.014432 0.000000 0.000000 0.000000
# 4 0.000000 0.000000 0.000000 0.163092 0.000000 0.000000
# 5 0.000000 0.000000 0.000000 0.000000 0.026685 0.000000
# 6 0.000000 0.000000 0.000000 0.000000 0.000000 0.030299
#
#
# Mechanical properties :
#
#
# Convention : Reuss Voigt Hill
#
# Bulk Modulus (GPa) = 58.93145 63.74464 61.33804
# Shear Modulus (GPa) = 14.87610 23.46388 19.16999
#
# Velocity S-wave (km/s) = 2.74513 3.44761 3.11623
# Velocity P-wave (km/s) = 6.31668 6.93823 6.63473
#
# Compressibility (1/GPa) = 0.01696887
#
# Stress axis : x y z
#
# Youngs Moduli (GPa) = 53.29388 32.81210 69.28824
#
# Poissons Ratio (x) = 0.45606 0.26590
# Poissons Ratio (y) = 0.74075 0.38907
# Poissons Ratio (z) = 0.20452 0.18425
#
# Static dielectric constant tensor:
#      x y z
#    x 3.644930 0.000000 0.000000 
#    y 0.000000 3.607810 0.000000 
#    z 0.000000 0.000000 3.780050 
# 
# 
# High freq. dielectric constant tensor:
#      x y z
#    x 1.774430 0.000000 0.000000 
#    y 0.000000 1.761080 0.000000 
#    z 0.000000 0.000000 1.777320 
# 
# From -- ./inp_files/7127.got.cif
#   From: 2010.03.12/outbox.cif.g09.slc.cpg/sg36_4_cif.got.tgz:7127.got - 2010.04.14 02:13:53.
