data_PCOD8174300
_publ_section_title
;
Structure prediction by ZEFSAII (Michael W. Deem and Ramdas Pophale) SiO2 
 PCOD8174300
Probable space group: C M C 21
;
_chemical_formula_sum "Si O2"
_cell_formula_units_Z 64
_cell_length_a 15.683264
_cell_length_b 22.370608
_cell_length_c 9.671930
_cell_angle_alpha 90.000000
_cell_angle_beta 90.000000
_cell_angle_gamma 90.000000
_cell_volume 3393.340070
_symmetry_space_group_name_H-M "C M C 21"
_symmetry_group_IT_number 36
_symmetry_cell_setting 'orthorhombic'
loop_
_space_group_symop_operation_xyz
x,y,z
-x,-y,1/2+z
x,-y,1/2+z
-x,y,z
1/2+x,1/2+y,z
1/2-x,1/2-y,1/2+z
1/2+x,1/2-y,1/2+z
1/2-x,1/2+y,z
loop_
_atom_site_type_symbol
_atom_site_label
_atom_site_fract_x
_atom_site_fract_y
_atom_site_fract_z
Si Si1 0.899816 0.827132 0.304320
Si Si2 0.676072 0.670519 0.517332
Si Si3 0.237719 0.958339 0.042996
Si Si4 0.593839 0.254756 0.798098
Si Si5 0.229045 0.065198 0.857751
Si Si6 0.904965 0.620640 0.844441
Si Si7 0.408809 0.903699 0.021029
Si Si8 0.356094 0.222631 0.502682
O O1 0.842266 0.883153 0.353506
O O2 0.860589 0.768810 0.377132
O O3 0.000000 0.837148 0.339979
O O4 0.890844 0.816210 0.139966
O O5 0.683591 0.599433 0.500763
O O6 0.652715 0.695530 0.367331
O O7 0.763672 0.702812 0.558268
O O8 0.198021 0.016428 0.969648
O O9 0.236873 0.966254 0.208256
O O10 0.333800 0.949376 0.981903
O O11 0.500000 0.275491 0.836694
O O12 0.612530 0.190637 0.866931
O O13 0.600512 0.254518 0.632944
O O14 0.322933 0.087468 0.910023
O O15 0.904593 0.608261 0.683010
O O16 0.000000 0.602793 0.904718
O O17 0.500000 0.932092 0.977269
O O18 0.401660 0.838268 0.950193
#
# Coordination Sequence:
#
# PCOD8174300 Si02
#       8
#     8   8   8   8   8   8   8   8
#     4  11  22  36  54  79 110 144 177 216 267 317
#     4  10  20  35  53  76 105 139 171 213 267 313
#     4   9  20  34  52  70  95 133 175 214 258 304
#     4  10  18  31  52  79 104 130 166 206 248 309
#     4  10  20  37  52  71 100 135 176 221 260 305
#     4   8  15  29  52  77 103 133 164 203 261 322
#     4   8  14  28  49  75 103 130 159 200 256 318
#     4  10  18  32  55  81 106 134 170 211 257 316
#
# _framework density 18.860474
#
# number of rings (size 3 to 8) (size 9 to 14) (size 15 to 20)
#    0.000    2.500    0.000    6.000    0.000    1.500 
#    0.000    5.625    0.000    1.500    0.000    0.000 
#    0.000    0.000    0.000    0.000    0.000    0.000 
#
# Total GULP energy -396537.756016 kJ/mol
# GULP energy per Si atom -12391.804875 kJ/mol
# Density = 1.881755 g / cm^3
# Si number density = 18.860474 Si / 1000 Ang^3
#
#
#
# Elastic Constant Matrix: (Units=GPa)
#
#
# Indices 1 2 3 4 5 6 
#
# 1 75.1479 24.2059 7.9134 0.0000 0.0000 0.0000
# 2 24.2059 52.0360 13.5715 0.0000 0.0000 0.0000
# 3 7.9134 13.5715 27.8758 0.0000 0.0000 0.0000
# 4 0.0000 0.0000 0.0000 30.4625 0.0000 0.0000
# 5 0.0000 0.0000 0.0000 0.0000 20.5088 0.0000
# 6 0.0000 0.0000 0.0000 0.0000 0.0000 16.8142
#
#
#
# Elastic Compliance Matrix: (Units=1/GPa)
#
#
# Indices 1 2 3 4 5 6 
#
# 1 0.015678 -0.007024 -0.001031 0.000000 0.000000 0.000000
# 2 -0.007024 0.025160 -0.010255 0.000000 0.000000 0.000000
# 3 -0.001031 -0.010255 0.041159 0.000000 0.000000 0.000000
# 4 0.000000 0.000000 0.000000 0.032827 0.000000 0.000000
# 5 0.000000 0.000000 0.000000 0.000000 0.048760 0.000000
# 6 0.000000 0.000000 0.000000 0.000000 0.000000 0.059474
#
#
# Mechanical properties :
#
#
# Convention : Reuss Voigt Hill
#
# Bulk Modulus (GPa) = 22.03800 27.38236 24.71018
# Shear Modulus (GPa) = 18.19486 20.84835 19.52160
#
# Velocity S-wave (km/s) = 3.10934 3.32836 3.22072
# Velocity P-wave (km/s) = 4.95992 5.41485 5.19237
#
# Compressibility (1/GPa) = 0.04537616
#
# Stress axis : x y z
#
# Youngs Moduli (GPa) = 63.78263 39.74624 24.29615
#
# Poissons Ratio (x) = 0.27919 0.02505
# Poissons Ratio (y) = 0.44803 0.24916
# Poissons Ratio (z) = 0.06576 0.40760
#
# Static dielectric constant tensor:
#      x y z
#    x 3.755840 0.000000 0.000000 
#    y 0.000000 3.313670 0.000000 
#    z 0.000000 0.000000 3.059810 
# 
# 
# High freq. dielectric constant tensor:
#      x y z
#    x 1.740410 0.000000 0.000000 
#    y 0.000000 1.721180 0.000000 
#    z 0.000000 0.000000 1.700720 
# 
# From -- ./inp_files/4354.got.cif
#   From: 2010.03.12/outbox.cif.g09.slc.cpg/sg36_3_cif.got.tgz:4354.got - 2010.04.14 02:13:53.
