data_PCOD8174248
_publ_section_title
;
Structure prediction by ZEFSAII (Michael W. Deem and Ramdas Pophale) SiO2 
 PCOD8174248
Probable space group: C M C 21
;
_chemical_formula_sum "Si O2"
_cell_formula_units_Z 64
_cell_length_a 8.782075
_cell_length_b 20.273867
_cell_length_c 20.131631
_cell_angle_alpha 90.000000
_cell_angle_beta 90.000000
_cell_angle_gamma 90.000000
_cell_volume 3584.368865
_symmetry_space_group_name_H-M "C M C 21"
_symmetry_group_IT_number 36
_symmetry_cell_setting 'orthorhombic'
loop_
_space_group_symop_operation_xyz
x,y,z
-x,-y,1/2+z
x,-y,1/2+z
-x,y,z
1/2+x,1/2+y,z
1/2-x,1/2-y,1/2+z
1/2+x,1/2-y,1/2+z
1/2-x,1/2+y,z
loop_
_atom_site_type_symbol
_atom_site_label
_atom_site_fract_x
_atom_site_fract_y
_atom_site_fract_z
Si Si1 0.179450 0.165425 0.100610
Si Si2 0.320149 0.806554 0.135796
Si Si3 0.679830 0.704859 0.955867
Si Si4 0.321718 0.479100 0.975465
Si Si5 0.819162 0.917156 0.370787
Si Si6 0.681663 0.477949 0.618612
Si Si7 0.681085 0.415252 0.221970
Si Si8 0.822082 0.832748 0.995048
O O1 0.227130 0.229239 0.143956
O O2 0.242278 0.096888 0.131384
O O3 0.000000 0.159828 0.097023
O O4 0.237985 0.173910 0.025240
O O5 0.500000 0.815916 0.139824
O O6 0.240923 0.845582 0.195121
O O7 0.265227 0.832753 0.064782
O O8 0.500000 0.717486 0.956536
O O9 0.729721 0.654820 0.897908
O O10 0.762689 0.775306 0.945982
O O11 0.500000 0.493887 0.978361
O O12 0.249836 0.525066 0.917657
O O13 0.253669 0.497779 0.047600
O O14 0.288381 0.402569 0.959244
O O15 0.755271 0.925687 0.296375
O O16 0.000000 0.922567 0.370463
O O17 0.500000 0.481590 0.619401
O O18 0.745689 0.525208 0.676569
O O19 0.500000 0.413062 0.221092
O O20 0.000000 0.824181 0.009880
#
# Coordination Sequence:
#
# PCOD8174248 Si02
#       8
#     8   8   8   8   8   8   8   8
#     4   8  14  25  45  69  89 117 159 199 235 281
#     4  10  19  31  48  71  99 132 163 195 244 301
#     4   9  16  29  48  69  94 126 161 196 238 299
#     4   9  15  26  47  73  98 124 157 205 250 283
#     4   9  17  30  49  72  98 130 168 202 242 298
#     4   9  14  25  46  71  95 119 157 207 248 279
#     4  10  19  31  50  75  98 126 165 210 250 287
#     4  10  18  29  49  76 101 122 156 208 253 284
#
# _framework density 17.855305000000001
#
# number of rings (size 3 to 8) (size 9 to 14) (size 15 to 20)
#    0.000    2.750    2.500    1.500    0.000    0.000 
#    0.000    1.875    0.000   12.750    0.000    0.000 
#    0.000    0.000    0.000    0.000    0.000    0.000 
#
# Total GULP energy -396603.930061 kJ/mol
# GULP energy per Si atom -12393.872814 kJ/mol
# Density = 1.781467 g / cm^3
# Si number density = 17.855305 Si / 1000 Ang^3
#
#
#
# Elastic Constant Matrix: (Units=GPa)
#
#
# Indices 1 2 3 4 5 6 
#
# 1 15.6313 19.1873 13.7687 0.0000 0.0000 0.0000
# 2 19.1873 166.8066 84.8652 0.0000 0.0000 0.0000
# 3 13.7687 84.8652 132.4003 0.0000 0.0000 0.0000
# 4 0.0000 0.0000 0.0000 28.7734 0.0000 0.0000
# 5 0.0000 0.0000 0.0000 0.0000 13.2743 0.0000
# 6 0.0000 0.0000 0.0000 0.0000 0.0000 23.7882
#
#
#
# Elastic Compliance Matrix: (Units=1/GPa)
#
#
# Indices 1 2 3 4 5 6 
#
# 1 0.075504 -0.006960 -0.003391 0.000000 0.000000 0.000000
# 2 -0.006960 0.009538 -0.005390 0.000000 0.000000 0.000000
# 3 -0.003391 -0.005390 0.011360 0.000000 0.000000 0.000000
# 4 0.000000 0.000000 0.000000 0.034754 0.000000 0.000000
# 5 0.000000 0.000000 0.000000 0.000000 0.075333 0.000000
# 6 0.000000 0.000000 0.000000 0.000000 0.000000 0.042038
#
#
# Mechanical properties :
#
#
# Convention : Reuss Voigt Hill
#
# Bulk Modulus (GPa) = 15.40322 61.16449 38.28386
# Shear Modulus (GPa) = 16.57559 26.30166 21.43863
#
# Velocity S-wave (km/s) = 3.05015 3.84219 3.46885
# Velocity P-wave (km/s) = 4.58803 7.34937 6.12631
#
# Compressibility (1/GPa) = 0.06492149
#
# Stress axis : x y z
#
# Youngs Moduli (GPa) = 13.24425 104.84872 88.02801
#
# Poissons Ratio (x) = 0.72974 0.29848
# Poissons Ratio (y) = 0.09218 0.47443
# Poissons Ratio (z) = 0.04491 0.56509
#
# Static dielectric constant tensor:
#      x y z
#    x 2.855500 0.000000 0.000000 
#    y 0.000000 3.734350 0.000000 
#    z 0.000000 0.000000 3.291510 
# 
# 
# High freq. dielectric constant tensor:
#      x y z
#    x 1.641690 0.000000 0.000000 
#    y 0.000000 1.710660 0.000000 
#    z 0.000000 0.000000 1.663700 
# 
# From -- ./inp_files/15787.got.cif
#   From: 2010.03.12/outbox.cif.g09.slc.cpg/sg36_8_cif.got.tgz:15787.got - 2010.04.14 02:13:53.
