data_PCOD8174804
_publ_section_title
;
Structure prediction by ZEFSAII (Michael W. Deem and Ramdas Pophale) SiO2 
 PCOD8174804
Probable space group: C M C 21
;
_chemical_formula_sum "Si O2"
_cell_formula_units_Z 64
_cell_length_a 8.993110
_cell_length_b 19.971545
_cell_length_c 19.336491
_cell_angle_alpha 90.000000
_cell_angle_beta 90.000000
_cell_angle_gamma 90.000000
_cell_volume 3472.955624
_symmetry_space_group_name_H-M "C M C 21"
_symmetry_group_IT_number 36
_symmetry_cell_setting 'orthorhombic'
loop_
_space_group_symop_operation_xyz
x,y,z
-x,-y,1/2+z
x,-y,1/2+z
-x,y,z
1/2+x,1/2+y,z
1/2-x,1/2-y,1/2+z
1/2+x,1/2-y,1/2+z
1/2-x,1/2+y,z
loop_
_atom_site_type_symbol
_atom_site_label
_atom_site_fract_x
_atom_site_fract_y
_atom_site_fract_z
Si Si1 0.828195 0.071953 0.579460
Si Si2 0.675162 0.903757 0.702835
Si Si3 0.825376 0.442786 0.549326
Si Si4 0.323682 0.268025 0.703624
Si Si5 0.671923 0.721880 0.567193
Si Si6 0.829368 0.032808 0.733567
Si Si7 0.673296 0.333422 0.306299
Si Si8 0.671903 0.825981 0.449129
O O1 0.777964 0.145397 0.554478
O O2 0.788560 0.066333 0.660264
O O3 0.000000 0.060070 0.565094
O O4 0.743105 0.015809 0.534929
O O5 0.500000 0.894047 0.710384
O O6 0.726695 0.914967 0.623652
O O7 0.756950 0.837971 0.731298
O O8 0.727076 0.967978 0.747632
O O9 0.772553 0.391393 0.490603
O O10 0.000000 0.450330 0.549046
O O11 0.500000 0.271011 0.706698
O O12 0.271576 0.256107 0.625399
O O13 0.266698 0.208988 0.752022
O O14 0.500000 0.725339 0.592050
O O15 0.694373 0.760472 0.495720
O O16 0.797129 0.087966 0.792187
O O17 0.000000 0.009297 0.734540
O O18 0.500000 0.316032 0.297258
O O19 0.725284 0.316324 0.383045
O O20 0.500000 0.833618 0.426995
#
# Coordination Sequence:
#
# PCOD8174804 Si02
#       8
#     8   8   8   8   8   8   8   8
#     4   9  17  31  55  82 109 140 181 229 279 332
#     4  10  19  34  57  84 114 145 182 232 288 337
#     4   9  18  33  54  80 112 145 178 226 282 334
#     4  12  23  35  57  87 116 149 195 243 285 342
#     4  10  19  37  59  82 115 154 191 236 291 338
#     4   9  18  34  55  81 111 144 184 233 280 336
#     4  11  23  40  59  81 116 156 194 236 291 349
#     4  10  21  38  58  81 113 153 195 235 284 344
#
# _framework density 18.428108000000002
#
# number of rings (size 3 to 8) (size 9 to 14) (size 15 to 20)
#    0.000    2.000    2.500    1.875    0.000    3.000 
#    0.000    1.250    0.000    4.500    0.000    0.000 
#    0.000    0.000    0.000    0.000    0.000    0.000 
#
# Total GULP energy -396885.850090 kJ/mol
# GULP energy per Si atom -12402.682815 kJ/mol
# Density = 1.838616 g / cm^3
# Si number density = 18.428108 Si / 1000 Ang^3
#
#
#
# Elastic Constant Matrix: (Units=GPa)
#
#
# Indices 1 2 3 4 5 6 
#
# 1 80.9430 43.2207 22.9136 0.0000 0.0000 0.0000
# 2 43.2207 111.7055 12.8571 0.0000 0.0000 0.0000
# 3 22.9136 12.8571 46.3952 0.0000 0.0000 0.0000
# 4 0.0000 0.0000 0.0000 21.8421 0.0000 0.0000
# 5 0.0000 0.0000 0.0000 0.0000 27.8864 0.0000
# 6 0.0000 0.0000 0.0000 0.0000 0.0000 34.4056
#
#
#
# Elastic Compliance Matrix: (Units=1/GPa)
#
#
# Indices 1 2 3 4 5 6 
#
# 1 0.017527 -0.005976 -0.007000 0.000000 0.000000 0.000000
# 2 -0.005976 0.011284 -0.000176 0.000000 0.000000 0.000000
# 3 -0.007000 -0.000176 0.025060 0.000000 0.000000 0.000000
# 4 0.000000 0.000000 0.000000 0.045783 0.000000 0.000000
# 5 0.000000 0.000000 0.000000 0.000000 0.035860 0.000000
# 6 0.000000 0.000000 0.000000 0.000000 0.000000 0.029065
#
#
# Mechanical properties :
#
#
# Convention : Reuss Voigt Hill
#
# Bulk Modulus (GPa) = 36.27428 44.11406 40.19417
# Shear Modulus (GPa) = 24.99102 27.49697 26.24400
#
# Velocity S-wave (km/s) = 3.68657 3.86699 3.77786
# Velocity P-wave (km/s) = 6.15207 6.62786 6.39440
#
# Compressibility (1/GPa) = 0.02756775
#
# Stress axis : x y z
#
# Youngs Moduli (GPa) = 57.05547 88.61746 39.90435
#
# Poissons Ratio (x) = 0.52955 0.27934
# Poissons Ratio (y) = 0.34095 0.00702
# Poissons Ratio (z) = 0.39940 0.01559
#
# Static dielectric constant tensor:
#      x y z
#    x 3.337470 0.000000 0.000000 
#    y 0.000000 3.654850 0.000000 
#    z 0.000000 0.000000 3.131130 
# 
# 
# High freq. dielectric constant tensor:
#      x y z
#    x 1.712700 0.000000 0.000000 
#    y 0.000000 1.731200 0.000000 
#    z 0.000000 0.000000 1.680990 
# 
# From -- ./inp_files/13822.got.cif
#   From: 2010.03.12/outbox.cif.g09.slc.cpg/sg36_7_cif.got.tgz:13822.got - 2010.04.14 02:13:53.
