data_PCOD8174494
_publ_section_title
;
Structure prediction by ZEFSAII (Michael W. Deem and Ramdas Pophale) SiO2 
 PCOD8174494
Probable space group: C M C 21
;
_chemical_formula_sum "Si O2"
_cell_formula_units_Z 44
_cell_length_a 25.900432
_cell_length_b 17.022595
_cell_length_c 5.249617
_cell_angle_alpha 90.000000
_cell_angle_beta 90.000000
_cell_angle_gamma 90.000000
_cell_volume 2314.517101
_symmetry_space_group_name_H-M "C M C 21"
_symmetry_group_IT_number 36
_symmetry_cell_setting 'orthorhombic'
loop_
_space_group_symop_operation_xyz
x,y,z
-x,-y,1/2+z
x,-y,1/2+z
-x,y,z
1/2+x,1/2+y,z
1/2-x,1/2-y,1/2+z
1/2+x,1/2-y,1/2+z
1/2-x,1/2+y,z
loop_
_atom_site_type_symbol
_atom_site_label
_atom_site_fract_x
_atom_site_fract_y
_atom_site_fract_z
Si Si1 0.120804 0.714921 0.211560
Si Si2 0.847089 0.537431 0.186346
Si Si3 0.767103 0.029976 0.701715
Si Si4 0.500000 0.949219 0.280526
Si Si5 0.557038 0.798953 0.219942
Si Si6 0.272780 0.712354 0.698667
O O1 0.147420 0.630490 0.188618
O O2 0.085875 0.721793 0.460554
O O3 0.165883 0.779156 0.233724
O O4 0.087613 0.734648 0.961753
O O5 0.874141 0.499650 0.435576
O O6 0.786779 0.517049 0.178771
O O7 0.757059 0.121948 0.720447
O O8 0.797996 0.004484 0.446062
O O9 0.550611 0.893739 0.248991
O O10 0.500000 0.983532 0.566644
O O11 0.500000 0.759377 0.212255
O O12 0.257213 0.742065 0.419691
#
# Coordination Sequence:
#
# PCOD8174494 Si02
#       6
#     8   8   8   4   8   8
#     4  12  22  37  58  83 110 156 199 243 289 357
#     4  10  19  31  47  72 103 143 188 223 275 332
#     4  10  20  36  53  76 114 154 187 235 294 346
#     4  10  20  36  54  76 110 152 192 242 302 338
#     4  10  24  39  55  77 113 145 195 253 292 337
#     4  12  23  38  59  87 121 155 206 253 299 354
#
# _framework density 19.010444
#
# number of rings (size 3 to 8) (size 9 to 14) (size 15 to 20)
#    0.545    0.727    0.000    9.273    0.000    4.364 
#    0.000    0.000    0.000    0.000    0.000    0.000 
#    0.000   14.545    0.000    0.000    0.000    0.000 
#
# Total GULP energy -272730.322776 kJ/mol
# GULP energy per Si atom -12396.832853 kJ/mol
# Density = 1.896718 g / cm^3
# Si number density = 19.010444 Si / 1000 Ang^3
#
#
#
# Elastic Constant Matrix: (Units=GPa)
#
#
# Indices 1 2 3 4 5 6 
#
# 1 85.6591 18.6250 28.4770 0.0000 0.0000 0.0000
# 2 18.6250 49.4979 22.3924 0.0000 0.0000 0.0000
# 3 28.4770 22.3924 160.0211 0.0000 0.0000 0.0000
# 4 0.0000 0.0000 0.0000 21.7565 0.0000 0.0000
# 5 0.0000 0.0000 0.0000 0.0000 26.6612 0.0000
# 6 0.0000 0.0000 0.0000 0.0000 0.0000 22.2179
#
#
#
# Elastic Compliance Matrix: (Units=1/GPa)
#
#
# Indices 1 2 3 4 5 6 
#
# 1 0.013163 -0.004156 -0.001761 0.000000 0.000000 0.000000
# 2 -0.004156 0.022881 -0.002462 0.000000 0.000000 0.000000
# 3 -0.001761 -0.002462 0.006907 0.000000 0.000000 0.000000
# 4 0.000000 0.000000 0.000000 0.045963 0.000000 0.000000
# 5 0.000000 0.000000 0.000000 0.000000 0.037508 0.000000
# 6 0.000000 0.000000 0.000000 0.000000 0.000000 0.045009
#
#
# Mechanical properties :
#
#
# Convention : Reuss Voigt Hill
#
# Bulk Modulus (GPa) = 38.17934 48.24078 43.21006
# Shear Modulus (GPa) = 25.39094 29.17268 27.28181
#
# Velocity S-wave (km/s) = 3.65859 3.92160 3.79238
# Velocity P-wave (km/s) = 6.16231 6.77763 6.47728
#
# Compressibility (1/GPa) = 0.02619218
#
# Stress axis : x y z
#
# Youngs Moduli (GPa) = 75.96862 43.70492 144.77915
#
# Poissons Ratio (x) = 0.18166 0.25494
# Poissons Ratio (y) = 0.31576 0.35646
# Poissons Ratio (z) = 0.13377 0.10761
#
# Static dielectric constant tensor:
#      x y z
#    x 3.314680 0.000000 0.000000 
#    y 0.000000 3.166200 0.000000 
#    z 0.000000 0.000000 6.094270 
# 
# 
# High freq. dielectric constant tensor:
#      x y z
#    x 1.710990 0.000000 0.000000 
#    y 0.000000 1.697550 0.000000 
#    z 0.000000 0.000000 1.778470 
# 
# From -- ./inp_files/1719.got.cif
#   From: 2010.03.12/outbox.cif.g09.slc.cpg/sg36_1_cif.got.tgz:1719.got - 2010.04.14 02:13:53.
