data_PCOD8174836
_publ_section_title
;
Structure prediction by ZEFSAII (Michael W. Deem and Ramdas Pophale) SiO2 
 PCOD8174836
Probable space group: C M C 21
;
_chemical_formula_sum "Si O2"
_cell_formula_units_Z 64
_cell_length_a 8.849077
_cell_length_b 15.133963
_cell_length_c 24.044054
_cell_angle_alpha 90.000000
_cell_angle_beta 90.000000
_cell_angle_gamma 90.000000
_cell_volume 3220.018276
_symmetry_space_group_name_H-M "C M C 21"
_symmetry_group_IT_number 36
_symmetry_cell_setting 'orthorhombic'
loop_
_space_group_symop_operation_xyz
x,y,z
-x,-y,1/2+z
x,-y,1/2+z
-x,y,z
1/2+x,1/2+y,z
1/2-x,1/2-y,1/2+z
1/2+x,1/2-y,1/2+z
1/2-x,1/2+y,z
loop_
_atom_site_type_symbol
_atom_site_label
_atom_site_fract_x
_atom_site_fract_y
_atom_site_fract_z
Si Si1 0.823190 0.218427 0.353820
Si Si2 0.821593 0.372756 0.160474
Si Si3 0.828764 0.728329 0.467151
Si Si4 0.325621 0.480595 0.588613
Si Si5 0.670887 0.979740 0.976810
Si Si6 0.176663 0.016291 0.363718
Si Si7 0.325058 0.282932 0.584239
Si Si8 0.822407 0.136957 0.779856
O O1 0.770900 0.254124 0.413942
O O2 0.743891 0.273635 0.305509
O O3 0.000000 0.232654 0.348169
O O4 0.777354 0.115726 0.345817
O O5 0.782958 0.459893 0.125658
O O6 0.755685 0.287883 0.127187
O O7 0.741442 0.378107 0.219084
O O8 0.000000 0.366678 0.169566
O O9 0.822797 0.625083 0.479039
O O10 0.756224 0.774976 0.521807
O O11 0.000000 0.759943 0.454886
O O12 0.500000 0.509765 0.595104
O O13 0.279544 0.483151 0.524316
O O14 0.301924 0.380104 0.609380
O O15 0.500000 0.013817 0.985550
O O16 0.732436 0.014655 0.918033
O O17 0.223150 0.949514 0.315026
O O18 0.000000 0.012233 0.377866
O O19 0.500000 0.258232 0.576580
O O20 0.000000 0.148049 0.776472
#
# Coordination Sequence:
#
# PCOD8174836 Si02
#       8
#     8   8   8   8   8   8   8   8
#     4  10  21  38  59  89 119 153 197 246 293 342
#     4  11  23  44  64  84 118 158 201 251 297 346
#     4   9  17  35  59  84 119 160 193 233 293 357
#     4  11  22  37  60  89 118 155 199 240 293 359
#     4  10  19  34  59  89 123 155 194 245 297 345
#     4   9  21  40  60  84 120 160 198 238 293 359
#     4   9  20  38  60  84 116 159 197 232 295 361
#     4  11  24  42  63  87 117 160 203 243 295 361
#
# _framework density 19.875662999999999
#
# number of rings (size 3 to 8) (size 9 to 14) (size 15 to 20)
#    0.000    2.000    1.250    1.875    1.750    3.000 
#    0.000    8.125    0.000    0.000    0.000    0.000 
#    0.000    0.000    0.000    0.000    0.000    0.000 
#
# Total GULP energy -396880.294362 kJ/mol
# GULP energy per Si atom -12402.509199 kJ/mol
# Density = 1.983043 g / cm^3
# Si number density = 19.875663 Si / 1000 Ang^3
#
#
#
# Elastic Constant Matrix: (Units=GPa)
#
#
# Indices 1 2 3 4 5 6 
#
# 1 59.9199 28.9793 35.2785 0.0000 0.0000 0.0000
# 2 28.9793 87.5250 53.6742 0.0000 0.0000 0.0000
# 3 35.2785 53.6742 130.7946 0.0000 0.0000 0.0000
# 4 0.0000 0.0000 0.0000 11.6505 0.0000 0.0000
# 5 0.0000 0.0000 0.0000 0.0000 36.7557 0.0000
# 6 0.0000 0.0000 0.0000 0.0000 0.0000 27.6162
#
#
#
# Elastic Compliance Matrix: (Units=1/GPa)
#
#
# Indices 1 2 3 4 5 6 
#
# 1 0.021189 -0.004692 -0.003790 0.000000 0.000000 0.000000
# 2 -0.004692 0.016306 -0.005426 0.000000 0.000000 0.000000
# 3 -0.003790 -0.005426 0.010895 0.000000 0.000000 0.000000
# 4 0.000000 0.000000 0.000000 0.085833 0.000000 0.000000
# 5 0.000000 0.000000 0.000000 0.000000 0.027207 0.000000
# 6 0.000000 0.000000 0.000000 0.000000 0.000000 0.036211
#
#
# Mechanical properties :
#
#
# Convention : Reuss Voigt Hill
#
# Bulk Modulus (GPa) = 48.60336 57.12261 52.86298
# Shear Modulus (GPa) = 21.52254 25.89164 23.70709
#
# Velocity S-wave (km/s) = 3.29425 3.61318 3.45740
# Velocity P-wave (km/s) = 6.24310 6.79773 6.52631
#
# Compressibility (1/GPa) = 0.02057471
#
# Stress axis : x y z
#
# Youngs Moduli (GPa) = 47.19349 61.32624 91.78875
#
# Poissons Ratio (x) = 0.28771 0.34788
# Poissons Ratio (y) = 0.22141 0.49806
# Poissons Ratio (z) = 0.17886 0.33277
#
# Static dielectric constant tensor:
#      x y z
#    x 3.564000 0.000000 0.000000 
#    y 0.000000 3.732380 0.000000 
#    z 0.000000 0.000000 3.658420 
# 
# 
# High freq. dielectric constant tensor:
#      x y z
#    x 1.767230 0.000000 0.000000 
#    y 0.000000 1.780530 0.000000 
#    z 0.000000 0.000000 1.774810 
# 
# From -- ./inp_files/16601.got.cif
#   From: 2010.03.12/outbox.cif.g09.slc.cpg/sg36_9_cif.got.tgz:16601.got - 2010.04.14 02:13:53.
