data_PCOD8174286
_publ_section_title
;
Structure prediction by ZEFSAII (Michael W. Deem and Ramdas Pophale) SiO2 
 PCOD8174286
Probable space group: C M C 21
;
_chemical_formula_sum "Si O2"
_cell_formula_units_Z 48
_cell_length_a 24.918627
_cell_length_b 13.984251
_cell_length_c 9.024536
_cell_angle_alpha 90.000000
_cell_angle_beta 90.000000
_cell_angle_gamma 90.000000
_cell_volume 3144.765030
_symmetry_space_group_name_H-M "C M C 21"
_symmetry_group_IT_number 36
_symmetry_cell_setting 'orthorhombic'
loop_
_space_group_symop_operation_xyz
x,y,z
-x,-y,1/2+z
x,-y,1/2+z
-x,y,z
1/2+x,1/2+y,z
1/2-x,1/2-y,1/2+z
1/2+x,1/2-y,1/2+z
1/2-x,1/2+y,z
loop_
_atom_site_type_symbol
_atom_site_label
_atom_site_fract_x
_atom_site_fract_y
_atom_site_fract_z
Si Si1 0.667989 0.284605 0.221270
Si Si2 0.831744 0.872740 0.532196
Si Si3 0.059202 0.127136 0.681754
Si Si4 0.237038 0.608881 0.227243
Si Si5 0.770722 0.054810 0.540616
Si Si6 0.440806 0.443020 0.506166
O O1 0.676484 0.300787 0.396256
O O2 0.605306 0.292102 0.175397
O O3 0.687835 0.177880 0.183514
O O4 0.702984 0.360678 0.132669
O O5 0.793347 0.842643 0.669474
O O6 0.894478 0.877236 0.581530
O O7 0.816162 0.981273 0.479969
O O8 0.066222 0.063710 0.829493
O O9 0.000000 0.176091 0.677545
O O10 0.065909 0.054403 0.545678
O O11 0.238148 0.597916 0.403599
O O12 0.229807 0.505929 0.146449
O O13 0.500000 0.406044 0.556294
#
# Coordination Sequence:
#
# PCOD8174286 Si02
#       6
#     8   8   8   8   8   8
#     4  11  18  30  46  66  87 120 149 176 218 263
#     4   9  17  30  41  61  90 118 143 178 209 252
#     4   9  17  27  41  62  87 112 145 177 208 260
#     4  10  20  29  46  63  88 121 145 181 223 257
#     4  10  18  31  42  62  93 113 146 181 214 257
#     4   9  16  25  41  60  84 118 142 165 210 259
#
# _framework density 15.263462000000001
#
# number of rings (size 3 to 8) (size 9 to 14) (size 15 to 20)
#    1.000    1.333    3.333    1.000    2.333    0.000 
#    0.000    0.000    0.000    0.000    0.000    1.167 
#    0.000    1.333    0.000    0.000    0.000    0.000 
#
# Total GULP energy -297339.767805 kJ/mol
# GULP energy per Si atom -12389.156992 kJ/mol
# Density = 1.522872 g / cm^3
# Si number density = 15.263462 Si / 1000 Ang^3
#
#
#
# Elastic Constant Matrix: (Units=GPa)
#
#
# Indices 1 2 3 4 5 6 
#
# 1 108.7182 49.0996 35.4506 0.0000 0.0000 0.0000
# 2 49.0996 56.0447 24.1370 0.0000 0.0000 0.0000
# 3 35.4506 24.1370 51.7156 0.0000 0.0000 0.0000
# 4 0.0000 0.0000 0.0000 12.6538 0.0000 0.0000
# 5 0.0000 0.0000 0.0000 0.0000 16.0879 0.0000
# 6 0.0000 0.0000 0.0000 0.0000 0.0000 23.5076
#
#
#
# Elastic Compliance Matrix: (Units=1/GPa)
#
#
# Indices 1 2 3 4 5 6 
#
# 1 0.016461 -0.011967 -0.005698 0.000000 0.000000 0.000000
# 2 -0.011967 0.031031 -0.006280 0.000000 0.000000 0.000000
# 3 -0.005698 -0.006280 0.026174 0.000000 0.000000 0.000000
# 4 0.000000 0.000000 0.000000 0.079028 0.000000 0.000000
# 5 0.000000 0.000000 0.000000 0.000000 0.062158 0.000000
# 6 0.000000 0.000000 0.000000 0.000000 0.000000 0.042539
#
#
# Mechanical properties :
#
#
# Convention : Reuss Voigt Hill
#
# Bulk Modulus (GPa) = 38.79666 48.20585 43.50125
# Shear Modulus (GPa) = 15.92998 17.63596 16.78297
#
# Velocity S-wave (km/s) = 3.23409 3.40286 3.31955
# Velocity P-wave (km/s) = 6.27845 6.86224 6.57683
#
# Compressibility (1/GPa) = 0.02577541
#
# Stress axis : x y z
#
# Youngs Moduli (GPa) = 60.75098 32.22555 38.20604
#
# Poissons Ratio (x) = 0.38563 0.21772
# Poissons Ratio (y) = 0.72698 0.23994
# Poissons Ratio (z) = 0.34619 0.20238
#
# Static dielectric constant tensor:
#      x y z
#    x 3.046300 0.000000 0.000000 
#    y 0.000000 2.570270 0.000000 
#    z 0.000000 0.000000 2.867780 
# 
# 
# High freq. dielectric constant tensor:
#      x y z
#    x 1.577050 0.000000 0.000000 
#    y 0.000000 1.537670 0.000000 
#    z 0.000000 0.000000 1.585700 
# 
# From -- ./inp_files/5594.got.cif
#   From: 2010.03.12/outbox.cif.g09.slc.cpg/sg36_3_cif.got.tgz:5594.got - 2010.04.14 02:13:53.
