data_PCOD8174005
_publ_section_title
;
Structure prediction by ZEFSAII (Michael W. Deem and Ramdas Pophale) SiO2 
 PCOD8174005
Probable space group: C M M 2
;
_chemical_formula_sum "Si O2"
_cell_formula_units_Z 56
_cell_length_a 9.012420
_cell_length_b 21.536017
_cell_length_c 14.622289
_cell_angle_alpha 90.000000
_cell_angle_beta 90.000000
_cell_angle_gamma 90.000000
_cell_volume 2838.063911
_symmetry_space_group_name_H-M "C M M 2"
_symmetry_group_IT_number 35
_symmetry_cell_setting 'orthorhombic'
loop_
_space_group_symop_operation_xyz
x,y,z
-x,-y,z
-x,y,z
x,-y,z
1/2+x,1/2+y,z
1/2-x,1/2-y,z
1/2-x,1/2+y,z
1/2+x,1/2-y,z
loop_
_atom_site_type_symbol
_atom_site_label
_atom_site_fract_x
_atom_site_fract_y
_atom_site_fract_z
Si Si1 0.168335 0.617614 0.785560
Si Si2 0.327700 0.814103 0.962880
Si Si3 0.173618 0.113280 0.462339
Si Si4 0.175837 0.500000 0.558372
Si Si5 0.167629 0.929067 0.266761
Si Si6 0.675292 0.929925 0.082489
Si Si7 0.173216 0.000000 0.752966
Si Si8 0.828126 0.310215 0.603497
O O1 0.202475 0.673989 0.855171
O O2 0.278753 0.561101 0.809134
O O3 0.190832 0.637184 0.680448
O O4 0.000000 0.594750 0.801851
O O5 0.500000 0.805313 0.985114
O O6 0.250000 0.750000 0.993324
O O7 0.264800 0.875278 0.016029
O O8 0.199958 0.115595 0.353260
O O9 0.238159 0.174719 0.510326
O O10 0.000000 0.104029 0.485017
O O11 0.270676 0.059159 0.504094
O O12 0.238338 0.500000 0.659365
O O13 0.000000 0.500000 0.564557
O O14 0.276913 0.911442 0.184903
O O15 0.000000 0.919463 0.231670
O O16 0.191522 0.000000 0.299536
O O17 0.500000 0.931795 0.077886
O O18 0.736507 0.000000 0.057847
O O19 0.000000 0.000000 0.734391
O O20 0.750000 0.250000 0.645616
O O21 0.000000 0.298424 0.580805
#
# Coordination Sequence:
#
# PCOD8174005 Si02
#       8
#     8   8   8   4   8   8   4   8
#     4  10  22  39  60  84 116 155 194 239 293 351
#     4  10  22  40  63  88 117 156 198 245 298 355
#     4  11  21  36  57  83 116 151 190 238 286 341
#     4  12  22  34  54  83 116 151 188 229 282 338
#     4   9  18  34  56  84 116 149 184 232 296 349
#     4   9  19  36  59  88 117 151 195 241 295 356
#     4  12  24  36  56  87 120 155 194 241 292 342
#     4  11  23  38  56  80 111 154 201 241 288 344
#
# _framework density 19.731760999999999
#
# number of rings (size 3 to 8) (size 9 to 14) (size 15 to 20)
#    0.000    1.714    2.143    2.571    1.000    2.857 
#    0.000    0.714    0.000    1.714    0.000    0.000 
#    0.000    0.000    0.000    0.000    0.000    0.000 
#
# Total GULP energy -347140.793021 kJ/mol
# GULP energy per Si atom -12397.885465 kJ/mol
# Density = 1.968685 g / cm^3
# Si number density = 19.731761 Si / 1000 Ang^3
#
#
#
# Elastic Constant Matrix: (Units=GPa)
#
#
# Indices 1 2 3 4 5 6 
#
# 1 96.5990 52.2106 33.6545 0.0000 0.0000 0.0000
# 2 52.2106 110.7640 39.3622 0.0000 0.0000 0.0000
# 3 33.6545 39.3622 88.6389 0.0000 0.0000 0.0000
# 4 0.0000 0.0000 0.0000 23.2703 0.0000 0.0000
# 5 0.0000 0.0000 0.0000 0.0000 27.4853 0.0000
# 6 0.0000 0.0000 0.0000 0.0000 0.0000 30.6425
#
#
#
# Elastic Compliance Matrix: (Units=1/GPa)
#
#
# Indices 1 2 3 4 5 6 
#
# 1 0.014507 -0.005795 -0.002934 0.000000 0.000000 0.000000
# 2 -0.005795 0.013035 -0.003588 0.000000 0.000000 0.000000
# 3 -0.002934 -0.003588 0.013989 0.000000 0.000000 0.000000
# 4 0.000000 0.000000 0.000000 0.042973 0.000000 0.000000
# 5 0.000000 0.000000 0.000000 0.000000 0.036383 0.000000
# 6 0.000000 0.000000 0.000000 0.000000 0.000000 0.032634
#
#
# Mechanical properties :
#
#
# Convention : Reuss Voigt Hill
#
# Bulk Modulus (GPa) = 59.18772 60.71737 59.95255
# Shear Modulus (GPa) = 27.20511 27.66458 27.43484
#
# Velocity S-wave (km/s) = 3.71718 3.74844 3.73284
# Velocity P-wave (km/s) = 6.96308 7.04078 7.00204
#
# Compressibility (1/GPa) = 0.01689540
#
# Stress axis : x y z
#
# Youngs Moduli (GPa) = 68.93409 76.71670 71.48325
#
# Poissons Ratio (x) = 0.44458 0.20976
# Poissons Ratio (y) = 0.39948 0.25649
# Poissons Ratio (z) = 0.20228 0.27527
#
# Static dielectric constant tensor:
#      x y z
#    x 3.543930 0.000000 0.000000 
#    y 0.000000 3.512030 0.000000 
#    z 0.000000 0.000000 3.563610 
# 
# 
# High freq. dielectric constant tensor:
#      x y z
#    x 1.765260 0.000000 0.000000 
#    y 0.000000 1.762000 0.000000 
#    z 0.000000 0.000000 1.763090 
# 
# From -- ./inp_files/15702.got.cif
#   From: 2010.03.12/outbox.cif.g09.slc.cpg/sg35_8_cif.got.tgz:15702.got - 2010.04.14 02:02:04.
