data_PCOD8174662
_publ_section_title
;
Structure prediction by ZEFSAII (Michael W. Deem and Ramdas Pophale) SiO2 
 PCOD8174662
Probable space group: C M C 21
;
_chemical_formula_sum "Si O2"
_cell_formula_units_Z 36
_cell_length_a 15.044831
_cell_length_b 26.058176
_cell_length_c 4.982814
_cell_angle_alpha 90.000000
_cell_angle_beta 90.000000
_cell_angle_gamma 90.000000
_cell_volume 1953.466656
_symmetry_space_group_name_H-M "C M C 21"
_symmetry_group_IT_number 36
_symmetry_cell_setting 'orthorhombic'
loop_
_space_group_symop_operation_xyz
x,y,z
-x,-y,1/2+z
x,-y,1/2+z
-x,y,z
1/2+x,1/2+y,z
1/2-x,1/2-y,1/2+z
1/2+x,1/2-y,1/2+z
1/2-x,1/2+y,z
loop_
_atom_site_type_symbol
_atom_site_label
_atom_site_fract_x
_atom_site_fract_y
_atom_site_fract_z
Si Si1 0.500000 0.032501 0.866160
Si Si2 0.398270 0.672199 0.470024
Si Si3 0.207432 0.863036 0.470021
Si Si4 0.201250 0.266250 0.366134
Si Si5 0.309165 0.964765 0.470047
O O1 0.592340 0.061421 0.938094
O O2 0.500000 0.019181 0.550559
O O3 0.500000 0.656962 0.423659
O O4 0.368822 0.654087 0.763716
O O5 0.388298 0.734540 0.438090
O O6 0.334451 0.642639 0.263718
O O7 0.295958 0.826881 0.438050
O O8 0.235439 0.921521 0.423691
O O9 0.278776 0.240413 0.550529
O O10 0.296733 0.988544 0.763745
#
# Coordination Sequence:
#
# PCOD8174662 Si02
#       5
#     4   8   8   8   8
#     4   8  16  30  48  70  96 124 158 202 244 290
#     4  10  19  33  53  75 102 134 169 206 250 300
#     4  10  19  33  53  75 102 134 169 206 250 300
#     4   8  16  30  48  70  96 124 158 202 244 290
#     4  10  19  33  53  75 102 134 169 206 250 300
#
# _framework density 18.428777
#
# number of rings (size 3 to 8) (size 9 to 14) (size 15 to 20)
#    0.000    2.667    0.000    2.000    0.000    0.000 
#    2.000    0.000    0.000   13.333    0.000    0.000 
#    0.000    0.000    0.000    0.000    0.000    0.000 
#
# Total GULP energy -222988.117681 kJ/mol
# GULP energy per Si atom -12388.228760 kJ/mol
# Density = 1.838683 g / cm^3
# Si number density = 18.428777 Si / 1000 Ang^3
#
#
#
# Elastic Constant Matrix: (Units=GPa)
#
#
# Indices 1 2 3 4 5 6 
#
# 1 77.2492 39.8623 9.4153 0.0000 0.0000 0.0000
# 2 39.8623 77.2437 9.4178 0.0000 0.0000 0.0000
# 3 9.4153 9.4178 79.2989 0.0000 0.0000 0.0000
# 4 0.0000 0.0000 0.0000 20.3462 0.0000 0.0000
# 5 0.0000 0.0000 0.0000 0.0000 20.3479 0.0000
# 6 0.0000 0.0000 0.0000 0.0000 0.0000 18.6914
#
#
#
# Elastic Compliance Matrix: (Units=1/GPa)
#
#
# Indices 1 2 3 4 5 6 
#
# 1 0.017727 -0.009022 -0.001033 0.000000 0.000000 0.000000
# 2 -0.009022 0.017728 -0.001034 0.000000 0.000000 0.000000
# 3 -0.001033 -0.001034 0.012856 0.000000 0.000000 0.000000
# 4 0.000000 0.000000 0.000000 0.049149 0.000000 0.000000
# 5 0.000000 0.000000 0.000000 0.000000 0.049145 0.000000
# 6 0.000000 0.000000 0.000000 0.000000 0.000000 0.053501
#
#
# Mechanical properties :
#
#
# Convention : Reuss Voigt Hill
#
# Bulk Modulus (GPa) = 38.26769 39.02030 38.64399
# Shear Modulus (GPa) = 21.64548 23.55019 22.59783
#
# Velocity S-wave (km/s) = 3.43089 3.57866 3.50555
# Velocity P-wave (km/s) = 6.04193 6.18831 6.11556
#
# Compressibility (1/GPa) = 0.02613171
#
# Stress axis : x y z
#
# Youngs Moduli (GPa) = 56.41232 56.40787 77.78458
#
# Poissons Ratio (x) = 0.50891 0.08037
# Poissons Ratio (y) = 0.50895 0.08045
# Poissons Ratio (z) = 0.05829 0.05834
#
# Static dielectric constant tensor:
#      x y z
#    x 3.122920 0.000000 0.000000 
#    y 0.000000 3.122940 0.000000 
#    z 0.000000 0.000000 3.498300 
# 
# 
# High freq. dielectric constant tensor:
#      x y z
#    x 1.682230 0.000000 0.000000 
#    y 0.000000 1.682230 0.000000 
#    z 0.000000 0.000000 1.740900 
# 
# From -- ./inp_files/456.got.cif
#   From: 2010.03.12/outbox.cif.g09.slc.cpg/sg36_1_cif.got.tgz:456.got - 2010.04.14 02:13:53.
