data_PCOD8174895
_publ_section_title
;
Structure prediction by ZEFSAII (Michael W. Deem and Ramdas Pophale) SiO2 
 PCOD8174895
Probable space group: C M C 21
;
_chemical_formula_sum "Si O2"
_cell_formula_units_Z 64
_cell_length_a 8.658830
_cell_length_b 15.155306
_cell_length_c 23.899018
_cell_angle_alpha 90.000000
_cell_angle_beta 90.000000
_cell_angle_gamma 90.000000
_cell_volume 3136.201651
_symmetry_space_group_name_H-M "C M C 21"
_symmetry_group_IT_number 36
_symmetry_cell_setting 'orthorhombic'
loop_
_space_group_symop_operation_xyz
x,y,z
-x,-y,1/2+z
x,-y,1/2+z
-x,y,z
1/2+x,1/2+y,z
1/2-x,1/2-y,1/2+z
1/2+x,1/2-y,1/2+z
1/2-x,1/2+y,z
loop_
_atom_site_type_symbol
_atom_site_label
_atom_site_fract_x
_atom_site_fract_y
_atom_site_fract_z
Si Si1 0.682735 0.293657 0.728180
Si Si2 0.680809 0.116415 0.535119
Si Si3 0.818297 0.851972 0.153851
Si Si4 0.176186 0.511784 0.346958
Si Si5 0.821480 0.741518 0.957411
Si Si6 0.679412 0.954991 0.464555
Si Si7 0.823728 0.719867 0.344137
Si Si8 0.818396 0.007489 0.231977
O O1 0.500000 0.292888 0.734798
O O2 0.734156 0.235887 0.675459
O O3 0.757274 0.251790 0.783946
O O4 0.744979 0.393913 0.718904
O O5 0.500000 0.114306 0.550252
O O6 0.781208 0.137974 0.588979
O O7 0.709837 0.190618 0.488402
O O8 0.743108 0.022723 0.511147
O O9 0.000000 0.840148 0.162376
O O10 0.753600 0.937963 0.186619
O O11 0.253314 0.471416 0.403138
O O12 0.191544 0.616057 0.352044
O O13 0.268920 0.475741 0.293594
O O14 0.000000 0.481661 0.338943
O O15 0.792820 0.644948 0.984578
O O16 0.777893 0.734290 0.892145
O O17 0.000000 0.769669 0.963749
O O18 0.500000 0.977760 0.456991
O O19 0.000000 0.751948 0.348659
O O20 0.000000 0.008645 0.228595
#
# Coordination Sequence:
#
# PCOD8174895 Si02
#       8
#     8   8   8   8   8   8   8   8
#     4  10  21  39  61  89 121 158 199 243 296 355
#     4  11  23  44  64  83 117 160 203 245 294 355
#     4  11  24  42  62  88 120 156 199 248 298 352
#     4   9  17  34  59  85 119 157 194 236 289 354
#     4  11  22  37  60  91 121 155 199 249 299 352
#     4   9  20  38  59  86 118 155 197 242 293 356
#     4  10  19  35  59  88 124 161 196 243 297 352
#     4   9  21  39  58  86 122 154 193 246 296 346
#
# _framework density 20.406851
#
# number of rings (size 3 to 8) (size 9 to 14) (size 15 to 20)
#    0.000    2.000    1.250    1.875    1.750    3.000 
#    0.000    5.625    0.000    0.000    0.000    0.000 
#    0.000    0.000    0.000    0.000    0.000    0.000 
#
# Total GULP energy -396866.688283 kJ/mol
# GULP energy per Si atom -12402.084009 kJ/mol
# Density = 2.036040 g / cm^3
# Si number density = 20.406851 Si / 1000 Ang^3
#
#
#
# Elastic Constant Matrix: (Units=GPa)
#
#
# Indices 1 2 3 4 5 6 
#
# 1 40.5521 20.3515 4.7800 0.0000 0.0000 0.0000
# 2 20.3515 69.6180 17.4495 0.0000 0.0000 0.0000
# 3 4.7800 17.4495 81.2093 0.0000 0.0000 0.0000
# 4 0.0000 0.0000 0.0000 26.3253 0.0000 0.0000
# 5 0.0000 0.0000 0.0000 0.0000 35.3207 0.0000
# 6 0.0000 0.0000 0.0000 0.0000 0.0000 24.8075
#
#
#
# Elastic Compliance Matrix: (Units=1/GPa)
#
#
# Indices 1 2 3 4 5 6 
#
# 1 0.028901 -0.008479 0.000121 0.000000 0.000000 0.000000
# 2 -0.008479 0.017669 -0.003298 0.000000 0.000000 0.000000
# 3 0.000121 -0.003298 0.013015 0.000000 0.000000 0.000000
# 4 0.000000 0.000000 0.000000 0.037986 0.000000 0.000000
# 5 0.000000 0.000000 0.000000 0.000000 0.028312 0.000000
# 6 0.000000 0.000000 0.000000 0.000000 0.000000 0.040310
#
#
# Mechanical properties :
#
#
# Convention : Reuss Voigt Hill
#
# Bulk Modulus (GPa) = 27.56803 30.72684 29.14743
# Shear Modulus (GPa) = 24.80206 27.21060 26.00633
#
# Velocity S-wave (km/s) = 3.49001 3.65554 3.57374
# Velocity P-wave (km/s) = 5.45699 5.73647 5.59848
#
# Compressibility (1/GPa) = 0.03627390
#
# Stress axis : x y z
#
# Youngs Moduli (GPa) = 34.60144 56.59561 76.83272
#
# Poissons Ratio (x) = 0.47986 -0.00928
# Poissons Ratio (y) = 0.29338 0.25336
# Poissons Ratio (z) = -0.00418 0.18663
#
# Static dielectric constant tensor:
#      x y z
#    x 3.496750 0.000000 0.000000 
#    y 0.000000 3.827250 0.000000 
#    z 0.000000 0.000000 3.676940 
# 
# 
# High freq. dielectric constant tensor:
#      x y z
#    x 1.783730 0.000000 0.000000 
#    y 0.000000 1.802860 0.000000 
#    z 0.000000 0.000000 1.794410 
# 
# From -- ./inp_files/16547.got.cif
#   From: 2010.03.12/outbox.cif.g09.slc.cpg/sg36_9_cif.got.tgz:16547.got - 2010.04.14 02:13:53.
