data_PCOD8175207
_publ_section_title
;
Structure prediction by ZEFSAII (Michael W. Deem and Ramdas Pophale) SiO2 
 PCOD8175207
Probable space group: C M C 21
;
_chemical_formula_sum "Si O2"
_cell_formula_units_Z 64
_cell_length_a 8.432780
_cell_length_b 14.089593
_cell_length_c 28.252663
_cell_angle_alpha 90.000000
_cell_angle_beta 90.000000
_cell_angle_gamma 90.000000
_cell_volume 3356.824278
_symmetry_space_group_name_H-M "C M C 21"
_symmetry_group_IT_number 36
_symmetry_cell_setting 'orthorhombic'
loop_
_space_group_symop_operation_xyz
x,y,z
-x,-y,1/2+z
x,-y,1/2+z
-x,y,z
1/2+x,1/2+y,z
1/2-x,1/2-y,1/2+z
1/2+x,1/2-y,1/2+z
1/2-x,1/2+y,z
loop_
_atom_site_type_symbol
_atom_site_label
_atom_site_fract_x
_atom_site_fract_y
_atom_site_fract_z
Si Si1 0.315171 0.500108 0.890720
Si Si2 0.186131 0.498526 0.240463
Si Si3 0.314853 0.654602 0.564094
Si Si4 0.813889 0.856770 0.808963
Si Si5 0.188579 0.357233 0.320283
Si Si6 0.315706 0.361621 0.562192
Si Si7 0.315213 0.010871 0.493098
Si Si8 0.187225 0.490735 0.134399
O O1 0.500000 0.497189 0.903435
O O2 0.264998 0.415838 0.855312
O O3 0.270625 0.600398 0.867033
O O4 0.212885 0.485517 0.937440
O O5 0.233722 0.599971 0.262182
O O6 0.250667 0.414400 0.274212
O O7 0.255690 0.487212 0.187761
O O8 0.000000 0.490697 0.237327
O O9 0.500000 0.632787 0.568310
O O10 0.285560 0.766110 0.562904
O O11 0.249746 0.607880 0.515898
O O12 0.227201 0.608767 0.609293
O O13 0.752061 0.750162 0.815284
O O14 0.000000 0.859849 0.800695
O O15 0.000000 0.364428 0.326130
O O16 0.500000 0.335357 0.562108
O O17 0.273828 0.420178 0.515037
O O18 0.273990 0.422994 0.608225
O O19 0.500000 0.001231 0.504601
O O20 0.000000 0.508809 0.133003
#
# Coordination Sequence:
#
# PCOD8175207 Si02
#       8
#     8   8   8   8   8   8   8   8
#     4  10  20  35  53  78 108 140 178 224 271 321
#     4   9  19  34  54  78 108 140 176 221 269 318
#     4  11  22  38  58  82 111 144 180 224 271 324
#     4   9  19  34  54  77 106 141 180 221 265 317
#     4   9  18  35  54  76 105 141 180 221 268 320
#     4  11  22  38  58  81 108 142 181 226 274 325
#     4  11  22  38  58  81 109 144 182 225 271 323
#     4  10  20  36  55  81 113 146 183 226 271 322
#
# _framework density 19.065638
#
# number of rings (size 3 to 8) (size 9 to 14) (size 15 to 20)
#    0.000    2.000    0.000    5.625    0.000    4.000 
#    0.000    5.000    0.000    0.000    0.000    0.000 
#    0.000    0.000    0.000    0.000    0.000    0.000 
#
# Total GULP energy -396917.168758 kJ/mol
# GULP energy per Si atom -12403.661524 kJ/mol
# Density = 1.902224 g / cm^3
# Si number density = 19.065638 Si / 1000 Ang^3
#
#
#
# Elastic Constant Matrix: (Units=GPa)
#
#
# Indices 1 2 3 4 5 6 
#
# 1 52.9325 4.0151 16.7802 0.0000 0.0000 0.0000
# 2 4.0151 126.3589 45.6926 0.0000 0.0000 0.0000
# 3 16.7802 45.6926 135.1499 0.0000 0.0000 0.0000
# 4 0.0000 0.0000 0.0000 13.3712 0.0000 0.0000
# 5 0.0000 0.0000 0.0000 0.0000 29.1779 0.0000
# 6 0.0000 0.0000 0.0000 0.0000 0.0000 26.4850
#
#
#
# Elastic Compliance Matrix: (Units=1/GPa)
#
#
# Indices 1 2 3 4 5 6 
#
# 1 0.019676 0.000294 -0.002542 0.000000 0.000000 0.000000
# 2 0.000294 0.009021 -0.003086 0.000000 0.000000 0.000000
# 3 -0.002542 -0.003086 0.008758 0.000000 0.000000 0.000000
# 4 0.000000 0.000000 0.000000 0.074788 0.000000 0.000000
# 5 0.000000 0.000000 0.000000 0.000000 0.034273 0.000000
# 6 0.000000 0.000000 0.000000 0.000000 0.000000 0.037757
#
#
# Mechanical properties :
#
#
# Convention : Reuss Voigt Hill
#
# Bulk Modulus (GPa) = 37.33360 49.71302 43.52331
# Shear Modulus (GPa) = 24.52550 30.33705 27.43127
#
# Velocity S-wave (km/s) = 3.59049 3.99330 3.79724
# Velocity P-wave (km/s) = 6.06737 6.88427 6.48869
#
# Compressibility (1/GPa) = 0.02678552
#
# Stress axis : x y z
#
# Youngs Moduli (GPa) = 50.82426 110.85669 114.17746
#
# Poissons Ratio (x) = -0.03261 0.29028
# Poissons Ratio (y) = -0.01495 0.35239
# Poissons Ratio (z) = 0.12921 0.34214
#
# Static dielectric constant tensor:
#      x y z
#    x 3.434970 0.000000 0.000000 
#    y 0.000000 3.524100 0.000000 
#    z 0.000000 0.000000 3.621380 
# 
# 
# High freq. dielectric constant tensor:
#      x y z
#    x 1.745470 0.000000 0.000000 
#    y 0.000000 1.741220 0.000000 
#    z 0.000000 0.000000 1.743760 
# 
# From -- ./inp_files/17331.got.cif
#   From: 2010.03.12/outbox.cif.g09.slc.cpg/sg36_9_cif.got.tgz:17331.got - 2010.04.14 02:13:53.
