data_PCOD8175721
_publ_section_title
;
Structure prediction by ZEFSAII (Michael W. Deem and Ramdas Pophale) SiO2 
 PCOD8175721
Probable space group: C M C 21
;
_chemical_formula_sum "Si O2"
_cell_formula_units_Z 56
_cell_length_a 14.003434
_cell_length_b 22.258884
_cell_length_c 8.979524
_cell_angle_alpha 90.000000
_cell_angle_beta 90.000000
_cell_angle_gamma 90.000000
_cell_volume 2798.924931
_symmetry_space_group_name_H-M "C M C 21"
_symmetry_group_IT_number 36
_symmetry_cell_setting 'orthorhombic'
loop_
_space_group_symop_operation_xyz
x,y,z
-x,-y,1/2+z
x,-y,1/2+z
-x,y,z
1/2+x,1/2+y,z
1/2-x,1/2-y,1/2+z
1/2+x,1/2-y,1/2+z
1/2-x,1/2+y,z
loop_
_atom_site_type_symbol
_atom_site_label
_atom_site_fract_x
_atom_site_fract_y
_atom_site_fract_z
Si Si1 0.774022 0.581915 0.253390
Si Si2 0.388458 0.569696 0.743730
Si Si3 0.107207 0.298943 0.774217
Si Si4 0.720652 0.496475 0.498522
Si Si5 0.109090 0.836847 0.809748
Si Si6 0.604183 0.780504 0.114528
Si Si7 0.307830 0.687308 0.628724
O O1 0.850136 0.634595 0.264849
O O2 0.786736 0.540228 0.399287
O O3 0.663937 0.605372 0.243978
O O4 0.790175 0.543119 0.103520
O O5 0.500000 0.559386 0.755837
O O6 0.341088 0.546515 0.893984
O O7 0.349926 0.536392 0.597962
O O8 0.366071 0.640473 0.728284
O O9 0.167234 0.255463 0.668988
O O10 0.000000 0.302696 0.712236
O O11 0.109187 0.270953 0.938168
O O12 0.113078 0.784192 0.689913
O O13 0.000000 0.854491 0.849477
O O14 0.168179 0.818180 0.955194
O O15 0.500000 0.809301 0.157563
O O16 0.693875 0.822658 0.158974
#
# Coordination Sequence:
#
# PCOD8175721 Si02
#       7
#     8   8   8   8   8   8   8
#     4  11  22  43  61  86 123 160 205 258 307 362
#     4  11  22  37  58  88 124 163 206 253 302 365
#     4  11  23  40  64  92 122 157 202 255 312 367
#     4  10  24  39  60  83 119 168 211 251 304 359
#     4  11  22  36  58  87 125 165 194 236 300 369
#     4  10  21  37  59  87 120 159 198 237 300 371
#     4  12  21  38  59  93 127 158 195 252 310 367
#
# _framework density 20.007681999999999
#
# number of rings (size 3 to 8) (size 9 to 14) (size 15 to 20)
#    0.000    1.143    4.286    1.714    2.000    4.000 
#    0.000    0.714    0.000    3.429    0.000    0.000 
#    0.000    0.000    0.000    0.000    0.000    0.000 
#
# Total GULP energy -347199.495524 kJ/mol
# GULP energy per Si atom -12399.981983 kJ/mol
# Density = 1.996214 g / cm^3
# Si number density = 20.007682 Si / 1000 Ang^3
#
#
#
# Elastic Constant Matrix: (Units=GPa)
#
#
# Indices 1 2 3 4 5 6 
#
# 1 113.5538 32.2923 27.5385 0.0000 0.0000 0.0000
# 2 32.2923 97.6316 50.3535 0.0000 0.0000 0.0000
# 3 27.5385 50.3535 96.8122 0.0000 0.0000 0.0000
# 4 0.0000 0.0000 0.0000 32.8858 0.0000 0.0000
# 5 0.0000 0.0000 0.0000 0.0000 20.0199 0.0000
# 6 0.0000 0.0000 0.0000 0.0000 0.0000 21.6353
#
#
#
# Elastic Compliance Matrix: (Units=1/GPa)
#
#
# Indices 1 2 3 4 5 6 
#
# 1 0.009881 -0.002485 -0.001518 0.000000 0.000000 0.000000
# 2 -0.002485 0.014622 -0.006898 0.000000 0.000000 0.000000
# 3 -0.001518 -0.006898 0.014349 0.000000 0.000000 0.000000
# 4 0.000000 0.000000 0.000000 0.030408 0.000000 0.000000
# 5 0.000000 0.000000 0.000000 0.000000 0.049950 0.000000
# 6 0.000000 0.000000 0.000000 0.000000 0.000000 0.046221
#
#
# Mechanical properties :
#
#
# Convention : Reuss Voigt Hill
#
# Bulk Modulus (GPa) = 58.65391 58.70736 58.68064
# Shear Modulus (GPa) = 25.91764 28.09577 27.00670
#
# Velocity S-wave (km/s) = 3.60305 3.75140 3.67797
# Velocity P-wave (km/s) = 6.83291 6.94047 6.88690
#
# Compressibility (1/GPa) = 0.01704916
#
# Stress axis : x y z
#
# Youngs Moduli (GPa) = 101.20077 68.38779 69.69095
#
# Poissons Ratio (x) = 0.16997 0.10580
# Poissons Ratio (y) = 0.25152 0.48076
# Poissons Ratio (z) = 0.15363 0.47177
#
# Static dielectric constant tensor:
#      x y z
#    x 3.800350 0.000000 0.000000 
#    y 0.000000 3.654140 0.000000 
#    z 0.000000 0.000000 3.732010 
# 
# 
# High freq. dielectric constant tensor:
#      x y z
#    x 1.774480 0.000000 0.000000 
#    y 0.000000 1.777470 0.000000 
#    z 0.000000 0.000000 1.788090 
# 
# From -- ./inp_files/4179.got.cif
#   From: 2010.03.12/outbox.cif.g09.slc.cpg/sg36_3_cif.got.tgz:4179.got - 2010.04.14 02:13:53.
