data_PCOD8175922
_publ_section_title
;
Structure prediction by ZEFSAII (Michael W. Deem and Ramdas Pophale) SiO2 
 PCOD8175922
Probable space group: C M C 21
;
_chemical_formula_sum "Si O2"
_cell_formula_units_Z 48
_cell_length_a 8.968375
_cell_length_b 27.009699
_cell_length_c 9.845908
_cell_angle_alpha 90.000000
_cell_angle_beta 90.000000
_cell_angle_gamma 90.000000
_cell_volume 2385.004908
_symmetry_space_group_name_H-M "C M C 21"
_symmetry_group_IT_number 36
_symmetry_cell_setting 'orthorhombic'
loop_
_space_group_symop_operation_xyz
x,y,z
-x,-y,1/2+z
x,-y,1/2+z
-x,y,z
1/2+x,1/2+y,z
1/2-x,1/2-y,1/2+z
1/2+x,1/2-y,1/2+z
1/2-x,1/2+y,z
loop_
_atom_site_type_symbol
_atom_site_label
_atom_site_fract_x
_atom_site_fract_y
_atom_site_fract_z
Si Si1 0.826407 0.716297 0.120370
Si Si2 0.824932 0.067456 0.478370
Si Si3 0.327566 0.107293 0.736979
Si Si4 0.171964 0.392016 0.716017
Si Si5 0.830895 0.534542 0.972744
Si Si6 0.174829 0.796658 0.345009
O O1 0.782071 0.664256 0.187841
O O2 0.784314 0.759106 0.225196
O O3 0.000000 0.716475 0.081278
O O4 0.731627 0.726586 0.985664
O O5 0.750285 0.101526 0.592374
O O6 0.776289 0.087036 0.332735
O O7 0.000000 0.072440 0.494482
O O8 0.780461 0.010435 0.496267
O O9 0.500000 0.119596 0.714081
O O10 0.307205 0.056886 0.822758
O O11 0.255711 0.151687 0.820567
O O12 0.203536 0.422923 0.580704
O O13 0.000000 0.396492 0.761483
O O14 0.000000 0.514731 0.988565
O O15 0.000000 0.806065 0.354542
#
# Coordination Sequence:
#
# PCOD8175922 Si02
#       6
#     8   8   8   8   8   8
#     4  10  23  44  66  93 126 164 208 253 307 376
#     4  12  26  39  58  95 132 163 203 261 317 367
#     4  11  23  43  67  90 124 170 213 255 307 373
#     4  10  21  42  66  89 121 165 214 254 299 373
#     4  10  21  41  67  90 116 164 217 257 305 375
#     4  11  24  41  66  99 129 160 205 260 315 366
#
# _framework density 20.125744000000001
#
# number of rings (size 3 to 8) (size 9 to 14) (size 15 to 20)
#    0.000    1.333    1.667    3.500    2.333    8.000 
#    0.000    0.000    0.000    0.000    0.000    0.000 
#    0.000    0.000    0.000    0.000    0.000    0.000 
#
# Total GULP energy -297780.200578 kJ/mol
# GULP energy per Si atom -12407.508357 kJ/mol
# Density = 2.007994 g / cm^3
# Si number density = 20.125744 Si / 1000 Ang^3
#
#
#
# Elastic Constant Matrix: (Units=GPa)
#
#
# Indices 1 2 3 4 5 6 
#
# 1 115.6354 46.4379 55.0267 0.0000 0.0000 0.0000
# 2 46.4379 78.3061 28.8888 0.0000 0.0000 0.0000
# 3 55.0267 28.8888 91.2109 0.0000 0.0000 0.0000
# 4 0.0000 0.0000 0.0000 30.2558 0.0000 0.0000
# 5 0.0000 0.0000 0.0000 0.0000 34.0180 0.0000
# 6 0.0000 0.0000 0.0000 0.0000 0.0000 28.9115
#
#
#
# Elastic Compliance Matrix: (Units=1/GPa)
#
#
# Indices 1 2 3 4 5 6 
#
# 1 0.014231 -0.005970 -0.006695 0.000000 0.000000 0.000000
# 2 -0.005970 0.016964 -0.001772 0.000000 0.000000 0.000000
# 3 -0.006695 -0.001772 0.015564 0.000000 0.000000 0.000000
# 4 0.000000 0.000000 0.000000 0.033052 0.000000 0.000000
# 5 0.000000 0.000000 0.000000 0.000000 0.029396 0.000000
# 6 0.000000 0.000000 0.000000 0.000000 0.000000 0.034588
#
#
# Mechanical properties :
#
#
# Convention : Reuss Voigt Hill
#
# Bulk Modulus (GPa) = 55.90673 60.65104 58.27888
# Shear Modulus (GPa) = 27.99104 28.95699 28.47401
#
# Velocity S-wave (km/s) = 3.73340 3.79727 3.76547
# Velocity P-wave (km/s) = 6.81347 7.03045 6.92281
#
# Compressibility (1/GPa) = 0.01788693
#
# Stress axis : x y z
#
# Youngs Moduli (GPa) = 70.26943 58.94803 64.25266
#
# Poissons Ratio (x) = 0.35189 0.43015
# Poissons Ratio (y) = 0.41948 0.11383
# Poissons Ratio (z) = 0.47043 0.10443
#
# Static dielectric constant tensor:
#      x y z
#    x 3.635300 0.000000 0.000000 
#    y 0.000000 3.671400 0.000000 
#    z 0.000000 0.000000 3.766320 
# 
# 
# High freq. dielectric constant tensor:
#      x y z
#    x 1.783010 0.000000 0.000000 
#    y 0.000000 1.792650 0.000000 
#    z 0.000000 0.000000 1.800610 
# 
# From -- ./inp_files/2729.got.cif
#   From: 2010.03.12/outbox.cif.g09.slc.cpg/sg36_2_cif.got.tgz:2729.got - 2010.04.14 02:13:53.
