data_PCOD8175519
_publ_section_title
;
Structure prediction by ZEFSAII (Michael W. Deem and Ramdas Pophale) SiO2 
 PCOD8175519
Probable space group: C M C 21
;
_chemical_formula_sum "Si O2"
_cell_formula_units_Z 64
_cell_length_a 8.781368
_cell_length_b 30.621035
_cell_length_c 11.997319
_cell_angle_alpha 90.000000
_cell_angle_beta 90.000000
_cell_angle_gamma 90.000000
_cell_volume 3226.014016
_symmetry_space_group_name_H-M "C M C 21"
_symmetry_group_IT_number 36
_symmetry_cell_setting 'orthorhombic'
loop_
_space_group_symop_operation_xyz
x,y,z
-x,-y,1/2+z
x,-y,1/2+z
-x,y,z
1/2+x,1/2+y,z
1/2-x,1/2-y,1/2+z
1/2+x,1/2-y,1/2+z
1/2-x,1/2+y,z
loop_
_atom_site_type_symbol
_atom_site_label
_atom_site_fract_x
_atom_site_fract_y
_atom_site_fract_z
Si Si1 0.329747 0.327236 0.654960
Si Si2 0.322534 0.956370 0.433358
Si Si3 0.680426 0.294254 0.891590
Si Si4 0.677699 0.452969 0.889074
Si Si5 0.329924 0.572696 0.148382
Si Si6 0.319545 0.126380 0.522688
Si Si7 0.318971 0.121101 0.776116
Si Si8 0.678714 0.802516 0.432302
O O1 0.500000 0.312062 0.620384
O O2 0.272253 0.302149 0.764039
O O3 0.329006 0.377601 0.687656
O O4 0.214189 0.318396 0.555904
O O5 0.500000 0.967032 0.419376
O O6 0.294162 0.934241 0.552821
O O7 0.263996 0.923416 0.337007
O O8 0.226764 0.000469 0.435536
O O9 0.500000 0.298598 0.907807
O O10 0.745171 0.246060 0.917501
O O11 0.758312 0.328356 0.974305
O O12 0.500000 0.444880 0.909594
O O13 0.717364 0.454291 0.757923
O O14 0.766684 0.414888 0.951854
O O15 0.500000 0.559451 0.106981
O O16 0.500000 0.127932 0.521232
O O17 0.258594 0.121455 0.649626
O O18 0.500000 0.122708 0.781054
O O19 0.251695 0.163228 0.842429
O O20 0.500000 0.800790 0.414838
#
# Coordination Sequence:
#
# PCOD8175519 Si02
#       8
#     8   8   8   8   8   8   8   8
#     4  10  20  38  62  86 116 153 199 249 298 349
#     4  11  23  40  63  90 121 154 200 251 301 355
#     4  10  22  40  61  87 122 161 197 243 302 356
#     4  11  24  43  63  88 123 158 200 245 302 362
#     4  10  21  40  63  86 116 157 201 247 299 357
#     4  11  23  40  63  89 120 158 203 246 297 356
#     4   9  21  40  59  85 120 157 194 243 297 351
#     4  10  21  39  62  87 118 158 200 242 298 354
#
# _framework density 19.838723999999999
#
# number of rings (size 3 to 8) (size 9 to 14) (size 15 to 20)
#    0.000    1.750    2.500    1.125    3.500    2.000 
#    0.000    3.125    0.000    0.000    0.000    0.000 
#    0.000    0.000    0.000    0.000    0.000    0.000 
#
# Total GULP energy -396853.621904 kJ/mol
# GULP energy per Si atom -12401.675685 kJ/mol
# Density = 1.979357 g / cm^3
# Si number density = 19.838724 Si / 1000 Ang^3
#
#
#
# Elastic Constant Matrix: (Units=GPa)
#
#
# Indices 1 2 3 4 5 6 
#
# 1 37.1948 21.9786 29.8346 0.0000 0.0000 0.0000
# 2 21.9786 111.4981 35.1372 0.0000 0.0000 0.0000
# 3 29.8346 35.1372 107.9557 0.0000 0.0000 0.0000
# 4 0.0000 0.0000 0.0000 30.2004 0.0000 0.0000
# 5 0.0000 0.0000 0.0000 0.0000 31.4252 0.0000
# 6 0.0000 0.0000 0.0000 0.0000 0.0000 24.4346
#
#
#
# Elastic Compliance Matrix: (Units=1/GPa)
#
#
# Indices 1 2 3 4 5 6 
#
# 1 0.036436 -0.004467 -0.008615 0.000000 0.000000 0.000000
# 2 -0.004467 0.010542 -0.002196 0.000000 0.000000 0.000000
# 3 -0.008615 -0.002196 0.012359 0.000000 0.000000 0.000000
# 4 0.000000 0.000000 0.000000 0.033112 0.000000 0.000000
# 5 0.000000 0.000000 0.000000 0.000000 0.031822 0.000000
# 6 0.000000 0.000000 0.000000 0.000000 0.000000 0.040926
#
#
# Mechanical properties :
#
#
# Convention : Reuss Voigt Hill
#
# Bulk Modulus (GPa) = 34.74874 47.83884 41.29379
# Shear Modulus (GPa) = 24.34910 28.52525 26.43718
#
# Velocity S-wave (km/s) = 3.50716 3.79602 3.65445
# Velocity P-wave (km/s) = 5.82699 6.58629 6.21824
#
# Compressibility (1/GPa) = 0.02877802
#
# Stress axis : x y z
#
# Youngs Moduli (GPa) = 27.44556 94.86278 80.91332
#
# Poissons Ratio (x) = 0.42377 0.69710
# Poissons Ratio (y) = 0.12261 0.17772
# Poissons Ratio (z) = 0.23645 0.20836
#
# Static dielectric constant tensor:
#      x y z
#    x 3.391310 0.000000 0.000000 
#    y 0.000000 3.812200 0.000000 
#    z 0.000000 0.000000 3.665650 
# 
# 
# High freq. dielectric constant tensor:
#      x y z
#    x 1.754450 0.000000 0.000000 
#    y 0.000000 1.785910 0.000000 
#    z 0.000000 0.000000 1.782740 
# 
# From -- ./inp_files/7060.got.cif
#   From: 2010.03.12/outbox.cif.g09.slc.cpg/sg36_4_cif.got.tgz:7060.got - 2010.04.14 02:13:53.
