data_PCOD8175122
_publ_section_title
;
Structure prediction by ZEFSAII (Michael W. Deem and Ramdas Pophale) SiO2 
 PCOD8175122
Probable space group: C M C 21
;
_chemical_formula_sum "Si O2"
_cell_formula_units_Z 64
_cell_length_a 8.991339
_cell_length_b 28.102326
_cell_length_c 14.015966
_cell_angle_alpha 90.000000
_cell_angle_beta 90.000000
_cell_angle_gamma 90.000000
_cell_volume 3541.519806
_symmetry_space_group_name_H-M "C M C 21"
_symmetry_group_IT_number 36
_symmetry_cell_setting 'orthorhombic'
loop_
_space_group_symop_operation_xyz
x,y,z
-x,-y,1/2+z
x,-y,1/2+z
-x,y,z
1/2+x,1/2+y,z
1/2-x,1/2-y,1/2+z
1/2+x,1/2-y,1/2+z
1/2-x,1/2+y,z
loop_
_atom_site_type_symbol
_atom_site_label
_atom_site_fract_x
_atom_site_fract_y
_atom_site_fract_z
Si Si1 0.674512 0.755211 0.779530
Si Si2 0.173176 0.497914 0.988333
Si Si3 0.826205 0.425986 0.650030
Si Si4 0.325996 0.322327 0.128837
Si Si5 0.675447 0.674436 0.146054
Si Si6 0.325934 0.504462 0.288244
Si Si7 0.173208 0.929976 0.126584
Si Si8 0.173393 0.253447 0.996071
O O1 0.500000 0.766108 0.769517
O O2 0.721471 0.708214 0.721132
O O3 0.764435 0.800937 0.742198
O O4 0.722334 0.745097 0.887609
O O5 0.258891 0.507354 0.890714
O O6 0.000000 0.491318 0.966902
O O7 0.205266 0.542449 0.056872
O O8 0.233994 0.450249 0.037916
O O9 0.754256 0.375409 0.629563
O O10 0.751143 0.449153 0.743145
O O11 0.000000 0.420519 0.670888
O O12 0.500000 0.320224 0.112345
O O13 0.272670 0.376232 0.144627
O O14 0.251897 0.300840 0.034441
O O15 0.500000 0.666780 0.154384
O O16 0.720917 0.707143 0.056130
O O17 0.500000 0.514911 0.297738
O O18 0.292584 0.458771 0.222831
O O19 0.000000 0.933019 0.099636
O O20 0.000000 0.262582 0.005627
#
# Coordination Sequence:
#
# PCOD8175122 Si02
#       8
#     8   8   8   8   8   8   8   8
#     4   9  18  34  53  73 102 138 171 206 253 306
#     4  10  21  36  54  77 106 138 171 210 258 312
#     4  10  21  37  55  76 105 140 176 213 258 312
#     4   9  18  33  53  75 100 131 168 209 251 297
#     4  10  20  34  53  78 105 133 171 217 260 303
#     4  10  20  35  56  79 104 135 173 217 260 304
#     4   9  19  35  54  77 103 134 174 216 258 304
#     4   9  19  34  52  75 103 135 170 208 252 304
#
# _framework density 18.071337
#
# number of rings (size 3 to 8) (size 9 to 14) (size 15 to 20)
#    0.000    2.500    0.000    1.500    0.000    5.500 
#    0.000    5.000    0.000    3.000    0.000    0.000 
#    0.000    0.000    0.000    0.000    0.000    0.000 
#
# Total GULP energy -396904.554374 kJ/mol
# GULP energy per Si atom -12403.267324 kJ/mol
# Density = 1.803021 g / cm^3
# Si number density = 18.071337 Si / 1000 Ang^3
#
#
#
# Elastic Constant Matrix: (Units=GPa)
#
#
# Indices 1 2 3 4 5 6 
#
# 1 77.7939 53.0308 49.1325 0.0000 0.0000 0.0000
# 2 53.0308 134.2184 58.3366 0.0000 0.0000 0.0000
# 3 49.1325 58.3366 111.2497 0.0000 0.0000 0.0000
# 4 0.0000 0.0000 0.0000 14.3242 0.0000 0.0000
# 5 0.0000 0.0000 0.0000 0.0000 32.8403 0.0000
# 6 0.0000 0.0000 0.0000 0.0000 0.0000 30.0619
#
#
#
# Elastic Compliance Matrix: (Units=1/GPa)
#
#
# Indices 1 2 3 4 5 6 
#
# 1 0.020441 -0.005379 -0.006207 0.000000 0.000000 0.000000
# 2 -0.005379 0.011065 -0.003427 0.000000 0.000000 0.000000
# 3 -0.006207 -0.003427 0.013527 0.000000 0.000000 0.000000
# 4 0.000000 0.000000 0.000000 0.069812 0.000000 0.000000
# 5 0.000000 0.000000 0.000000 0.000000 0.030450 0.000000
# 6 0.000000 0.000000 0.000000 0.000000 0.000000 0.033265
#
#
# Mechanical properties :
#
#
# Convention : Reuss Voigt Hill
#
# Bulk Modulus (GPa) = 66.63097 71.58464 69.10781
# Shear Modulus (GPa) = 23.40948 26.29611 24.85280
#
# Velocity S-wave (km/s) = 3.60306 3.81875 3.71247
# Velocity P-wave (km/s) = 7.36617 7.69039 7.53003
#
# Compressibility (1/GPa) = 0.01500804
#
# Stress axis : x y z
#
# Youngs Moduli (GPa) = 48.92045 90.37406 73.92526
#
# Poissons Ratio (x) = 0.48608 0.45888
# Poissons Ratio (y) = 0.26312 0.25333
# Poissons Ratio (z) = 0.30367 0.30970
#
# Static dielectric constant tensor:
#      x y z
#    x 3.371860 0.000000 0.000000 
#    y 0.000000 3.428240 0.000000 
#    z 0.000000 0.000000 3.402260 
# 
# 
# High freq. dielectric constant tensor:
#      x y z
#    x 1.704890 0.000000 0.000000 
#    y 0.000000 1.701450 0.000000 
#    z 0.000000 0.000000 1.700820 
# 
# From -- ./inp_files/11193.got.cif
#   From: 2010.03.12/outbox.cif.g09.slc.cpg/sg36_6_cif.got.tgz:11193.got - 2010.04.14 02:13:53.
