data_PCOD8175193
_publ_section_title
;
Structure prediction by ZEFSAII (Michael W. Deem and Ramdas Pophale) SiO2 
 PCOD8175193
Probable space group: C M C 21
;
_chemical_formula_sum "Si O2"
_cell_formula_units_Z 64
_cell_length_a 9.065571
_cell_length_b 22.741912
_cell_length_c 16.036589
_cell_angle_alpha 90.000000
_cell_angle_beta 90.000000
_cell_angle_gamma 90.000000
_cell_volume 3306.238183
_symmetry_space_group_name_H-M "C M C 21"
_symmetry_group_IT_number 36
_symmetry_cell_setting 'orthorhombic'
loop_
_space_group_symop_operation_xyz
x,y,z
-x,-y,1/2+z
x,-y,1/2+z
-x,y,z
1/2+x,1/2+y,z
1/2-x,1/2-y,1/2+z
1/2+x,1/2-y,1/2+z
1/2-x,1/2+y,z
loop_
_atom_site_type_symbol
_atom_site_label
_atom_site_fract_x
_atom_site_fract_y
_atom_site_fract_z
Si Si1 0.326546 0.847677 0.724220
Si Si2 0.665443 0.126962 0.803393
Si Si3 0.827667 0.886193 0.565273
Si Si4 0.665323 0.326065 0.004531
Si Si5 0.830477 0.214720 0.690226
Si Si6 0.161739 0.702824 0.964482
Si Si7 0.827705 0.588764 0.396133
Si Si8 0.825104 0.035154 0.910205
O O1 0.500000 0.850408 0.709830
O O2 0.252934 0.890282 0.654577
O O3 0.271104 0.779816 0.715753
O O4 0.283144 0.873988 0.814286
O O5 0.500000 0.106675 0.778649
O O6 0.740591 0.160416 0.727539
O O7 0.662393 0.173273 0.876283
O O8 0.758854 0.070684 0.832078
O O9 0.786426 0.823638 0.524521
O O10 0.776911 0.937397 0.500214
O O11 0.000000 0.889435 0.581936
O O12 0.500000 0.352926 0.997973
O O13 0.691998 0.295442 0.092887
O O14 0.689828 0.270982 0.942833
O O15 0.783588 0.375094 0.979196
O O16 0.000000 0.209040 0.718672
O O17 0.000000 0.694943 0.008236
O O18 0.735076 0.529788 0.400744
O O19 0.000000 0.574023 0.398650
O O20 0.000000 0.036119 0.902061
#
# Coordination Sequence:
#
# PCOD8175193 Si02
#       8
#     8   8   8   8   8   8   8   8
#     4  10  21  39  61  87 121 155 190 238 298 355
#     4  10  20  34  58  88 115 147 191 241 288 337
#     4  10  20  34  59  90 114 146 193 241 287 341
#     4  10  20  36  58  82 117 159 191 228 290 354
#     4  10  20  36  58  86 121 157 189 229 291 357
#     4   9  17  33  56  82 115 152 185 227 288 347
#     4  11  24  40  60  87 117 155 200 248 297 342
#     4  10  22  42  62  82 114 155 199 242 291 353
#
# _framework density 19.357346
#
# number of rings (size 3 to 8) (size 9 to 14) (size 15 to 20)
#    0.000    2.000    1.250    2.250    0.000    4.500 
#    2.250    0.000    0.000    0.000    0.000    0.000 
#    0.000    0.000    0.000    0.000    0.000    0.000 
#
# Total GULP energy -396674.704325 kJ/mol
# GULP energy per Si atom -12396.084510 kJ/mol
# Density = 1.931329 g / cm^3
# Si number density = 19.357346 Si / 1000 Ang^3
#
#
#
# Elastic Constant Matrix: (Units=GPa)
#
#
# Indices 1 2 3 4 5 6 
#
# 1 72.4895 41.3623 32.7625 0.0000 0.0000 0.0000
# 2 41.3623 113.4648 37.9195 0.0000 0.0000 0.0000
# 3 32.7625 37.9195 61.2349 0.0000 0.0000 0.0000
# 4 0.0000 0.0000 0.0000 26.3288 0.0000 0.0000
# 5 0.0000 0.0000 0.0000 0.0000 31.5916 0.0000
# 6 0.0000 0.0000 0.0000 0.0000 0.0000 32.1339
#
#
#
# Elastic Compliance Matrix: (Units=1/GPa)
#
#
# Indices 1 2 3 4 5 6 
#
# 1 0.019990 -0.004682 -0.007796 0.000000 0.000000 0.000000
# 2 -0.004682 0.012210 -0.005056 0.000000 0.000000 0.000000
# 3 -0.007796 -0.005056 0.023633 0.000000 0.000000 0.000000
# 4 0.000000 0.000000 0.000000 0.037981 0.000000 0.000000
# 5 0.000000 0.000000 0.000000 0.000000 0.031654 0.000000
# 6 0.000000 0.000000 0.000000 0.000000 0.000000 0.031120
#
#
# Mechanical properties :
#
#
# Convention : Reuss Voigt Hill
#
# Bulk Modulus (GPa) = 48.15856 52.36418 50.26137
# Shear Modulus (GPa) = 25.17924 27.02053 26.09988
#
# Velocity S-wave (km/s) = 3.61052 3.74020 3.67593
# Velocity P-wave (km/s) = 6.50491 6.76478 6.63611
#
# Compressibility (1/GPa) = 0.02076474
#
# Stress axis : x y z
#
# Youngs Moduli (GPa) = 50.02491 81.90249 42.31443
#
# Poissons Ratio (x) = 0.38344 0.32989
# Poissons Ratio (y) = 0.23420 0.21394
# Poissons Ratio (z) = 0.39000 0.41409
#
# Static dielectric constant tensor:
#      x y z
#    x 3.682140 0.000000 0.000000 
#    y 0.000000 3.612420 0.000000 
#    z 0.000000 0.000000 3.676360 
# 
# 
# High freq. dielectric constant tensor:
#      x y z
#    x 1.753100 0.000000 0.000000 
#    y 0.000000 1.747750 0.000000 
#    z 0.000000 0.000000 1.749970 
# 
# From -- ./inp_files/13999.got.cif
#   From: 2010.03.12/outbox.cif.g09.slc.cpg/sg36_7_cif.got.tgz:13999.got - 2010.04.14 02:13:53.
