data_PCOD8175841
_publ_section_title
;
Structure prediction by ZEFSAII (Michael W. Deem and Ramdas Pophale) SiO2 
 PCOD8175841
Probable space group: C M C 21
;
_chemical_formula_sum "Si O2"
_cell_formula_units_Z 64
_cell_length_a 16.314350
_cell_length_b 11.607588
_cell_length_c 16.393309
_cell_angle_alpha 90.000000
_cell_angle_beta 90.000000
_cell_angle_gamma 90.000000
_cell_volume 3104.405078
_symmetry_space_group_name_H-M "C M C 21"
_symmetry_group_IT_number 36
_symmetry_cell_setting 'orthorhombic'
loop_
_space_group_symop_operation_xyz
x,y,z
-x,-y,1/2+z
x,-y,1/2+z
-x,y,z
1/2+x,1/2+y,z
1/2-x,1/2-y,1/2+z
1/2+x,1/2-y,1/2+z
1/2-x,1/2+y,z
loop_
_atom_site_type_symbol
_atom_site_label
_atom_site_fract_x
_atom_site_fract_y
_atom_site_fract_z
Si Si1 0.907648 0.197974 0.791610
Si Si2 0.903383 0.613794 0.802869
Si Si3 0.353443 0.508413 0.391580
Si Si4 0.187082 0.231132 0.179433
Si Si5 0.407829 0.744002 0.454675
Si Si6 0.345656 0.667530 0.619995
Si Si7 0.294562 0.899260 0.803563
Si Si8 0.402198 0.574514 0.058397
O O1 0.884379 0.066157 0.814293
O O2 0.900392 0.216226 0.694221
O O3 0.844128 0.286361 0.834672
O O4 0.000000 0.225576 0.819898
O O5 0.876526 0.712200 0.740882
O O6 0.876710 0.656014 0.893636
O O7 0.860178 0.495355 0.778559
O O8 0.000000 0.596011 0.796986
O O9 0.408043 0.621485 0.407282
O O10 0.260601 0.551716 0.377266
O O11 0.360335 0.424770 0.469508
O O12 0.250198 0.326707 0.145075
O O13 0.237374 0.130430 0.225935
O O14 0.133071 0.183441 0.105747
O O15 0.500000 0.769420 0.481759
O O16 0.355244 0.743315 0.537683
O O17 0.375486 0.538950 0.606099
O O18 0.500000 0.582278 0.050768
#
# Coordination Sequence:
#
# PCOD8175841 Si02
#       8
#     8   8   8   8   8   8   8   8
#     4  11  22  39  63  88 121 162 205 253 301 361
#     4  11  23  40  63  89 124 162 201 249 305 366
#     4  11  22  37  61  88 124 154 201 253 304 353
#     4  11  22  40  62  92 117 160 203 251 306 361
#     4  10  21  39  62  92 122 160 204 252 306 361
#     4  10  22  37  61  90 122 154 205 252 304 359
#     4  11  23  39  60  89 121 157 204 247 302 361
#     4  11  23  39  60  90 123 157 201 253 308 362
#
# _framework density 20.615866
#
# number of rings (size 3 to 8) (size 9 to 14) (size 15 to 20)
#    0.000    1.250    1.250    6.750    1.750    1.000 
#    0.000    0.000    0.000    0.000    0.000    0.000 
#    0.000    0.000    0.000    0.000    0.000    0.000 
#
# Total GULP energy -396799.342617 kJ/mol
# GULP energy per Si atom -12399.979457 kJ/mol
# Density = 2.056894 g / cm^3
# Si number density = 20.615866 Si / 1000 Ang^3
#
#
#
# Elastic Constant Matrix: (Units=GPa)
#
#
# Indices 1 2 3 4 5 6 
#
# 1 113.6429 32.7601 48.4403 0.0000 0.0000 0.0000
# 2 32.7601 68.4803 32.2938 0.0000 0.0000 0.0000
# 3 48.4403 32.2938 89.0946 0.0000 0.0000 0.0000
# 4 0.0000 0.0000 0.0000 20.5788 0.0000 0.0000
# 5 0.0000 0.0000 0.0000 0.0000 30.2187 0.0000
# 6 0.0000 0.0000 0.0000 0.0000 0.0000 31.9675
#
#
#
# Elastic Compliance Matrix: (Units=1/GPa)
#
#
# Indices 1 2 3 4 5 6 
#
# 1 0.012014 -0.003217 -0.005366 0.000000 0.000000 0.000000
# 2 -0.003217 0.018475 -0.004947 0.000000 0.000000 0.000000
# 3 -0.005366 -0.004947 0.015935 0.000000 0.000000 0.000000
# 4 0.000000 0.000000 0.000000 0.048594 0.000000 0.000000
# 5 0.000000 0.000000 0.000000 0.000000 0.033092 0.000000
# 6 0.000000 0.000000 0.000000 0.000000 0.000000 0.031282
#
#
# Mechanical properties :
#
#
# Convention : Reuss Voigt Hill
#
# Bulk Modulus (GPa) = 51.64507 55.35624 53.50066
# Shear Modulus (GPa) = 25.91933 27.06791 26.49362
#
# Velocity S-wave (km/s) = 3.54962 3.62742 3.58873
# Velocity P-wave (km/s) = 6.47343 6.66737 6.57111
#
# Compressibility (1/GPa) = 0.01936293
#
# Stress axis : x y z
#
# Youngs Moduli (GPa) = 83.23556 54.12783 62.75582
#
# Poissons Ratio (x) = 0.17412 0.33675
# Poissons Ratio (y) = 0.26776 0.31048
# Poissons Ratio (z) = 0.44664 0.26780
#
# Static dielectric constant tensor:
#      x y z
#    x 3.794210 0.000000 0.000000 
#    y 0.000000 3.647790 0.000000 
#    z 0.000000 0.000000 3.801180 
# 
# 
# High freq. dielectric constant tensor:
#      x y z
#    x 1.814140 0.000000 0.000000 
#    y 0.000000 1.795070 0.000000 
#    z 0.000000 0.000000 1.804170 
# 
# From -- ./inp_files/14726.got.cif
#   From: 2010.03.12/outbox.cif.g09.slc.cpg/sg36_8_cif.got.tgz:14726.got - 2010.04.14 02:13:53.
