data_PCOD8175021
_publ_section_title
;
Structure prediction by ZEFSAII (Michael W. Deem and Ramdas Pophale) SiO2 
 PCOD8175021
Probable space group: C M C 21
;
_chemical_formula_sum "Si O2"
_cell_formula_units_Z 64
_cell_length_a 15.200665
_cell_length_b 11.989185
_cell_length_c 15.422249
_cell_angle_alpha 90.000000
_cell_angle_beta 90.000000
_cell_angle_gamma 90.000000
_cell_volume 2810.605944
_symmetry_space_group_name_H-M "C M C 21"
_symmetry_group_IT_number 36
_symmetry_cell_setting 'orthorhombic'
loop_
_space_group_symop_operation_xyz
x,y,z
-x,-y,1/2+z
x,-y,1/2+z
-x,y,z
1/2+x,1/2+y,z
1/2-x,1/2-y,1/2+z
1/2+x,1/2-y,1/2+z
1/2-x,1/2+y,z
loop_
_atom_site_type_symbol
_atom_site_label
_atom_site_fract_x
_atom_site_fract_y
_atom_site_fract_z
Si Si1 0.652591 0.238652 0.250000
Si Si2 0.396670 0.458522 0.168933
Si Si3 0.600495 0.975849 0.660808
Si Si4 0.600059 0.884208 0.316000
Si Si5 0.395790 0.499206 0.968389
Si Si6 0.894125 0.477117 0.975299
Si Si7 0.096582 0.239060 0.932438
Si Si8 0.661257 0.641468 0.305418
O O1 0.663285 0.356355 0.201642
O O2 0.607468 0.152677 0.185452
O O3 0.586806 0.259065 0.329048
O O4 0.742451 0.189755 0.288464
O O5 0.500000 0.436526 0.184477
O O6 0.369158 0.569040 0.222462
O O7 0.376309 0.464629 0.066723
O O8 0.500000 0.012078 0.649163
O O9 0.646144 0.057857 0.731860
O O10 0.646492 0.986657 0.567361
O O11 0.500000 0.925491 0.314980
O O12 0.600996 0.751099 0.313899
O O13 0.643922 0.937994 0.402374
O O14 0.500000 0.495388 0.946542
O O15 0.355986 0.624681 0.960794
O O16 0.345516 0.424121 0.896844
O O17 0.855198 0.352398 0.962052
O O18 0.000000 0.478563 0.972358
O O19 0.000000 0.237350 0.975098
#
# Coordination Sequence:
#
# PCOD8175021 Si02
#       8
#     8   8   8   8   8   8   8   8
#     4  12  25  42  67  96 138 183 221 284 352 419
#     4  11  25  48  75 102 136 189 248 291 343 424
#     4  10  21  38  63  94 126 170 222 273 330 407
#     4  10  21  38  63  90 126 171 215 271 335 400
#     4  10  23  45  75 102 130 182 247 297 343 414
#     4   9  19  35  62  97 127 161 216 282 337 393
#     4  10  19  40  69  96 128 178 236 283 336 412
#     4  12  27  44  64  99 144 176 229 289 359 411
#
# _framework density 22.770890999999999
#
# number of rings (size 3 to 8) (size 9 to 14) (size 15 to 20)
#    0.000    1.500    2.500    2.250    5.250    0.000 
#    4.500    0.000    0.000    0.000    0.000    0.000 
#    0.000    0.000    0.000    0.000    0.000    0.000 
#
# Total GULP energy -396596.548770 kJ/mol
# GULP energy per Si atom -12393.642149 kJ/mol
# Density = 2.271906 g / cm^3
# Si number density = 22.770891 Si / 1000 Ang^3
#
#
#
# Elastic Constant Matrix: (Units=GPa)
#
#
# Indices 1 2 3 4 5 6 
#
# 1 47.0053 12.1446 20.3448 0.0000 0.0000 0.0000
# 2 12.1446 186.4705 89.1033 0.0000 0.0000 0.0000
# 3 20.3448 89.1033 199.2376 0.0000 0.0000 0.0000
# 4 0.0000 0.0000 0.0000 44.3110 0.0000 0.0000
# 5 0.0000 0.0000 0.0000 0.0000 12.8031 0.0000
# 6 0.0000 0.0000 0.0000 0.0000 0.0000 28.7856
#
#
#
# Elastic Compliance Matrix: (Units=1/GPa)
#
#
# Indices 1 2 3 4 5 6 
#
# 1 0.022289 -0.000463 -0.002069 0.000000 0.000000 0.000000
# 2 -0.000463 0.006830 -0.003007 0.000000 0.000000 0.000000
# 3 -0.002069 -0.003007 0.006575 0.000000 0.000000 0.000000
# 4 0.000000 0.000000 0.000000 0.022568 0.000000 0.000000
# 5 0.000000 0.000000 0.000000 0.000000 0.078106 0.000000
# 6 0.000000 0.000000 0.000000 0.000000 0.000000 0.034740
#
#
# Mechanical properties :
#
#
# Convention : Reuss Voigt Hill
#
# Bulk Modulus (GPa) = 40.62379 75.09987 57.86183
# Shear Modulus (GPa) = 26.26167 37.92133 32.09150
#
# Velocity S-wave (km/s) = 3.39971 4.08529 3.75817
# Velocity P-wave (km/s) = 5.76972 7.43673 6.65563
#
# Compressibility (1/GPa) = 0.02461612
#
# Stress axis : x y z
#
# Youngs Moduli (GPa) = 44.86452 146.41513 152.08475
#
# Poissons Ratio (x) = 0.06780 0.31466
# Poissons Ratio (y) = 0.02077 0.45735
# Poissons Ratio (z) = 0.09282 0.44030
#
# Static dielectric constant tensor:
#      x y z
#    x 3.786290 0.000000 0.000000 
#    y 0.000000 4.249970 0.000000 
#    z 0.000000 0.000000 4.333780 
# 
# 
# High freq. dielectric constant tensor:
#      x y z
#    x 1.867960 0.000000 0.000000 
#    y 0.000000 1.910750 0.000000 
#    z 0.000000 0.000000 1.909250 
# 
# From -- ./inp_files/12633.got.cif
#   From: 2010.03.12/outbox.cif.g09.slc.cpg/sg36_7_cif.got.tgz:12633.got - 2010.04.14 02:13:53.
