data_PCOD8175960
_publ_section_title
;
Structure prediction by ZEFSAII (Michael W. Deem and Ramdas Pophale) SiO2 
 PCOD8175960
Probable space group: C M C 21
;
_chemical_formula_sum "Si O2"
_cell_formula_units_Z 64
_cell_length_a 20.670376
_cell_length_b 19.594748
_cell_length_c 8.626147
_cell_angle_alpha 90.000000
_cell_angle_beta 90.000000
_cell_angle_gamma 90.000000
_cell_volume 3493.855296
_symmetry_space_group_name_H-M "C M C 21"
_symmetry_group_IT_number 36
_symmetry_cell_setting 'orthorhombic'
loop_
_space_group_symop_operation_xyz
x,y,z
-x,-y,1/2+z
x,-y,1/2+z
-x,y,z
1/2+x,1/2+y,z
1/2-x,1/2-y,1/2+z
1/2+x,1/2-y,1/2+z
1/2-x,1/2+y,z
loop_
_atom_site_type_symbol
_atom_site_label
_atom_site_fract_x
_atom_site_fract_y
_atom_site_fract_z
Si Si1 0.871023 0.569982 0.741120
Si Si2 0.927541 0.698267 0.600911
Si Si3 0.690252 0.708047 0.105461
Si Si4 0.230450 0.928285 0.106034
Si Si5 0.871023 0.569981 0.104482
Si Si6 0.927541 0.301733 0.744691
Si Si7 0.230450 0.071715 0.239567
Si Si8 0.690252 0.291952 0.240141
O O1 0.920007 0.631073 0.705815
O O2 0.803233 0.586682 0.659746
O O3 0.900476 0.500000 0.672800
O O4 0.859418 0.561724 0.922801
O O5 0.876819 0.755860 0.652603
O O6 0.915414 0.677425 0.422801
O O7 0.000000 0.727034 0.625644
O O8 0.685746 0.632679 0.177574
O O9 0.750000 0.750000 0.172802
O O10 0.699486 0.702588 0.922801
O O11 0.185746 0.867321 0.168027
O O12 0.204637 1.000000 0.172801
O O13 0.227729 0.930848 0.922801
O O14 0.920007 0.631072 0.139788
O O15 0.803233 0.586682 0.185856
O O16 0.876818 0.244141 0.692998
O O17 0.000000 0.272967 0.719958
#
# Coordination Sequence:
#
# PCOD8175960 Si02
#       8
#     8   8   8   8   8   8   8   8
#     4  11  21  34  54  79 111 148 188 229 274 329
#     4  10  22  39  57  79 111 150 189 228 274 329
#     4  11  21  35  58  85 113 146 185 230 279 328
#     4  11  21  35  56  83 114 145 183 231 280 332
#     4  11  21  34  54  79 111 148 188 229 274 329
#     4  10  22  39  57  79 111 150 189 228 274 329
#     4  11  21  35  56  83 114 145 183 231 280 332
#     4  11  21  35  58  85 113 146 185 230 279 328
#
# _framework density 18.317875000000001
#
# number of rings (size 3 to 8) (size 9 to 14) (size 15 to 20)
#    0.000    1.250    2.500    6.750    0.000    2.000 
#    0.000    0.000    0.000    0.750    0.000    0.000 
#    0.000    0.000    0.000    0.000    0.000    0.000 
#
# Total GULP energy -396929.847429 kJ/mol
# GULP energy per Si atom -12404.057732 kJ/mol
# Density = 1.827618 g / cm^3
# Si number density = 18.317875 Si / 1000 Ang^3
#
#
#
# Elastic Constant Matrix: (Units=GPa)
#
#
# Indices 1 2 3 4 5 6 
#
# 1 106.1833 70.4218 45.2095 0.0000 0.0000 0.0000
# 2 70.4218 149.8296 58.2830 0.0000 0.0000 0.0000
# 3 45.2095 58.2830 131.2012 0.0000 0.0000 0.0000
# 4 0.0000 0.0000 0.0000 35.2553 0.0000 0.0000
# 5 0.0000 0.0000 0.0000 0.0000 19.0441 0.0000
# 6 0.0000 0.0000 0.0000 0.0000 0.0000 25.6647
#
#
#
# Elastic Compliance Matrix: (Units=1/GPa)
#
#
# Indices 1 2 3 4 5 6 
#
# 1 0.014253 -0.005789 -0.002340 0.000000 0.000000 0.000000
# 2 -0.005789 0.010420 -0.002634 0.000000 0.000000 0.000000
# 3 -0.002340 -0.002634 0.009598 0.000000 0.000000 0.000000
# 4 0.000000 0.000000 0.000000 0.028365 0.000000 0.000000
# 5 0.000000 0.000000 0.000000 0.000000 0.052510 0.000000
# 6 0.000000 0.000000 0.000000 0.000000 0.000000 0.038964
#
#
# Mechanical properties :
#
#
# Convention : Reuss Voigt Hill
#
# Bulk Modulus (GPa) = 78.45780 81.67141 80.06460
# Shear Modulus (GPa) = 27.79577 30.21280 29.00429
#
# Velocity S-wave (km/s) = 3.89962 4.06564 3.98350
# Velocity P-wave (km/s) = 7.94986 8.16833 8.05984
#
# Compressibility (1/GPa) = 0.01274571
#
# Stress axis : x y z
#
# Youngs Moduli (GPa) = 70.15962 95.97148 104.18637
#
# Poissons Ratio (x) = 0.55558 0.24377
# Poissons Ratio (y) = 0.40616 0.27442
# Poissons Ratio (z) = 0.16416 0.25278
#
# Static dielectric constant tensor:
#      x y z
#    x 3.489480 0.000000 0.000000 
#    y 0.000000 3.489210 0.000000 
#    z 0.000000 0.000000 3.475860 
# 
# 
# High freq. dielectric constant tensor:
#      x y z
#    x 1.678560 0.000000 0.000000 
#    y 0.000000 1.717160 0.000000 
#    z 0.000000 0.000000 1.725810 
# 
# From -- ./inp_files/5394.got.cif
#   From: 2010.03.12/outbox.cif.g09.slc.cpg/sg36_3_cif.got.tgz:5394.got - 2010.04.14 02:13:53.
