data_PCOD8175320
_publ_section_title
;
Structure prediction by ZEFSAII (Michael W. Deem and Ramdas Pophale) SiO2 
 PCOD8175320
Probable space group: C M C 21
;
_chemical_formula_sum "Si O2"
_cell_formula_units_Z 64
_cell_length_a 14.621762
_cell_length_b 11.652099
_cell_length_c 17.384951
_cell_angle_alpha 90.000000
_cell_angle_beta 90.000000
_cell_angle_gamma 90.000000
_cell_volume 2961.947438
_symmetry_space_group_name_H-M "C M C 21"
_symmetry_group_IT_number 36
_symmetry_cell_setting 'orthorhombic'
loop_
_space_group_symop_operation_xyz
x,y,z
-x,-y,1/2+z
x,-y,1/2+z
-x,y,z
1/2+x,1/2+y,z
1/2-x,1/2-y,1/2+z
1/2+x,1/2-y,1/2+z
1/2-x,1/2+y,z
loop_
_atom_site_type_symbol
_atom_site_label
_atom_site_fract_x
_atom_site_fract_y
_atom_site_fract_z
Si Si1 0.738858 0.382722 0.304350
Si Si2 0.302914 0.880283 0.577074
Si Si3 0.315905 0.275429 0.932916
Si Si4 0.398860 0.659651 0.049464
Si Si5 0.104196 0.258615 0.716877
Si Si6 0.348979 0.095794 0.490920
Si Si7 0.598494 0.506049 0.406648
Si Si8 0.400716 0.035495 0.324470
O O1 0.772401 0.276902 0.356085
O O2 0.679271 0.341616 0.230798
O O3 0.677151 0.473414 0.348445
O O4 0.828629 0.453932 0.280238
O O5 0.329676 0.820727 0.496688
O O6 0.194388 0.861145 0.599668
O O7 0.366568 0.830164 0.642941
O O8 0.335978 0.011036 0.563987
O O9 0.251923 0.375442 0.964666
O O10 0.404653 0.354499 0.917229
O O11 0.500000 0.641268 0.090101
O O12 0.401635 0.788966 0.016271
O O13 0.386712 0.565305 0.984055
O O14 0.108657 0.335327 0.793588
O O15 0.000000 0.212155 0.704863
O O16 0.396406 0.035561 0.417403
O O17 0.500000 0.471492 0.371831
O O18 0.500000 0.985549 0.301938
#
# Coordination Sequence:
#
# PCOD8175320 Si02
#       8
#     8   8   8   8   8   8   8   8
#     4  12  20  42  63  92 127 169 213 265 322 380
#     4  11  23  40  64  93 134 167 212 269 331 382
#     4  11  19  37  63  94 128 163 211 261 325 377
#     4  10  20  35  60  92 123 165 210 256 311 377
#     4  11  26  44  64  92 128 174 218 265 331 399
#     4  11  18  38  64  95 127 165 212 270 316 372
#     4  11  20  34  61  93 124 160 208 258 309 381
#     4  11  22  38  65  95 123 165 218 268 319 384
#
# _framework density 21.607406999999998
#
# number of rings (size 3 to 8) (size 9 to 14) (size 15 to 20)
#    0.000    1.000    7.500    0.750    0.000    6.000 
#    0.000    1.875    0.000    0.750    0.000    0.000 
#    0.000    0.000    0.000    0.000    0.000    0.000 
#
# Total GULP energy -396456.520636 kJ/mol
# GULP energy per Si atom -12389.266270 kJ/mol
# Density = 2.155823 g / cm^3
# Si number density = 21.607407 Si / 1000 Ang^3
#
#
#
# Elastic Constant Matrix: (Units=GPa)
#
#
# Indices 1 2 3 4 5 6 
#
# 1 137.0936 28.7838 12.1232 0.0000 0.0000 0.0000
# 2 28.7838 74.6376 -6.0199 0.0000 0.0000 0.0000
# 3 12.1232 -6.0199 23.6466 0.0000 0.0000 0.0000
# 4 0.0000 0.0000 0.0000 15.5065 0.0000 0.0000
# 5 0.0000 0.0000 0.0000 0.0000 15.4082 0.0000
# 6 0.0000 0.0000 0.0000 0.0000 0.0000 -70.3462
#
#
#
# Elastic Compliance Matrix: (Units=1/GPa)
#
#
# Indices 1 2 3 4 5 6 
#
# 1 0.008548 -0.003727 -0.005331 0.000000 0.000000 0.000000
# 2 -0.003727 0.015304 0.005806 0.000000 0.000000 0.000000
# 3 -0.005331 0.005806 0.046501 0.000000 0.000000 0.000000
# 4 0.000000 0.000000 0.000000 0.064489 0.000000 0.000000
# 5 0.000000 0.000000 0.000000 0.000000 0.064900 0.000000
# 6 0.000000 0.000000 0.000000 0.000000 0.000000 -0.014215
#
#
# Mechanical properties :
#
#
# Convention : Reuss Voigt Hill
#
# Bulk Modulus (GPa) = 15.66170 33.90575 24.78373
# Shear Modulus (GPa) = 23.43976 5.47974 14.45975
#
# Velocity S-wave (km/s) = 3.29721 1.59422 2.58970
# Velocity P-wave (km/s) = 4.66470 4.37202 4.52073
#
# Compressibility (1/GPa) = 0.06385004
#
# Stress axis : x y z
#
# Youngs Moduli (GPa) = 116.98451 65.34437 21.50498
#
# Poissons Ratio (x) = 0.24351 0.11465
# Poissons Ratio (y) = 0.43595 -0.12487
# Poissons Ratio (z) = 0.62367 -0.37942
#
# Static dielectric constant tensor:
#      x y z
#    x 4.286920 0.000000 0.000000 
#    y 0.000000 3.934430 0.000000 
#    z 0.000000 0.000000 3.469520 
# 
# 
# High freq. dielectric constant tensor:
#      x y z
#    x 1.865730 0.000000 0.000000 
#    y 0.000000 1.853450 0.000000 
#    z 0.000000 0.000000 1.800100 
# 
# From -- ./inp_files/14704.got.cif
#   From: 2010.03.12/outbox.cif.g09.slc.cpg/sg36_8_cif.got.tgz:14704.got - 2010.04.14 02:13:53.
