data_PCOD8175945
_publ_section_title
;
Structure prediction by ZEFSAII (Michael W. Deem and Ramdas Pophale) SiO2 
 PCOD8175945
Probable space group: C M C 21
;
_chemical_formula_sum "Si O2"
_cell_formula_units_Z 64
_cell_length_a 17.297295
_cell_length_b 16.720455
_cell_length_c 10.847206
_cell_angle_alpha 90.000000
_cell_angle_beta 90.000000
_cell_angle_gamma 90.000000
_cell_volume 3137.214196
_symmetry_space_group_name_H-M "C M C 21"
_symmetry_group_IT_number 36
_symmetry_cell_setting 'orthorhombic'
loop_
_space_group_symop_operation_xyz
x,y,z
-x,-y,1/2+z
x,-y,1/2+z
-x,y,z
1/2+x,1/2+y,z
1/2-x,1/2-y,1/2+z
1/2+x,1/2-y,1/2+z
1/2-x,1/2+y,z
loop_
_atom_site_type_symbol
_atom_site_label
_atom_site_fract_x
_atom_site_fract_y
_atom_site_fract_z
Si Si1 0.705470 0.203583 0.986990
Si Si2 0.802664 0.045662 0.374821
Si Si3 0.689358 0.375556 0.291929
Si Si4 0.912532 0.265449 0.829640
Si Si5 0.304361 0.067238 0.603196
Si Si6 0.091416 0.188385 0.350781
Si Si7 0.642418 0.234172 0.595939
Si Si8 0.677841 0.094689 0.202224
O O1 0.745323 0.175058 0.861955
O O2 0.630427 0.253090 0.949232
O O3 0.766017 0.252417 0.071721
O O4 0.675517 0.130506 0.066256
O O5 0.728742 0.047439 0.467523
O O6 0.877513 0.101146 0.391966
O O7 0.765333 0.083029 0.250300
O O8 0.835242 0.954657 0.369667
O O9 0.620933 0.313068 0.259849
O O10 0.723999 0.409377 0.167480
O O11 0.870620 0.349344 0.795869
O O12 0.000000 0.275827 0.788282
O O13 0.906003 0.243426 0.974207
O O14 0.366509 0.138779 0.612168
O O15 0.350880 0.996055 0.674181
O O16 0.111503 0.214552 0.210526
O O17 0.000000 0.189749 0.368673
#
# Coordination Sequence:
#
# PCOD8175945 Si02
#       8
#     8   8   8   8   8   8   8   8
#     4  11  20  37  63  91 123 168 217 261 308 391
#     4  11  21  40  64  97 123 162 213 273 316 380
#     4  10  22  37  65  92 119 163 218 261 310 382
#     4  11  24  41  60  88 130 171 208 257 328 394
#     4  11  20  37  68  91 117 155 224 274 309 362
#     4  12  25  39  63 101 137 167 208 271 336 386
#     4  11  21  41  66  90 122 175 221 259 314 392
#     4  11  22  38  66  92 117 165 221 266 308 377
#
# _framework density 20.400262999999999
#
# number of rings (size 3 to 8) (size 9 to 14) (size 15 to 20)
#    0.000    1.000    6.250    1.875    0.000    1.000 
#    0.000    1.250    0.000    0.750    0.000    0.000 
#    0.000    0.000    0.000    0.000    0.000    0.000 
#
# Total GULP energy -396491.072494 kJ/mol
# GULP energy per Si atom -12390.346015 kJ/mol
# Density = 2.035383 g / cm^3
# Si number density = 20.400263 Si / 1000 Ang^3
#
#
#
# Elastic Constant Matrix: (Units=GPa)
#
#
# Indices 1 2 3 4 5 6 
#
# 1 106.9586 45.7648 7.2549 0.0000 0.0000 0.0000
# 2 45.7648 145.1606 9.9570 0.0000 0.0000 0.0000
# 3 7.2549 9.9570 42.0584 0.0000 0.0000 0.0000
# 4 0.0000 0.0000 0.0000 36.5549 0.0000 0.0000
# 5 0.0000 0.0000 0.0000 0.0000 18.0218 0.0000
# 6 0.0000 0.0000 0.0000 0.0000 0.0000 18.6174
#
#
#
# Elastic Compliance Matrix: (Units=1/GPa)
#
#
# Indices 1 2 3 4 5 6 
#
# 1 0.010855 -0.003348 -0.001080 0.000000 0.000000 0.000000
# 2 -0.003348 0.008035 -0.001325 0.000000 0.000000 0.000000
# 3 -0.001080 -0.001325 0.024276 0.000000 0.000000 0.000000
# 4 0.000000 0.000000 0.000000 0.027356 0.000000 0.000000
# 5 0.000000 0.000000 0.000000 0.000000 0.055488 0.000000
# 6 0.000000 0.000000 0.000000 0.000000 0.000000 0.053713
#
#
# Mechanical properties :
#
#
# Convention : Reuss Voigt Hill
#
# Bulk Modulus (GPa) = 31.58422 46.68122 39.13272
# Shear Modulus (GPa) = 24.77895 30.05221 27.41558
#
# Velocity S-wave (km/s) = 3.48895 3.84230 3.66988
# Velocity P-wave (km/s) = 5.63438 6.52815 6.09766
#
# Compressibility (1/GPa) = 0.03166138
#
# Stress axis : x y z
#
# Youngs Moduli (GPa) = 92.12091 124.44925 41.19232
#
# Poissons Ratio (x) = 0.41669 0.04448
# Poissons Ratio (y) = 0.30845 0.05457
# Poissons Ratio (z) = 0.09947 0.16486
#
# Static dielectric constant tensor:
#      x y z
#    x 3.266950 0.000000 0.000000 
#    y 0.000000 4.064510 0.000000 
#    z 0.000000 0.000000 3.794980 
# 
# 
# High freq. dielectric constant tensor:
#      x y z
#    x 1.745970 0.000000 0.000000 
#    y 0.000000 1.817110 0.000000 
#    z 0.000000 0.000000 1.807700 
# 
# From -- ./inp_files/9001.got.cif
#   From: 2010.03.12/outbox.cif.g09.slc.cpg/sg36_5_cif.got.tgz:9001.got - 2010.04.14 02:13:53.
