data_PCOD8175334
_publ_section_title
;
Structure prediction by ZEFSAII (Michael W. Deem and Ramdas Pophale) SiO2 
 PCOD8175334
Probable space group: C M C 21
;
_chemical_formula_sum "Si O2"
_cell_formula_units_Z 56
_cell_length_a 14.442513
_cell_length_b 19.784517
_cell_length_c 9.374679
_cell_angle_alpha 90.000000
_cell_angle_beta 90.000000
_cell_angle_gamma 90.000000
_cell_volume 2678.703378
_symmetry_space_group_name_H-M "C M C 21"
_symmetry_group_IT_number 36
_symmetry_cell_setting 'orthorhombic'
loop_
_space_group_symop_operation_xyz
x,y,z
-x,-y,1/2+z
x,-y,1/2+z
-x,y,z
1/2+x,1/2+y,z
1/2-x,1/2-y,1/2+z
1/2+x,1/2-y,1/2+z
1/2-x,1/2+y,z
loop_
_atom_site_type_symbol
_atom_site_label
_atom_site_fract_x
_atom_site_fract_y
_atom_site_fract_z
Si Si1 0.605677 0.629361 0.700230
Si Si2 0.611767 0.023474 0.003830
Si Si3 0.358946 0.267069 0.967890
Si Si4 0.296724 0.071768 0.717622
Si Si5 0.098264 0.295162 0.193209
Si Si6 0.601049 0.846398 0.670471
Si Si7 0.344431 0.248463 0.404052
O O1 0.500000 0.600665 0.712382
O O2 0.619667 0.661447 0.542642
O O3 0.683421 0.570037 0.719601
O O4 0.619869 0.685881 0.821586
O O5 0.500000 0.017089 0.990324
O O6 0.643534 0.085508 0.104502
O O7 0.658440 0.957357 0.072666
O O8 0.657920 0.032088 0.849285
O O9 0.387301 0.268094 0.801405
O O10 0.253014 0.243965 0.982364
O O11 0.415206 0.208077 0.046126
O O12 0.319886 0.151510 0.719827
O O13 0.000000 0.331110 0.227940
O O14 0.087460 0.266416 0.034352
O O15 0.500000 0.862867 0.735819
O O16 0.663497 0.815761 0.796835
#
# Coordination Sequence:
#
# PCOD8175334 Si02
#       7
#     8   8   8   8   8   8   8
#     4  11  23  43  64  89 127 171 209 251 308 375
#     4  11  24  42  63  89 123 162 208 266 324 373
#     4  11  19  36  59  89 125 160 199 246 308 373
#     4  12  25  42  62  90 125 164 212 257 313 378
#     4  12  21  34  58  91 126 157 197 250 307 372
#     4  10  20  36  56  81 117 161 198 241 306 371
#     4  11  20  35  57  93 127 159 200 249 307 374
#
# _framework density 20.905638
#
# number of rings (size 3 to 8) (size 9 to 14) (size 15 to 20)
#    0.000    0.857    4.286    5.571    2.000    0.000 
#    0.000    0.714    0.000    0.000    0.000    0.000 
#    0.000    0.000    0.000    0.000    0.000    0.000 
#
# Total GULP energy -347057.679347 kJ/mol
# GULP energy per Si atom -12394.917120 kJ/mol
# Density = 2.085806 g / cm^3
# Si number density = 20.905638 Si / 1000 Ang^3
#
#
#
# Elastic Constant Matrix: (Units=GPa)
#
#
# Indices 1 2 3 4 5 6 
#
# 1 155.9599 26.5432 32.9114 0.0000 0.0000 0.0000
# 2 26.5432 43.4920 31.6506 0.0000 0.0000 0.0000
# 3 32.9114 31.6506 131.5853 0.0000 0.0000 0.0000
# 4 0.0000 0.0000 0.0000 25.6049 0.0000 0.0000
# 5 0.0000 0.0000 0.0000 0.0000 22.6730 0.0000
# 6 0.0000 0.0000 0.0000 0.0000 0.0000 28.0896
#
#
#
# Elastic Compliance Matrix: (Units=1/GPa)
#
#
# Indices 1 2 3 4 5 6 
#
# 1 0.007243 -0.003760 -0.000907 0.000000 0.000000 0.000000
# 2 -0.003760 0.029824 -0.006233 0.000000 0.000000 0.000000
# 3 -0.000907 -0.006233 0.009326 0.000000 0.000000 0.000000
# 4 0.000000 0.000000 0.000000 0.039055 0.000000 0.000000
# 5 0.000000 0.000000 0.000000 0.000000 0.044105 0.000000
# 6 0.000000 0.000000 0.000000 0.000000 0.000000 0.035600
#
#
# Mechanical properties :
#
#
# Convention : Reuss Voigt Hill
#
# Bulk Modulus (GPa) = 40.66435 57.02752 48.84593
# Shear Modulus (GPa) = 25.62105 31.26899 28.44502
#
# Velocity S-wave (km/s) = 3.50459 3.87165 3.69269
# Velocity P-wave (km/s) = 5.98914 6.87924 6.44957
#
# Compressibility (1/GPa) = 0.02459156
#
# Stress axis : x y z
#
# Youngs Moduli (GPa) = 138.05793 33.53028 107.22961
#
# Poissons Ratio (x) = 0.12609 0.09727
# Poissons Ratio (y) = 0.51916 0.66837
# Poissons Ratio (z) = 0.12524 0.20900
#
# Static dielectric constant tensor:
#      x y z
#    x 3.934560 0.000000 0.000000 
#    y 0.000000 3.401880 0.000000 
#    z 0.000000 0.000000 3.900160 
# 
# 
# High freq. dielectric constant tensor:
#      x y z
#    x 1.828440 0.000000 0.000000 
#    y 0.000000 1.767190 0.000000 
#    z 0.000000 0.000000 1.832490 
# 
# From -- ./inp_files/4184.got.cif
#   From: 2010.03.12/outbox.cif.g09.slc.cpg/sg36_3_cif.got.tgz:4184.got - 2010.04.14 02:13:53.
