data_PCOD8175941
_publ_section_title
;
Structure prediction by ZEFSAII (Michael W. Deem and Ramdas Pophale) SiO2 
 PCOD8175941
Probable space group: C M C 21
;
_chemical_formula_sum "Si O2"
_cell_formula_units_Z 48
_cell_length_a 30.678677
_cell_length_b 8.846363
_cell_length_c 8.728647
_cell_angle_alpha 90.000000
_cell_angle_beta 90.000000
_cell_angle_gamma 90.000000
_cell_volume 2368.908648
_symmetry_space_group_name_H-M "C M C 21"
_symmetry_group_IT_number 36
_symmetry_cell_setting 'orthorhombic'
loop_
_space_group_symop_operation_xyz
x,y,z
-x,-y,1/2+z
x,-y,1/2+z
-x,y,z
1/2+x,1/2+y,z
1/2-x,1/2-y,1/2+z
1/2+x,1/2-y,1/2+z
1/2-x,1/2+y,z
loop_
_atom_site_type_symbol
_atom_site_label
_atom_site_fract_x
_atom_site_fract_y
_atom_site_fract_z
Si Si1 0.787899 0.799465 0.080880
Si Si2 0.950988 0.105699 0.241991
Si Si3 0.372773 0.801350 0.186334
Si Si4 0.048980 0.200004 0.586517
Si Si5 0.371900 0.891490 0.531452
Si Si6 0.288148 0.384387 0.729558
O O1 0.832748 0.708470 0.097546
O O2 0.749356 0.688192 0.127071
O O3 0.788949 0.937152 0.199902
O O4 0.779862 0.857988 0.908943
O O5 0.917752 0.213698 0.150693
O O6 0.944030 0.123511 0.422061
O O7 0.000000 0.149270 0.189773
O O8 0.941578 0.929986 0.210011
O O9 0.374341 0.880559 0.350106
O O10 0.333953 0.682136 0.174489
O O11 0.365062 0.932014 0.063011
O O12 0.083109 0.335550 0.610100
O O13 0.000000 0.265578 0.604246
#
# Coordination Sequence:
#
# PCOD8175941 Si02
#       6
#     8   8   8   8   8   8
#     4  11  23  39  59  83 111 143 181 224 271 322
#     4   9  18  34  55  79 107 139 177 220 266 317
#     4  10  22  37  54  79 110 143 179 221 267 317
#     4   9  18  34  55  79 107 139 177 220 266 317
#     4  10  22  37  54  79 110 143 179 221 267 317
#     4  11  23  39  59  83 111 143 181 224 271 322
#
# _framework density 20.262497
#
# number of rings (size 3 to 8) (size 9 to 14) (size 15 to 20)
#    0.000    2.000    0.000    3.000    0.000    7.333 
#    0.000    0.000    0.000    0.000    0.000    0.000 
#    0.000    0.000    0.000    0.000    0.000    0.000 
#
# Total GULP energy -297699.548958 kJ/mol
# GULP energy per Si atom -12404.147873 kJ/mol
# Density = 2.021638 g / cm^3
# Si number density = 20.262497 Si / 1000 Ang^3
#
#
#
# Elastic Constant Matrix: (Units=GPa)
#
#
# Indices 1 2 3 4 5 6 
#
# 1 112.8784 21.7430 22.1781 0.0000 0.0000 0.0000
# 2 21.7430 55.5301 0.5247 0.0000 0.0000 0.0000
# 3 22.1781 0.5247 25.0015 0.0000 0.0000 0.0000
# 4 0.0000 0.0000 0.0000 36.6091 0.0000 0.0000
# 5 0.0000 0.0000 0.0000 0.0000 27.1599 0.0000
# 6 0.0000 0.0000 0.0000 0.0000 0.0000 37.5527
#
#
#
# Elastic Compliance Matrix: (Units=1/GPa)
#
#
# Indices 1 2 3 4 5 6 
#
# 1 0.011758 -0.004506 -0.010335 0.000000 0.000000 0.000000
# 2 -0.004506 0.019739 0.003583 0.000000 0.000000 0.000000
# 3 -0.010335 0.003583 0.049090 0.000000 0.000000 0.000000
# 4 0.000000 0.000000 0.000000 0.027316 0.000000 0.000000
# 5 0.000000 0.000000 0.000000 0.000000 0.036819 0.000000
# 6 0.000000 0.000000 0.000000 0.000000 0.000000 0.026629
#
#
# Mechanical properties :
#
#
# Convention : Reuss Voigt Hill
#
# Bulk Modulus (GPa) = 17.22058 31.36684 24.29371
# Shear Modulus (GPa) = 23.44946 30.19528 26.82237
#
# Velocity S-wave (km/s) = 3.40558 3.86451 3.64228
# Velocity P-wave (km/s) = 4.89705 5.95201 5.45012
#
# Compressibility (1/GPa) = 0.05807006
#
# Stress axis : x y z
#
# Youngs Moduli (GPa) = 85.05038 50.66168 20.37054
#
# Poissons Ratio (x) = 0.22829 0.21054
# Poissons Ratio (y) = 0.38325 -0.07299
# Poissons Ratio (z) = 0.87902 -0.18152
#
# Static dielectric constant tensor:
#      x y z
#    x 3.990230 0.000000 0.000000 
#    y 0.000000 3.576450 0.000000 
#    z 0.000000 0.000000 3.536890 
# 
# 
# High freq. dielectric constant tensor:
#      x y z
#    x 1.808940 0.000000 0.000000 
#    y 0.000000 1.788450 0.000000 
#    z 0.000000 0.000000 1.783540 
# 
# From -- ./inp_files/5961.got.cif
#   From: 2010.03.12/outbox.cif.g09.slc.cpg/sg36_3_cif.got.tgz:5961.got - 2010.04.14 02:13:53.
