data_PCOD8175809
_publ_section_title
;
Structure prediction by ZEFSAII (Michael W. Deem and Ramdas Pophale) SiO2 
 PCOD8175809
Probable space group: C M C 21
;
_chemical_formula_sum "Si O2"
_cell_formula_units_Z 48
_cell_length_a 22.942824
_cell_length_b 9.945514
_cell_length_c 9.391850
_cell_angle_alpha 90.000000
_cell_angle_beta 90.000000
_cell_angle_gamma 90.000000
_cell_volume 2143.015214
_symmetry_space_group_name_H-M "C M C 21"
_symmetry_group_IT_number 36
_symmetry_cell_setting 'orthorhombic'
loop_
_space_group_symop_operation_xyz
x,y,z
-x,-y,1/2+z
x,-y,1/2+z
-x,y,z
1/2+x,1/2+y,z
1/2-x,1/2-y,1/2+z
1/2+x,1/2-y,1/2+z
1/2-x,1/2+y,z
loop_
_atom_site_type_symbol
_atom_site_label
_atom_site_fract_x
_atom_site_fract_y
_atom_site_fract_z
Si Si1 0.159430 0.836891 0.989560
Si Si2 0.935297 0.303715 0.355625
Si Si3 0.673482 0.932140 0.610466
Si Si4 0.300210 0.556554 0.192429
Si Si5 0.067121 0.604797 0.321081
Si Si6 0.632376 0.212359 0.562899
O O1 0.090723 0.800910 0.971405
O O2 0.179682 0.919718 0.852836
O O3 0.187390 0.686349 0.996458
O O4 0.173828 0.914829 0.135520
O O5 0.931354 0.460321 0.404192
O O6 0.901116 0.292637 0.209687
O O7 0.000000 0.255437 0.327784
O O8 0.730601 0.943856 0.708501
O O9 0.613813 0.894149 0.693517
O O10 0.668260 0.075431 0.532524
O O11 0.322661 0.664525 0.074858
O O12 0.086050 0.722060 0.432739
O O13 0.000000 0.630676 0.267183
#
# Coordination Sequence:
#
# PCOD8175809 Si02
#       6
#     8   8   8   8   8   8
#     4  11  25  45  63  98 134 183 225 278 335 409
#     4   9  19  39  66  94 129 170 221 280 335 392
#     4  11  24  40  67  96 132 176 229 276 345 394
#     4  11  27  41  67  95 141 180 225 279 336 412
#     4  10  21  38  68 102 130 167 227 283 336 402
#     4  10  21  41  65  99 129 172 225 282 341 399
#
# _framework density 22.398347000000001
#
# number of rings (size 3 to 8) (size 9 to 14) (size 15 to 20)
#    0.000    1.667    1.667    1.500    7.000    1.333 
#    0.000    4.167    0.000    0.000    0.000    0.000 
#    0.000    0.000    0.000    0.000    0.000    0.000 
#
# Total GULP energy -297352.576723 kJ/mol
# GULP energy per Si atom -12389.690697 kJ/mol
# Density = 2.234737 g / cm^3
# Si number density = 22.398347 Si / 1000 Ang^3
#
#
#
# Elastic Constant Matrix: (Units=GPa)
#
#
# Indices 1 2 3 4 5 6 
#
# 1 134.2113 31.2558 17.1844 0.0000 0.0000 0.0000
# 2 31.2558 92.8002 17.6021 0.0000 0.0000 0.0000
# 3 17.1844 17.6021 52.9423 0.0000 0.0000 0.0000
# 4 0.0000 0.0000 0.0000 34.4434 0.0000 0.0000
# 5 0.0000 0.0000 0.0000 0.0000 25.3556 0.0000
# 6 0.0000 0.0000 0.0000 0.0000 0.0000 25.1117
#
#
#
# Elastic Compliance Matrix: (Units=1/GPa)
#
#
# Indices 1 2 3 4 5 6 
#
# 1 0.008256 -0.002425 -0.001873 0.000000 0.000000 0.000000
# 2 -0.002425 0.012214 -0.003274 0.000000 0.000000 0.000000
# 3 -0.001873 -0.003274 0.020585 0.000000 0.000000 0.000000
# 4 0.000000 0.000000 0.000000 0.029033 0.000000 0.000000
# 5 0.000000 0.000000 0.000000 0.000000 0.039439 0.000000
# 6 0.000000 0.000000 0.000000 0.000000 0.000000 0.039822
#
#
# Mechanical properties :
#
#
# Convention : Reuss Voigt Hill
#
# Bulk Modulus (GPa) = 38.59522 45.78203 42.18862
# Shear Modulus (GPa) = 28.88018 31.24291 30.06154
#
# Velocity S-wave (km/s) = 3.59470 3.73886 3.66749
# Velocity P-wave (km/s) = 5.87349 6.25484 6.06716
#
# Compressibility (1/GPa) = 0.02590994
#
# Stress axis : x y z
#
# Youngs Moduli (GPa) = 121.12998 81.87601 48.57921
#
# Poissons Ratio (x) = 0.19857 0.09101
# Poissons Ratio (y) = 0.29377 0.15903
# Poissons Ratio (z) = 0.22692 0.26802
#
# Static dielectric constant tensor:
#      x y z
#    x 4.276970 0.000000 0.000000 
#    y 0.000000 4.196390 0.000000 
#    z 0.000000 0.000000 3.742350 
# 
# 
# High freq. dielectric constant tensor:
#      x y z
#    x 1.889140 0.000000 0.000000 
#    y 0.000000 1.866640 0.000000 
#    z 0.000000 0.000000 1.871880 
# 
# From -- ./inp_files/9429.got.cif
#   From: 2010.03.12/outbox.cif.g09.slc.cpg/sg36_5_cif.got.tgz:9429.got - 2010.04.14 02:13:53.
