data_PCOD8175398
_publ_section_title
;
Structure prediction by ZEFSAII (Michael W. Deem and Ramdas Pophale) SiO2 
 PCOD8175398
Probable space group: C M C 21
;
_chemical_formula_sum "Si O2"
_cell_formula_units_Z 48
_cell_length_a 15.080880
_cell_length_b 15.226620
_cell_length_c 10.672327
_cell_angle_alpha 90.000000
_cell_angle_beta 90.000000
_cell_angle_gamma 90.000000
_cell_volume 2450.695297
_symmetry_space_group_name_H-M "C M C 21"
_symmetry_group_IT_number 36
_symmetry_cell_setting 'orthorhombic'
loop_
_space_group_symop_operation_xyz
x,y,z
-x,-y,1/2+z
x,-y,1/2+z
-x,y,z
1/2+x,1/2+y,z
1/2-x,1/2-y,1/2+z
1/2+x,1/2-y,1/2+z
1/2-x,1/2+y,z
loop_
_atom_site_type_symbol
_atom_site_label
_atom_site_fract_x
_atom_site_fract_y
_atom_site_fract_z
Si Si1 0.664674 0.688818 0.752600
Si Si2 0.216259 0.560732 0.497339
Si Si3 0.252801 0.500000 0.747339
Si Si4 0.164674 0.811182 0.742078
Si Si5 0.597864 0.770581 0.997339
Si Si6 0.099263 0.854918 0.997339
O O1 0.688111 0.586313 0.763183
O O2 0.750000 0.750000 0.747339
O O3 0.610498 0.704203 0.623172
O O4 0.606403 0.711503 0.873463
O O5 0.189858 0.508771 0.623855
O O6 0.189858 0.508771 0.370822
O O7 0.172706 0.655723 0.497339
O O8 0.324015 0.570468 0.497339
O O9 0.311889 0.413687 0.731494
O O10 0.106403 0.788497 0.621214
O O11 0.110498 0.795797 0.871506
O O12 0.500000 0.813340 0.997339
O O13 0.000000 0.896352 0.997339
#
# Coordination Sequence:
#
# PCOD8175398 Si02
#       6
#     8   8   8   8   8   8
#     4  11  20  40  63  90 122 163 201 250 308 362
#     4  10  21  40  59  90 122 161 206 253 302 368
#     4  10  20  38  68  86 120 162 204 248 312 360
#     4  11  20  40  63  90 122 163 201 250 308 362
#     4  12  23  40  63  91 128 167 204 252 307 364
#     4  10  20  36  60  91 122 156 200 247 303 368
#
# _framework density 19.586276999999999
#
# number of rings (size 3 to 8) (size 9 to 14) (size 15 to 20)
#    0.000    1.333    6.667    2.000    0.000    0.000 
#    0.000   28.333    0.000    0.000    0.000    0.000 
#    0.000    0.000    0.000    0.000    0.000    0.000 
#
# Total GULP energy -297402.292911 kJ/mol
# GULP energy per Si atom -12391.762205 kJ/mol
# Density = 1.954170 g / cm^3
# Si number density = 19.586277 Si / 1000 Ang^3
#
#
#
# Elastic Constant Matrix: (Units=GPa)
#
#
# Indices 1 2 3 4 5 6 
#
# 1 66.9030 43.2374 17.4855 0.0000 0.0000 0.0000
# 2 43.2374 105.0757 51.7634 0.0000 0.0000 0.0000
# 3 17.4855 51.7634 229.7871 0.0000 0.0000 0.0000
# 4 0.0000 0.0000 0.0000 35.4628 0.0000 0.0000
# 5 0.0000 0.0000 0.0000 0.0000 10.3094 0.0000
# 6 0.0000 0.0000 0.0000 0.0000 0.0000 7.2280
#
#
#
# Elastic Compliance Matrix: (Units=1/GPa)
#
#
# Indices 1 2 3 4 5 6 
#
# 1 0.020391 -0.008578 0.000381 0.000000 0.000000 0.000000
# 2 -0.008578 0.014314 -0.002572 0.000000 0.000000 0.000000
# 3 0.000381 -0.002572 0.004902 0.000000 0.000000 0.000000
# 4 0.000000 0.000000 0.000000 0.028199 0.000000 0.000000
# 5 0.000000 0.000000 0.000000 0.000000 0.096999 0.000000
# 6 0.000000 0.000000 0.000000 0.000000 0.000000 0.138351
#
#
# Mechanical properties :
#
#
# Convention : Reuss Voigt Hill
#
# Bulk Modulus (GPa) = 55.34407 69.63759 62.49083
# Shear Modulus (GPa) = 15.11866 29.88534 22.50200
#
# Velocity S-wave (km/s) = 2.78132 3.91043 3.39317
# Velocity P-wave (km/s) = 6.21548 7.48465 6.87940
#
# Compressibility (1/GPa) = 0.01806878
#
# Stress axis : x y z
#
# Youngs Moduli (GPa) = 49.04013 69.86295 203.99064
#
# Poissons Ratio (x) = 0.59931 -0.07767
# Poissons Ratio (y) = 0.42069 0.52459
# Poissons Ratio (z) = -0.01867 0.17966
#
# Static dielectric constant tensor:
#      x y z
#    x 3.240690 0.000000 0.000000 
#    y 0.000000 3.368960 0.000000 
#    z 0.000000 0.000000 5.558640 
# 
# 
# High freq. dielectric constant tensor:
#      x y z
#    x 1.727530 0.000000 0.000000 
#    y 0.000000 1.737110 0.000000 
#    z 0.000000 0.000000 1.809310 
# 
# From -- ./inp_files/8870.got.cif
#   From: 2010.03.12/outbox.cif.g09.slc.cpg/sg36_5_cif.got.tgz:8870.got - 2010.04.14 02:13:53.
