data_PCOD8175925
_publ_section_title
;
Structure prediction by ZEFSAII (Michael W. Deem and Ramdas Pophale) SiO2 
 PCOD8175925
Probable space group: C M C 21
;
_chemical_formula_sum "Si O2"
_cell_formula_units_Z 48
_cell_length_a 18.131800
_cell_length_b 9.694835
_cell_length_c 13.450209
_cell_angle_alpha 90.000000
_cell_angle_beta 90.000000
_cell_angle_gamma 90.000000
_cell_volume 2364.342423
_symmetry_space_group_name_H-M "C M C 21"
_symmetry_group_IT_number 36
_symmetry_cell_setting 'orthorhombic'
loop_
_space_group_symop_operation_xyz
x,y,z
-x,-y,1/2+z
x,-y,1/2+z
-x,y,z
1/2+x,1/2+y,z
1/2-x,1/2-y,1/2+z
1/2+x,1/2-y,1/2+z
1/2-x,1/2+y,z
loop_
_atom_site_type_symbol
_atom_site_label
_atom_site_fract_x
_atom_site_fract_y
_atom_site_fract_z
Si Si1 0.582441 0.389137 0.735150
Si Si2 0.087109 0.344031 0.382932
Si Si3 0.671023 0.201098 0.083708
Si Si4 0.815064 0.978345 0.564411
Si Si5 0.586016 0.875637 0.783288
Si Si6 0.418299 0.607534 0.894119
O O1 0.500000 0.345825 0.700748
O O2 0.615231 0.279331 0.812987
O O3 0.634291 0.395155 0.640743
O O4 0.581025 0.538064 0.785911
O O5 0.115337 0.321744 0.493709
O O6 0.115757 0.483307 0.331242
O O7 0.000000 0.343695 0.391689
O O8 0.737900 0.098621 0.062396
O O9 0.696399 0.360722 0.089872
O O10 0.632830 0.158709 0.186145
O O11 0.855428 0.963670 0.458984
O O12 0.500000 0.883368 0.753121
O O13 0.599207 0.766680 0.872090
O O14 0.500000 0.589351 0.943392
#
# Coordination Sequence:
#
# PCOD8175925 Si02
#       6
#     8   8   8   8   8   8
#     4  10  21  41  68  94 119 159 215 263 306 364
#     4  10  23  43  69  96 124 163 211 264 315 367
#     4  12  27  43  62  92 132 171 206 255 317 379
#     4  12  27  41  62  94 130 171 208 255 317 377
#     4  10  23  43  69  96 124 163 211 264 315 367
#     4  10  21  41  68  94 119 159 215 263 306 364
#
# _framework density 20.301629999999999
#
# number of rings (size 3 to 8) (size 9 to 14) (size 15 to 20)
#    0.000    1.333    3.333    1.000    4.667    4.000 
#    0.000    5.000    0.000    0.000    0.000    0.000 
#    0.000    0.000    0.000    0.000    0.000    0.000 
#
# Total GULP energy -297632.008231 kJ/mol
# GULP energy per Si atom -12401.333676 kJ/mol
# Density = 2.025542 g / cm^3
# Si number density = 20.301630 Si / 1000 Ang^3
#
#
#
# Elastic Constant Matrix: (Units=GPa)
#
#
# Indices 1 2 3 4 5 6 
#
# 1 51.0389 23.9498 15.1349 0.0000 0.0000 0.0000
# 2 23.9498 123.6043 22.5644 0.0000 0.0000 0.0000
# 3 15.1349 22.5644 68.0508 0.0000 0.0000 0.0000
# 4 0.0000 0.0000 0.0000 27.4427 0.0000 0.0000
# 5 0.0000 0.0000 0.0000 0.0000 -7.4882 0.0000
# 6 0.0000 0.0000 0.0000 0.0000 0.0000 29.4269
#
#
#
# Elastic Compliance Matrix: (Units=1/GPa)
#
#
# Indices 1 2 3 4 5 6 
#
# 1 0.022428 -0.003656 -0.003776 0.000000 0.000000 0.000000
# 2 -0.003656 0.009208 -0.002240 0.000000 0.000000 0.000000
# 3 -0.003776 -0.002240 0.016277 0.000000 0.000000 0.000000
# 4 0.000000 0.000000 0.000000 0.036440 0.000000 0.000000
# 5 0.000000 0.000000 0.000000 0.000000 -0.133544 0.000000
# 6 0.000000 0.000000 0.000000 0.000000 0.000000 0.033983
#
#
# Mechanical properties :
#
#
# Convention : Reuss Voigt Hill
#
# Bulk Modulus (GPa) = 35.00278 40.66580 37.83429
# Shear Modulus (GPa) = 366.06649 21.94593 194.00621
#
# Velocity S-wave (km/s) = 13.44267 3.29141 9.78618
# Velocity P-wave (km/s) = 16.06920 5.87527 12.09831
#
# Compressibility (1/GPa) = 0.02856916
#
# Stress axis : x y z
#
# Youngs Moduli (GPa) = 44.58640 108.60453 61.43496
#
# Poissons Ratio (x) = 0.39711 0.23196
# Poissons Ratio (y) = 0.16303 0.13761
# Poissons Ratio (z) = 0.16835 0.24326
#
# Static dielectric constant tensor:
#      x y z
#    x 3.653930 0.000000 0.000000 
#    y 0.000000 3.947030 0.000000 
#    z 0.000000 0.000000 3.545880 
# 
# 
# High freq. dielectric constant tensor:
#      x y z
#    x 1.784810 0.000000 0.000000 
#    y 0.000000 1.810600 0.000000 
#    z 0.000000 0.000000 1.794280 
# 
# From -- ./inp_files/8859.got.cif
#   From: 2010.03.12/outbox.cif.g09.slc.cpg/sg36_5_cif.got.tgz:8859.got - 2010.04.14 02:13:53.
