data_PCOD8175749
_publ_section_title
;
Structure prediction by ZEFSAII (Michael W. Deem and Ramdas Pophale) SiO2 
 PCOD8175749
Probable space group: C M C 21
;
_chemical_formula_sum "Si O2"
_cell_formula_units_Z 64
_cell_length_a 9.053154
_cell_length_b 19.737166
_cell_length_c 18.746166
_cell_angle_alpha 90.000000
_cell_angle_beta 90.000000
_cell_angle_gamma 90.000000
_cell_volume 3349.632489
_symmetry_space_group_name_H-M "C M C 21"
_symmetry_group_IT_number 36
_symmetry_cell_setting 'orthorhombic'
loop_
_space_group_symop_operation_xyz
x,y,z
-x,-y,1/2+z
x,-y,1/2+z
-x,y,z
1/2+x,1/2+y,z
1/2-x,1/2-y,1/2+z
1/2+x,1/2-y,1/2+z
1/2-x,1/2+y,z
loop_
_atom_site_type_symbol
_atom_site_label
_atom_site_fract_x
_atom_site_fract_y
_atom_site_fract_z
Si Si1 0.171812 0.199870 0.482030
Si Si2 0.173774 0.023554 0.687086
Si Si3 0.171696 0.571372 0.951474
Si Si4 0.329329 0.453344 0.024573
Si Si5 0.175578 0.127486 0.203631
Si Si6 0.675497 0.320814 0.550803
Si Si7 0.671216 0.879746 0.295152
Si Si8 0.675831 0.271159 0.823018
O O1 0.200544 0.123817 0.505685
O O2 0.263843 0.245973 0.536226
O O3 0.232408 0.210223 0.401875
O O4 0.000000 0.219990 0.486879
O O5 0.219960 0.032159 0.605093
O O6 0.246630 0.083153 0.731494
O O7 0.000000 0.030497 0.696482
O O8 0.230515 0.949876 0.713458
O O9 0.200171 0.579885 0.867783
O O10 0.000000 0.579570 0.970449
O O11 0.229192 0.497399 0.972026
O O12 0.262127 0.628457 0.992244
O O13 0.500000 0.473367 0.012955
O O14 0.232598 0.156631 0.128494
O O15 0.240208 0.173596 0.267468
O O16 0.000000 0.128987 0.204300
O O17 0.500000 0.321264 0.546410
O O18 0.500000 0.877586 0.275550
O O19 0.733724 0.803297 0.301672
O O20 0.500000 0.272601 0.822093
#
# Coordination Sequence:
#
# PCOD8175749 Si02
#       8
#     8   8   8   8   8   8   8   8
#     4  10  21  38  60  84 115 152 193 237 289 346
#     4  10  21  38  57  84 119 149 189 237 284 345
#     4  11  22  39  61  84 115 153 195 243 291 343
#     4  10  22  39  60  88 120 153 194 243 291 348
#     4   9  19  35  57  83 112 148 188 232 282 344
#     4  11  21  37  61  86 115 148 192 242 288 343
#     4  10  22  38  57  82 114 149 193 239 284 346
#     4   9  18  36  57  79 110 150 190 229 281 345
#
# _framework density 19.106573000000001
#
# number of rings (size 3 to 8) (size 9 to 14) (size 15 to 20)
#    0.000    2.000    2.500    0.750    3.500    2.000 
#    0.000    0.000    0.000    2.250    0.000    0.000 
#    0.000    0.000    0.000    0.000    0.000    0.000 
#
# Total GULP energy -396887.751249 kJ/mol
# GULP energy per Si atom -12402.742227 kJ/mol
# Density = 1.906309 g / cm^3
# Si number density = 19.106573 Si / 1000 Ang^3
#
#
#
# Elastic Constant Matrix: (Units=GPa)
#
#
# Indices 1 2 3 4 5 6 
#
# 1 39.0614 29.8149 19.5786 0.0000 0.0000 0.0000
# 2 29.8149 131.9625 53.2633 0.0000 0.0000 0.0000
# 3 19.5786 53.2633 71.2959 0.0000 0.0000 0.0000
# 4 0.0000 0.0000 0.0000 45.3555 0.0000 0.0000
# 5 0.0000 0.0000 0.0000 0.0000 23.9715 0.0000
# 6 0.0000 0.0000 0.0000 0.0000 0.0000 27.7124
#
#
#
# Elastic Compliance Matrix: (Units=1/GPa)
#
#
# Indices 1 2 3 4 5 6 
#
# 1 0.032070 -0.005285 -0.004859 0.000000 0.000000 0.000000
# 2 -0.005285 0.011720 -0.007305 0.000000 0.000000 0.000000
# 3 -0.004859 -0.007305 0.020817 0.000000 0.000000 0.000000
# 4 0.000000 0.000000 0.000000 0.022048 0.000000 0.000000
# 5 0.000000 0.000000 0.000000 0.000000 0.041716 0.000000
# 6 0.000000 0.000000 0.000000 0.000000 0.000000 0.036085
#
#
# Mechanical properties :
#
#
# Convention : Reuss Voigt Hill
#
# Bulk Modulus (GPa) = 33.65708 49.73705 41.69707
# Shear Modulus (GPa) = 23.89415 28.71872 26.30644
#
# Velocity S-wave (km/s) = 3.54018 3.88116 3.71459
# Velocity P-wave (km/s) = 5.86210 6.79503 6.34573
#
# Compressibility (1/GPa) = 0.02971143
#
# Stress axis : x y z
#
# Youngs Moduli (GPa) = 31.18218 85.32253 48.03661
#
# Poissons Ratio (x) = 0.45089 0.23339
# Poissons Ratio (y) = 0.16478 0.35089
# Poissons Ratio (z) = 0.15150 0.62326
#
# Static dielectric constant tensor:
#      x y z
#    x 3.249320 0.000000 0.000000 
#    y 0.000000 3.712140 0.000000 
#    z 0.000000 0.000000 3.633630 
# 
# 
# High freq. dielectric constant tensor:
#      x y z
#    x 1.711720 0.000000 0.000000 
#    y 0.000000 1.759760 0.000000 
#    z 0.000000 0.000000 1.751910 
# 
# From -- ./inp_files/15591.got.cif
#   From: 2010.03.12/outbox.cif.g09.slc.cpg/sg36_8_cif.got.tgz:15591.got - 2010.04.14 02:13:53.
