data_PCOD8175994
_publ_section_title
;
Structure prediction by ZEFSAII (Michael W. Deem and Ramdas Pophale) SiO2 
 PCOD8175994
Probable space group: C M C 21
;
_chemical_formula_sum "Si O2"
_cell_formula_units_Z 64
_cell_length_a 8.979679
_cell_length_b 30.284288
_cell_length_c 11.898754
_cell_angle_alpha 90.000000
_cell_angle_beta 90.000000
_cell_angle_gamma 90.000000
_cell_volume 3235.785060
_symmetry_space_group_name_H-M "C M C 21"
_symmetry_group_IT_number 36
_symmetry_cell_setting 'orthorhombic'
loop_
_space_group_symop_operation_xyz
x,y,z
-x,-y,1/2+z
x,-y,1/2+z
-x,y,z
1/2+x,1/2+y,z
1/2-x,1/2-y,1/2+z
1/2+x,1/2-y,1/2+z
1/2-x,1/2+y,z
loop_
_atom_site_type_symbol
_atom_site_label
_atom_site_fract_x
_atom_site_fract_y
_atom_site_fract_z
Si Si1 0.671960 0.952790 0.330520
Si Si2 0.172136 0.293528 0.769337
Si Si3 0.672987 0.694754 0.826308
Si Si4 0.325038 0.878631 0.913097
Si Si5 0.175338 0.374045 0.170974
Si Si6 0.823923 0.958398 0.780712
Si Si7 0.171780 0.577742 0.080049
Si Si8 0.675726 0.667352 0.071718
O O1 0.500000 0.966568 0.312707
O O2 0.726324 0.918639 0.235088
O O3 0.696331 0.929311 0.449149
O O4 0.775375 0.995464 0.334369
O O5 0.206743 0.246673 0.825389
O O6 0.216377 0.331732 0.857571
O O7 0.273581 0.294712 0.657670
O O8 0.000000 0.297712 0.734290
O O9 0.500000 0.684633 0.811860
O O10 0.755514 0.669382 0.726754
O O11 0.731028 0.678224 0.946780
O O12 0.500000 0.888631 0.904953
O O13 0.238692 0.918052 0.853140
O O14 0.271983 0.877077 0.042415
O O15 0.000000 0.368560 0.180883
O O16 0.757579 0.958579 0.654297
O O17 0.000000 0.955075 0.776945
O O18 0.240285 0.624253 0.116250
O O19 0.000000 0.576757 0.114706
O O20 0.500000 0.660413 0.076950
#
# Coordination Sequence:
#
# PCOD8175994 Si02
#       8
#     8   8   8   8   8   8   8   8
#     4  10  23  42  64  91 121 160 209 250 298 365
#     4  10  22  40  61  87 122 167 206 245 304 366
#     4  10  23  40  60  91 127 161 200 252 313 363
#     4  10  22  41  64  87 121 164 207 252 298 359
#     4  10  22  41  65  91 119 161 209 249 298 362
#     4  12  26  41  62  93 126 159 202 252 310 363
#     4  11  22  41  67  90 120 160 205 252 301 365
#     4  11  22  38  63  92 122 156 202 260 312 355
#
# _framework density 19.778815999999999
#
# number of rings (size 3 to 8) (size 9 to 14) (size 15 to 20)
#    0.000    1.500    2.500    1.875    3.500    3.000 
#    0.000    0.000    0.000    0.000    0.000    0.000 
#    0.000    0.000    0.000    0.000    0.000    0.000 
#
# Total GULP energy -396936.103284 kJ/mol
# GULP energy per Si atom -12404.253228 kJ/mol
# Density = 1.973380 g / cm^3
# Si number density = 19.778816 Si / 1000 Ang^3
#
#
#
# Elastic Constant Matrix: (Units=GPa)
#
#
# Indices 1 2 3 4 5 6 
#
# 1 82.4820 49.3338 48.1120 0.0000 0.0000 0.0000
# 2 49.3338 117.1754 42.0543 0.0000 0.0000 0.0000
# 3 48.1120 42.0543 123.5336 0.0000 0.0000 0.0000
# 4 0.0000 0.0000 0.0000 24.6141 0.0000 0.0000
# 5 0.0000 0.0000 0.0000 0.0000 30.3785 0.0000
# 6 0.0000 0.0000 0.0000 0.0000 0.0000 32.7865
#
#
#
# Elastic Compliance Matrix: (Units=1/GPa)
#
#
# Indices 1 2 3 4 5 6 
#
# 1 0.018802 -0.006024 -0.005272 0.000000 0.000000 0.000000
# 2 -0.006024 0.011652 -0.001621 0.000000 0.000000 0.000000
# 3 -0.005272 -0.001621 0.010700 0.000000 0.000000 0.000000
# 4 0.000000 0.000000 0.000000 0.040627 0.000000 0.000000
# 5 0.000000 0.000000 0.000000 0.000000 0.032918 0.000000
# 6 0.000000 0.000000 0.000000 0.000000 0.000000 0.030500
#
#
# Mechanical properties :
#
#
# Convention : Reuss Voigt Hill
#
# Bulk Modulus (GPa) = 65.27022 66.91014 66.09018
# Shear Modulus (GPa) = 28.38653 29.80187 29.09420
#
# Velocity S-wave (km/s) = 3.79251 3.88591 3.83949
# Velocity P-wave (km/s) = 7.22836 7.35094 7.28991
#
# Compressibility (1/GPa) = 0.01532092
#
# Stress axis : x y z
#
# Youngs Moduli (GPa) = 53.18544 85.82138 93.45872
#
# Poissons Ratio (x) = 0.51699 0.49272
# Poissons Ratio (y) = 0.32039 0.15145
# Poissons Ratio (z) = 0.28039 0.13908
#
# Static dielectric constant tensor:
#      x y z
#    x 3.494160 0.000000 0.000000 
#    y 0.000000 3.588960 0.000000 
#    z 0.000000 0.000000 3.757340 
# 
# 
# High freq. dielectric constant tensor:
#      x y z
#    x 1.763440 0.000000 0.000000 
#    y 0.000000 1.776110 0.000000 
#    z 0.000000 0.000000 1.784970 
# 
# From -- ./inp_files/7169.got.cif
#   From: 2010.03.12/outbox.cif.g09.slc.cpg/sg36_4_cif.got.tgz:7169.got - 2010.04.14 02:13:53.
