data_PCOD8175006
_publ_section_title
;
Structure prediction by ZEFSAII (Michael W. Deem and Ramdas Pophale) SiO2 
 PCOD8175006
Probable space group: C M C 21
;
_chemical_formula_sum "Si O2"
_cell_formula_units_Z 56
_cell_length_a 30.459377
_cell_length_b 16.893114
_cell_length_c 5.184316
_cell_angle_alpha 90.000000
_cell_angle_beta 90.000000
_cell_angle_gamma 90.000000
_cell_volume 2667.609125
_symmetry_space_group_name_H-M "C M C 21"
_symmetry_group_IT_number 36
_symmetry_cell_setting 'orthorhombic'
loop_
_space_group_symop_operation_xyz
x,y,z
-x,-y,1/2+z
x,-y,1/2+z
-x,y,z
1/2+x,1/2+y,z
1/2-x,1/2-y,1/2+z
1/2+x,1/2-y,1/2+z
1/2-x,1/2+y,z
loop_
_atom_site_type_symbol
_atom_site_label
_atom_site_fract_x
_atom_site_fract_y
_atom_site_fract_z
Si Si1 0.500000 0.744244 0.402791
Si Si2 0.094877 0.290335 0.486013
Si Si3 0.612049 0.969092 0.498670
Si Si4 0.589849 0.450059 0.413119
Si Si5 0.290484 0.038767 0.518296
Si Si6 0.631157 0.710688 0.981876
Si Si7 0.725186 0.224686 0.507752
Si Si8 0.500000 0.359781 0.403095
O O1 0.542865 0.798989 0.437292
O O2 0.500000 0.674111 0.613244
O O3 0.500000 0.709316 0.115207
O O4 0.118382 0.375377 0.478821
O O5 0.100734 0.251619 0.766208
O O6 0.117061 0.237207 0.267073
O O7 0.585633 0.994449 0.755962
O O8 0.658191 0.015890 0.525758
O O9 0.596527 0.518071 0.624668
O O10 0.626354 0.383342 0.461508
O O11 0.541815 0.414193 0.448861
O O12 0.284267 0.132009 0.522000
O O13 0.267455 0.999654 0.767967
O O14 0.681271 0.730646 0.924864
O O15 0.760602 0.243889 0.287926
#
# Coordination Sequence:
#
# PCOD8175006 Si02
#       8
#     4   8   8   8   8   8   8   4
#     4  12  22  39  64 103 136 174 218 280 322 391
#     4  12  22  41  68  98 135 174 220 264 324 398
#     4  10  20  35  60  93 122 161 210 257 307 374
#     4  12  24  41  64  96 133 178 227 277 332 395
#     4  10  19  38  64  95 123 157 212 261 315 382
#     4  12  24  44  68  91 132 177 218 277 332 404
#     4  12  26  45  69 102 131 168 224 279 336 402
#     4  12  22  43  62  97 138 170 232 278 328 379
#
# _framework density 20.992581000000001
#
# number of rings (size 3 to 8) (size 9 to 14) (size 15 to 20)
#    0.000    0.571    2.857    8.143    0.000    0.000 
#    0.000    5.000    0.000    0.000    0.000    0.000 
#    0.000    0.000    0.000    0.000    0.000    0.000 
#
# Total GULP energy -347252.776568 kJ/mol
# GULP energy per Si atom -12401.884877 kJ/mol
# Density = 2.094480 g / cm^3
# Si number density = 20.992581 Si / 1000 Ang^3
#
#
#
# Elastic Constant Matrix: (Units=GPa)
#
#
# Indices 1 2 3 4 5 6 
#
# 1 66.9377 32.0057 4.3672 0.0000 0.0000 0.0000
# 2 32.0057 135.8839 26.7066 0.0000 0.0000 0.0000
# 3 4.3672 26.7066 133.9824 0.0000 0.0000 0.0000
# 4 0.0000 0.0000 0.0000 39.4188 0.0000 0.0000
# 5 0.0000 0.0000 0.0000 0.0000 16.0955 0.0000
# 6 0.0000 0.0000 0.0000 0.0000 0.0000 24.4350
#
#
#
# Elastic Compliance Matrix: (Units=1/GPa)
#
#
# Indices 1 2 3 4 5 6 
#
# 1 0.016843 -0.004017 0.000252 0.000000 0.000000 0.000000
# 2 -0.004017 0.008617 -0.001587 0.000000 0.000000 0.000000
# 3 0.000252 -0.001587 0.007772 0.000000 0.000000 0.000000
# 4 0.000000 0.000000 0.000000 0.025369 0.000000 0.000000
# 5 0.000000 0.000000 0.000000 0.000000 0.062129 0.000000
# 6 0.000000 0.000000 0.000000 0.000000 0.000000 0.040925
#
#
# Mechanical properties :
#
#
# Convention : Reuss Voigt Hill
#
# Bulk Modulus (GPa) = 44.38779 51.44034 47.91407
# Shear Modulus (GPa) = 27.79815 34.23817 31.01816
#
# Velocity S-wave (km/s) = 3.64289 4.04290 3.84810
# Velocity P-wave (km/s) = 6.23575 6.80813 6.52822
#
# Compressibility (1/GPa) = 0.02252872
#
# Stress axis : x y z
#
# Youngs Moduli (GPa) = 59.37043 116.04756 128.67121
#
# Poissons Ratio (x) = 0.46613 -0.03238
# Poissons Ratio (y) = 0.23847 0.20417
# Poissons Ratio (z) = -0.01494 0.18414
#
# Static dielectric constant tensor:
#      x y z
#    x 3.650970 0.000000 0.000000 
#    y 0.000000 3.793040 0.000000 
#    z 0.000000 0.000000 6.193670 
# 
# 
# High freq. dielectric constant tensor:
#      x y z
#    x 1.790800 0.000000 0.000000 
#    y 0.000000 1.826830 0.000000 
#    z 0.000000 0.000000 1.858200 
# 
# From -- ./inp_files/1872.got.cif
#   From: 2010.03.12/outbox.cif.g09.slc.cpg/sg36_1_cif.got.tgz:1872.got - 2010.04.14 02:13:53.
