data_PCOD8175544
_publ_section_title
;
Structure prediction by ZEFSAII (Michael W. Deem and Ramdas Pophale) SiO2 
 PCOD8175544
Probable space group: C M C 21
;
_chemical_formula_sum "Si O2"
_cell_formula_units_Z 48
_cell_length_a 8.754296
_cell_length_b 21.861321
_cell_length_c 12.614536
_cell_angle_alpha 90.000000
_cell_angle_beta 90.000000
_cell_angle_gamma 90.000000
_cell_volume 2414.175891
_symmetry_space_group_name_H-M "C M C 21"
_symmetry_group_IT_number 36
_symmetry_cell_setting 'orthorhombic'
loop_
_space_group_symop_operation_xyz
x,y,z
-x,-y,1/2+z
x,-y,1/2+z
-x,y,z
1/2+x,1/2+y,z
1/2-x,1/2-y,1/2+z
1/2+x,1/2-y,1/2+z
1/2-x,1/2+y,z
loop_
_atom_site_type_symbol
_atom_site_label
_atom_site_fract_x
_atom_site_fract_y
_atom_site_fract_z
Si Si1 0.673293 0.752563 0.685540
Si Si2 0.323357 0.060358 0.393998
Si Si3 0.322190 0.110773 0.162064
Si Si4 0.320721 0.854881 0.279726
Si Si5 0.321528 0.565301 0.956037
Si Si6 0.172956 0.136371 0.568902
O O1 0.500000 0.758635 0.728391
O O2 0.740236 0.819469 0.662434
O O3 0.773046 0.717196 0.775407
O O4 0.677398 0.710827 0.578097
O O5 0.500000 0.044189 0.412580
O O6 0.291729 0.080855 0.275042
O O7 0.275731 0.115773 0.470785
O O8 0.221195 0.001879 0.417347
O O9 0.500000 0.109107 0.130700
O O10 0.226133 0.072041 0.078134
O O11 0.500000 0.862589 0.269288
O O12 0.266169 0.883356 0.389418
O O13 0.241314 0.890268 0.180041
O O14 0.500000 0.575525 0.942277
O O15 0.000000 0.112176 0.554926
#
# Coordination Sequence:
#
# PCOD8175544 Si02
#       6
#     8   8   8   8   8   8
#     4   8  18  38  63  93 126 158 198 253 306 363
#     4  11  24  41  64  90 123 163 206 256 307 368
#     4  10  23  43  64  92 124 158 206 258 308 365
#     4  10  20  38  64  91 121 162 206 248 301 364
#     4  12  26  42  62  88 125 166 208 258 309 366
#     4   9  19  38  63  90 123 161 200 247 303 362
#
# _framework density 19.882562
#
# number of rings (size 3 to 8) (size 9 to 14) (size 15 to 20)
#    1.000    1.000    0.000    3.500    2.333    3.333 
#    0.000    3.333    0.000    0.000    0.000    0.000 
#    0.000    0.000    0.000    0.000    0.000    0.000 
#
# Total GULP energy -297528.924259 kJ/mol
# GULP energy per Si atom -12397.038511 kJ/mol
# Density = 1.983731 g / cm^3
# Si number density = 19.882562 Si / 1000 Ang^3
#
#
#
# Elastic Constant Matrix: (Units=GPa)
#
#
# Indices 1 2 3 4 5 6 
#
# 1 95.3223 27.7634 43.2225 0.0000 0.0000 0.0000
# 2 27.7634 103.9477 37.0246 0.0000 0.0000 0.0000
# 3 43.2225 37.0246 102.2820 0.0000 0.0000 0.0000
# 4 0.0000 0.0000 0.0000 27.8861 0.0000 0.0000
# 5 0.0000 0.0000 0.0000 0.0000 29.3564 0.0000
# 6 0.0000 0.0000 0.0000 0.0000 0.0000 22.8719
#
#
#
# Elastic Compliance Matrix: (Units=1/GPa)
#
#
# Indices 1 2 3 4 5 6 
#
# 1 0.013256 -0.001774 -0.004960 0.000000 0.000000 0.000000
# 2 -0.001774 0.011282 -0.003334 0.000000 0.000000 0.000000
# 3 -0.004960 -0.003334 0.013080 0.000000 0.000000 0.000000
# 4 0.000000 0.000000 0.000000 0.035860 0.000000 0.000000
# 5 0.000000 0.000000 0.000000 0.000000 0.034064 0.000000
# 6 0.000000 0.000000 0.000000 0.000000 0.000000 0.043722
#
#
# Mechanical properties :
#
#
# Convention : Reuss Voigt Hill
#
# Bulk Modulus (GPa) = 57.20203 57.50811 57.35507
# Shear Modulus (GPa) = 28.21244 28.92564 28.56904
#
# Velocity S-wave (km/s) = 3.77099 3.81835 3.79474
# Velocity P-wave (km/s) = 6.91324 6.95891 6.93611
#
# Compressibility (1/GPa) = 0.01748190
#
# Stress axis : x y z
#
# Youngs Moduli (GPa) = 75.43559 88.63985 76.45458
#
# Poissons Ratio (x) = 0.15725 0.37919
# Poissons Ratio (y) = 0.13383 0.25491
# Poissons Ratio (z) = 0.37414 0.29553
#
# Static dielectric constant tensor:
#      x y z
#    x 3.583780 0.000000 0.000000 
#    y 0.000000 3.553980 0.000000 
#    z 0.000000 0.000000 3.471890 
# 
# 
# High freq. dielectric constant tensor:
#      x y z
#    x 1.779760 0.000000 0.000000 
#    y 0.000000 1.770430 0.000000 
#    z 0.000000 0.000000 1.766640 
# 
# From -- ./inp_files/6753.got.cif
#   From: 2010.03.12/outbox.cif.g09.slc.cpg/sg36_4_cif.got.tgz:6753.got - 2010.04.14 02:13:53.
