data_PCOD8175502
_publ_section_title
;
Structure prediction by ZEFSAII (Michael W. Deem and Ramdas Pophale) SiO2 
 PCOD8175502
Probable space group: C M C 21
;
_chemical_formula_sum "Si O2"
_cell_formula_units_Z 48
_cell_length_a 8.749482
_cell_length_b 19.913037
_cell_length_c 13.954723
_cell_angle_alpha 90.000000
_cell_angle_beta 90.000000
_cell_angle_gamma 90.000000
_cell_volume 2431.314068
_symmetry_space_group_name_H-M "C M C 21"
_symmetry_group_IT_number 36
_symmetry_cell_setting 'orthorhombic'
loop_
_space_group_symop_operation_xyz
x,y,z
-x,-y,1/2+z
x,-y,1/2+z
-x,y,z
1/2+x,1/2+y,z
1/2-x,1/2-y,1/2+z
1/2+x,1/2-y,1/2+z
1/2-x,1/2+y,z
loop_
_atom_site_type_symbol
_atom_site_label
_atom_site_fract_x
_atom_site_fract_y
_atom_site_fract_z
Si Si1 0.320201 0.574954 0.445600
Si Si2 0.680502 0.048975 0.844621
Si Si3 0.179246 0.830253 0.449339
Si Si4 0.176218 0.787382 0.845159
Si Si5 0.323147 0.258486 0.635331
Si Si6 0.681833 0.107087 0.641547
O O1 0.500000 0.564707 0.452010
O O2 0.252714 0.522197 0.370708
O O3 0.275272 0.647753 0.404856
O O4 0.249031 0.566476 0.551225
O O5 0.500000 0.042932 0.847181
O O6 0.733027 0.101890 0.924497
O O7 0.738143 0.071257 0.739154
O O8 0.213849 0.773945 0.370585
O O9 0.248178 0.802641 0.549826
O O10 0.000000 0.845977 0.453573
O O11 0.202556 0.800253 0.732498
O O12 0.000000 0.767058 0.864387
O O13 0.500000 0.248631 0.611556
O O14 0.252383 0.183380 0.640808
O O15 0.500000 0.105997 0.636280
#
# Coordination Sequence:
#
# PCOD8175502 Si02
#       6
#     8   8   8   8   8   8
#     4  11  24  39  61  92 126 159 201 255 304 359
#     4  11  24  42  63  86 122 165 205 248 300 366
#     4  11  21  35  60  91 119 151 199 252 299 353
#     4  10  20  38  60  85 118 157 197 241 298 358
#     4   9  18  35  60  88 120 157 196 241 298 356
#     4  10  20  39  64  86 117 163 204 243 303 368
#
# _framework density 19.74241
#
# number of rings (size 3 to 8) (size 9 to 14) (size 15 to 20)
#    0.000    1.667    3.333    1.500    0.000    3.333 
#    0.000    3.333    0.000    0.000    0.000    0.000 
#    0.000    0.000    0.000    0.000    0.000    0.000 
#
# Total GULP energy -297647.869723 kJ/mol
# GULP energy per Si atom -12401.994572 kJ/mol
# Density = 1.969748 g / cm^3
# Si number density = 19.742410 Si / 1000 Ang^3
#
#
#
# Elastic Constant Matrix: (Units=GPa)
#
#
# Indices 1 2 3 4 5 6 
#
# 1 35.7667 22.5148 19.5369 0.0000 0.0000 0.0000
# 2 22.5148 64.9677 17.7271 0.0000 0.0000 0.0000
# 3 19.5369 17.7271 108.1800 0.0000 0.0000 0.0000
# 4 0.0000 0.0000 0.0000 37.7481 0.0000 0.0000
# 5 0.0000 0.0000 0.0000 0.0000 27.3406 0.0000
# 6 0.0000 0.0000 0.0000 0.0000 0.0000 29.5221
#
#
#
# Elastic Compliance Matrix: (Units=1/GPa)
#
#
# Indices 1 2 3 4 5 6 
#
# 1 0.038127 -0.011865 -0.004941 0.000000 0.000000 0.000000
# 2 -0.011865 0.019805 -0.001103 0.000000 0.000000 0.000000
# 3 -0.004941 -0.001103 0.010317 0.000000 0.000000 0.000000
# 4 0.000000 0.000000 0.000000 0.026491 0.000000 0.000000
# 5 0.000000 0.000000 0.000000 0.000000 0.036576 0.000000
# 6 0.000000 0.000000 0.000000 0.000000 0.000000 0.033873
#
#
# Mechanical properties :
#
#
# Convention : Reuss Voigt Hill
#
# Bulk Modulus (GPa) = 30.83443 36.49688 33.66566
# Shear Modulus (GPa) = 23.60533 28.86453 26.23493
#
# Velocity S-wave (km/s) = 3.46159 3.82783 3.64931
# Velocity P-wave (km/s) = 5.62398 6.16953 5.90306
#
# Compressibility (1/GPa) = 0.03243127
#
# Stress axis : x y z
#
# Youngs Moduli (GPa) = 26.22822 50.49251 96.92806
#
# Poissons Ratio (x) = 0.59908 0.47895
# Poissons Ratio (y) = 0.31119 0.10688
# Poissons Ratio (z) = 0.12960 0.05567
#
# Static dielectric constant tensor:
#      x y z
#    x 3.389590 0.000000 0.000000 
#    y 0.000000 3.582020 0.000000 
#    z 0.000000 0.000000 3.814580 
# 
# 
# High freq. dielectric constant tensor:
#      x y z
#    x 1.752400 0.000000 0.000000 
#    y 0.000000 1.763830 0.000000 
#    z 0.000000 0.000000 1.784130 
# 
# From -- ./inp_files/10343.got.cif
#   From: 2010.03.12/outbox.cif.g09.slc.cpg/sg36_6_cif.got.tgz:10343.got - 2010.04.14 02:13:53.
