data_PCOD8175213
_publ_section_title
;
Structure prediction by ZEFSAII (Michael W. Deem and Ramdas Pophale) SiO2 
 PCOD8175213
Probable space group: C M C 21
;
_chemical_formula_sum "Si O2"
_cell_formula_units_Z 48
_cell_length_a 29.929584
_cell_length_b 10.030064
_cell_length_c 8.438445
_cell_angle_alpha 90.000000
_cell_angle_beta 90.000000
_cell_angle_gamma 90.000000
_cell_volume 2533.184423
_symmetry_space_group_name_H-M "C M C 21"
_symmetry_group_IT_number 36
_symmetry_cell_setting 'orthorhombic'
loop_
_space_group_symop_operation_xyz
x,y,z
-x,-y,1/2+z
x,-y,1/2+z
-x,y,z
1/2+x,1/2+y,z
1/2-x,1/2-y,1/2+z
1/2+x,1/2-y,1/2+z
1/2-x,1/2+y,z
loop_
_atom_site_type_symbol
_atom_site_label
_atom_site_fract_x
_atom_site_fract_y
_atom_site_fract_z
Si Si1 0.784072 0.620685 0.848420
Si Si2 0.119475 0.619864 0.707786
Si Si3 0.449805 0.662447 0.244226
Si Si4 0.449702 0.382742 0.373400
Si Si5 0.283938 0.833544 0.720119
Si Si6 0.619397 0.164382 0.334512
O O1 0.833240 0.653589 0.785481
O O2 0.750320 0.718040 0.760826
O O3 0.770630 0.468628 0.811439
O O4 0.782471 0.639780 0.034684
O O5 0.082906 0.716509 0.786827
O O6 0.122944 0.637424 0.520631
O O7 0.104643 0.469415 0.744442
O O8 0.500000 0.700623 0.298512
O O9 0.432662 0.530980 0.334245
O O10 0.448533 0.633547 0.059544
O O11 0.500000 0.361908 0.306392
O O12 0.417302 0.275473 0.291497
O O13 0.332980 0.784663 0.771641
#
# Coordination Sequence:
#
# PCOD8175213 Si02
#       6
#     8   8   8   8   8   8
#     4  11  22  38  58  81 109 141 179 221 268 319
#     4  10  20  35  54  78 108 140 177 219 264 314
#     4   9  19  35  54  77 106 139 176 218 262 311
#     4   9  19  35  54  77 106 139 176 218 262 311
#     4  11  22  38  58  81 109 141 179 221 268 319
#     4  10  20  35  54  78 108 140 177 219 264 314
#
# _framework density 18.948481000000001
#
# number of rings (size 3 to 8) (size 9 to 14) (size 15 to 20)
#    0.000    2.000    0.000    6.000    0.000    4.667 
#    0.000    3.333    0.000    0.000    0.000    0.000 
#    0.000    0.000    0.000    0.000    0.000    0.000 
#
# Total GULP energy -297660.543898 kJ/mol
# GULP energy per Si atom -12402.522662 kJ/mol
# Density = 1.890535 g / cm^3
# Si number density = 18.948481 Si / 1000 Ang^3
#
#
#
# Elastic Constant Matrix: (Units=GPa)
#
#
# Indices 1 2 3 4 5 6 
#
# 1 94.5524 62.6492 -0.1384 0.0000 0.0000 0.0000
# 2 62.6492 73.8734 -17.9930 0.0000 0.0000 0.0000
# 3 -0.1384 -17.9930 44.1745 0.0000 0.0000 0.0000
# 4 0.0000 0.0000 0.0000 33.1325 0.0000 0.0000
# 5 0.0000 0.0000 0.0000 0.0000 27.5981 0.0000
# 6 0.0000 0.0000 0.0000 0.0000 0.0000 43.5526
#
#
#
# Elastic Compliance Matrix: (Units=1/GPa)
#
#
# Indices 1 2 3 4 5 6 
#
# 1 0.028030 -0.026365 -0.010651 0.000000 0.000000 0.000000
# 2 -0.026365 0.039827 0.016140 0.000000 0.000000 0.000000
# 3 -0.010651 0.016140 0.029178 0.000000 0.000000 0.000000
# 4 0.000000 0.000000 0.000000 0.030182 0.000000 0.000000
# 5 0.000000 0.000000 0.000000 0.000000 0.036234 0.000000
# 6 0.000000 0.000000 0.000000 0.000000 0.000000 0.022961
#
#
# Mechanical properties :
#
#
# Convention : Reuss Voigt Hill
#
# Bulk Modulus (GPa) = 18.08928 33.51510 25.80219
# Shear Modulus (GPa) = 20.27630 32.06213 26.16922
#
# Velocity S-wave (km/s) = 3.27475 4.11794 3.72031
# Velocity P-wave (km/s) = 4.88528 6.35105 5.66576
#
# Compressibility (1/GPa) = 0.05528137
#
# Stress axis : x y z
#
# Youngs Moduli (GPa) = 35.67617 25.10844 34.27230
#
# Poissons Ratio (x) = 0.66199 0.36504
# Poissons Ratio (y) = 0.94062 -0.55315
# Poissons Ratio (z) = 0.38000 -0.40524
#
# Static dielectric constant tensor:
#      x y z
#    x 3.744080 0.000000 0.000000 
#    y 0.000000 3.706840 0.000000 
#    z 0.000000 0.000000 3.482650 
# 
# 
# High freq. dielectric constant tensor:
#      x y z
#    x 1.738930 0.000000 0.000000 
#    y 0.000000 1.740280 0.000000 
#    z 0.000000 0.000000 1.745180 
# 
# From -- ./inp_files/5963.got.cif
#   From: 2010.03.12/outbox.cif.g09.slc.cpg/sg36_3_cif.got.tgz:5963.got - 2010.04.14 02:13:53.
