data_PCOD8175221
_publ_section_title
;
Structure prediction by ZEFSAII (Michael W. Deem and Ramdas Pophale) SiO2 
 PCOD8175221
Probable space group: C M C 21
;
_chemical_formula_sum "Si O2"
_cell_formula_units_Z 64
_cell_length_a 9.016247
_cell_length_b 29.340905
_cell_length_c 12.488515
_cell_angle_alpha 90.000000
_cell_angle_beta 90.000000
_cell_angle_gamma 90.000000
_cell_volume 3303.772286
_symmetry_space_group_name_H-M "C M C 21"
_symmetry_group_IT_number 36
_symmetry_cell_setting 'orthorhombic'
loop_
_space_group_symop_operation_xyz
x,y,z
-x,-y,1/2+z
x,-y,1/2+z
-x,y,z
1/2+x,1/2+y,z
1/2-x,1/2-y,1/2+z
1/2+x,1/2-y,1/2+z
1/2-x,1/2+y,z
loop_
_atom_site_type_symbol
_atom_site_label
_atom_site_fract_x
_atom_site_fract_y
_atom_site_fract_z
Si Si1 0.668621 0.684909 0.064730
Si Si2 0.176654 0.639001 0.527903
Si Si3 0.676743 0.910662 0.607984
Si Si4 0.175677 0.428694 0.848240
Si Si5 0.327421 0.094279 0.741973
Si Si6 0.176808 0.473992 0.413470
Si Si7 0.837536 0.826361 0.326999
Si Si8 0.669328 0.274485 0.114807
O O1 0.500000 0.681637 0.107088
O O2 0.749602 0.637429 0.084021
O O3 0.753273 0.725771 0.121096
O O4 0.673976 0.698276 0.940178
O O5 0.226598 0.615568 0.416430
O O6 0.236649 0.605532 0.623624
O O7 0.250591 0.688695 0.537570
O O8 0.000000 0.645340 0.535472
O O9 0.500000 0.905078 0.603951
O O10 0.731797 0.926057 0.726012
O O11 0.733111 0.948132 0.520938
O O12 0.237131 0.474276 0.907265
O O13 0.000000 0.431320 0.848892
O O14 0.500000 0.087946 0.729413
O O15 0.263839 0.049931 0.803414
O O16 0.291429 0.136362 0.819731
O O17 0.000000 0.472569 0.415609
O O18 0.817269 0.788519 0.237551
O O19 0.000000 0.850058 0.314408
O O20 0.500000 0.269917 0.075722
#
# Coordination Sequence:
#
# PCOD8175221 Si02
#       8
#     8   8   8   8   8   8   8   8
#     4  11  22  37  57  80 109 142 179 226 278 327
#     4   9  18  33  52  77 110 144 180 223 273 321
#     4  10  20  35  55  80 112 146 184 225 270 324
#     4   9  19  32  51  81 116 151 181 221 275 325
#     4   9  16  28  51  77 101 131 175 228 264 303
#     4   9  17  29  50  81 108 137 181 227 265 309
#     4   9  19  35  53  74 102 136 173 218 271 324
#     4  10  21  37  57  80 106 141 185 226 272 329
#
# _framework density 19.371794999999999
#
# number of rings (size 3 to 8) (size 9 to 14) (size 15 to 20)
#    0.000    2.500    1.250    0.750    1.750    2.000 
#    0.000    5.625    0.000    3.000    0.000    0.000 
#    0.000    0.000    0.000    0.000    0.000    0.000 
#
# Total GULP energy -396553.910376 kJ/mol
# GULP energy per Si atom -12392.309699 kJ/mol
# Density = 1.932770 g / cm^3
# Si number density = 19.371795 Si / 1000 Ang^3
#
#
#
# Elastic Constant Matrix: (Units=GPa)
#
#
# Indices 1 2 3 4 5 6 
#
# 1 36.1603 31.9431 25.7161 0.0000 0.0000 0.0000
# 2 31.9431 129.1875 56.3090 0.0000 0.0000 0.0000
# 3 25.7161 56.3090 99.4525 0.0000 0.0000 0.0000
# 4 0.0000 0.0000 0.0000 26.6684 0.0000 0.0000
# 5 0.0000 0.0000 0.0000 0.0000 17.1273 0.0000
# 6 0.0000 0.0000 0.0000 0.0000 0.0000 22.1216
#
#
#
# Elastic Compliance Matrix: (Units=1/GPa)
#
#
# Indices 1 2 3 4 5 6 
#
# 1 0.037871 -0.006765 -0.005962 0.000000 0.000000 0.000000
# 2 -0.006765 0.011485 -0.004754 0.000000 0.000000 0.000000
# 3 -0.005962 -0.004754 0.014288 0.000000 0.000000 0.000000
# 4 0.000000 0.000000 0.000000 0.037498 0.000000 0.000000
# 5 0.000000 0.000000 0.000000 0.000000 0.058386 0.000000
# 6 0.000000 0.000000 0.000000 0.000000 0.000000 0.045205
#
#
# Mechanical properties :
#
#
# Convention : Reuss Voigt Hill
#
# Bulk Modulus (GPa) = 34.86436 54.74851 44.80644
# Shear Modulus (GPa) = 20.05971 23.23896 21.64934
#
# Velocity S-wave (km/s) = 3.22143 3.46732 3.34663
# Velocity P-wave (km/s) = 5.64565 6.65981 6.17359
#
# Compressibility (1/GPa) = 0.02868258
#
# Stress axis : x y z
#
# Youngs Moduli (GPa) = 26.40543 87.06677 69.98817
#
# Poissons Ratio (x) = 0.58904 0.41727
# Poissons Ratio (y) = 0.17864 0.33269
# Poissons Ratio (z) = 0.15743 0.41388
#
# Static dielectric constant tensor:
#      x y z
#    x 3.335240 0.000000 0.000000 
#    y 0.000000 3.532500 0.000000 
#    z 0.000000 0.000000 3.818120 
# 
# 
# High freq. dielectric constant tensor:
#      x y z
#    x 1.718370 0.000000 0.000000 
#    y 0.000000 1.751540 0.000000 
#    z 0.000000 0.000000 1.760870 
# 
# From -- ./inp_files/7080.got.cif
#   From: 2010.03.12/outbox.cif.g09.slc.cpg/sg36_4_cif.got.tgz:7080.got - 2010.04.14 02:13:53.
