data_PCOD8175481
_publ_section_title
;
Structure prediction by ZEFSAII (Michael W. Deem and Ramdas Pophale) SiO2 
 PCOD8175481
Probable space group: C M C 21
;
_chemical_formula_sum "Si O2"
_cell_formula_units_Z 56
_cell_length_a 16.536953
_cell_length_b 12.466985
_cell_length_c 13.262230
_cell_angle_alpha 90.000000
_cell_angle_beta 90.000000
_cell_angle_gamma 90.000000
_cell_volume 2734.220181
_symmetry_space_group_name_H-M "C M C 21"
_symmetry_group_IT_number 36
_symmetry_cell_setting 'orthorhombic'
loop_
_space_group_symop_operation_xyz
x,y,z
-x,-y,1/2+z
x,-y,1/2+z
-x,y,z
1/2+x,1/2+y,z
1/2-x,1/2-y,1/2+z
1/2+x,1/2-y,1/2+z
1/2-x,1/2+y,z
loop_
_atom_site_type_symbol
_atom_site_label
_atom_site_fract_x
_atom_site_fract_y
_atom_site_fract_z
Si Si1 0.404920 0.300324 0.614790
Si Si2 0.811024 0.982143 0.090329
Si Si3 0.089886 0.573130 0.105295
Si Si4 0.406268 0.706405 0.683576
Si Si5 0.662810 0.904062 0.219637
Si Si6 0.192272 0.496595 0.922196
Si Si7 0.406863 0.210463 0.392193
O O1 0.500000 0.310771 0.644270
O O2 0.359315 0.412842 0.626116
O O3 0.358230 0.217896 0.689229
O O4 0.395142 0.263821 0.500175
O O5 0.867916 0.882690 0.113010
O O6 0.731051 0.963549 0.154340
O O7 0.782282 0.986415 0.972361
O O8 0.131499 0.680184 0.148667
O O9 0.086697 0.479268 0.190752
O O10 0.000000 0.602372 0.074660
O O11 0.130278 0.536929 0.003683
O O12 0.500000 0.697222 0.662246
O O13 0.388832 0.700900 0.804535
O O14 0.691404 0.912608 0.335103
O O15 0.158455 0.384295 0.879488
O O16 0.500000 0.168670 0.379687
#
# Coordination Sequence:
#
# PCOD8175481 Si02
#       7
#     8   8   8   8   8   8   8
#     4  11  24  45  68  97 136 178 224 274 329 402
#     4  11  26  43  64  95 133 179 221 275 337 406
#     4  10  20  37  63  94 126 163 217 277 328 386
#     4  10  22  42  67  93 130 175 222 274 331 400
#     4  11  24  40  65  94 130 171 218 276 338 391
#     4  11  23  39  63  98 132 171 216 282 340 404
#     4  10  20  38  69  97 125 171 224 274 332 401
#
# _framework density 20.481161
#
# number of rings (size 3 to 8) (size 9 to 14) (size 15 to 20)
#    0.000    1.429    4.286    1.286    6.000    1.714 
#    2.571    0.000    0.000    0.000    0.000    0.000 
#    0.000    0.000    0.000    0.000    0.000    0.000 
#
# Total GULP energy -346963.571355 kJ/mol
# GULP energy per Si atom -12391.556120 kJ/mol
# Density = 2.043454 g / cm^3
# Si number density = 20.481161 Si / 1000 Ang^3
#
#
#
# Elastic Constant Matrix: (Units=GPa)
#
#
# Indices 1 2 3 4 5 6 
#
# 1 82.5339 53.3141 36.9974 0.0000 0.0000 0.0000
# 2 53.3141 136.2326 41.6210 0.0000 0.0000 0.0000
# 3 36.9974 41.6210 114.3483 0.0000 0.0000 0.0000
# 4 0.0000 0.0000 0.0000 21.3689 0.0000 0.0000
# 5 0.0000 0.0000 0.0000 0.0000 22.5832 0.0000
# 6 0.0000 0.0000 0.0000 0.0000 0.0000 32.5659
#
#
#
# Elastic Compliance Matrix: (Units=1/GPa)
#
#
# Indices 1 2 3 4 5 6 
#
# 1 0.017406 -0.005728 -0.003547 0.000000 0.000000 0.000000
# 2 -0.005728 0.010144 -0.001839 0.000000 0.000000 0.000000
# 3 -0.003547 -0.001839 0.010562 0.000000 0.000000 0.000000
# 4 0.000000 0.000000 0.000000 0.046797 0.000000 0.000000
# 5 0.000000 0.000000 0.000000 0.000000 0.044281 0.000000
# 6 0.000000 0.000000 0.000000 0.000000 0.000000 0.030707
#
#
# Mechanical properties :
#
#
# Convention : Reuss Voigt Hill
#
# Bulk Modulus (GPa) = 62.95449 66.33108 64.64279
# Shear Modulus (GPa) = 26.67805 28.71577 27.69691
#
# Velocity S-wave (km/s) = 3.61302 3.74847 3.68137
# Velocity P-wave (km/s) = 6.94332 7.15482 7.04986
#
# Compressibility (1/GPa) = 0.01588449
#
# Stress axis : x y z
#
# Youngs Moduli (GPa) = 57.44988 98.58109 94.67820
#
# Poissons Ratio (x) = 0.56471 0.33581
# Poissons Ratio (y) = 0.32909 0.17410
# Poissons Ratio (z) = 0.20377 0.18127
#
# Static dielectric constant tensor:
#      x y z
#    x 2.742020 0.000000 0.000000 
#    y 0.000000 3.816730 0.000000 
#    z 0.000000 0.000000 3.936670 
# 
# 
# High freq. dielectric constant tensor:
#      x y z
#    x 1.801970 0.000000 0.000000 
#    y 0.000000 1.794730 0.000000 
#    z 0.000000 0.000000 1.800710 
# 
# From -- ./inp_files/12165.got.cif
#   From: 2010.03.12/outbox.cif.g09.slc.cpg/sg36_7_cif.got.tgz:12165.got - 2010.04.14 02:13:53.
