data_PCOD8175370
_publ_section_title
;
Structure prediction by ZEFSAII (Michael W. Deem and Ramdas Pophale) SiO2 
 PCOD8175370
Probable space group: C M C 21
;
_chemical_formula_sum "Si O2"
_cell_formula_units_Z 64
_cell_length_a 9.249608
_cell_length_b 31.457486
_cell_length_c 10.578058
_cell_angle_alpha 90.000000
_cell_angle_beta 90.000000
_cell_angle_gamma 90.000000
_cell_volume 3077.891339
_symmetry_space_group_name_H-M "C M C 21"
_symmetry_group_IT_number 36
_symmetry_cell_setting 'orthorhombic'
loop_
_space_group_symop_operation_xyz
x,y,z
-x,-y,1/2+z
x,-y,1/2+z
-x,y,z
1/2+x,1/2+y,z
1/2-x,1/2-y,1/2+z
1/2+x,1/2-y,1/2+z
1/2-x,1/2+y,z
loop_
_atom_site_type_symbol
_atom_site_label
_atom_site_fract_x
_atom_site_fract_y
_atom_site_fract_z
Si Si1 0.342185 0.657909 0.908380
Si Si2 0.332481 0.714918 0.455593
Si Si3 0.669600 0.264754 0.238651
Si Si4 0.657995 0.430535 0.276339
Si Si5 0.163694 0.465752 0.484961
Si Si6 0.332352 0.121744 0.119836
Si Si7 0.667367 0.377376 0.871303
Si Si8 0.166784 0.561272 0.539424
O O1 0.500000 0.672000 0.964032
O O2 0.295247 0.689072 0.796136
O O3 0.361397 0.611323 0.855876
O O4 0.216760 0.655818 0.013565
O O5 0.500000 0.726507 0.436738
O O6 0.276776 0.734712 0.590691
O O7 0.248315 0.731437 0.331318
O O8 0.312849 0.663785 0.461380
O O9 0.500000 0.254285 0.240658
O O10 0.500000 0.447116 0.231246
O O11 0.732487 0.465942 0.363784
O O12 0.759912 0.418278 0.160891
O O13 0.196401 0.427295 0.581091
O O14 0.188584 0.510666 0.552391
O O15 0.000000 0.461647 0.434262
O O16 0.500000 0.129776 0.150435
O O17 0.232505 0.133769 0.236150
O O18 0.500000 0.389798 0.858393
O O19 0.754099 0.418515 0.919451
O O20 0.000000 0.574114 0.532371
#
# Coordination Sequence:
#
# PCOD8175370 Si02
#       8
#     8   8   8   8   8   8   8   8
#     4   9  19  38  62  87 119 158 198 248 308 365
#     4  10  24  44  64  92 130 167 208 263 323 378
#     4  10  22  41  66  93 125 164 209 258 314 379
#     4  10  20  36  59  85 114 149 195 246 298 361
#     4   9  21  39  57  82 118 158 197 246 303 361
#     4  10  21  38  61  90 123 161 205 253 308 374
#     4  11  24  42  62  87 124 164 207 260 318 373
#     4  11  23  38  59  84 117 159 201 248 306 367
#
# _framework density 20.793458000000001
#
# number of rings (size 3 to 8) (size 9 to 14) (size 15 to 20)
#    0.000    2.000    0.000    2.250    3.500    6.000 
#    0.000    1.250    0.000    0.000    0.000    0.000 
#    0.000    0.000    0.000    0.000    0.000    0.000 
#
# Total GULP energy -396678.667968 kJ/mol
# GULP energy per Si atom -12396.208374 kJ/mol
# Density = 2.074613 g / cm^3
# Si number density = 20.793458 Si / 1000 Ang^3
#
#
#
# Elastic Constant Matrix: (Units=GPa)
#
#
# Indices 1 2 3 4 5 6 
#
# 1 124.9299 34.5993 56.2512 0.0000 0.0000 0.0000
# 2 34.5993 56.6355 21.0343 0.0000 0.0000 0.0000
# 3 56.2512 21.0343 108.3628 0.0000 0.0000 0.0000
# 4 0.0000 0.0000 0.0000 20.5514 0.0000 0.0000
# 5 0.0000 0.0000 0.0000 0.0000 37.6250 0.0000
# 6 0.0000 0.0000 0.0000 0.0000 0.0000 27.9613
#
#
#
# Elastic Compliance Matrix: (Units=1/GPa)
#
#
# Indices 1 2 3 4 5 6 
#
# 1 0.011756 -0.005298 -0.005075 0.000000 0.000000 0.000000
# 2 -0.005298 0.021416 -0.001407 0.000000 0.000000 0.000000
# 3 -0.005075 -0.001407 0.012136 0.000000 0.000000 0.000000
# 4 0.000000 0.000000 0.000000 0.048658 0.000000 0.000000
# 5 0.000000 0.000000 0.000000 0.000000 0.026578 0.000000
# 6 0.000000 0.000000 0.000000 0.000000 0.000000 0.035764
#
#
# Mechanical properties :
#
#
# Convention : Reuss Voigt Hill
#
# Bulk Modulus (GPa) = 45.97792 57.07754 51.52773
# Shear Modulus (GPa) = 26.72141 29.09710 27.90925
#
# Velocity S-wave (km/s) = 3.58870 3.74483 3.66760
# Velocity P-wave (km/s) = 6.27148 6.79763 6.53984
#
# Compressibility (1/GPa) = 0.02174957
#
# Stress axis : x y z
#
# Youngs Moduli (GPa) = 85.05940 46.69484 82.40247
#
# Poissons Ratio (x) = 0.24737 0.41815
# Poissons Ratio (y) = 0.45060 0.11594
# Poissons Ratio (z) = 0.43163 0.06570
#
# Static dielectric constant tensor:
#      x y z
#    x 4.056080 0.000000 0.000000 
#    y 0.000000 3.677730 0.000000 
#    z 0.000000 0.000000 3.750390 
# 
# 
# High freq. dielectric constant tensor:
#      x y z
#    x 1.818590 0.000000 0.000000 
#    y 0.000000 1.809420 0.000000 
#    z 0.000000 0.000000 1.812160 
# 
# From -- ./inp_files/7203.got.cif
#   From: 2010.03.12/outbox.cif.g09.slc.cpg/sg36_4_cif.got.tgz:7203.got - 2010.04.14 02:13:53.
