data_PCOD8175505
_publ_section_title
;
Structure prediction by ZEFSAII (Michael W. Deem and Ramdas Pophale) SiO2 
 PCOD8175505
Probable space group: C M C 21
;
_chemical_formula_sum "Si O2"
_cell_formula_units_Z 64
_cell_length_a 8.876521
_cell_length_b 28.873263
_cell_length_c 12.371877
_cell_angle_alpha 90.000000
_cell_angle_beta 90.000000
_cell_angle_gamma 90.000000
_cell_volume 3170.839395
_symmetry_space_group_name_H-M "C M C 21"
_symmetry_group_IT_number 36
_symmetry_cell_setting 'orthorhombic'
loop_
_space_group_symop_operation_xyz
x,y,z
-x,-y,1/2+z
x,-y,1/2+z
-x,y,z
1/2+x,1/2+y,z
1/2-x,1/2-y,1/2+z
1/2+x,1/2-y,1/2+z
1/2-x,1/2+y,z
loop_
_atom_site_type_symbol
_atom_site_label
_atom_site_fract_x
_atom_site_fract_y
_atom_site_fract_z
Si Si1 0.322764 0.840235 0.076010
Si Si2 0.831939 0.074417 0.476498
Si Si3 0.326065 0.313824 0.464636
Si Si4 0.825858 0.880523 0.278360
Si Si5 0.668018 0.477289 0.193927
Si Si6 0.323349 0.063952 0.263971
Si Si7 0.177256 0.222781 0.408205
Si Si8 0.822153 0.839782 0.704419
O O1 0.500000 0.834289 0.081973
O O2 0.277928 0.883408 0.002413
O O3 0.260947 0.846257 0.197047
O O4 0.254264 0.795432 0.017892
O O5 0.839891 0.037341 0.570073
O O6 0.760079 0.049643 0.373987
O O7 0.000000 0.093793 0.450559
O O8 0.500000 0.298744 0.460186
O O9 0.302481 0.362473 0.400497
O O10 0.228574 0.275948 0.400168
O O11 0.272195 0.319214 0.588435
O O12 0.770237 0.933887 0.266292
O O13 0.000000 0.879608 0.241702
O O14 0.500000 0.492099 0.233281
O O15 0.783447 0.519970 0.190034
O O16 0.500000 0.068716 0.279681
O O17 0.260724 0.111539 0.216517
O O18 0.228549 0.195098 0.300133
O O19 0.000000 0.219619 0.421156
O O20 0.000000 0.848612 0.706484
#
# Coordination Sequence:
#
# PCOD8175505 Si02
#       8
#     8   8   8   8   8   8   8   8
#     4  11  21  35  60  89 118 152 199 256 307 357
#     4  10  20  38  61  85 115 156 206 253 305 367
#     4  10  23  42  64  92 125 162 209 260 309 366
#     4   9  20  40  63  89 123 163 207 252 306 368
#     4   9  20  38  61  87 119 165 213 252 301 369
#     4  12  24  37  60  93 127 161 202 258 316 366
#     4  11  23  39  61  89 122 162 204 250 310 374
#     4  10  23  43  64  88 125 167 210 255 306 373
#
# _framework density 20.183928999999999
#
# number of rings (size 3 to 8) (size 9 to 14) (size 15 to 20)
#    0.000    1.750    1.250    3.750    1.750    5.000 
#    0.000    2.500    0.000    0.000    0.000    0.000 
#    0.000    0.000    0.000    0.000    0.000    0.000 
#
# Total GULP energy -396799.228262 kJ/mol
# GULP energy per Si atom -12399.975883 kJ/mol
# Density = 2.013799 g / cm^3
# Si number density = 20.183929 Si / 1000 Ang^3
#
#
#
# Elastic Constant Matrix: (Units=GPa)
#
#
# Indices 1 2 3 4 5 6 
#
# 1 87.1464 45.5619 42.7299 0.0000 0.0000 0.0000
# 2 45.5619 118.0843 50.2206 0.0000 0.0000 0.0000
# 3 42.7299 50.2206 99.3187 0.0000 0.0000 0.0000
# 4 0.0000 0.0000 0.0000 22.6934 0.0000 0.0000
# 5 0.0000 0.0000 0.0000 0.0000 25.5340 0.0000
# 6 0.0000 0.0000 0.0000 0.0000 0.0000 34.0427
#
#
#
# Elastic Compliance Matrix: (Units=1/GPa)
#
#
# Indices 1 2 3 4 5 6 
#
# 1 0.015982 -0.004130 -0.004787 0.000000 0.000000 0.000000
# 2 -0.004130 0.011856 -0.004218 0.000000 0.000000 0.000000
# 3 -0.004787 -0.004218 0.014261 0.000000 0.000000 0.000000
# 4 0.000000 0.000000 0.000000 0.044066 0.000000 0.000000
# 5 0.000000 0.000000 0.000000 0.000000 0.039163 0.000000
# 6 0.000000 0.000000 0.000000 0.000000 0.000000 0.029375
#
#
# Mechanical properties :
#
#
# Convention : Reuss Voigt Hill
#
# Bulk Modulus (GPa) = 63.18123 64.61934 63.90028
# Shear Modulus (GPa) = 26.84562 27.52316 27.18439
#
# Velocity S-wave (km/s) = 3.65094 3.69673 3.67390
# Velocity P-wave (km/s) = 7.01022 7.09266 7.05156
#
# Compressibility (1/GPa) = 0.01582749
#
# Stress axis : x y z
#
# Youngs Moduli (GPa) = 62.57147 84.34463 70.12097
#
# Poissons Ratio (x) = 0.34838 0.33569
# Poissons Ratio (y) = 0.25845 0.29577
# Poissons Ratio (z) = 0.29955 0.35577
#
# Static dielectric constant tensor:
#      x y z
#    x 3.584010 0.000000 0.000000 
#    y 0.000000 3.588700 0.000000 
#    z 0.000000 0.000000 3.744070 
# 
# 
# High freq. dielectric constant tensor:
#      x y z
#    x 1.781550 0.000000 0.000000 
#    y 0.000000 1.786350 0.000000 
#    z 0.000000 0.000000 1.790520 
# 
# From -- ./inp_files/7179.got.cif
#   From: 2010.03.12/outbox.cif.g09.slc.cpg/sg36_4_cif.got.tgz:7179.got - 2010.04.14 02:13:53.
