data_PCOD8175395
_publ_section_title
;
Structure prediction by ZEFSAII (Michael W. Deem and Ramdas Pophale) SiO2 
 PCOD8175395
Probable space group: C M C 21
;
_chemical_formula_sum "Si O2"
_cell_formula_units_Z 48
_cell_length_a 8.577548
_cell_length_b 15.000054
_cell_length_c 18.876022
_cell_angle_alpha 90.000000
_cell_angle_beta 90.000000
_cell_angle_gamma 90.000000
_cell_volume 2428.658514
_symmetry_space_group_name_H-M "C M C 21"
_symmetry_group_IT_number 36
_symmetry_cell_setting 'orthorhombic'
loop_
_space_group_symop_operation_xyz
x,y,z
-x,-y,1/2+z
x,-y,1/2+z
-x,y,z
1/2+x,1/2+y,z
1/2-x,1/2-y,1/2+z
1/2+x,1/2-y,1/2+z
1/2-x,1/2+y,z
loop_
_atom_site_type_symbol
_atom_site_label
_atom_site_fract_x
_atom_site_fract_y
_atom_site_fract_z
Si Si1 0.183216 0.458570 0.823400
Si Si2 0.314533 0.759424 0.808856
Si Si3 0.316686 0.304502 0.155815
Si Si4 0.181983 0.492050 0.165778
Si Si5 0.315937 0.390393 0.414253
Si Si6 0.182912 0.145895 0.072598
O O1 0.249012 0.357789 0.827385
O O2 0.228656 0.501797 0.748188
O O3 0.260197 0.514180 0.886307
O O4 0.000000 0.459549 0.834979
O O5 0.500000 0.760634 0.809008
O O6 0.255253 0.732541 0.730959
O O7 0.246776 0.689348 0.865764
O O8 0.500000 0.324006 0.157150
O O9 0.225800 0.394860 0.137091
O O10 0.276797 0.233308 0.095668
O O11 0.281471 0.563992 0.123664
O O12 0.000000 0.512474 0.154290
O O13 0.500000 0.387909 0.410529
O O14 0.256997 0.378086 0.494128
O O15 0.000000 0.166902 0.073865
#
# Coordination Sequence:
#
# PCOD8175395 Si02
#       6
#     8   8   8   8   8   8
#     4  10  20  36  60  89 116 152 200 245 296 358
#     4   9  18  36  60  85 114 152 194 240 296 352
#     4  11  21  38  64  90 120 158 200 250 302 354
#     4  11  22  38  61  91 122 158 204 249 298 359
#     4  10  22  40  60  86 121 157 194 244 304 358
#     4  11  24  40  59  89 127 163 200 246 302 361
#
# _framework density 19.763998000000001
#
# number of rings (size 3 to 8) (size 9 to 14) (size 15 to 20)
#    0.000    1.667    3.333    1.500    0.000    3.333 
#    0.000    2.500    0.000    0.000    0.000    0.000 
#    0.000    0.000    0.000    0.000    0.000    0.000 
#
# Total GULP energy -297707.747133 kJ/mol
# GULP energy per Si atom -12404.489464 kJ/mol
# Density = 1.971901 g / cm^3
# Si number density = 19.763998 Si / 1000 Ang^3
#
#
#
# Elastic Constant Matrix: (Units=GPa)
#
#
# Indices 1 2 3 4 5 6 
#
# 1 28.7411 8.9431 23.5801 0.0000 0.0000 0.0000
# 2 8.9431 102.1951 -3.5339 0.0000 0.0000 0.0000
# 3 23.5801 -3.5339 60.2617 0.0000 0.0000 0.0000
# 4 0.0000 0.0000 0.0000 31.7994 0.0000 0.0000
# 5 0.0000 0.0000 0.0000 0.0000 25.4147 0.0000
# 6 0.0000 0.0000 0.0000 0.0000 0.0000 31.8192
#
#
#
# Elastic Compliance Matrix: (Units=1/GPa)
#
#
# Indices 1 2 3 4 5 6 
#
# 1 0.054145 -0.005482 -0.021508 0.000000 0.000000 0.000000
# 2 -0.005482 0.010360 0.002753 0.000000 0.000000 0.000000
# 3 -0.021508 0.002753 0.025172 0.000000 0.000000 0.000000
# 4 0.000000 0.000000 0.000000 0.031447 0.000000 0.000000
# 5 0.000000 0.000000 0.000000 0.000000 0.039347 0.000000
# 6 0.000000 0.000000 0.000000 0.000000 0.000000 0.031428
#
#
# Mechanical properties :
#
#
# Convention : Reuss Voigt Hill
#
# Bulk Modulus (GPa) = 24.27072 27.68627 25.97849
# Shear Modulus (GPa) = 19.67666 28.62057 24.14862
#
# Velocity S-wave (km/s) = 3.15871 3.80954 3.49929
# Velocity P-wave (km/s) = 5.06065 5.77832 5.43135
#
# Compressibility (1/GPa) = 0.04120191
#
# Stress axis : x y z
#
# Youngs Moduli (GPa) = 18.46886 96.52390 39.72711
#
# Poissons Ratio (x) = 0.52915 0.85446
# Poissons Ratio (y) = 0.10125 -0.10935
# Poissons Ratio (z) = 0.39723 -0.26569
#
# Static dielectric constant tensor:
#      x y z
#    x 3.317370 0.000000 0.000000 
#    y 0.000000 3.816950 0.000000 
#    z 0.000000 0.000000 3.702100 
# 
# 
# High freq. dielectric constant tensor:
#      x y z
#    x 1.752070 0.000000 0.000000 
#    y 0.000000 1.786760 0.000000 
#    z 0.000000 0.000000 1.767550 
# 
# From -- ./inp_files/13471.got.cif
#   From: 2010.03.12/outbox.cif.g09.slc.cpg/sg36_7_cif.got.tgz:13471.got - 2010.04.14 02:13:53.
