data_PCOD8175503
_publ_section_title
;
Structure prediction by ZEFSAII (Michael W. Deem and Ramdas Pophale) SiO2 
 PCOD8175503
Probable space group: C M C 21
;
_chemical_formula_sum "Si O2"
_cell_formula_units_Z 40
_cell_length_a 8.019898
_cell_length_b 28.395944
_cell_length_c 9.223511
_cell_angle_alpha 90.000000
_cell_angle_beta 90.000000
_cell_angle_gamma 90.000000
_cell_volume 2100.493906
_symmetry_space_group_name_H-M "C M C 21"
_symmetry_group_IT_number 36
_symmetry_cell_setting 'orthorhombic'
loop_
_space_group_symop_operation_xyz
x,y,z
-x,-y,1/2+z
x,-y,1/2+z
-x,y,z
1/2+x,1/2+y,z
1/2-x,1/2-y,1/2+z
1/2+x,1/2-y,1/2+z
1/2-x,1/2+y,z
loop_
_atom_site_type_symbol
_atom_site_label
_atom_site_fract_x
_atom_site_fract_y
_atom_site_fract_z
Si Si1 0.311851 0.376323 0.994860
Si Si2 0.500000 0.965874 0.282974
Si Si3 0.683429 0.879186 0.300712
Si Si4 0.190675 0.803647 0.506174
Si Si5 0.000000 0.442052 0.958602
Si Si6 0.305960 0.718141 0.323036
O O1 0.500000 0.393210 0.951952
O O2 0.169924 0.412193 0.940760
O O3 0.271244 0.326751 0.921859
O O4 0.309948 0.369539 0.169095
O O5 0.664708 0.935641 0.334021
O O6 0.500000 0.018875 0.334942
O O7 0.500000 0.969138 0.109629
O O8 0.500000 0.861765 0.246139
O O9 0.731401 0.851966 0.446348
O O10 0.210486 0.762276 0.390324
O O11 0.270029 0.790505 0.662110
O O12 0.000000 0.815020 0.534289
O O13 0.500000 0.731299 0.316189
#
# Coordination Sequence:
#
# PCOD8175503 Si02
#       6
#     8   4   8   8   4   8
#     4  10  20  38  61  84 117 153 192 241 293 340
#     4   8  20  36  60  82 114 148 190 240 295 334
#     4   9  19  37  57  83 111 149 193 237 284 347
#     4  11  22  35  54  80 116 151 196 242 287 343
#     4  10  20  40  60  88 116 152 196 244 287 360
#     4  10  23  37  51  80 114 152 196 239 287 351
#
# _framework density 19.043140000000001
#
# number of rings (size 3 to 8) (size 9 to 14) (size 15 to 20)
#    0.600    1.600    1.000    2.400    1.400    6.400 
#    0.000    5.000    0.000    0.000    0.000    0.000 
#    0.000    0.000    0.000    0.000    0.000    0.000 
#
# Total GULP energy -247864.648686 kJ/mol
# GULP energy per Si atom -12393.232434 kJ/mol
# Density = 1.899980 g / cm^3
# Si number density = 19.043140 Si / 1000 Ang^3
#
#
#
# Elastic Constant Matrix: (Units=GPa)
#
#
# Indices 1 2 3 4 5 6 
#
# 1 75.5332 21.1780 1.1133 0.0000 0.0000 0.0000
# 2 21.1780 52.4557 2.8082 0.0000 0.0000 0.0000
# 3 1.1133 2.8082 38.3667 0.0000 0.0000 0.0000
# 4 0.0000 0.0000 0.0000 40.2371 0.0000 0.0000
# 5 0.0000 0.0000 0.0000 0.0000 22.0434 0.0000
# 6 0.0000 0.0000 0.0000 0.0000 0.0000 25.6862
#
#
#
# Elastic Compliance Matrix: (Units=1/GPa)
#
#
# Indices 1 2 3 4 5 6 
#
# 1 0.014929 -0.006028 0.000008 0.000000 0.000000 0.000000
# 2 -0.006028 0.021572 -0.001404 0.000000 0.000000 0.000000
# 3 0.000008 -0.001404 0.026167 0.000000 0.000000 0.000000
# 4 0.000000 0.000000 0.000000 0.024853 0.000000 0.000000
# 5 0.000000 0.000000 0.000000 0.000000 0.045365 0.000000
# 6 0.000000 0.000000 0.000000 0.000000 0.000000 0.038931
#
#
# Mechanical properties :
#
#
# Convention : Reuss Voigt Hill
#
# Bulk Modulus (GPa) = 20.91143 24.06162 22.48653
# Shear Modulus (GPa) = 24.67849 27.01042 25.84446
#
# Velocity S-wave (km/s) = 3.60380 3.77023 3.68795
# Velocity P-wave (km/s) = 5.32179 5.62277 5.47435
#
# Compressibility (1/GPa) = 0.04782073
#
# Stress axis : x y z
#
# Youngs Moduli (GPa) = 66.98295 46.35538 38.21633
#
# Poissons Ratio (x) = 0.27942 -0.00031
# Poissons Ratio (y) = 0.40376 0.05366
# Poissons Ratio (z) = -0.00054 0.06509
#
# Static dielectric constant tensor:
#      x y z
#    x 3.437970 0.000000 0.000000 
#    y 0.000000 3.306170 0.000000 
#    z 0.000000 0.000000 3.530600 
# 
# 
# High freq. dielectric constant tensor:
#      x y z
#    x 1.734410 0.000000 0.000000 
#    y 0.000000 1.726970 0.000000 
#    z 0.000000 0.000000 1.741250 
# 
# From -- ./inp_files/2567.got.cif
#   From: 2010.03.12/outbox.cif.g09.slc.cpg/sg36_2_cif.got.tgz:2567.got - 2010.04.14 02:13:53.
