data_PCOD8175340
_publ_section_title
;
Structure prediction by ZEFSAII (Michael W. Deem and Ramdas Pophale) SiO2 
 PCOD8175340
Probable space group: C M C 21
;
_chemical_formula_sum "Si O2"
_cell_formula_units_Z 48
_cell_length_a 9.098277
_cell_length_b 30.569574
_cell_length_c 9.072561
_cell_angle_alpha 90.000000
_cell_angle_beta 90.000000
_cell_angle_gamma 90.000000
_cell_volume 2523.355492
_symmetry_space_group_name_H-M "C M C 21"
_symmetry_group_IT_number 36
_symmetry_cell_setting 'orthorhombic'
loop_
_space_group_symop_operation_xyz
x,y,z
-x,-y,1/2+z
x,-y,1/2+z
-x,y,z
1/2+x,1/2+y,z
1/2-x,1/2-y,1/2+z
1/2+x,1/2-y,1/2+z
1/2-x,1/2+y,z
loop_
_atom_site_type_symbol
_atom_site_label
_atom_site_fract_x
_atom_site_fract_y
_atom_site_fract_z
Si Si1 0.327648 0.634300 0.377340
Si Si2 0.170778 0.783942 0.072541
Si Si3 0.828451 0.299303 0.374514
Si Si4 0.173980 0.124955 0.042508
Si Si5 0.331700 0.048429 0.415758
Si Si6 0.669602 0.962200 0.573603
O O1 0.500000 0.627351 0.383214
O O2 0.277488 0.677354 0.463950
O O3 0.275684 0.638654 0.207516
O O4 0.256065 0.592305 0.455752
O O5 0.268857 0.784055 0.217388
O O6 0.000000 0.789269 0.114612
O O7 0.201933 0.738559 0.991838
O O8 0.744241 0.342444 0.425230
O O9 0.000000 0.309652 0.360058
O O10 0.233734 0.076733 0.005182
O O11 0.000000 0.125812 0.023899
O O12 0.500000 0.057814 0.455212
O O13 0.309585 0.035535 0.247228
O O14 0.270510 0.008056 0.510914
O O15 0.500000 0.954680 0.528052
#
# Coordination Sequence:
#
# PCOD8175340 Si02
#       6
#     8   8   8   8   8   8
#     4   9  19  36  56  78 107 142 180 222 268 320
#     4  10  22  39  57  80 110 142 178 221 267 318
#     4  11  23  38  58  83 110 142 180 221 266 318
#     4  10  20  36  57  80 109 144 181 223 270 318
#     4   9  18  32  51  75 105 140 178 222 267 314
#     4   9  18  33  51  74 105 140 179 221 266 316
#
# _framework density 19.022290999999999
#
# number of rings (size 3 to 8) (size 9 to 14) (size 15 to 20)
#    0.000    2.333    0.000    2.000    0.000    6.000 
#    0.000    1.667    0.000    0.000    0.000    0.000 
#    0.000    0.000    0.000    0.000    0.000    0.000 
#
# Total GULP energy -297689.280760 kJ/mol
# GULP energy per Si atom -12403.720032 kJ/mol
# Density = 1.897900 g / cm^3
# Si number density = 19.022291 Si / 1000 Ang^3
#
#
#
# Elastic Constant Matrix: (Units=GPa)
#
#
# Indices 1 2 3 4 5 6 
#
# 1 56.4734 22.7426 21.9392 0.0000 0.0000 0.0000
# 2 22.7426 65.4271 1.5026 0.0000 0.0000 0.0000
# 3 21.9392 1.5026 38.8939 0.0000 0.0000 0.0000
# 4 0.0000 0.0000 0.0000 37.3748 0.0000 0.0000
# 5 0.0000 0.0000 0.0000 0.0000 28.7220 0.0000
# 6 0.0000 0.0000 0.0000 0.0000 0.0000 35.0758
#
#
#
# Elastic Compliance Matrix: (Units=1/GPa)
#
#
# Indices 1 2 3 4 5 6 
#
# 1 0.027200 -0.009111 -0.014991 0.000000 0.000000 0.000000
# 2 -0.009111 0.018349 0.004430 0.000000 0.000000 0.000000
# 3 -0.014991 0.004430 0.033996 0.000000 0.000000 0.000000
# 4 0.000000 0.000000 0.000000 0.026756 0.000000 0.000000
# 5 0.000000 0.000000 0.000000 0.000000 0.034817 0.000000
# 6 0.000000 0.000000 0.000000 0.000000 0.000000 0.028510
#
#
# Mechanical properties :
#
#
# Convention : Reuss Voigt Hill
#
# Bulk Modulus (GPa) = 24.87405 28.12925 26.50165
# Shear Modulus (GPa) = 22.48486 27.87518 25.18002
#
# Velocity S-wave (km/s) = 3.44179 3.83220 3.64223
# Velocity P-wave (km/s) = 5.37580 5.86521 5.62583
#
# Compressibility (1/GPa) = 0.04020255
#
# Stress axis : x y z
#
# Youngs Moduli (GPa) = 36.76426 54.49792 29.41519
#
# Poissons Ratio (x) = 0.49651 0.44097
# Poissons Ratio (y) = 0.33495 -0.13032
# Poissons Ratio (z) = 0.55114 -0.24144
#
# Static dielectric constant tensor:
#      x y z
#    x 3.432570 0.000000 0.000000 
#    y 0.000000 3.638870 0.000000 
#    z 0.000000 0.000000 3.437570 
# 
# 
# High freq. dielectric constant tensor:
#      x y z
#    x 1.735230 0.000000 0.000000 
#    y 0.000000 1.752130 0.000000 
#    z 0.000000 0.000000 1.734460 
# 
# From -- ./inp_files/2640.got.cif
#   From: 2010.03.12/outbox.cif.g09.slc.cpg/sg36_2_cif.got.tgz:2640.got - 2010.04.14 02:13:53.
