data_PCOD8175321
_publ_section_title
;
Structure prediction by ZEFSAII (Michael W. Deem and Ramdas Pophale) SiO2 
 PCOD8175321
Probable space group: C M C 21
;
_chemical_formula_sum "Si O2"
_cell_formula_units_Z 64
_cell_length_a 9.005962
_cell_length_b 15.271058
_cell_length_c 23.547658
_cell_angle_alpha 90.000000
_cell_angle_beta 90.000000
_cell_angle_gamma 90.000000
_cell_volume 3238.522781
_symmetry_space_group_name_H-M "C M C 21"
_symmetry_group_IT_number 36
_symmetry_cell_setting 'orthorhombic'
loop_
_space_group_symop_operation_xyz
x,y,z
-x,-y,1/2+z
x,-y,1/2+z
-x,y,z
1/2+x,1/2+y,z
1/2-x,1/2-y,1/2+z
1/2+x,1/2-y,1/2+z
1/2-x,1/2+y,z
loop_
_atom_site_type_symbol
_atom_site_label
_atom_site_fract_x
_atom_site_fract_y
_atom_site_fract_z
Si Si1 0.324863 0.082702 0.977630
Si Si2 0.673206 0.353903 0.590543
Si Si3 0.328345 0.101176 0.203739
Si Si4 0.825473 0.909253 0.984917
Si Si5 0.172464 0.649769 0.595553
Si Si6 0.174996 0.756096 0.286680
Si Si7 0.173505 0.250857 0.405363
Si Si8 0.829456 0.594976 0.720580
O O1 0.500000 0.072883 0.982683
O O2 0.280285 0.156724 0.932487
O O3 0.253158 0.992443 0.955621
O O4 0.262168 0.104422 0.039206
O O5 0.500000 0.372843 0.582282
O O6 0.727841 0.398739 0.648068
O O7 0.709250 0.251733 0.593262
O O8 0.500000 0.114795 0.186256
O O9 0.273148 0.177480 0.245653
O O10 0.307088 0.007535 0.234648
O O11 0.779723 0.823824 0.949721
O O12 0.000000 0.924498 0.985501
O O13 0.769351 0.900567 0.049254
O O14 0.222884 0.613687 0.656477
O O15 0.000000 0.630154 0.583694
O O16 0.237136 0.735124 0.348339
O O17 0.233932 0.849018 0.264555
O O18 0.000000 0.761130 0.290565
O O19 0.000000 0.247239 0.391476
O O20 0.000000 0.623713 0.727982
#
# Coordination Sequence:
#
# PCOD8175321 Si02
#       8
#     8   8   8   8   8   8   8   8
#     4  11  23  41  63  89 121 160 199 243 304 362
#     4  11  21  35  61  95 124 156 199 247 297 352
#     4  10  22  39  61  89 122 160 198 241 299 363
#     4  11  23  40  63  93 123 157 200 247 298 356
#     4  10  20  35  60  92 124 161 198 241 298 356
#     4  11  24  40  61  89 118 153 202 254 300 348
#     4  10  24  44  63  83 116 161 203 245 300 358
#     4  10  21  40  62  86 120 160 199 238 294 361
#
# _framework density 19.762097000000001
#
# number of rings (size 3 to 8) (size 9 to 14) (size 15 to 20)
#    0.000    1.500    2.500    2.250    0.000    6.000 
#    0.000    3.750    0.000    0.000    0.000    0.000 
#    0.000    0.000    0.000    0.000    0.000    0.000 
#
# Total GULP energy -396999.556612 kJ/mol
# GULP energy per Si atom -12406.236144 kJ/mol
# Density = 1.971712 g / cm^3
# Si number density = 19.762097 Si / 1000 Ang^3
#
#
#
# Elastic Constant Matrix: (Units=GPa)
#
#
# Indices 1 2 3 4 5 6 
#
# 1 66.9002 36.0610 35.6637 0.0000 0.0000 0.0000
# 2 36.0610 96.4126 12.3834 0.0000 0.0000 0.0000
# 3 35.6637 12.3834 82.3247 0.0000 0.0000 0.0000
# 4 0.0000 0.0000 0.0000 15.5202 0.0000 0.0000
# 5 0.0000 0.0000 0.0000 0.0000 37.4999 0.0000
# 6 0.0000 0.0000 0.0000 0.0000 0.0000 23.6284
#
#
#
# Elastic Compliance Matrix: (Units=1/GPa)
#
#
# Indices 1 2 3 4 5 6 
#
# 1 0.024105 -0.007826 -0.009265 0.000000 0.000000 0.000000
# 2 -0.007826 0.013117 0.001417 0.000000 0.000000 0.000000
# 3 -0.009265 0.001417 0.015948 0.000000 0.000000 0.000000
# 4 0.000000 0.000000 0.000000 0.064432 0.000000 0.000000
# 5 0.000000 0.000000 0.000000 0.000000 0.026667 0.000000
# 6 0.000000 0.000000 0.000000 0.000000 0.000000 0.042322
#
#
# Mechanical properties :
#
#
# Convention : Reuss Voigt Hill
#
# Bulk Modulus (GPa) = 45.82584 45.98375 45.90479
# Shear Modulus (GPa) = 22.20118 26.09834 24.14976
#
# Velocity S-wave (km/s) = 3.35539 3.63798 3.49954
# Velocity P-wave (km/s) = 6.18470 6.40045 6.29350
#
# Compressibility (1/GPa) = 0.02182175
#
# Stress axis : x y z
#
# Youngs Moduli (GPa) = 41.48458 76.23570 62.70497
#
# Poissons Ratio (x) = 0.59662 0.58099
# Poissons Ratio (y) = 0.32466 -0.08886
# Poissons Ratio (z) = 0.38437 -0.10804
#
# Static dielectric constant tensor:
#      x y z
#    x 3.568460 0.000000 0.000000 
#    y 0.000000 3.881490 0.000000 
#    z 0.000000 0.000000 3.476650 
# 
# 
# High freq. dielectric constant tensor:
#      x y z
#    x 1.770690 0.000000 0.000000 
#    y 0.000000 1.788620 0.000000 
#    z 0.000000 0.000000 1.763310 
# 
# From -- ./inp_files/16597.got.cif
#   From: 2010.03.12/outbox.cif.g09.slc.cpg/sg36_9_cif.got.tgz:16597.got - 2010.04.14 02:13:53.
