data_PCOD8175680
_publ_section_title
;
Structure prediction by ZEFSAII (Michael W. Deem and Ramdas Pophale) SiO2 
 PCOD8175680
Probable space group: C M C 21
;
_chemical_formula_sum "Si O2"
_cell_formula_units_Z 40
_cell_length_a 15.319961
_cell_length_b 12.826624
_cell_length_c 9.093373
_cell_angle_alpha 90.000000
_cell_angle_beta 90.000000
_cell_angle_gamma 90.000000
_cell_volume 1786.878525
_symmetry_space_group_name_H-M "C M C 21"
_symmetry_group_IT_number 36
_symmetry_cell_setting 'orthorhombic'
loop_
_space_group_symop_operation_xyz
x,y,z
-x,-y,1/2+z
x,-y,1/2+z
-x,y,z
1/2+x,1/2+y,z
1/2-x,1/2-y,1/2+z
1/2+x,1/2-y,1/2+z
1/2-x,1/2+y,z
loop_
_atom_site_type_symbol
_atom_site_label
_atom_site_fract_x
_atom_site_fract_y
_atom_site_fract_z
Si Si1 0.200400 0.920729 0.227100
Si Si2 0.904458 0.615850 0.405105
Si Si3 0.344457 0.065936 0.104683
Si Si4 0.601854 0.438777 0.533638
Si Si5 0.284022 0.735245 0.075552
O O1 0.156940 0.925764 0.385249
O O2 0.241782 0.806528 0.202328
O O3 0.275957 0.005160 0.208654
O O4 0.124514 0.950397 0.108462
O O5 0.911001 0.607544 0.228186
O O6 0.890961 0.503719 0.482518
O O7 0.825439 0.692589 0.448200
O O8 0.000000 0.658178 0.455575
O O9 0.295117 0.160250 0.018724
O O10 0.500000 0.430959 0.502085
O O11 0.636983 0.340970 0.633838
#
# Coordination Sequence:
#
# PCOD8175680 Si02
#       5
#     8   8   8   8   8
#     4  10  21  38  61  86 119 161 200 240 295 359
#     4  11  22  39  61  90 121 154 197 251 298 345
#     4  10  21  38  61  86 119 161 200 240 295 359
#     4  11  22  39  61  90 121 154 197 251 298 345
#     4  10  21  36  61  86 114 156 200 236 289 356
#
# _framework density 22.385404000000001
#
# number of rings (size 3 to 8) (size 9 to 14) (size 15 to 20)
#    0.000    1.600    0.000    6.600    0.000    3.200 
#    0.000    3.000    0.000    0.000    0.000    0.000 
#    0.000    0.000    0.000    0.000    0.000    0.000 
#
# Total GULP energy -247766.281219 kJ/mol
# GULP energy per Si atom -12388.314061 kJ/mol
# Density = 2.233445 g / cm^3
# Si number density = 22.385404 Si / 1000 Ang^3
#
#
#
# Elastic Constant Matrix: (Units=GPa)
#
#
# Indices 1 2 3 4 5 6 
#
# 1 106.8815 50.4798 50.1127 0.0000 0.0000 0.0000
# 2 50.4798 101.5214 34.0374 0.0000 0.0000 0.0000
# 3 50.1127 34.0374 96.1154 0.0000 0.0000 0.0000
# 4 0.0000 0.0000 0.0000 26.4398 0.0000 0.0000
# 5 0.0000 0.0000 0.0000 0.0000 22.7246 0.0000
# 6 0.0000 0.0000 0.0000 0.0000 0.0000 29.3948
#
#
#
# Elastic Compliance Matrix: (Units=1/GPa)
#
#
# Indices 1 2 3 4 5 6 
#
# 1 0.014540 -0.005320 -0.005697 0.000000 0.000000 0.000000
# 2 -0.005320 0.013123 -0.001874 0.000000 0.000000 0.000000
# 3 -0.005697 -0.001874 0.014038 0.000000 0.000000 0.000000
# 4 0.000000 0.000000 0.000000 0.037822 0.000000 0.000000
# 5 0.000000 0.000000 0.000000 0.000000 0.044005 0.000000
# 6 0.000000 0.000000 0.000000 0.000000 0.000000 0.034020
#
#
# Mechanical properties :
#
#
# Convention : Reuss Voigt Hill
#
# Bulk Modulus (GPa) = 62.81234 63.75310 63.28272
# Shear Modulus (GPa) = 26.50621 27.03775 26.77198
#
# Velocity S-wave (km/s) = 3.44479 3.47915 3.46201
# Velocity P-wave (km/s) = 6.62891 6.68438 6.65670
#
# Compressibility (1/GPa) = 0.01592044
#
# Stress axis : x y z
#
# Youngs Moduli (GPa) = 68.77763 76.19932 71.23534
#
# Poissons Ratio (x) = 0.40535 0.40582
# Poissons Ratio (y) = 0.36587 0.13349
# Poissons Ratio (z) = 0.39182 0.14279
#
# Static dielectric constant tensor:
#      x y z
#    x 4.127430 0.000000 0.000000 
#    y 0.000000 4.504900 0.000000 
#    z 0.000000 0.000000 3.707540 
# 
# 
# High freq. dielectric constant tensor:
#      x y z
#    x 1.881440 0.000000 0.000000 
#    y 0.000000 1.888320 0.000000 
#    z 0.000000 0.000000 1.862290 
# 
# From -- ./inp_files/3797.got.cif
#   From: 2010.03.12/outbox.cif.g09.slc.cpg/sg36_2_cif.got.tgz:3797.got - 2010.04.14 02:13:53.
