data_PCOD8175468
_publ_section_title
;
Structure prediction by ZEFSAII (Michael W. Deem and Ramdas Pophale) SiO2 
 PCOD8175468
Probable space group: C M C 21
;
_chemical_formula_sum "Si O2"
_cell_formula_units_Z 64
_cell_length_a 8.722889
_cell_length_b 24.635266
_cell_length_c 14.247210
_cell_angle_alpha 90.000000
_cell_angle_beta 90.000000
_cell_angle_gamma 90.000000
_cell_volume 3061.592799
_symmetry_space_group_name_H-M "C M C 21"
_symmetry_group_IT_number 36
_symmetry_cell_setting 'orthorhombic'
loop_
_space_group_symop_operation_xyz
x,y,z
-x,-y,1/2+z
x,-y,1/2+z
-x,y,z
1/2+x,1/2+y,z
1/2-x,1/2-y,1/2+z
1/2+x,1/2-y,1/2+z
1/2-x,1/2+y,z
loop_
_atom_site_type_symbol
_atom_site_label
_atom_site_fract_x
_atom_site_fract_y
_atom_site_fract_z
Si Si1 0.679117 0.049192 0.383070
Si Si2 0.174177 0.842531 0.379970
Si Si3 0.180483 0.910202 0.691217
Si Si4 0.177328 0.950341 0.489502
Si Si5 0.678188 0.819406 0.189151
Si Si6 0.824450 0.865874 0.019710
Si Si7 0.174681 0.706276 0.206257
Si Si8 0.169313 0.725412 0.425560
O O1 0.500000 0.051034 0.362756
O O2 0.761002 0.058161 0.283128
O O3 0.722433 0.095639 0.455850
O O4 0.722208 0.992746 0.431755
O O5 0.215234 0.892265 0.445738
O O6 0.291076 0.838684 0.294333
O O7 0.194156 0.789129 0.443569
O O8 0.000000 0.845346 0.340378
O O9 0.220058 0.947365 0.600083
O O10 0.252659 0.850869 0.676186
O O11 0.000000 0.901723 0.700805
O O12 0.000000 0.966382 0.477157
O O13 0.500000 0.821330 0.167719
O O14 0.736007 0.758435 0.165011
O O15 0.764074 0.864714 0.126017
O O16 0.802949 0.804993 0.981087
O O17 0.000000 0.884735 0.015933
O O18 0.183203 0.710346 0.317446
O O19 0.000000 0.708583 0.170479
O O20 0.000000 0.708049 0.462368
#
# Coordination Sequence:
#
# PCOD8175468 Si02
#       8
#     8   8   8   8   8   8   8   8
#     4  12  26  45  67  93 129 172 216 270 324 379
#     4   9  20  41  64  90 129 169 210 262 322 381
#     4  11  23  41  68  98 126 165 213 264 323 384
#     4  10  24  45  69  97 127 168 216 264 319 385
#     4  11  23  38  60  92 133 175 218 265 322 388
#     4  12  24  39  62  92 126 169 218 267 321 383
#     4  10  20  37  61  92 131 170 211 261 318 379
#     4   9  18  34  59  90 127 166 204 257 317 377
#
# _framework density 20.904152
#
# number of rings (size 3 to 8) (size 9 to 14) (size 15 to 20)
#    0.000    1.500    1.250    4.875    1.750    4.500 
#    0.000    1.250    0.000    0.000    0.000    0.000 
#    0.000    0.000    0.000    0.000    0.000    0.000 
#
# Total GULP energy -396806.042381 kJ/mol
# GULP energy per Si atom -12400.188824 kJ/mol
# Density = 2.085657 g / cm^3
# Si number density = 20.904152 Si / 1000 Ang^3
#
#
#
# Elastic Constant Matrix: (Units=GPa)
#
#
# Indices 1 2 3 4 5 6 
#
# 1 100.0721 28.7139 22.8339 0.0000 0.0000 0.0000
# 2 28.7139 88.4828 41.1854 0.0000 0.0000 0.0000
# 3 22.8339 41.1854 59.5239 0.0000 0.0000 0.0000
# 4 0.0000 0.0000 0.0000 19.4738 0.0000 0.0000
# 5 0.0000 0.0000 0.0000 0.0000 28.3355 0.0000
# 6 0.0000 0.0000 0.0000 0.0000 0.0000 35.2073
#
#
#
# Elastic Compliance Matrix: (Units=1/GPa)
#
#
# Indices 1 2 3 4 5 6 
#
# 1 0.011295 -0.002432 -0.002650 0.000000 0.000000 0.000000
# 2 -0.002432 0.017194 -0.010964 0.000000 0.000000 0.000000
# 3 -0.002650 -0.010964 0.025403 0.000000 0.000000 0.000000
# 4 0.000000 0.000000 0.000000 0.051351 0.000000 0.000000
# 5 0.000000 0.000000 0.000000 0.000000 0.035291 0.000000
# 6 0.000000 0.000000 0.000000 0.000000 0.000000 0.028403
#
#
# Mechanical properties :
#
#
# Convention : Reuss Voigt Hill
#
# Bulk Modulus (GPa) = 45.87179 48.17167 47.02173
# Shear Modulus (GPa) = 24.00421 26.95970 25.48195
#
# Velocity S-wave (km/s) = 3.39233 3.59511 3.49519
# Velocity P-wave (km/s) = 6.11027 6.35037 6.23148
#
# Compressibility (1/GPa) = 0.02179989
#
# Stress axis : x y z
#
# Youngs Moduli (GPa) = 88.53234 58.15957 39.36582
#
# Poissons Ratio (x) = 0.14143 0.10433
# Poissons Ratio (y) = 0.21530 0.43160
# Poissons Ratio (z) = 0.23464 0.63766
#
# Static dielectric constant tensor:
#      x y z
#    x 3.796450 0.000000 0.000000 
#    y 0.000000 4.001160 0.000000 
#    z 0.000000 0.000000 3.834340 
# 
# 
# High freq. dielectric constant tensor:
#      x y z
#    x 1.818830 0.000000 0.000000 
#    y 0.000000 1.815460 0.000000 
#    z 0.000000 0.000000 1.825870 
# 
# From -- ./inp_files/11012.got.cif
#   From: 2010.03.12/outbox.cif.g09.slc.cpg/sg36_6_cif.got.tgz:11012.got - 2010.04.14 02:13:53.
