data_PCOD8175307
_publ_section_title
;
Structure prediction by ZEFSAII (Michael W. Deem and Ramdas Pophale) SiO2 
 PCOD8175307
Probable space group: C M C 21
;
_chemical_formula_sum "Si O2"
_cell_formula_units_Z 56
_cell_length_a 13.350303
_cell_length_b 12.656027
_cell_length_c 17.121107
_cell_angle_alpha 90.000000
_cell_angle_beta 90.000000
_cell_angle_gamma 90.000000
_cell_volume 2892.812975
_symmetry_space_group_name_H-M "C M C 21"
_symmetry_group_IT_number 36
_symmetry_cell_setting 'orthorhombic'
loop_
_space_group_symop_operation_xyz
x,y,z
-x,-y,1/2+z
x,-y,1/2+z
-x,y,z
1/2+x,1/2+y,z
1/2-x,1/2-y,1/2+z
1/2+x,1/2-y,1/2+z
1/2-x,1/2+y,z
loop_
_atom_site_type_symbol
_atom_site_label
_atom_site_fract_x
_atom_site_fract_y
_atom_site_fract_z
Si Si1 0.886443 0.892164 0.662090
Si Si2 0.110794 0.952043 0.833931
Si Si3 0.384086 0.310715 0.341497
Si Si4 0.735290 0.707894 0.683277
Si Si5 0.383262 0.818889 0.552810
Si Si6 0.766699 0.477715 0.079190
Si Si7 0.258064 0.315003 0.940763
O O1 0.880216 0.962739 0.740244
O O2 0.831185 0.782940 0.679230
O O3 0.000000 0.867931 0.637245
O O4 0.835294 0.954145 0.589967
O O5 0.188592 0.868221 0.866999
O O6 0.000000 0.911513 0.856543
O O7 0.128159 0.068415 0.869256
O O8 0.500000 0.283950 0.322170
O O9 0.312080 0.291674 0.268295
O O10 0.346232 0.235680 0.411623
O O11 0.647848 0.744848 0.624775
O O12 0.777712 0.593530 0.657091
O O13 0.500000 0.806756 0.537662
O O14 0.325977 0.778953 0.475430
O O15 0.358824 0.941232 0.571371
O O16 0.763872 0.405131 0.003419
#
# Coordination Sequence:
#
# PCOD8175307 Si02
#       7
#     8   8   8   8   8   8   8
#     4  10  20  36  60  90 118 150 197 250 300 353
#     4  10  20  35  59  87 116 153 197 247 298 355
#     4  11  22  37  60  89 122 160 202 248 303 362
#     4  10  20  38  60  88 118 153 198 251 298 358
#     4  10  22  39  59  85 117 157 199 242 300 363
#     4  10  22  38  60  84 118 157 197 245 299 357
#     4  11  22  39  58  87 123 158 198 249 302 358
#
# _framework density 19.358319999999999
#
# number of rings (size 3 to 8) (size 9 to 14) (size 15 to 20)
#    0.000    1.714    2.857    1.714    0.000    4.000 
#    0.000    8.571    0.000    0.857    0.000    0.000 
#    0.000    0.000    0.000    0.000    0.000    0.000 
#
# Total GULP energy -347202.954463 kJ/mol
# GULP energy per Si atom -12400.105517 kJ/mol
# Density = 1.931426 g / cm^3
# Si number density = 19.358320 Si / 1000 Ang^3
#
#
#
# Elastic Constant Matrix: (Units=GPa)
#
#
# Indices 1 2 3 4 5 6 
#
# 1 84.0178 37.3937 23.4497 0.0000 0.0000 0.0000
# 2 37.3937 99.3000 23.5307 0.0000 0.0000 0.0000
# 3 23.4497 23.5307 67.7707 0.0000 0.0000 0.0000
# 4 0.0000 0.0000 0.0000 37.3463 0.0000 0.0000
# 5 0.0000 0.0000 0.0000 0.0000 24.0036 0.0000
# 6 0.0000 0.0000 0.0000 0.0000 0.0000 26.1393
#
#
#
# Elastic Compliance Matrix: (Units=1/GPa)
#
#
# Indices 1 2 3 4 5 6 
#
# 1 0.015034 -0.004826 -0.003527 0.000000 0.000000 0.000000
# 2 -0.004826 0.012522 -0.002678 0.000000 0.000000 0.000000
# 3 -0.003527 -0.002678 0.016906 0.000000 0.000000 0.000000
# 4 0.000000 0.000000 0.000000 0.026776 0.000000 0.000000
# 5 0.000000 0.000000 0.000000 0.000000 0.041660 0.000000
# 6 0.000000 0.000000 0.000000 0.000000 0.000000 0.038257
#
#
# Mechanical properties :
#
#
# Convention : Reuss Voigt Hill
#
# Bulk Modulus (GPa) = 44.63980 46.64852 45.64416
# Shear Modulus (GPa) = 27.67263 28.61214 28.14239
#
# Velocity S-wave (km/s) = 3.78497 3.84868 3.81696
# Velocity P-wave (km/s) = 6.49701 6.62567 6.56166
#
# Compressibility (1/GPa) = 0.02240153
#
# Stress axis : x y z
#
# Youngs Moduli (GPa) = 66.51435 79.85693 59.15159
#
# Poissons Ratio (x) = 0.38538 0.20860
# Poissons Ratio (y) = 0.32099 0.15841
# Poissons Ratio (z) = 0.23456 0.21386
#
# Static dielectric constant tensor:
#      x y z
#    x 3.413500 0.000000 0.000000 
#    y 0.000000 3.630890 0.000000 
#    z 0.000000 0.000000 3.459660 
# 
# 
# High freq. dielectric constant tensor:
#      x y z
#    x 1.744150 0.000000 0.000000 
#    y 0.000000 1.762740 0.000000 
#    z 0.000000 0.000000 1.751310 
# 
# From -- ./inp_files/12168.got.cif
#   From: 2010.03.12/outbox.cif.g09.slc.cpg/sg36_7_cif.got.tgz:12168.got - 2010.04.14 02:13:53.
