data_PCOD8175887
_publ_section_title
;
Structure prediction by ZEFSAII (Michael W. Deem and Ramdas Pophale) SiO2 
 PCOD8175887
Probable space group: C M C 21
;
_chemical_formula_sum "Si O2"
_cell_formula_units_Z 64
_cell_length_a 9.053443
_cell_length_b 19.356964
_cell_length_c 18.369427
_cell_angle_alpha 90.000000
_cell_angle_beta 90.000000
_cell_angle_gamma 90.000000
_cell_volume 3219.190100
_symmetry_space_group_name_H-M "C M C 21"
_symmetry_group_IT_number 36
_symmetry_cell_setting 'orthorhombic'
loop_
_space_group_symop_operation_xyz
x,y,z
-x,-y,1/2+z
x,-y,1/2+z
-x,y,z
1/2+x,1/2+y,z
1/2-x,1/2-y,1/2+z
1/2+x,1/2-y,1/2+z
1/2-x,1/2+y,z
loop_
_atom_site_type_symbol
_atom_site_label
_atom_site_fract_x
_atom_site_fract_y
_atom_site_fract_z
Si Si1 0.827806 0.622430 0.757340
Si Si2 0.331126 0.560014 0.485842
Si Si3 0.168048 0.074846 0.899051
Si Si4 0.829378 0.522928 0.629523
Si Si5 0.829126 0.367904 0.668820
Si Si6 0.331113 0.673270 0.025125
Si Si7 0.668659 0.806121 0.933433
Si Si8 0.325890 0.722720 0.285216
O O1 0.753102 0.584880 0.824719
O O2 0.779534 0.584246 0.683459
O O3 0.783782 0.702873 0.751123
O O4 0.000000 0.613659 0.770618
O O5 0.500000 0.584341 0.496121
O O6 0.319592 0.504910 0.420986
O O7 0.274979 0.524975 0.559726
O O8 0.227636 0.622911 0.465265
O O9 0.234558 0.122846 0.963006
O O10 0.000000 0.098251 0.886176
O O11 0.804179 0.450005 0.669277
O O12 0.000000 0.531577 0.605727
O O13 0.767067 0.332970 0.596366
O O14 0.745984 0.338008 0.738640
O O15 0.000000 0.348458 0.674806
O O16 0.500000 0.652513 0.043817
O O17 0.321051 0.751796 0.998814
O O18 0.500000 0.815615 0.907364
O O19 0.766019 0.779643 0.866810
O O20 0.500000 0.710823 0.286938
#
# Coordination Sequence:
#
# PCOD8175887 Si02
#       8
#     8   8   8   8   8   8   8   8
#     4  10  23  41  63  89 121 161 206 252 303 362
#     4  11  24  41  63  94 126 160 203 255 310 365
#     4  10  21  40  64  90 120 156 201 249 305 364
#     4  10  23  43  62  89 124 163 207 250 302 364
#     4  11  24  40  63  92 125 164 207 253 304 368
#     4  10  21  41  65  88 119 160 203 252 306 360
#     4  11  24  42  65  90 123 163 205 256 309 366
#     4  11  24  42  63  90 126 163 204 255 307 365
#
# _framework density 19.880776999999998
#
# number of rings (size 3 to 8) (size 9 to 14) (size 15 to 20)
#    0.000    1.500    2.500    1.500    3.500    4.000 
#    0.000    0.000    0.000    0.000    0.000    0.000 
#    0.000    0.000    0.000    0.000    0.000    0.000 
#
# Total GULP energy -396990.128818 kJ/mol
# GULP energy per Si atom -12405.941526 kJ/mol
# Density = 1.983553 g / cm^3
# Si number density = 19.880777 Si / 1000 Ang^3
#
#
#
# Elastic Constant Matrix: (Units=GPa)
#
#
# Indices 1 2 3 4 5 6 
#
# 1 78.9297 44.0607 38.2321 0.0000 0.0000 0.0000
# 2 44.0607 98.2117 19.7310 0.0000 0.0000 0.0000
# 3 38.2321 19.7310 68.1079 0.0000 0.0000 0.0000
# 4 0.0000 0.0000 0.0000 35.8316 0.0000 0.0000
# 5 0.0000 0.0000 0.0000 0.0000 39.2820 0.0000
# 6 0.0000 0.0000 0.0000 0.0000 0.0000 30.9693
#
#
#
# Elastic Compliance Matrix: (Units=1/GPa)
#
#
# Indices 1 2 3 4 5 6 
#
# 1 0.021879 -0.007802 -0.010021 0.000000 0.000000 0.000000
# 2 -0.007802 0.013594 0.000442 0.000000 0.000000 0.000000
# 3 -0.010021 0.000442 0.020180 0.000000 0.000000 0.000000
# 4 0.000000 0.000000 0.000000 0.027908 0.000000 0.000000
# 5 0.000000 0.000000 0.000000 0.000000 0.025457 0.000000
# 6 0.000000 0.000000 0.000000 0.000000 0.000000 0.032290
#
#
# Mechanical properties :
#
#
# Convention : Reuss Voigt Hill
#
# Bulk Modulus (GPa) = 47.87246 49.92188 48.89717
# Shear Modulus (GPa) = 27.31713 30.76497 29.04105
#
# Velocity S-wave (km/s) = 3.71084 3.93806 3.82614
# Velocity P-wave (km/s) = 6.51862 6.77074 6.64588
#
# Compressibility (1/GPa) = 0.02088884
#
# Stress axis : x y z
#
# Youngs Moduli (GPa) = 45.70558 73.56347 49.55374
#
# Poissons Ratio (x) = 0.57397 0.49660
# Poissons Ratio (y) = 0.35661 -0.02189
# Poissons Ratio (z) = 0.45804 -0.03249
#
# Static dielectric constant tensor:
#      x y z
#    x 3.668970 0.000000 0.000000 
#    y 0.000000 3.774580 0.000000 
#    z 0.000000 0.000000 3.556480 
# 
# 
# High freq. dielectric constant tensor:
#      x y z
#    x 1.778310 0.000000 0.000000 
#    y 0.000000 1.788700 0.000000 
#    z 0.000000 0.000000 1.775970 
# 
# From -- ./inp_files/13966.got.cif
#   From: 2010.03.12/outbox.cif.g09.slc.cpg/sg36_7_cif.got.tgz:13966.got - 2010.04.14 02:13:53.
