data_PCOD8175894
_publ_section_title
;
Structure prediction by ZEFSAII (Michael W. Deem and Ramdas Pophale) SiO2 
 PCOD8175894
Probable space group: C M C 21
;
_chemical_formula_sum "Si O2"
_cell_formula_units_Z 48
_cell_length_a 7.538084
_cell_length_b 21.121486
_cell_length_c 15.631086
_cell_angle_alpha 90.000000
_cell_angle_beta 90.000000
_cell_angle_gamma 90.000000
_cell_volume 2488.711731
_symmetry_space_group_name_H-M "C M C 21"
_symmetry_group_IT_number 36
_symmetry_cell_setting 'orthorhombic'
loop_
_space_group_symop_operation_xyz
x,y,z
-x,-y,1/2+z
x,-y,1/2+z
-x,y,z
1/2+x,1/2+y,z
1/2-x,1/2-y,1/2+z
1/2+x,1/2-y,1/2+z
1/2-x,1/2+y,z
loop_
_atom_site_type_symbol
_atom_site_label
_atom_site_fract_x
_atom_site_fract_y
_atom_site_fract_z
Si Si1 0.500000 0.651867 0.538580
Si Si2 0.500000 0.784815 0.466969
Si Si3 0.705381 0.048989 0.516414
Si Si4 0.000000 0.217955 0.719847
Si Si5 0.700270 0.452171 0.664808
Si Si6 0.304300 0.157290 0.824540
Si Si7 0.000000 0.649500 0.148079
Si Si8 0.209303 0.514861 0.839028
O O1 0.500000 0.708797 0.470457
O O2 0.322461 0.611339 0.527449
O O3 0.500000 0.682731 0.630711
O O4 0.675968 0.808116 0.416477
O O5 0.500000 0.820000 0.555840
O O6 0.500000 0.069274 0.510740
O O7 0.730583 0.004005 0.597933
O O8 0.768217 0.014507 0.429602
O O9 0.177477 0.198951 0.767659
O O10 0.000000 0.293849 0.716078
O O11 0.500000 0.432310 0.641262
O O12 0.823314 0.390974 0.660876
O O13 0.698654 0.479250 0.760766
O O14 0.500000 0.153194 0.780121
O O15 0.225328 0.087339 0.838240
O O16 0.000000 0.509931 0.827665
#
# Coordination Sequence:
#
# PCOD8175894 Si02
#       8
#     4   4   8   4   8   8   4   8
#     4  11  24  41  62  98 128 164 210 266 314 385
#     4   9  22  47  62  85 132 167 210 269 304 372
#     4  11  23  41  65  95 132 167 205 263 328 375
#     4  11  24  41  66  89 122 171 218 255 318 376
#     4  12  24  39  65  97 129 167 208 266 325 375
#     4   9  21  41  66  88 121 165 215 258 303 379
#     4  11  24  45  60  90 134 164 210 266 316 389
#     4  10  21  40  65  96 126 167 210 262 324 383
#
# _framework density 19.287088000000001
#
# number of rings (size 3 to 8) (size 9 to 14) (size 15 to 20)
#    0.500    1.000    2.500    2.000    2.333    4.000 
#    6.000    1.667    0.000    0.000    0.000    0.000 
#    0.000    0.000    0.000    0.000    0.000    0.000 
#
# Total GULP energy -297591.803775 kJ/mol
# GULP energy per Si atom -12399.658491 kJ/mol
# Density = 1.924319 g / cm^3
# Si number density = 19.287088 Si / 1000 Ang^3
#
#
#
# Elastic Constant Matrix: (Units=GPa)
#
#
# Indices 1 2 3 4 5 6 
#
# 1 108.5514 64.7462 27.0754 0.0000 0.0000 0.0000
# 2 64.7462 170.2861 53.3417 0.0000 0.0000 0.0000
# 3 27.0754 53.3417 95.4375 0.0000 0.0000 0.0000
# 4 0.0000 0.0000 0.0000 33.7376 0.0000 0.0000
# 5 0.0000 0.0000 0.0000 0.0000 5.1100 0.0000
# 6 0.0000 0.0000 0.0000 0.0000 0.0000 14.3793
#
#
#
# Elastic Compliance Matrix: (Units=1/GPa)
#
#
# Indices 1 2 3 4 5 6 
#
# 1 0.011998 -0.004238 -0.001035 0.000000 0.000000 0.000000
# 2 -0.004238 0.008615 -0.003613 0.000000 0.000000 0.000000
# 3 -0.001035 -0.003613 0.012791 0.000000 0.000000 0.000000
# 4 0.000000 0.000000 0.000000 0.029640 0.000000 0.000000
# 5 0.000000 0.000000 0.000000 0.000000 0.195695 0.000000
# 6 0.000000 0.000000 0.000000 0.000000 0.000000 0.069544
#
#
# Mechanical properties :
#
#
# Convention : Reuss Voigt Hill
#
# Bulk Modulus (GPa) = 63.96898 73.84462 68.90680
# Shear Modulus (GPa) = 14.23418 25.91951 20.07685
#
# Velocity S-wave (km/s) = 2.71959 3.66987 3.22987
# Velocity P-wave (km/s) = 6.56508 7.50516 7.05081
#
# Compressibility (1/GPa) = 0.01563258
#
# Stress axis : x y z
#
# Youngs Moduli (GPa) = 83.34735 116.07001 78.17844
#
# Poissons Ratio (x) = 0.49185 0.08094
# Poissons Ratio (y) = 0.35319 0.28247
# Poissons Ratio (z) = 0.08629 0.41938
#
# Static dielectric constant tensor:
#      x y z
#    x 3.565450 0.000000 0.000000 
#    y 0.000000 3.669180 0.000000 
#    z 0.000000 0.000000 3.637850 
# 
# 
# High freq. dielectric constant tensor:
#      x y z
#    x 1.752820 0.000000 0.000000 
#    y 0.000000 1.752370 0.000000 
#    z 0.000000 0.000000 1.758690 
# 
# From -- ./inp_files/10505.got.cif
#   From: 2010.03.12/outbox.cif.g09.slc.cpg/sg36_6_cif.got.tgz:10505.got - 2010.04.14 02:13:53.
