data_PCOD8175086
_publ_section_title
;
Structure prediction by ZEFSAII (Michael W. Deem and Ramdas Pophale) SiO2 
 PCOD8175086
Probable space group: C M C 21
;
_chemical_formula_sum "Si O2"
_cell_formula_units_Z 64
_cell_length_a 8.794061
_cell_length_b 14.092207
_cell_length_c 27.861756
_cell_angle_alpha 90.000000
_cell_angle_beta 90.000000
_cell_angle_gamma 90.000000
_cell_volume 3452.844119
_symmetry_space_group_name_H-M "C M C 21"
_symmetry_group_IT_number 36
_symmetry_cell_setting 'orthorhombic'
loop_
_space_group_symop_operation_xyz
x,y,z
-x,-y,1/2+z
x,-y,1/2+z
-x,y,z
1/2+x,1/2+y,z
1/2-x,1/2-y,1/2+z
1/2+x,1/2-y,1/2+z
1/2-x,1/2+y,z
loop_
_atom_site_type_symbol
_atom_site_label
_atom_site_fract_x
_atom_site_fract_y
_atom_site_fract_z
Si Si1 0.326901 0.016354 0.036530
Si Si2 0.823716 0.993768 0.136412
Si Si3 0.177658 0.338083 0.455488
Si Si4 0.321433 0.001643 0.785871
Si Si5 0.322388 0.852414 0.203310
Si Si6 0.176782 0.364815 0.956266
Si Si7 0.679204 0.514532 0.888115
Si Si8 0.820388 0.140156 0.217221
O O1 0.500000 0.019020 0.054438
O O2 0.218865 0.016091 0.082072
O O3 0.287419 0.109438 0.005558
O O4 0.296466 0.922970 0.004989
O O5 0.745632 0.897791 0.155106
O O6 0.000000 0.974809 0.139529
O O7 0.775964 0.082836 0.169269
O O8 0.226481 0.230075 0.460521
O O9 0.271691 0.387364 0.413016
O O10 0.000000 0.346110 0.442690
O O11 0.500000 0.998331 0.797508
O O12 0.278317 0.086392 0.749748
O O13 0.225046 0.021337 0.833012
O O14 0.268559 0.902512 0.762697
O O15 0.500000 0.848827 0.195035
O O16 0.258944 0.746592 0.210340
O O17 0.234688 0.425233 0.911202
O O18 0.000000 0.341249 0.948384
O O19 0.500000 0.499910 0.893574
O O20 0.000000 0.136612 0.227788
#
# Coordination Sequence:
#
# PCOD8175086 Si02
#       8
#     8   8   8   8   8   8   8   8
#     4   9  20  37  55  76 108 144 178 217 265 322
#     4  10  20  33  53  79 107 137 176 223 266 314
#     4  10  21  38  58  82 111 143 180 225 273 325
#     4  10  20  35  55  79 106 138 177 223 270 321
#     4   9  19  36  56  75 103 141 177 216 267 321
#     4  10  21  38  58  81 108 141 182 228 273 323
#     4  11  22  37  57  80 110 147 182 223 270 322
#     4   9  19  36  54  76 105 139 178 219 266 322
#
# _framework density 18.535443999999998
#
# number of rings (size 3 to 8) (size 9 to 14) (size 15 to 20)
#    0.000    2.250    0.000    3.375    0.000    6.500 
#    0.000    7.500    0.000    0.000    0.000    0.000 
#    0.000    0.000    0.000    0.000    0.000    0.000 
#
# Total GULP energy -396920.070285 kJ/mol
# GULP energy per Si atom -12403.752196 kJ/mol
# Density = 1.849326 g / cm^3
# Si number density = 18.535444 Si / 1000 Ang^3
#
#
#
# Elastic Constant Matrix: (Units=GPa)
#
#
# Indices 1 2 3 4 5 6 
#
# 1 47.6683 17.1123 30.6296 0.0000 0.0000 0.0000
# 2 17.1123 117.9049 31.2964 0.0000 0.0000 0.0000
# 3 30.6296 31.2964 98.2498 0.0000 0.0000 0.0000
# 4 0.0000 0.0000 0.0000 13.4050 0.0000 0.0000
# 5 0.0000 0.0000 0.0000 0.0000 35.3385 0.0000
# 6 0.0000 0.0000 0.0000 0.0000 0.0000 31.9138
#
#
#
# Elastic Compliance Matrix: (Units=1/GPa)
#
#
# Indices 1 2 3 4 5 6 
#
# 1 0.026583 -0.001812 -0.007710 0.000000 0.000000 0.000000
# 2 -0.001812 0.009388 -0.002426 0.000000 0.000000 0.000000
# 3 -0.007710 -0.002426 0.013355 0.000000 0.000000 0.000000
# 4 0.000000 0.000000 0.000000 0.074599 0.000000 0.000000
# 5 0.000000 0.000000 0.000000 0.000000 0.028298 0.000000
# 6 0.000000 0.000000 0.000000 0.000000 0.000000 0.031334
#
#
# Mechanical properties :
#
#
# Convention : Reuss Voigt Hill
#
# Bulk Modulus (GPa) = 39.32281 46.87774 43.10027
# Shear Modulus (GPa) = 23.15578 28.45043 25.80310
#
# Velocity S-wave (km/s) = 3.53834 3.92206 3.73513
# Velocity P-wave (km/s) = 6.16069 6.77169 6.47340
#
# Compressibility (1/GPa) = 0.02543053
#
# Stress axis : x y z
#
# Youngs Moduli (GPa) = 37.61824 106.51646 74.88108
#
# Poissons Ratio (x) = 0.19296 0.57735
# Poissons Ratio (y) = 0.06815 0.18164
# Poissons Ratio (z) = 0.29004 0.25838
#
# Static dielectric constant tensor:
#      x y z
#    x 3.404930 0.000000 0.000000 
#    y 0.000000 3.535700 0.000000 
#    z 0.000000 0.000000 3.353060 
# 
# 
# High freq. dielectric constant tensor:
#      x y z
#    x 1.725980 0.000000 0.000000 
#    y 0.000000 1.722490 0.000000 
#    z 0.000000 0.000000 1.718680 
# 
# From -- ./inp_files/16677.got.cif
#   From: 2010.03.12/outbox.cif.g09.slc.cpg/sg36_9_cif.got.tgz:16677.got - 2010.04.14 02:13:53.
