data_PCOD8175096
_publ_section_title
;
Structure prediction by ZEFSAII (Michael W. Deem and Ramdas Pophale) SiO2 
 PCOD8175096
Probable space group: C M C 21
;
_chemical_formula_sum "Si O2"
_cell_formula_units_Z 64
_cell_length_a 17.633550
_cell_length_b 9.404409
_cell_length_c 18.926311
_cell_angle_alpha 90.000000
_cell_angle_beta 90.000000
_cell_angle_gamma 90.000000
_cell_volume 3138.609134
_symmetry_space_group_name_H-M "C M C 21"
_symmetry_group_IT_number 36
_symmetry_cell_setting 'orthorhombic'
loop_
_space_group_symop_operation_xyz
x,y,z
-x,-y,1/2+z
x,-y,1/2+z
-x,y,z
1/2+x,1/2+y,z
1/2-x,1/2-y,1/2+z
1/2+x,1/2-y,1/2+z
1/2-x,1/2+y,z
loop_
_atom_site_type_symbol
_atom_site_label
_atom_site_fract_x
_atom_site_fract_y
_atom_site_fract_z
Si Si1 0.089700 0.270601 0.295630
Si Si2 0.911395 0.516855 0.916252
Si Si3 0.691575 0.471162 0.822560
Si Si4 0.332733 0.785755 0.145136
Si Si5 0.667267 0.785755 0.842437
Si Si6 0.911395 0.483145 0.571321
Si Si7 0.691575 0.528839 0.665014
Si Si8 0.089700 0.270602 0.691943
O O1 0.120488 0.380088 0.354913
O O2 0.110869 0.112112 0.322045
O O3 0.136505 0.303866 0.224861
O O4 0.000000 0.282926 0.281525
O O5 0.893475 0.353621 0.895964
O O6 0.000000 0.538895 0.920014
O O7 0.876752 0.553231 0.993786
O O8 0.679807 0.620609 0.862950
O O9 0.755137 0.371498 0.857274
O O10 0.720028 0.500001 0.743787
O O11 0.320192 0.620608 0.124624
O O12 0.255136 0.871496 0.130300
O O13 0.393473 0.853621 0.091608
O O14 0.636506 0.803866 0.762711
O O15 0.879512 0.380088 0.632659
O O16 0.000000 0.461110 0.567560
O O17 0.610869 0.612112 0.665528
O O18 0.000000 0.282928 0.706048
#
# Coordination Sequence:
#
# PCOD8175096 Si02
#       8
#     8   8   8   8   8   8   8   8
#     4  10  20  35  57  83 109 141 179 218 266 320
#     4  10  21  37  56  79 108 140 176 220 267 317
#     4  10  20  33  55  83 111 139 175 225 269 308
#     4  11  20  35  57  80 108 143 180 220 265 316
#     4  11  20  35  57  80 108 143 180 220 265 316
#     4  10  21  37  56  79 108 140 176 220 267 317
#     4  10  20  33  55  83 111 139 175 225 269 308
#     4  10  20  35  57  83 109 141 179 218 266 320
#
# _framework density 20.391196999999998
#
# number of rings (size 3 to 8) (size 9 to 14) (size 15 to 20)
#    0.000    1.750    0.000    7.500    0.000    7.500 
#    0.000    6.250    0.000    3.000    0.000    0.000 
#    0.000    0.000    0.000    0.000    0.000    0.000 
#
# Total GULP energy -396667.539052 kJ/mol
# GULP energy per Si atom -12395.860595 kJ/mol
# Density = 2.034479 g / cm^3
# Si number density = 20.391197 Si / 1000 Ang^3
#
#
#
# Elastic Constant Matrix: (Units=GPa)
#
#
# Indices 1 2 3 4 5 6 
#
# 1 55.5612 38.3514 23.6825 0.0000 0.0000 0.0000
# 2 38.3514 138.9343 39.8778 0.0000 0.0000 0.0000
# 3 23.6825 39.8778 81.4027 0.0000 0.0000 0.0000
# 4 0.0000 0.0000 0.0000 9.1973 0.0000 0.0000
# 5 0.0000 0.0000 0.0000 0.0000 11.3545 0.0000
# 6 0.0000 0.0000 0.0000 0.0000 0.0000 39.4831
#
#
#
# Elastic Compliance Matrix: (Units=1/GPa)
#
#
# Indices 1 2 3 4 5 6 
#
# 1 0.023431 -0.005249 -0.004245 0.000000 0.000000 0.000000
# 2 -0.005249 0.009551 -0.003152 0.000000 0.000000 0.000000
# 3 -0.004245 -0.003152 0.015064 0.000000 0.000000 0.000000
# 4 0.000000 0.000000 0.000000 0.108727 0.000000 0.000000
# 5 0.000000 0.000000 0.000000 0.000000 0.088070 0.000000
# 6 0.000000 0.000000 0.000000 0.000000 0.000000 0.025327
#
#
# Mechanical properties :
#
#
# Convention : Reuss Voigt Hill
#
# Bulk Modulus (GPa) = 43.94981 53.30239 48.62610
# Shear Modulus (GPa) = 16.49900 23.60608 20.05254
#
# Velocity S-wave (km/s) = 2.84760 3.40613 3.13931
# Velocity P-wave (km/s) = 5.69314 6.45489 6.08595
#
# Compressibility (1/GPa) = 0.02275323
#
# Stress axis : x y z
#
# Youngs Moduli (GPa) = 42.67826 104.69713 66.38475
#
# Poissons Ratio (x) = 0.54960 0.28182
# Poissons Ratio (y) = 0.22404 0.20923
# Poissons Ratio (z) = 0.18118 0.32999
#
# Static dielectric constant tensor:
#      x y z
#    x 3.574150 0.000000 0.000000 
#    y 0.000000 4.042820 0.000000 
#    z 0.000000 0.000000 3.787980 
# 
# 
# High freq. dielectric constant tensor:
#      x y z
#    x 1.797310 0.000000 0.000000 
#    y 0.000000 1.806770 0.000000 
#    z 0.000000 0.000000 1.759600 
# 
# From -- ./inp_files/16246.got.cif
#   From: 2010.03.12/outbox.cif.g09.slc.cpg/sg36_9_cif.got.tgz:16246.got - 2010.04.14 02:13:53.
