data_PCOD8175961
_publ_section_title
;
Structure prediction by ZEFSAII (Michael W. Deem and Ramdas Pophale) SiO2 
 PCOD8175961
Probable space group: C M C 21
;
_chemical_formula_sum "Si O2"
_cell_formula_units_Z 64
_cell_length_a 8.436489
_cell_length_b 18.424003
_cell_length_c 20.491943
_cell_angle_alpha 90.000000
_cell_angle_beta 90.000000
_cell_angle_gamma 90.000000
_cell_volume 3185.142591
_symmetry_space_group_name_H-M "C M C 21"
_symmetry_group_IT_number 36
_symmetry_cell_setting 'orthorhombic'
loop_
_space_group_symop_operation_xyz
x,y,z
-x,-y,1/2+z
x,-y,1/2+z
-x,y,z
1/2+x,1/2+y,z
1/2-x,1/2-y,1/2+z
1/2+x,1/2-y,1/2+z
1/2-x,1/2+y,z
loop_
_atom_site_type_symbol
_atom_site_label
_atom_site_fract_x
_atom_site_fract_y
_atom_site_fract_z
Si Si1 0.814941 0.552175 0.058890
Si Si2 0.188768 0.459764 0.803224
Si Si3 0.685720 0.203542 0.300391
Si Si4 0.185197 0.693522 0.445432
Si Si5 0.316533 0.709992 0.066991
Si Si6 0.813972 0.544159 0.678016
Si Si7 0.816392 0.963427 0.943300
Si Si8 0.684309 0.702389 0.683518
O O1 0.715106 0.625373 0.061027
O O2 0.747553 0.500911 0.116630
O O3 0.000000 0.569893 0.067712
O O4 0.788069 0.512956 0.990420
O O5 0.246233 0.378093 0.786506
O O6 0.252979 0.511747 0.745798
O O7 0.269959 0.485453 0.869911
O O8 0.000000 0.462738 0.812262
O O9 0.500000 0.204884 0.288395
O O10 0.730272 0.226303 0.374342
O O11 0.759524 0.260187 0.248542
O O12 0.231540 0.753041 0.498592
O O13 0.282437 0.620598 0.458735
O O14 0.000000 0.672648 0.446889
O O15 0.500000 0.724481 0.083018
O O16 0.209305 0.743620 0.123432
O O17 0.772216 0.627713 0.669711
O O18 0.000000 0.535042 0.678449
O O19 0.000000 0.979886 0.955409
O O20 0.500000 0.685504 0.692007
#
# Coordination Sequence:
#
# PCOD8175961 Si02
#       8
#     8   8   8   8   8   8   8   8
#     4  11  23  40  60  81 111 151 191 233 285 340
#     4   9  18  37  61  81 108 149 191 230 280 338
#     4   8  16  34  58  80 104 142 188 225 267 328
#     4   9  19  38  60  80 109 149 186 223 274 332
#     4  11  23  38  58  84 113 145 186 237 286 336
#     4  10  22  39  59  83 112 149 192 236 282 334
#     4  11  22  36  57  87 118 147 186 232 276 330
#     4  11  22  36  57  84 115 150 186 230 284 340
#
# _framework density 20.093291000000001
#
# number of rings (size 3 to 8) (size 9 to 14) (size 15 to 20)
#    0.000    2.000    0.000    4.500    0.000    8.500 
#    0.000    8.750    0.000    0.000    0.000    0.000 
#    0.000    0.000    0.000    0.000    0.000    0.000 
#
# Total GULP energy -396873.565682 kJ/mol
# GULP energy per Si atom -12402.298928 kJ/mol
# Density = 2.004756 g / cm^3
# Si number density = 20.093291 Si / 1000 Ang^3
#
#
#
# Elastic Constant Matrix: (Units=GPa)
#
#
# Indices 1 2 3 4 5 6 
#
# 1 35.0877 2.3812 12.3315 0.0000 0.0000 0.0000
# 2 2.3812 102.7880 68.4958 0.0000 0.0000 0.0000
# 3 12.3315 68.4958 136.4839 0.0000 0.0000 0.0000
# 4 0.0000 0.0000 0.0000 45.4237 0.0000 0.0000
# 5 0.0000 0.0000 0.0000 0.0000 20.0100 0.0000
# 6 0.0000 0.0000 0.0000 0.0000 0.0000 24.6002
#
#
#
# Elastic Compliance Matrix: (Units=1/GPa)
#
#
# Indices 1 2 3 4 5 6 
#
# 1 0.029619 0.001648 -0.003503 0.000000 0.000000 0.000000
# 2 0.001648 0.014709 -0.007531 0.000000 0.000000 0.000000
# 3 -0.003503 -0.007531 0.011423 0.000000 0.000000 0.000000
# 4 0.000000 0.000000 0.000000 0.022015 0.000000 0.000000
# 5 0.000000 0.000000 0.000000 0.000000 0.049975 0.000000
# 6 0.000000 0.000000 0.000000 0.000000 0.000000 0.040650
#
#
# Mechanical properties :
#
#
# Convention : Reuss Voigt Hill
#
# Bulk Modulus (GPa) = 27.04188 48.97516 38.00852
# Shear Modulus (GPa) = 25.06401 30.75018 27.90710
#
# Velocity S-wave (km/s) = 3.53566 3.91624 3.73081
# Velocity P-wave (km/s) = 5.49138 6.69896 6.12500
#
# Compressibility (1/GPa) = 0.03697968
#
# Stress axis : x y z
#
# Youngs Moduli (GPa) = 33.76160 67.98606 87.54433
#
# Poissons Ratio (x) = -0.11207 0.30671
# Poissons Ratio (y) = -0.05565 0.65927
# Poissons Ratio (z) = 0.11828 0.51199
#
# Static dielectric constant tensor:
#      x y z
#    x 3.368750 0.000000 0.000000 
#    y 0.000000 3.617120 0.000000 
#    z 0.000000 0.000000 3.984310 
# 
# 
# High freq. dielectric constant tensor:
#      x y z
#    x 1.764950 0.000000 0.000000 
#    y 0.000000 1.782590 0.000000 
#    z 0.000000 0.000000 1.801780 
# 
# From -- ./inp_files/15666.got.cif
#   From: 2010.03.12/outbox.cif.g09.slc.cpg/sg36_8_cif.got.tgz:15666.got - 2010.04.14 02:13:53.
