data_PCOD8175166
_publ_section_title
;
Structure prediction by ZEFSAII (Michael W. Deem and Ramdas Pophale) SiO2 
 PCOD8175166
Probable space group: C M C 21
;
_chemical_formula_sum "Si O2"
_cell_formula_units_Z 64
_cell_length_a 8.856475
_cell_length_b 19.847692
_cell_length_c 19.685876
_cell_angle_alpha 90.000000
_cell_angle_beta 90.000000
_cell_angle_gamma 90.000000
_cell_volume 3460.394859
_symmetry_space_group_name_H-M "C M C 21"
_symmetry_group_IT_number 36
_symmetry_cell_setting 'orthorhombic'
loop_
_space_group_symop_operation_xyz
x,y,z
-x,-y,1/2+z
x,-y,1/2+z
-x,y,z
1/2+x,1/2+y,z
1/2-x,1/2-y,1/2+z
1/2+x,1/2-y,1/2+z
1/2-x,1/2+y,z
loop_
_atom_site_type_symbol
_atom_site_label
_atom_site_fract_x
_atom_site_fract_y
_atom_site_fract_z
Si Si1 0.824502 0.316199 0.203250
Si Si2 0.323884 0.458286 0.979446
Si Si3 0.172169 0.570597 0.806004
Si Si4 0.824130 0.105724 0.942363
Si Si5 0.178092 0.656076 0.551591
Si Si6 0.675441 0.777582 0.808127
Si Si7 0.177931 0.740304 0.948375
Si Si8 0.671953 0.925187 0.842105
O O1 0.793437 0.389232 0.237008
O O2 0.768672 0.320489 0.125855
O O3 0.730064 0.257544 0.239263
O O4 0.000000 0.297083 0.207724
O O5 0.500000 0.446655 0.990481
O O6 0.281359 0.537335 0.982326
O O7 0.280898 0.427008 0.906712
O O8 0.233733 0.420334 0.039003
O O9 0.283680 0.598076 0.863298
O O10 0.199616 0.490562 0.794208
O O11 0.000000 0.583717 0.830235
O O12 0.731046 0.167118 0.975347
O O13 0.000000 0.122060 0.948387
O O14 0.250540 0.702899 0.494888
O O15 0.000000 0.659017 0.544599
O O16 0.500000 0.762033 0.820581
O O17 0.768613 0.748154 0.871014
O O18 0.705547 0.857609 0.799557
O O19 0.000000 0.746363 0.952252
O O20 0.500000 0.924559 0.869534
#
# Coordination Sequence:
#
# PCOD8175166 Si02
#       8
#     8   8   8   8   8   8   8   8
#     4  10  22  38  57  81 113 153 192 236 286 345
#     4  10  20  34  55  83 113 145 185 232 283 340
#     4   9  17  33  55  80 109 144 184 226 276 335
#     4  10  20  34  55  85 115 143 182 234 287 337
#     4  11  23  39  57  80 115 157 197 236 289 343
#     4  11  21  34  56  85 116 150 187 236 287 338
#     4  12  23  36  57  84 113 150 195 243 289 337
#     4   9  18  32  54  82 112 144 182 229 279 329
#
# _framework density 18.494999
#
# number of rings (size 3 to 8) (size 9 to 14) (size 15 to 20)
#    0.000    1.750    2.500    2.625    0.000    3.000 
#    0.000    1.250    0.000    1.500    0.000    0.000 
#    0.000    0.000    0.000    0.000    0.000    0.000 
#
# Total GULP energy -396842.121622 kJ/mol
# GULP energy per Si atom -12401.316301 kJ/mol
# Density = 1.845290 g / cm^3
# Si number density = 18.494999 Si / 1000 Ang^3
#
#
#
# Elastic Constant Matrix: (Units=GPa)
#
#
# Indices 1 2 3 4 5 6 
#
# 1 69.8048 27.7759 16.6963 0.0000 0.0000 0.0000
# 2 27.7759 102.9231 13.7404 0.0000 0.0000 0.0000
# 3 16.6963 13.7404 48.1786 0.0000 0.0000 0.0000
# 4 0.0000 0.0000 0.0000 20.2536 0.0000 0.0000
# 5 0.0000 0.0000 0.0000 0.0000 24.6548 0.0000
# 6 0.0000 0.0000 0.0000 0.0000 0.0000 29.3302
#
#
#
# Elastic Compliance Matrix: (Units=1/GPa)
#
#
# Indices 1 2 3 4 5 6 
#
# 1 0.017045 -0.003962 -0.004777 0.000000 0.000000 0.000000
# 2 -0.003962 0.011022 -0.001770 0.000000 0.000000 0.000000
# 3 -0.004777 -0.001770 0.022916 0.000000 0.000000 0.000000
# 4 0.000000 0.000000 0.000000 0.049374 0.000000 0.000000
# 5 0.000000 0.000000 0.000000 0.000000 0.040560 0.000000
# 6 0.000000 0.000000 0.000000 0.000000 0.000000 0.034095
#
#
# Mechanical properties :
#
#
# Convention : Reuss Voigt Hill
#
# Bulk Modulus (GPa) = 33.37312 37.48129 35.42720
# Shear Modulus (GPa) = 24.26972 25.69397 24.98184
#
# Velocity S-wave (km/s) = 3.62640 3.73129 3.67922
# Velocity P-wave (km/s) = 5.96808 6.23482 6.10291
#
# Compressibility (1/GPa) = 0.02996423
#
# Stress axis : x y z
#
# Youngs Moduli (GPa) = 58.66888 90.73096 43.63688
#
# Poissons Ratio (x) = 0.35949 0.20845
# Poissons Ratio (y) = 0.23246 0.07725
# Poissons Ratio (z) = 0.28025 0.16062
#
# Static dielectric constant tensor:
#      x y z
#    x 3.445110 0.000000 0.000000 
#    y 0.000000 3.808750 0.000000 
#    z 0.000000 0.000000 3.126090 
# 
# 
# High freq. dielectric constant tensor:
#      x y z
#    x 1.724900 0.000000 0.000000 
#    y 0.000000 1.737730 0.000000 
#    z 0.000000 0.000000 1.677590 
# 
# From -- ./inp_files/13915.got.cif
#   From: 2010.03.12/outbox.cif.g09.slc.cpg/sg36_7_cif.got.tgz:13915.got - 2010.04.14 02:13:53.
