data_PCOD8175184
_publ_section_title
;
Structure prediction by ZEFSAII (Michael W. Deem and Ramdas Pophale) SiO2 
 PCOD8175184
Probable space group: C M C 21
;
_chemical_formula_sum "Si O2"
_cell_formula_units_Z 64
_cell_length_a 8.805520
_cell_length_b 18.083005
_cell_length_c 20.570274
_cell_angle_alpha 90.000000
_cell_angle_beta 90.000000
_cell_angle_gamma 90.000000
_cell_volume 3275.410122
_symmetry_space_group_name_H-M "C M C 21"
_symmetry_group_IT_number 36
_symmetry_cell_setting 'orthorhombic'
loop_
_space_group_symop_operation_xyz
x,y,z
-x,-y,1/2+z
x,-y,1/2+z
-x,y,z
1/2+x,1/2+y,z
1/2-x,1/2-y,1/2+z
1/2+x,1/2-y,1/2+z
1/2-x,1/2+y,z
loop_
_atom_site_type_symbol
_atom_site_label
_atom_site_fract_x
_atom_site_fract_y
_atom_site_fract_z
Si Si1 0.168181 0.837326 0.680560
Si Si2 0.679597 0.331031 0.823591
Si Si3 0.169635 0.338163 0.185527
Si Si4 0.176737 0.173774 0.817453
Si Si5 0.673292 0.340007 0.055452
Si Si6 0.328389 0.835423 0.552884
Si Si7 0.824521 0.076379 0.942011
Si Si8 0.677624 0.079478 0.437241
O O1 0.225798 0.862017 0.752058
O O2 0.161881 0.749401 0.681363
O O3 0.281256 0.865315 0.624431
O O4 0.000000 0.869226 0.666393
O O5 0.500000 0.319356 0.827743
O O6 0.754596 0.252233 0.838675
O O7 0.732249 0.391324 0.874955
O O8 0.248553 0.360927 0.252962
O O9 0.266665 0.369113 0.125030
O O10 0.000000 0.371941 0.183192
O O11 0.209496 0.115924 0.874171
O O12 0.000000 0.185728 0.804197
O O13 0.500000 0.366385 0.046730
O O14 0.686629 0.252304 0.050077
O O15 0.777873 0.374333 0.000346
O O16 0.500000 0.861268 0.539140
O O17 0.215108 0.868031 0.499974
O O18 0.000000 0.053284 0.947735
O O19 0.718713 0.005420 0.948239
O O20 0.500000 0.088481 0.424743
#
# Coordination Sequence:
#
# PCOD8175184 Si02
#       8
#     8   8   8   8   8   8   8   8
#     4   8  16  31  53  81 111 142 176 219 269 320
#     4  10  20  36  59  85 113 145 182 225 275 329
#     4   9  17  31  54  84 115 144 179 225 273 322
#     4  10  20  35  58  86 112 143 185 229 275 327
#     4  10  20  36  59  85 114 146 182 225 272 326
#     4  10  20  34  57  86 112 141 180 225 270 321
#     4  11  24  40  56  76 109 149 186 227 274 326
#     4  12  25  39  56  79 110 146 186 231 276 327
#
# _framework density 19.539539000000001
#
# number of rings (size 3 to 8) (size 9 to 14) (size 15 to 20)
#    0.000    2.000    0.000    4.875    0.000    9.000 
#    0.000    1.250    0.000    4.500    0.000    0.000 
#    0.000    0.000    0.000    0.000    0.000    0.000 
#
# Total GULP energy -396863.918746 kJ/mol
# GULP energy per Si atom -12401.997461 kJ/mol
# Density = 1.949507 g / cm^3
# Si number density = 19.539539 Si / 1000 Ang^3
#
#
#
# Elastic Constant Matrix: (Units=GPa)
#
#
# Indices 1 2 3 4 5 6 
#
# 1 83.7404 27.9668 47.2386 0.0000 0.0000 0.0000
# 2 27.9668 36.1786 26.9116 0.0000 0.0000 0.0000
# 3 47.2386 26.9116 138.4472 0.0000 0.0000 0.0000
# 4 0.0000 0.0000 0.0000 -4.1633 0.0000 0.0000
# 5 0.0000 0.0000 0.0000 0.0000 37.6710 0.0000
# 6 0.0000 0.0000 0.0000 0.0000 0.0000 23.3301
#
#
#
# Elastic Compliance Matrix: (Units=1/GPa)
#
#
# Indices 1 2 3 4 5 6 
#
# 1 0.017787 -0.010796 -0.003970 0.000000 0.000000 0.000000
# 2 -0.010796 0.038866 -0.003871 0.000000 0.000000 0.000000
# 3 -0.003970 -0.003871 0.009330 0.000000 0.000000 0.000000
# 4 0.000000 0.000000 0.000000 -0.240191 0.000000 0.000000
# 5 0.000000 0.000000 0.000000 0.000000 0.026546 0.000000
# 6 0.000000 0.000000 0.000000 0.000000 0.000000 0.042863
#
#
# Mechanical properties :
#
#
# Convention : Reuss Voigt Hill
#
# Bulk Modulus (GPa) = 34.83406 51.40002 43.11704
# Shear Modulus (GPa) = -86.27429 21.78417 -32.24506
#
# Velocity S-wave (km/s) = -6.65203 3.34260 -4.06673
# Velocity P-wave (km/s) = 6.41352 6.42340 0.25181
#
# Compressibility (1/GPa) = 0.02870753
#
# Stress axis : x y z
#
# Youngs Moduli (GPa) = 56.22066 25.72943 107.17950
#
# Poissons Ratio (x) = 0.27778 0.42554
# Poissons Ratio (y) = 0.60698 0.41490
# Poissons Ratio (z) = 0.22322 0.09960
#
# Static dielectric constant tensor:
#      x y z
#    x 3.732580 0.000000 0.000000 
#    y 0.000000 3.154040 0.000000 
#    z 0.000000 0.000000 3.924110 
# 
# 
# High freq. dielectric constant tensor:
#      x y z
#    x 1.775100 0.000000 0.000000 
#    y 0.000000 1.721730 0.000000 
#    z 0.000000 0.000000 1.780500 
# 
# From -- ./inp_files/15735.got.cif
#   From: 2010.03.12/outbox.cif.g09.slc.cpg/sg36_8_cif.got.tgz:15735.got - 2010.04.14 02:13:53.
