data_PCOD8175568
_publ_section_title
;
Structure prediction by ZEFSAII (Michael W. Deem and Ramdas Pophale) SiO2 
 PCOD8175568
Probable space group: C M C 21
;
_chemical_formula_sum "Si O2"
_cell_formula_units_Z 64
_cell_length_a 8.901151
_cell_length_b 30.140566
_cell_length_c 11.966794
_cell_angle_alpha 90.000000
_cell_angle_beta 90.000000
_cell_angle_gamma 90.000000
_cell_volume 3210.520054
_symmetry_space_group_name_H-M "C M C 21"
_symmetry_group_IT_number 36
_symmetry_cell_setting 'orthorhombic'
loop_
_space_group_symop_operation_xyz
x,y,z
-x,-y,1/2+z
x,-y,1/2+z
-x,y,z
1/2+x,1/2+y,z
1/2-x,1/2-y,1/2+z
1/2+x,1/2-y,1/2+z
1/2-x,1/2+y,z
loop_
_atom_site_type_symbol
_atom_site_label
_atom_site_fract_x
_atom_site_fract_y
_atom_site_fract_z
Si Si1 0.169296 0.672678 0.167140
Si Si2 0.822901 0.205474 0.956344
Si Si3 0.172629 0.047175 0.964994
Si Si4 0.326837 0.446832 0.907647
Si Si5 0.669071 0.928611 0.678892
Si Si6 0.177716 0.618237 0.570055
Si Si7 0.177847 0.695982 0.411775
Si Si8 0.822631 0.625225 0.827841
O O1 0.167626 0.621357 0.133397
O O2 0.233128 0.678819 0.291646
O O3 0.000000 0.692117 0.156676
O O4 0.281837 0.697598 0.085014
O O5 0.760684 0.254417 0.928548
O O6 0.743284 0.170719 0.875253
O O7 0.000000 0.201306 0.939486
O O8 0.262087 0.082463 0.891923
O O9 0.000000 0.062129 0.971278
O O10 0.192191 0.999587 0.908804
O O11 0.236130 0.042885 0.090704
O O12 0.500000 0.433049 0.900481
O O13 0.241496 0.428746 0.800211
O O14 0.255810 0.425134 0.018189
O O15 0.500000 0.947580 0.686583
O O16 0.238249 0.662338 0.506638
O O17 0.225145 0.621665 0.698823
O O18 0.000000 0.612813 0.555597
O O19 0.000000 0.696192 0.418425
O O20 0.000000 0.626663 0.843276
#
# Coordination Sequence:
#
# PCOD8175568 Si02
#       8
#     8   8   8   8   8   8   8   8
#     4  10  20  39  64  87 119 157 203 257 302 355
#     4  11  23  38  62  91 123 162 202 249 308 367
#     4  11  25  43  63  89 126 164 202 254 310 364
#     4  11  25  42  63  93 127 161 200 252 313 367
#     4  11  22  40  68  92 120 160 206 256 303 361
#     4  10  22  43  65  87 121 165 209 254 301 360
#     4   9  20  40  62  87 121 160 201 250 306 357
#     4  11  24  41  63  90 123 163 207 254 305 365
#
# _framework density 19.934464999999999
#
# number of rings (size 3 to 8) (size 9 to 14) (size 15 to 20)
#    0.000    1.500    2.500    1.875    3.500    3.500 
#    0.000    1.875    0.000    0.000    0.000    0.000 
#    0.000    0.000    0.000    0.000    0.000    0.000 
#
# Total GULP energy -396929.412225 kJ/mol
# GULP energy per Si atom -12404.044132 kJ/mol
# Density = 1.988909 g / cm^3
# Si number density = 19.934465 Si / 1000 Ang^3
#
#
#
# Elastic Constant Matrix: (Units=GPa)
#
#
# Indices 1 2 3 4 5 6 
#
# 1 85.6848 34.6079 47.4988 0.0000 0.0000 0.0000
# 2 34.6079 93.2645 37.8370 0.0000 0.0000 0.0000
# 3 47.4988 37.8370 130.8490 0.0000 0.0000 0.0000
# 4 0.0000 0.0000 0.0000 29.6769 0.0000 0.0000
# 5 0.0000 0.0000 0.0000 0.0000 27.5869 0.0000
# 6 0.0000 0.0000 0.0000 0.0000 0.0000 24.8961
#
#
#
# Elastic Compliance Matrix: (Units=1/GPa)
#
#
# Indices 1 2 3 4 5 6 
#
# 1 0.015835 -0.004015 -0.004587 0.000000 0.000000 0.000000
# 2 -0.004015 0.013165 -0.002349 0.000000 0.000000 0.000000
# 3 -0.004587 -0.002349 0.009987 0.000000 0.000000 0.000000
# 4 0.000000 0.000000 0.000000 0.033696 0.000000 0.000000
# 5 0.000000 0.000000 0.000000 0.000000 0.036249 0.000000
# 6 0.000000 0.000000 0.000000 0.000000 0.000000 0.040167
#
#
# Mechanical properties :
#
#
# Convention : Reuss Voigt Hill
#
# Bulk Modulus (GPa) = 58.53435 61.07620 59.80528
# Shear Modulus (GPa) = 28.29688 29.08894 28.69291
#
# Velocity S-wave (km/s) = 3.77171 3.82413 3.79801
# Velocity P-wave (km/s) = 6.95664 7.08545 7.02134
#
# Compressibility (1/GPa) = 0.01708399
#
# Stress axis : x y z
#
# Youngs Moduli (GPa) = 63.15024 75.95778 100.13035
#
# Poissons Ratio (x) = 0.30497 0.45933
# Poissons Ratio (y) = 0.25355 0.23525
# Poissons Ratio (z) = 0.28969 0.17846
#
# Static dielectric constant tensor:
#      x y z
#    x 3.575350 0.000000 0.000000 
#    y 0.000000 3.692190 0.000000 
#    z 0.000000 0.000000 3.705820 
# 
# 
# High freq. dielectric constant tensor:
#      x y z
#    x 1.771490 0.000000 0.000000 
#    y 0.000000 1.781880 0.000000 
#    z 0.000000 0.000000 1.790590 
# 
# From -- ./inp_files/7212.got.cif
#   From: 2010.03.12/outbox.cif.g09.slc.cpg/sg36_4_cif.got.tgz:7212.got - 2010.04.14 02:13:53.
