data_PCOD8175186
_publ_section_title
;
Structure prediction by ZEFSAII (Michael W. Deem and Ramdas Pophale) SiO2 
 PCOD8175186
Probable space group: C M C 21
;
_chemical_formula_sum "Si O2"
_cell_formula_units_Z 64
_cell_length_a 8.710593
_cell_length_b 19.781978
_cell_length_c 19.676612
_cell_angle_alpha 90.000000
_cell_angle_beta 90.000000
_cell_angle_gamma 90.000000
_cell_volume 3390.531303
_symmetry_space_group_name_H-M "C M C 21"
_symmetry_group_IT_number 36
_symmetry_cell_setting 'orthorhombic'
loop_
_space_group_symop_operation_xyz
x,y,z
-x,-y,1/2+z
x,-y,1/2+z
-x,y,z
1/2+x,1/2+y,z
1/2-x,1/2-y,1/2+z
1/2+x,1/2-y,1/2+z
1/2-x,1/2+y,z
loop_
_atom_site_type_symbol
_atom_site_label
_atom_site_fract_x
_atom_site_fract_y
_atom_site_fract_z
Si Si1 0.677818 0.671374 0.458750
Si Si2 0.675932 0.416521 0.178015
Si Si3 0.675666 0.733964 0.703657
Si Si4 0.822612 0.837298 0.802538
Si Si5 0.178862 0.556598 0.536898
Si Si6 0.176825 0.408170 0.572179
Si Si7 0.322482 0.046323 0.223170
Si Si8 0.321800 0.271525 0.562472
O O1 0.500000 0.684108 0.475393
O O2 0.714517 0.681287 0.379831
O O3 0.722795 0.595211 0.480167
O O4 0.781026 0.724611 0.499036
O O5 0.500000 0.427384 0.155562
O O6 0.695976 0.345821 0.217404
O O7 0.781387 0.415030 0.111301
O O8 0.728071 0.476469 0.228304
O O9 0.500000 0.757182 0.713570
O O10 0.779912 0.772967 0.757216
O O11 0.721662 0.750455 0.626884
O O12 0.726987 0.903781 0.783053
O O13 0.000000 0.854491 0.791548
O O14 0.218321 0.477084 0.532502
O O15 0.000000 0.569894 0.524336
O O16 0.212242 0.416819 0.651982
O O17 0.283078 0.348889 0.542690
O O18 0.000000 0.388929 0.560628
O O19 0.500000 0.027710 0.230321
O O20 0.500000 0.264012 0.579883
#
# Coordination Sequence:
#
# PCOD8175186 Si02
#       8
#     8   8   8   8   8   8   8   8
#     4  11  24  41  59  83 119 158 196 244 300 354
#     4  10  20  34  57  86 118 150 187 239 291 342
#     4  11  22  37  59  87 120 155 192 243 298 347
#     4  11  24  40  60  85 116 157 201 243 294 358
#     4  10  20  35  58  86 114 149 192 238 289 350
#     4   9  19  35  56  85 118 147 185 238 291 339
#     4  10  20  35  58  85 116 151 189 239 290 345
#     4  12  23  35  59  89 117 153 198 244 289 351
#
# _framework density 18.876097000000001
#
# number of rings (size 3 to 8) (size 9 to 14) (size 15 to 20)
#    0.000    1.500    2.500    4.125    0.000    6.000 
#    0.000    1.250    0.000    0.000    0.000    0.000 
#    0.000    0.000    0.000    0.000    0.000    0.000 
#
# Total GULP energy -396957.970283 kJ/mol
# GULP energy per Si atom -12404.936571 kJ/mol
# Density = 1.883313 g / cm^3
# Si number density = 18.876097 Si / 1000 Ang^3
#
#
#
# Elastic Constant Matrix: (Units=GPa)
#
#
# Indices 1 2 3 4 5 6 
#
# 1 48.5406 30.5860 21.1259 0.0000 0.0000 0.0000
# 2 30.5860 114.6296 38.5480 0.0000 0.0000 0.0000
# 3 21.1259 38.5480 76.8231 0.0000 0.0000 0.0000
# 4 0.0000 0.0000 0.0000 23.0680 0.0000 0.0000
# 5 0.0000 0.0000 0.0000 0.0000 27.0848 0.0000
# 6 0.0000 0.0000 0.0000 0.0000 0.0000 36.9750
#
#
#
# Elastic Compliance Matrix: (Units=1/GPa)
#
#
# Indices 1 2 3 4 5 6 
#
# 1 0.025948 -0.005442 -0.004405 0.000000 0.000000 0.000000
# 2 -0.005442 0.011636 -0.004342 0.000000 0.000000 0.000000
# 3 -0.004405 -0.004342 0.016407 0.000000 0.000000 0.000000
# 4 0.000000 0.000000 0.000000 0.043350 0.000000 0.000000
# 5 0.000000 0.000000 0.000000 0.000000 0.036921 0.000000
# 6 0.000000 0.000000 0.000000 0.000000 0.000000 0.027045
#
#
# Mechanical properties :
#
#
# Convention : Reuss Voigt Hill
#
# Bulk Modulus (GPa) = 39.04335 46.72369 42.88352
# Shear Modulus (GPa) = 25.22417 27.40777 26.31597
#
# Velocity S-wave (km/s) = 3.65951 3.81462 3.73787
# Velocity P-wave (km/s) = 6.21168 6.64894 6.43402
#
# Compressibility (1/GPa) = 0.02561256
#
# Stress axis : x y z
#
# Youngs Moduli (GPa) = 38.53929 85.93974 60.94977
#
# Poissons Ratio (x) = 0.46771 0.26846
# Poissons Ratio (y) = 0.20974 0.26465
# Poissons Ratio (z) = 0.16975 0.37316
#
# Static dielectric constant tensor:
#      x y z
#    x 3.540830 0.000000 0.000000 
#    y 0.000000 3.738100 0.000000 
#    z 0.000000 0.000000 3.170230 
# 
# 
# High freq. dielectric constant tensor:
#      x y z
#    x 1.746530 0.000000 0.000000 
#    y 0.000000 1.748660 0.000000 
#    z 0.000000 0.000000 1.697130 
# 
# From -- ./inp_files/13824.got.cif
#   From: 2010.03.12/outbox.cif.g09.slc.cpg/sg36_7_cif.got.tgz:13824.got - 2010.04.14 02:13:53.
