data_PCOD8175682
_publ_section_title
;
Structure prediction by ZEFSAII (Michael W. Deem and Ramdas Pophale) SiO2 
 PCOD8175682
Probable space group: C M C 21
;
_chemical_formula_sum "Si O2"
_cell_formula_units_Z 64
_cell_length_a 19.585787
_cell_length_b 12.001077
_cell_length_c 13.896463
_cell_angle_alpha 90.000000
_cell_angle_beta 90.000000
_cell_angle_gamma 90.000000
_cell_volume 3266.371103
_symmetry_space_group_name_H-M "C M C 21"
_symmetry_group_IT_number 36
_symmetry_cell_setting 'orthorhombic'
loop_
_space_group_symop_operation_xyz
x,y,z
-x,-y,1/2+z
x,-y,1/2+z
-x,y,z
1/2+x,1/2+y,z
1/2-x,1/2-y,1/2+z
1/2+x,1/2-y,1/2+z
1/2-x,1/2+y,z
loop_
_atom_site_type_symbol
_atom_site_label
_atom_site_fract_x
_atom_site_fract_y
_atom_site_fract_z
Si Si1 0.662102 0.497749 0.980410
Si Si2 0.328945 0.206978 0.153341
Si Si3 0.337898 0.002251 0.779389
Si Si4 0.421503 0.707932 0.485576
Si Si5 0.828945 0.206978 0.106458
Si Si6 0.708958 0.646976 0.814936
Si Si7 0.578497 0.207932 0.774223
Si Si8 0.791042 0.353024 0.944863
O O1 0.594233 0.423663 0.987013
O O2 0.665356 0.560620 0.878212
O O3 0.727213 0.416210 0.993126
O O4 0.656477 0.583954 0.067384
O O5 0.343523 0.083954 0.192415
O O6 0.250000 0.214795 0.129900
O O7 0.341807 0.303481 0.233402
O O8 0.376067 0.223995 0.061274
O O9 0.334644 0.939380 0.881587
O O10 0.272787 0.083790 0.766673
O O11 0.405767 0.076337 0.772786
O O12 0.500000 0.727676 0.512409
O O13 0.403072 0.750000 0.379899
O O14 0.876067 0.223995 0.198525
O O15 0.841807 0.303481 0.026397
O O16 0.736956 0.750000 0.879899
O O17 0.500000 0.227676 0.747390
#
# Coordination Sequence:
#
# PCOD8175682 Si02
#       8
#     8   8   8   8   8   8   8   8
#     4  10  21  36  64  90 124 160 203 250 315 371
#     4  11  23  36  63  98 124 156 207 265 311 366
#     4  10  21  36  64  90 124 160 203 250 315 371
#     4  11  26  45  61  85 130 174 212 254 310 383
#     4  11  23  36  63  98 124 156 207 265 311 366
#     4   9  19  37  60  95 125 154 196 264 312 363
#     4  11  26  45  61  85 130 174 212 254 310 383
#     4   9  19  37  60  95 125 154 196 264 312 363
#
# _framework density 19.593610000000002
#
# number of rings (size 3 to 8) (size 9 to 14) (size 15 to 20)
#    0.000    1.750    2.500    0.750   10.500    1.000 
#    0.000    3.750    0.000    4.500    0.000    0.000 
#    0.000    0.000    0.000    0.000    0.000    0.000 
#
# Total GULP energy -396820.386744 kJ/mol
# GULP energy per Si atom -12400.637086 kJ/mol
# Density = 1.954901 g / cm^3
# Si number density = 19.593610 Si / 1000 Ang^3
#
#
#
# Elastic Constant Matrix: (Units=GPa)
#
#
# Indices 1 2 3 4 5 6 
#
# 1 102.5171 48.9672 77.0050 0.0000 0.0000 0.0000
# 2 48.9672 137.3924 70.7060 0.0000 0.0000 0.0000
# 3 77.0050 70.7060 135.5148 0.0000 0.0000 0.0000
# 4 0.0000 0.0000 0.0000 32.0433 0.0000 0.0000
# 5 0.0000 0.0000 0.0000 0.0000 29.1678 0.0000
# 6 0.0000 0.0000 0.0000 0.0000 0.0000 7.6036
#
#
#
# Elastic Compliance Matrix: (Units=1/GPa)
#
#
# Indices 1 2 3 4 5 6 
#
# 1 0.017244 -0.001508 -0.009012 0.000000 0.000000 0.000000
# 2 -0.001508 0.010082 -0.004403 0.000000 0.000000 0.000000
# 3 -0.009012 -0.004403 0.014798 0.000000 0.000000 0.000000
# 4 0.000000 0.000000 0.000000 0.031208 0.000000 0.000000
# 5 0.000000 0.000000 0.000000 0.000000 0.034284 0.000000
# 6 0.000000 0.000000 0.000000 0.000000 0.000000 0.131517
#
#
# Mechanical properties :
#
#
# Convention : Reuss Voigt Hill
#
# Bulk Modulus (GPa) = 81.45339 85.42010 83.43674
# Shear Modulus (GPa) = 18.31017 25.67935 21.99476
#
# Velocity S-wave (km/s) = 3.06027 3.62415 3.35408
# Velocity P-wave (km/s) = 7.35858 7.82324 7.59446
#
# Compressibility (1/GPa) = 0.01227696
#
# Stress axis : x y z
#
# Youngs Moduli (GPa) = 57.99111 99.18634 67.57792
#
# Poissons Ratio (x) = 0.14958 0.60901
# Poissons Ratio (y) = 0.08745 0.29758
# Poissons Ratio (z) = 0.52261 0.43676
#
# Static dielectric constant tensor:
#      x y z
#    x 3.198930 0.000000 0.000000 
#    y 0.000000 3.923910 0.000000 
#    z 0.000000 0.000000 3.965440 
# 
# 
# High freq. dielectric constant tensor:
#      x y z
#    x 1.719320 0.000000 0.000000 
#    y 0.000000 1.784660 0.000000 
#    z 0.000000 0.000000 1.777550 
# 
# From -- ./inp_files/12656.got.cif
#   From: 2010.03.12/outbox.cif.g09.slc.cpg/sg36_7_cif.got.tgz:12656.got - 2010.04.14 02:13:53.
