data_PCOD8175525
_publ_section_title
;
Structure prediction by ZEFSAII (Michael W. Deem and Ramdas Pophale) SiO2 
 PCOD8175525
Probable space group: C M C 21
;
_chemical_formula_sum "Si O2"
_cell_formula_units_Z 48
_cell_length_a 8.861334
_cell_length_b 19.826542
_cell_length_c 13.871500
_cell_angle_alpha 90.000000
_cell_angle_beta 90.000000
_cell_angle_gamma 90.000000
_cell_volume 2437.078435
_symmetry_space_group_name_H-M "C M C 21"
_symmetry_group_IT_number 36
_symmetry_cell_setting 'orthorhombic'
loop_
_space_group_symop_operation_xyz
x,y,z
-x,-y,1/2+z
x,-y,1/2+z
-x,y,z
1/2+x,1/2+y,z
1/2-x,1/2-y,1/2+z
1/2+x,1/2-y,1/2+z
1/2-x,1/2+y,z
loop_
_atom_site_type_symbol
_atom_site_label
_atom_site_fract_x
_atom_site_fract_y
_atom_site_fract_z
Si Si1 0.829555 0.302450 0.637790
Si Si2 0.177166 0.755097 0.817722
Si Si3 0.824275 0.558147 0.619300
Si Si4 0.676226 0.924150 0.505537
Si Si5 0.670721 0.673598 0.511135
Si Si6 0.178447 0.891260 0.310780
O O1 0.720320 0.304358 0.729853
O O2 0.771944 0.355742 0.558834
O O3 0.823594 0.227674 0.596027
O O4 0.000000 0.321297 0.669328
O O5 0.231763 0.792794 0.913646
O O6 0.260215 0.684328 0.808477
O O7 0.000000 0.740583 0.820468
O O8 0.784089 0.485459 0.576006
O O9 0.779164 0.612486 0.538622
O O10 0.732968 0.567388 0.717782
O O11 0.000000 0.565636 0.642616
O O12 0.500000 0.921872 0.479423
O O13 0.767010 0.930573 0.406005
O O14 0.500000 0.646832 0.497488
O O15 0.000000 0.888393 0.308731
#
# Coordination Sequence:
#
# PCOD8175525 Si02
#       6
#     8   8   8   8   8   8
#     4  10  20  38  62  89 121 156 201 253 302 354
#     4  11  22  38  62  91 124 161 206 254 303 362
#     4  11  24  41  65  92 124 164 204 249 302 367
#     4  10  23  44  65  88 123 164 205 251 302 362
#     4  10  21  38  61  89 123 159 198 254 305 352
#     4  12  24  39  63  91 123 162 202 251 308 365
#
# _framework density 19.695715
#
# number of rings (size 3 to 8) (size 9 to 14) (size 15 to 20)
#    0.000    1.333    3.333    2.500    0.000    4.667 
#    0.000    5.000    0.000    0.000    0.000    0.000 
#    0.000    0.000    0.000    0.000    0.000    0.000 
#
# Total GULP energy -297723.558745 kJ/mol
# GULP energy per Si atom -12405.148281 kJ/mol
# Density = 1.965089 g / cm^3
# Si number density = 19.695715 Si / 1000 Ang^3
#
#
#
# Elastic Constant Matrix: (Units=GPa)
#
#
# Indices 1 2 3 4 5 6 
#
# 1 98.8734 38.8933 54.9908 0.0000 0.0000 0.0000
# 2 38.8933 73.6542 20.2702 0.0000 0.0000 0.0000
# 3 54.9908 20.2702 125.3986 0.0000 0.0000 0.0000
# 4 0.0000 0.0000 0.0000 29.8609 0.0000 0.0000
# 5 0.0000 0.0000 0.0000 0.0000 37.0171 0.0000
# 6 0.0000 0.0000 0.0000 0.0000 0.0000 29.4090
#
#
#
# Elastic Compliance Matrix: (Units=1/GPa)
#
#
# Indices 1 2 3 4 5 6 
#
# 1 0.016138 -0.006880 -0.005965 0.000000 0.000000 0.000000
# 2 -0.006880 0.017142 0.000246 0.000000 0.000000 0.000000
# 3 -0.005965 0.000246 0.010550 0.000000 0.000000 0.000000
# 4 0.000000 0.000000 0.000000 0.033489 0.000000 0.000000
# 5 0.000000 0.000000 0.000000 0.000000 0.027015 0.000000
# 6 0.000000 0.000000 0.000000 0.000000 0.000000 0.034003
#
#
# Mechanical properties :
#
#
# Convention : Reuss Voigt Hill
#
# Bulk Modulus (GPa) = 53.66770 58.47052 56.06911
# Shear Modulus (GPa) = 29.45594 31.50888 30.48241
#
# Velocity S-wave (km/s) = 3.87143 4.00407 3.93831
# Velocity P-wave (km/s) = 6.87688 7.15039 7.01497
#
# Compressibility (1/GPa) = 0.01863318
#
# Stress axis : x y z
#
# Youngs Moduli (GPa) = 61.96660 58.33543 94.78243
#
# Poissons Ratio (x) = 0.40135 0.56535
# Poissons Ratio (y) = 0.42633 -0.02333
# Poissons Ratio (z) = 0.36961 -0.01436
#
# Static dielectric constant tensor:
#      x y z
#    x 3.572420 0.000000 0.000000 
#    y 0.000000 3.527700 0.000000 
#    z 0.000000 0.000000 3.771160 
# 
# 
# High freq. dielectric constant tensor:
#      x y z
#    x 1.764940 0.000000 0.000000 
#    y 0.000000 1.761530 0.000000 
#    z 0.000000 0.000000 1.782780 
# 
# From -- ./inp_files/10385.got.cif
#   From: 2010.03.12/outbox.cif.g09.slc.cpg/sg36_6_cif.got.tgz:10385.got - 2010.04.14 02:13:53.
