data_PCOD8175479
_publ_section_title
;
Structure prediction by ZEFSAII (Michael W. Deem and Ramdas Pophale) SiO2 
 PCOD8175479
Probable space group: C M C 21
;
_chemical_formula_sum "Si O2"
_cell_formula_units_Z 64
_cell_length_a 8.513939
_cell_length_b 15.351309
_cell_length_c 23.848393
_cell_angle_alpha 90.000000
_cell_angle_beta 90.000000
_cell_angle_gamma 90.000000
_cell_volume 3116.987550
_symmetry_space_group_name_H-M "C M C 21"
_symmetry_group_IT_number 36
_symmetry_cell_setting 'orthorhombic'
loop_
_space_group_symop_operation_xyz
x,y,z
-x,-y,1/2+z
x,-y,1/2+z
-x,y,z
1/2+x,1/2+y,z
1/2-x,1/2-y,1/2+z
1/2+x,1/2-y,1/2+z
1/2-x,1/2+y,z
loop_
_atom_site_type_symbol
_atom_site_label
_atom_site_fract_x
_atom_site_fract_y
_atom_site_fract_z
Si Si1 0.680762 0.899967 0.961620
Si Si2 0.683841 0.242054 0.896029
Si Si3 0.316431 0.416931 0.700345
Si Si4 0.186277 0.247518 0.269431
Si Si5 0.680941 0.652824 0.575876
Si Si6 0.183662 0.402682 0.191326
Si Si7 0.681498 0.581786 0.962802
Si Si8 0.680797 0.660690 0.080863
O O1 0.500000 0.879474 0.949209
O O2 0.786204 0.833264 0.926525
O O3 0.719494 0.998390 0.942768
O O4 0.714846 0.889478 0.027314
O O5 0.500000 0.220867 0.897659
O O6 0.749150 0.248169 0.832745
O O7 0.775997 0.165171 0.926217
O O8 0.500000 0.433340 0.710632
O O9 0.250720 0.339783 0.739599
O O10 0.220018 0.502849 0.717176
O O11 0.281516 0.394703 0.635798
O O12 0.247271 0.331117 0.235142
O O13 0.000000 0.246029 0.268741
O O14 0.500000 0.634565 0.561791
O O15 0.722892 0.606245 0.633664
O O16 0.708819 0.755603 0.579832
O O17 0.000000 0.389670 0.179870
O O18 0.500000 0.559626 0.954335
O O19 0.719306 0.600669 0.027771
O O20 0.500000 0.692661 0.080504
#
# Coordination Sequence:
#
# PCOD8175479 Si02
#       8
#     8   8   8   8   8   8   8   8
#     4  12  25  42  64  92 126 165 208 256 312 371
#     4  11  23  42  65  92 125 164 212 261 311 366
#     4  10  20  39  63  90 123 162 203 249 305 364
#     4   9  21  41  64  87 122 166 206 254 308 361
#     4  12  23  37  62  94 126 160 202 250 308 374
#     4  11  22  40  63  91 125 162 203 250 308 368
#     4  11  23  40  64  95 127 163 205 255 313 370
#     4  10  20  37  63  89 124 160 197 247 309 370
#
# _framework density 20.532644000000001
#
# number of rings (size 3 to 8) (size 9 to 14) (size 15 to 20)
#    0.000    1.250    2.500    4.125    0.000    3.000 
#    0.000    6.250    0.000    0.000    0.000    0.000 
#    0.000    0.000    0.000    0.000    0.000    0.000 
#
# Total GULP energy -397005.770411 kJ/mol
# GULP energy per Si atom -12406.430325 kJ/mol
# Density = 2.048591 g / cm^3
# Si number density = 20.532644 Si / 1000 Ang^3
#
#
#
# Elastic Constant Matrix: (Units=GPa)
#
#
# Indices 1 2 3 4 5 6 
#
# 1 52.4246 16.9208 11.2459 0.0000 0.0000 0.0000
# 2 16.9208 135.6670 47.0900 0.0000 0.0000 0.0000
# 3 11.2459 47.0900 132.6420 0.0000 0.0000 0.0000
# 4 0.0000 0.0000 0.0000 6.3336 0.0000 0.0000
# 5 0.0000 0.0000 0.0000 0.0000 23.3873 0.0000
# 6 0.0000 0.0000 0.0000 0.0000 0.0000 38.9132
#
#
#
# Elastic Compliance Matrix: (Units=1/GPa)
#
#
# Indices 1 2 3 4 5 6 
#
# 1 0.019974 -0.002171 -0.000923 0.000000 0.000000 0.000000
# 2 -0.002171 0.008643 -0.002884 0.000000 0.000000 0.000000
# 3 -0.000923 -0.002884 0.008641 0.000000 0.000000 0.000000
# 4 0.000000 0.000000 0.000000 0.157889 0.000000 0.000000
# 5 0.000000 0.000000 0.000000 0.000000 0.042758 0.000000
# 6 0.000000 0.000000 0.000000 0.000000 0.000000 0.025698
#
#
# Mechanical properties :
#
#
# Convention : Reuss Voigt Hill
#
# Bulk Modulus (GPa) = 39.52264 52.36077 45.94170
# Shear Modulus (GPa) = 17.60607 30.09194 23.84901
#
# Velocity S-wave (km/s) = 2.93143 3.83242 3.41180
# Velocity P-wave (km/s) = 5.54511 6.71862 6.15987
#
# Compressibility (1/GPa) = 0.02530196
#
# Stress axis : x y z
#
# Youngs Moduli (GPa) = 50.06598 115.70200 115.72340
#
# Poissons Ratio (x) = 0.25118 0.10678
# Poissons Ratio (y) = 0.10869 0.33378
# Poissons Ratio (z) = 0.04620 0.33372
#
# Static dielectric constant tensor:
#      x y z
#    x 3.552270 0.000000 0.000000 
#    y 0.000000 3.805390 0.000000 
#    z 0.000000 0.000000 3.847570 
# 
# 
# High freq. dielectric constant tensor:
#      x y z
#    x 1.790810 0.000000 0.000000 
#    y 0.000000 1.817330 0.000000 
#    z 0.000000 0.000000 1.800610 
# 
# From -- ./inp_files/16691.got.cif
#   From: 2010.03.12/outbox.cif.g09.slc.cpg/sg36_9_cif.got.tgz:16691.got - 2010.04.14 02:13:53.
