data_PCOD8175026
_publ_section_title
;
Structure prediction by ZEFSAII (Michael W. Deem and Ramdas Pophale) SiO2 
 PCOD8175026
Probable space group: C M C 21
;
_chemical_formula_sum "Si O2"
_cell_formula_units_Z 48
_cell_length_a 22.952256
_cell_length_b 21.876501
_cell_length_c 5.119132
_cell_angle_alpha 90.000000
_cell_angle_beta 90.000000
_cell_angle_gamma 90.000000
_cell_volume 2570.393227
_symmetry_space_group_name_H-M "C M C 21"
_symmetry_group_IT_number 36
_symmetry_cell_setting 'orthorhombic'
loop_
_space_group_symop_operation_xyz
x,y,z
-x,-y,1/2+z
x,-y,1/2+z
-x,y,z
1/2+x,1/2+y,z
1/2-x,1/2-y,1/2+z
1/2+x,1/2-y,1/2+z
1/2-x,1/2+y,z
loop_
_atom_site_type_symbol
_atom_site_label
_atom_site_fract_x
_atom_site_fract_y
_atom_site_fract_z
Si Si1 0.435195 0.346913 0.728130
Si Si2 0.889575 0.972344 0.588536
Si Si3 0.565177 0.268514 0.218503
Si Si4 0.241995 0.029345 0.952867
Si Si5 0.239548 0.669544 0.878700
Si Si6 0.180401 0.282194 0.874732
O O1 0.500000 0.368969 0.808244
O O2 0.392212 0.404140 0.703609
O O3 0.437137 0.317684 0.445234
O O4 0.412355 0.299928 0.949118
O O5 0.823656 0.991890 0.520496
O O6 0.920034 0.982973 0.305915
O O7 0.500000 0.240073 0.177935
O O8 0.611498 0.216913 0.306790
O O9 0.272809 0.013207 0.229972
O O10 0.243420 0.099041 0.854993
O O11 0.192614 0.688964 0.658458
O O12 0.297013 0.711926 0.855737
O O13 0.212482 0.676510 0.163777
#
# Coordination Sequence:
#
# PCOD8175026 Si02
#       6
#     8   8   8   8   8   8
#     4  10  20  32  47  66  91 128 168 208 250 288
#     4  10  20  31  45  65  90 127 170 209 246 281
#     4  10  20  34  51  71  97 128 163 202 250 307
#     4  10  20  33  49  70  99 132 165 201 243 297
#     4  10  20  33  51  76 103 132 165 204 252 301
#     4  10  20  33  52  76 102 131 163 206 253 300
#
# _framework density 18.674185999999999
#
# number of rings (size 3 to 8) (size 9 to 14) (size 15 to 20)
#    0.000    2.000    0.000    4.000    0.000    6.000 
#    0.000    0.000    0.000    0.000    0.000    0.000 
#    0.000   13.333    0.000    0.000    0.000    0.000 
#
# Total GULP energy -297390.535701 kJ/mol
# GULP energy per Si atom -12391.272321 kJ/mol
# Density = 1.863168 g / cm^3
# Si number density = 18.674186 Si / 1000 Ang^3
#
#
#
# Elastic Constant Matrix: (Units=GPa)
#
#
# Indices 1 2 3 4 5 6 
#
# 1 50.4875 8.8576 9.5018 0.0000 0.0000 0.0000
# 2 8.8576 61.2961 31.5084 0.0000 0.0000 0.0000
# 3 9.5018 31.5084 116.9680 0.0000 0.0000 0.0000
# 4 0.0000 0.0000 0.0000 27.5396 0.0000 0.0000
# 5 0.0000 0.0000 0.0000 0.0000 17.5712 0.0000
# 6 0.0000 0.0000 0.0000 0.0000 0.0000 19.6164
#
#
#
# Elastic Compliance Matrix: (Units=1/GPa)
#
#
# Indices 1 2 3 4 5 6 
#
# 1 0.020423 -0.002436 -0.001003 0.000000 0.000000 0.000000
# 2 -0.002436 0.019227 -0.004981 0.000000 0.000000 0.000000
# 3 -0.001003 -0.004981 0.009973 0.000000 0.000000 0.000000
# 4 0.000000 0.000000 0.000000 0.036311 0.000000 0.000000
# 5 0.000000 0.000000 0.000000 0.000000 0.056911 0.000000
# 6 0.000000 0.000000 0.000000 0.000000 0.000000 0.050978
#
#
# Mechanical properties :
#
#
# Convention : Reuss Voigt Hill
#
# Bulk Modulus (GPa) = 30.50408 36.49857 33.50133
# Shear Modulus (GPa) = 22.56414 24.87101 23.71758
#
# Velocity S-wave (km/s) = 3.47984 3.65340 3.56767
# Velocity P-wave (km/s) = 5.70229 6.11423 5.91185
#
# Compressibility (1/GPa) = 0.03278250
#
# Stress axis : x y z
#
# Youngs Moduli (GPa) = 48.96447 52.01061 100.27386
#
# Poissons Ratio (x) = 0.12668 0.10057
# Poissons Ratio (y) = 0.11926 0.49950
# Poissons Ratio (z) = 0.04911 0.25909
#
# Static dielectric constant tensor:
#      x y z
#    x 3.288790 0.000000 0.000000 
#    y 0.000000 2.995240 0.000000 
#    z 0.000000 0.000000 4.111030 
# 
# 
# High freq. dielectric constant tensor:
#      x y z
#    x 1.684490 0.000000 0.000000 
#    y 0.000000 1.685350 0.000000 
#    z 0.000000 0.000000 1.765020 
# 
# From -- ./inp_files/1348.got.cif
#   From: 2010.03.12/outbox.cif.g09.slc.cpg/sg36_1_cif.got.tgz:1348.got - 2010.04.14 02:13:53.
