data_PCOD8175562
_publ_section_title
;
Structure prediction by ZEFSAII (Michael W. Deem and Ramdas Pophale) SiO2 
 PCOD8175562
Probable space group: C M C 21
;
_chemical_formula_sum "Si O2"
_cell_formula_units_Z 64
_cell_length_a 23.179820
_cell_length_b 15.124820
_cell_length_c 9.023010
_cell_angle_alpha 90.000000
_cell_angle_beta 90.000000
_cell_angle_gamma 90.000000
_cell_volume 3163.382536
_symmetry_space_group_name_H-M "C M C 21"
_symmetry_group_IT_number 36
_symmetry_cell_setting 'orthorhombic'
loop_
_space_group_symop_operation_xyz
x,y,z
-x,-y,1/2+z
x,-y,1/2+z
-x,y,z
1/2+x,1/2+y,z
1/2-x,1/2-y,1/2+z
1/2+x,1/2-y,1/2+z
1/2-x,1/2+y,z
loop_
_atom_site_type_symbol
_atom_site_label
_atom_site_fract_x
_atom_site_fract_y
_atom_site_fract_z
Si Si1 0.252537 0.300256 0.521620
Si Si2 0.773278 0.139364 0.696931
Si Si3 0.435432 0.587594 0.979832
Si Si4 0.102523 0.925988 0.156097
Si Si5 0.848867 0.426997 0.183320
Si Si6 0.361372 0.100479 0.018981
Si Si7 0.373640 0.732797 0.139823
Si Si8 0.067611 0.235792 0.456804
O O1 0.224104 0.205209 0.556712
O O2 0.266969 0.303515 0.347482
O O3 0.204536 0.373910 0.559093
O O4 0.309601 0.310174 0.623820
O O5 0.831642 0.085521 0.703048
O O6 0.720772 0.070651 0.677036
O O7 0.500000 0.576409 0.037310
O O8 0.434201 0.569545 0.805622
O O9 0.397227 0.518183 0.070002
O O10 0.414358 0.686579 0.018736
O O11 0.074713 0.850603 0.055704
O O12 0.870106 0.426376 0.350167
O O13 0.870849 0.337380 0.101906
O O14 0.877302 0.513729 0.112394
O O15 0.405712 0.181278 0.048361
O O16 0.397056 0.718825 0.305666
O O17 0.000000 0.252456 0.423313
#
# Coordination Sequence:
#
# PCOD8175562 Si02
#       8
#     8   8   8   8   8   8   8   8
#     4  10  20  39  62  96 131 165 208 259 323 391
#     4  10  21  38  62  97 128 168 206 259 323 393
#     4  12  25  42  63  90 128 170 218 270 318 381
#     4  12  25  42  63  93 125 169 219 264 324 390
#     4   9  22  37  61  92 131 159 201 259 321 381
#     4  10  21  40  61  92 127 165 207 260 319 375
#     4  10  22  42  65  92 126 167 218 265 327 382
#     4  11  23  44  67  90 126 175 220 266 325 387
#
# _framework density 20.231507000000001
#
# number of rings (size 3 to 8) (size 9 to 14) (size 15 to 20)
#    0.000    1.500    2.500    3.000    1.750    3.000 
#    0.000    3.125    0.000    0.000    0.000    0.000 
#    0.000    0.000    0.000    0.000    0.000    0.000 
#
# Total GULP energy -396798.669302 kJ/mol
# GULP energy per Si atom -12399.958416 kJ/mol
# Density = 2.018546 g / cm^3
# Si number density = 20.231507 Si / 1000 Ang^3
#
#
#
# Elastic Constant Matrix: (Units=GPa)
#
#
# Indices 1 2 3 4 5 6 
#
# 1 96.9204 35.7555 31.9829 0.0000 0.0000 0.0000
# 2 35.7555 87.1655 32.6379 0.0000 0.0000 0.0000
# 3 31.9829 32.6379 71.2087 0.0000 0.0000 0.0000
# 4 0.0000 0.0000 0.0000 41.7037 0.0000 0.0000
# 5 0.0000 0.0000 0.0000 0.0000 30.7343 0.0000
# 6 0.0000 0.0000 0.0000 0.0000 0.0000 22.0864
#
#
#
# Elastic Compliance Matrix: (Units=1/GPa)
#
#
# Indices 1 2 3 4 5 6 
#
# 1 0.013090 -0.003825 -0.004126 0.000000 0.000000 0.000000
# 2 -0.003825 0.014967 -0.005142 0.000000 0.000000 0.000000
# 3 -0.004126 -0.005142 0.018253 0.000000 0.000000 0.000000
# 4 0.000000 0.000000 0.000000 0.023979 0.000000 0.000000
# 5 0.000000 0.000000 0.000000 0.000000 0.032537 0.000000
# 6 0.000000 0.000000 0.000000 0.000000 0.000000 0.045277
#
#
# Mechanical properties :
#
#
# Convention : Reuss Voigt Hill
#
# Bulk Modulus (GPa) = 49.69139 50.67191 50.18165
# Shear Modulus (GPa) = 27.62475 29.23278 28.42876
#
# Velocity S-wave (km/s) = 3.69918 3.80533 3.75263
# Velocity P-wave (km/s) = 6.54675 6.66391 6.60559
#
# Compressibility (1/GPa) = 0.02012421
#
# Stress axis : x y z
#
# Youngs Moduli (GPa) = 76.39173 66.81523 54.78422
#
# Poissons Ratio (x) = 0.25554 0.22607
# Poissons Ratio (y) = 0.29217 0.28170
# Poissons Ratio (z) = 0.31523 0.34357
#
# Static dielectric constant tensor:
#      x y z
#    x 3.721730 0.000000 0.000000 
#    y 0.000000 3.701870 0.000000 
#    z 0.000000 0.000000 3.587040 
# 
# 
# High freq. dielectric constant tensor:
#      x y z
#    x 1.789930 0.000000 0.000000 
#    y 0.000000 1.786720 0.000000 
#    z 0.000000 0.000000 1.787490 
# 
# From -- ./inp_files/5657.got.cif
#   From: 2010.03.12/outbox.cif.g09.slc.cpg/sg36_3_cif.got.tgz:5657.got - 2010.04.14 02:13:53.
