data_PCOD8175318
_publ_section_title
;
Structure prediction by ZEFSAII (Michael W. Deem and Ramdas Pophale) SiO2 
 PCOD8175318
Probable space group: C M C 21
;
_chemical_formula_sum "Si O2"
_cell_formula_units_Z 48
_cell_length_a 9.117358
_cell_length_b 19.561543
_cell_length_c 13.952844
_cell_angle_alpha 90.000000
_cell_angle_beta 90.000000
_cell_angle_gamma 90.000000
_cell_volume 2488.484015
_symmetry_space_group_name_H-M "C M C 21"
_symmetry_group_IT_number 36
_symmetry_cell_setting 'orthorhombic'
loop_
_space_group_symop_operation_xyz
x,y,z
-x,-y,1/2+z
x,-y,1/2+z
-x,y,z
1/2+x,1/2+y,z
1/2-x,1/2-y,1/2+z
1/2+x,1/2-y,1/2+z
1/2-x,1/2+y,z
loop_
_atom_site_type_symbol
_atom_site_label
_atom_site_fract_x
_atom_site_fract_y
_atom_site_fract_z
Si Si1 0.164640 0.554729 0.457410
Si Si2 0.328724 0.363776 0.650986
Si Si3 0.830083 0.492564 0.160549
Si Si4 0.167463 0.581410 0.849566
Si Si5 0.673345 0.700066 0.951741
Si Si6 0.671192 0.672959 0.361953
O O1 0.195183 0.557737 0.570704
O O2 0.179819 0.475227 0.431623
O O3 0.282684 0.598362 0.399547
O O4 0.000000 0.580871 0.432843
O O5 0.500000 0.379078 0.644389
O O6 0.252105 0.436525 0.649217
O O7 0.277050 0.318480 0.560199
O O8 0.291239 0.322581 0.748653
O O9 0.771065 0.450634 0.251378
O O10 0.000000 0.511105 0.175174
O O11 0.268702 0.644719 0.876552
O O12 0.000000 0.607304 0.837925
O O13 0.500000 0.704555 0.943333
O O14 0.739723 0.772698 0.923774
O O15 0.500000 0.683940 0.380361
#
# Coordination Sequence:
#
# PCOD8175318 Si02
#       6
#     8   8   8   8   8   8
#     4  10  20  36  60  89 119 152 194 239 287 345
#     4  10  22  39  60  85 115 153 195 243 296 347
#     4  10  20  35  60  91 121 155 193 239 290 345
#     4  10  20  36  60  89 119 152 194 239 287 345
#     4  11  24  41  61  86 119 157 197 244 295 349
#     4  11  24  41  61  86 119 157 197 244 295 349
#
# _framework density 19.288851999999999
#
# number of rings (size 3 to 8) (size 9 to 14) (size 15 to 20)
#    0.000    1.667    3.333    1.000    0.000    4.667 
#    0.000    6.667    0.000    0.000    0.000    0.000 
#    0.000    0.000    0.000    0.000    0.000    0.000 
#
# Total GULP energy -297662.729296 kJ/mol
# GULP energy per Si atom -12402.613721 kJ/mol
# Density = 1.924495 g / cm^3
# Si number density = 19.288852 Si / 1000 Ang^3
#
#
#
# Elastic Constant Matrix: (Units=GPa)
#
#
# Indices 1 2 3 4 5 6 
#
# 1 60.4532 31.0645 31.2224 0.0000 0.0000 0.0000
# 2 31.0645 64.0952 18.1185 0.0000 0.0000 0.0000
# 3 31.2224 18.1185 106.5465 0.0000 0.0000 0.0000
# 4 0.0000 0.0000 0.0000 29.8956 0.0000 0.0000
# 5 0.0000 0.0000 0.0000 0.0000 28.2418 0.0000
# 6 0.0000 0.0000 0.0000 0.0000 0.0000 38.1028
#
#
#
# Elastic Compliance Matrix: (Units=1/GPa)
#
#
# Indices 1 2 3 4 5 6 
#
# 1 0.024733 -0.010440 -0.005472 0.000000 0.000000 0.000000
# 2 -0.010440 0.020797 -0.000477 0.000000 0.000000 0.000000
# 3 -0.005472 -0.000477 0.011070 0.000000 0.000000 0.000000
# 4 0.000000 0.000000 0.000000 0.033450 0.000000 0.000000
# 5 0.000000 0.000000 0.000000 0.000000 0.035408 0.000000
# 6 0.000000 0.000000 0.000000 0.000000 0.000000 0.026245
#
#
# Mechanical properties :
#
#
# Convention : Reuss Voigt Hill
#
# Bulk Modulus (GPa) = 41.98059 43.54509 42.76284
# Shear Modulus (GPa) = 25.98455 29.29401 27.63928
#
# Velocity S-wave (km/s) = 3.67431 3.90128 3.78949
# Velocity P-wave (km/s) = 6.30968 6.55115 6.43155
#
# Compressibility (1/GPa) = 0.02382053
#
# Stress axis : x y z
#
# Youngs Moduli (GPa) = 40.43221 48.08481 90.33167
#
# Poissons Ratio (x) = 0.50201 0.49432
# Poissons Ratio (y) = 0.42212 0.04310
# Poissons Ratio (z) = 0.22126 0.02294
#
# Static dielectric constant tensor:
#      x y z
#    x 3.472970 0.000000 0.000000 
#    y 0.000000 3.295980 0.000000 
#    z 0.000000 0.000000 3.869570 
# 
# 
# High freq. dielectric constant tensor:
#      x y z
#    x 1.745530 0.000000 0.000000 
#    y 0.000000 1.739480 0.000000 
#    z 0.000000 0.000000 1.769620 
# 
# From -- ./inp_files/10337.got.cif
#   From: 2010.03.12/outbox.cif.g09.slc.cpg/sg36_6_cif.got.tgz:10337.got - 2010.04.14 02:13:53.
