data_PCOD8175394
_publ_section_title
;
Structure prediction by ZEFSAII (Michael W. Deem and Ramdas Pophale) SiO2 
 PCOD8175394
Probable space group: C M C 21
;
_chemical_formula_sum "Si O2"
_cell_formula_units_Z 48
_cell_length_a 13.548593
_cell_length_b 17.810567
_cell_length_c 9.420120
_cell_angle_alpha 90.000000
_cell_angle_beta 90.000000
_cell_angle_gamma 90.000000
_cell_volume 2273.151479
_symmetry_space_group_name_H-M "C M C 21"
_symmetry_group_IT_number 36
_symmetry_cell_setting 'orthorhombic'
loop_
_space_group_symop_operation_xyz
x,y,z
-x,-y,1/2+z
x,-y,1/2+z
-x,y,z
1/2+x,1/2+y,z
1/2-x,1/2-y,1/2+z
1/2+x,1/2-y,1/2+z
1/2-x,1/2+y,z
loop_
_atom_site_type_symbol
_atom_site_label
_atom_site_fract_x
_atom_site_fract_y
_atom_site_fract_z
Si Si1 0.385359 0.361985 0.001270
Si Si2 0.810162 0.696828 0.925050
Si Si3 0.116127 0.574669 0.741250
Si Si4 0.893678 0.348569 0.704122
Si Si5 0.605491 0.316264 0.303965
Si Si6 0.702792 0.947673 0.930954
O O1 0.500000 0.371413 0.957149
O O2 0.370632 0.370760 0.171397
O O3 0.344892 0.282553 0.939971
O O4 0.320532 0.431529 0.941245
O O5 0.859474 0.661364 0.782359
O O6 0.691587 0.689247 0.918754
O O7 0.837229 0.642183 0.055632
O O8 0.179944 0.524968 0.851422
O O9 0.149054 0.555172 0.582591
O O10 0.000000 0.558877 0.757070
O O11 0.909662 0.261480 0.724474
O O12 0.836617 0.379580 0.837469
O O13 0.000000 0.389615 0.690584
O O14 0.500000 0.338424 0.377136
#
# Coordination Sequence:
#
# PCOD8175394 Si02
#       6
#     8   8   8   8   8   8
#     4  10  21  41  67  95 130 170 209 260 320 380
#     4  11  20  39  65  99 130 164 209 264 321 382
#     4  12  25  40  63  96 129 167 212 266 324 379
#     4  10  20  36  60  88 128 168 201 253 316 372
#     4   9  18  35  62  95 127 163 205 257 317 371
#     4  12  24  43  63  91 130 170 214 262 316 388
#
# _framework density 21.116057999999999
#
# number of rings (size 3 to 8) (size 9 to 14) (size 15 to 20)
#    0.000    1.333    3.333    5.000    0.000    0.000 
#    0.000    2.500    0.000    0.000    0.000    0.000 
#    0.000    0.000    0.000    0.000    0.000    0.000 
#
# Total GULP energy -297407.939056 kJ/mol
# GULP energy per Si atom -12391.997461 kJ/mol
# Density = 2.106800 g / cm^3
# Si number density = 21.116058 Si / 1000 Ang^3
#
#
#
# Elastic Constant Matrix: (Units=GPa)
#
#
# Indices 1 2 3 4 5 6 
#
# 1 200.7198 25.1491 43.8040 0.0000 0.0000 0.0000
# 2 25.1491 35.5721 6.0468 0.0000 0.0000 0.0000
# 3 43.8040 6.0468 85.3416 0.0000 0.0000 0.0000
# 4 0.0000 0.0000 0.0000 20.1499 0.0000 0.0000
# 5 0.0000 0.0000 0.0000 0.0000 35.1739 0.0000
# 6 0.0000 0.0000 0.0000 0.0000 0.0000 20.4872
#
#
#
# Elastic Compliance Matrix: (Units=1/GPa)
#
#
# Indices 1 2 3 4 5 6 
#
# 1 0.006082 -0.003815 -0.002852 0.000000 0.000000 0.000000
# 2 -0.003815 0.030848 -0.000227 0.000000 0.000000 0.000000
# 3 -0.002852 -0.000227 0.013197 0.000000 0.000000 0.000000
# 4 0.000000 0.000000 0.000000 0.049628 0.000000 0.000000
# 5 0.000000 0.000000 0.000000 0.000000 0.028430 0.000000
# 6 0.000000 0.000000 0.000000 0.000000 0.000000 0.048811
#
#
# Mechanical properties :
#
#
# Convention : Reuss Voigt Hill
#
# Bulk Modulus (GPa) = 27.51861 52.40370 39.96115
# Shear Modulus (GPa) = 24.64281 31.60444 28.12362
#
# Velocity S-wave (km/s) = 3.41987 3.87292 3.65342
# Velocity P-wave (km/s) = 5.35298 6.69852 6.06319
#
# Compressibility (1/GPa) = 0.03633905
#
# Stress axis : x y z
#
# Youngs Moduli (GPa) = 164.40722 32.41695 75.77242
#
# Poissons Ratio (x) = 0.12369 0.21608
# Poissons Ratio (y) = 0.62729 0.01722
# Poissons Ratio (z) = 0.46883 0.00737
#
# Static dielectric constant tensor:
#      x y z
#    x 4.167670 0.000000 0.000000 
#    y 0.000000 3.632790 0.000000 
#    z 0.000000 0.000000 3.770820 
# 
# 
# High freq. dielectric constant tensor:
#      x y z
#    x 1.842270 0.000000 0.000000 
#    y 0.000000 1.808360 0.000000 
#    z 0.000000 0.000000 1.820090 
# 
# From -- ./inp_files/4005.got.cif
#   From: 2010.03.12/outbox.cif.g09.slc.cpg/sg36_3_cif.got.tgz:4005.got - 2010.04.14 02:13:53.
