data_PCOD8175409
_publ_section_title
;
Structure prediction by ZEFSAII (Michael W. Deem and Ramdas Pophale) SiO2 
 PCOD8175409
Probable space group: C M C 21
;
_chemical_formula_sum "Si O2"
_cell_formula_units_Z 56
_cell_length_a 12.300325
_cell_length_b 21.845884
_cell_length_c 10.389269
_cell_angle_alpha 90.000000
_cell_angle_beta 90.000000
_cell_angle_gamma 90.000000
_cell_volume 2791.715778
_symmetry_space_group_name_H-M "C M C 21"
_symmetry_group_IT_number 36
_symmetry_cell_setting 'orthorhombic'
loop_
_space_group_symop_operation_xyz
x,y,z
-x,-y,1/2+z
x,-y,1/2+z
-x,y,z
1/2+x,1/2+y,z
1/2-x,1/2-y,1/2+z
1/2+x,1/2-y,1/2+z
1/2-x,1/2+y,z
loop_
_atom_site_type_symbol
_atom_site_label
_atom_site_fract_x
_atom_site_fract_y
_atom_site_fract_z
Si Si1 0.275001 0.159466 0.706270
Si Si2 0.623575 0.733313 0.087243
Si Si3 0.718164 0.867075 0.696101
Si Si4 0.124387 0.056189 0.615233
Si Si5 0.369887 0.917234 0.431381
Si Si6 0.877713 0.745155 0.307833
Si Si7 0.711541 0.518416 0.350738
O O1 0.374387 0.197714 0.646217
O O2 0.219537 0.107343 0.618744
O O3 0.317444 0.134782 0.842214
O O4 0.182304 0.210845 0.709994
O O5 0.500000 0.711458 0.083140
O O6 0.684287 0.678816 0.160785
O O7 0.675787 0.742339 0.946631
O O8 0.667002 0.903680 0.576695
O O9 0.626770 0.825458 0.763631
O O10 0.759458 0.914075 0.803096
O O11 0.140073 0.020070 0.481214
O O12 0.000000 0.081489 0.620280
O O13 0.140345 0.013239 0.739470
O O14 0.500000 0.918977 0.420068
O O15 0.322929 0.982207 0.383519
O O16 0.000000 0.767085 0.312009
#
# Coordination Sequence:
#
# PCOD8175409 Si02
#       7
#     8   8   8   8   8   8   8
#     4  10  21  39  59  90 125 159 205 260 305 385
#     4  10  21  38  62  91 124 163 202 255 323 379
#     4  11  22  41  62  91 128 164 213 267 311 387
#     4  11  23  41  66  91 126 169 211 263 320 375
#     4  11  23  41  63  88 125 171 215 268 325 370
#     4  10  20  36  62  89 120 161 202 252 315 376
#     4  11  24  44  62  94 128 163 218 269 313 382
#
# _framework density 20.059346999999999
#
# number of rings (size 3 to 8) (size 9 to 14) (size 15 to 20)
#    0.000    1.429    2.857    2.571    0.000    2.286 
#    0.000    0.714    0.000    0.000    0.000    0.000 
#    0.000    0.000    0.000    0.000    0.000    0.000 
#
# Total GULP energy -347042.603379 kJ/mol
# GULP energy per Si atom -12394.378692 kJ/mol
# Density = 2.001369 g / cm^3
# Si number density = 20.059347 Si / 1000 Ang^3
#
#
#
# Elastic Constant Matrix: (Units=GPa)
#
#
# Indices 1 2 3 4 5 6 
#
# 1 98.3212 32.1351 31.6857 0.0000 0.0000 0.0000
# 2 32.1351 105.6459 39.3881 0.0000 0.0000 0.0000
# 3 31.6857 39.3881 108.1786 0.0000 0.0000 0.0000
# 4 0.0000 0.0000 0.0000 37.4685 0.0000 0.0000
# 5 0.0000 0.0000 0.0000 0.0000 23.7942 0.0000
# 6 0.0000 0.0000 0.0000 0.0000 0.0000 21.9382
#
#
#
# Elastic Compliance Matrix: (Units=1/GPa)
#
#
# Indices 1 2 3 4 5 6 
#
# 1 0.011849 -0.002673 -0.002497 0.000000 0.000000 0.000000
# 2 -0.002673 0.011555 -0.003424 0.000000 0.000000 0.000000
# 3 -0.002497 -0.003424 0.011222 0.000000 0.000000 0.000000
# 4 0.000000 0.000000 0.000000 0.026689 0.000000 0.000000
# 5 0.000000 0.000000 0.000000 0.000000 0.042027 0.000000
# 6 0.000000 0.000000 0.000000 0.000000 0.000000 0.045583
#
#
# Mechanical properties :
#
#
# Convention : Reuss Voigt Hill
#
# Bulk Modulus (GPa) = 57.34887 57.61813 57.48350
# Shear Modulus (GPa) = 29.08195 30.56929 29.82562
#
# Velocity S-wave (km/s) = 3.81175 3.90801 3.86018
# Velocity P-wave (km/s) = 6.92995 7.01067 6.97043
#
# Compressibility (1/GPa) = 0.01743713
#
# Stress axis : x y z
#
# Youngs Moduli (GPa) = 84.39346 86.53949 89.10849
#
# Poissons Ratio (x) = 0.23134 0.22254
# Poissons Ratio (y) = 0.22560 0.30514
# Poissons Ratio (z) = 0.21076 0.29634
#
# Static dielectric constant tensor:
#      x y z
#    x 3.545400 0.000000 0.000000 
#    y 0.000000 3.686170 0.000000 
#    z 0.000000 0.000000 3.863850 
# 
# 
# High freq. dielectric constant tensor:
#      x y z
#    x 1.777640 0.000000 0.000000 
#    y 0.000000 1.787680 0.000000 
#    z 0.000000 0.000000 1.792960 
# 
# From -- ./inp_files/7856.got.cif
#   From: 2010.03.12/outbox.cif.g09.slc.cpg/sg36_4_cif.got.tgz:7856.got - 2010.04.14 02:13:53.
