data_PCOD8175433
_publ_section_title
;
Structure prediction by ZEFSAII (Michael W. Deem and Ramdas Pophale) SiO2 
 PCOD8175433
Probable space group: C M C 21
;
_chemical_formula_sum "Si O2"
_cell_formula_units_Z 64
_cell_length_a 8.968083
_cell_length_b 15.434288
_cell_length_c 23.899568
_cell_angle_alpha 90.000000
_cell_angle_beta 90.000000
_cell_angle_gamma 90.000000
_cell_volume 3308.082027
_symmetry_space_group_name_H-M "C M C 21"
_symmetry_group_IT_number 36
_symmetry_cell_setting 'orthorhombic'
loop_
_space_group_symop_operation_xyz
x,y,z
-x,-y,1/2+z
x,-y,1/2+z
-x,y,z
1/2+x,1/2+y,z
1/2-x,1/2-y,1/2+z
1/2+x,1/2-y,1/2+z
1/2-x,1/2+y,z
loop_
_atom_site_type_symbol
_atom_site_label
_atom_site_fract_x
_atom_site_fract_y
_atom_site_fract_z
Si Si1 0.670776 0.272905 0.932620
Si Si2 0.324657 0.529151 0.424473
Si Si3 0.323808 0.373574 0.502250
Si Si4 0.823552 0.032030 0.701365
Si Si5 0.169757 0.210668 0.306780
Si Si6 0.827646 0.296813 0.192761
Si Si7 0.177086 0.127728 0.127703
Si Si8 0.175843 0.466746 0.808772
O O1 0.500000 0.257657 0.949360
O O2 0.716731 0.373108 0.943205
O O3 0.770527 0.212078 0.970741
O O4 0.698878 0.247779 0.867642
O O5 0.500000 0.522739 0.412077
O O6 0.271909 0.461937 0.471952
O O7 0.237977 0.503101 0.368507
O O8 0.500000 0.369032 0.504254
O O9 0.257394 0.374843 0.564920
O O10 0.771908 0.122164 0.673547
O O11 0.000000 0.029150 0.708216
O O12 0.763643 0.955070 0.661828
O O13 0.746915 0.027421 0.761734
O O14 0.195093 0.281898 0.259193
O O15 0.281581 0.132136 0.295812
O O16 0.000000 0.173806 0.303930
O O17 0.767372 0.214387 0.158420
O O18 0.000000 0.315277 0.178796
O O19 0.000000 0.125059 0.126865
O O20 0.000000 0.478679 0.808063
#
# Coordination Sequence:
#
# PCOD8175433 Si02
#       8
#     8   8   8   8   8   8   8   8
#     4   9  19  35  55  82 115 151 186 230 289 339
#     4   9  20  38  57  81 116 155 190 229 286 346
#     4  10  21  38  61  85 109 150 200 236 274 339
#     4  11  22  38  59  85 115 153 194 235 289 347
#     4   9  18  36  59  81 117 158 186 225 292 351
#     4  10  20  37  59  85 115 152 189 234 290 342
#     4   9  20  40  61  80 114 155 190 233 289 343
#     4  11  21  34  57  87 119 150 191 240 287 339
#
# _framework density 19.346557000000001
#
# number of rings (size 3 to 8) (size 9 to 14) (size 15 to 20)
#    0.000    2.250    1.250    2.250    1.750    4.000 
#    0.000    3.125    0.000    0.000    0.000    0.000 
#    0.000    0.000    0.000    0.000    0.000    0.000 
#
# Total GULP energy -396839.473993 kJ/mol
# GULP energy per Si atom -12401.233562 kJ/mol
# Density = 1.930252 g / cm^3
# Si number density = 19.346557 Si / 1000 Ang^3
#
#
#
# Elastic Constant Matrix: (Units=GPa)
#
#
# Indices 1 2 3 4 5 6 
#
# 1 58.9549 39.2690 38.9380 0.0000 0.0000 0.0000
# 2 39.2690 141.6272 79.8876 0.0000 0.0000 0.0000
# 3 38.9380 79.8876 137.8803 0.0000 0.0000 0.0000
# 4 0.0000 0.0000 0.0000 23.8714 0.0000 0.0000
# 5 0.0000 0.0000 0.0000 0.0000 18.8547 0.0000
# 6 0.0000 0.0000 0.0000 0.0000 0.0000 33.7084
#
#
#
# Elastic Compliance Matrix: (Units=1/GPa)
#
#
# Indices 1 2 3 4 5 6 
#
# 1 0.022207 -0.003892 -0.004016 0.000000 0.000000 0.000000
# 2 -0.003892 0.011171 -0.005373 0.000000 0.000000 0.000000
# 3 -0.004016 -0.005373 0.011500 0.000000 0.000000 0.000000
# 4 0.000000 0.000000 0.000000 0.041891 0.000000 0.000000
# 5 0.000000 0.000000 0.000000 0.000000 0.053037 0.000000
# 6 0.000000 0.000000 0.000000 0.000000 0.000000 0.029666
#
#
# Mechanical properties :
#
#
# Convention : Reuss Voigt Hill
#
# Bulk Modulus (GPa) = 54.60000 72.73907 63.66953
# Shear Modulus (GPa) = 24.73526 27.31143 26.02335
#
# Velocity S-wave (km/s) = 3.57954 3.76133 3.67156
# Velocity P-wave (km/s) = 6.73554 7.51951 7.13830
#
# Compressibility (1/GPa) = 0.01831502
#
# Stress axis : x y z
#
# Youngs Moduli (GPa) = 45.03051 89.51943 86.95510
#
# Poissons Ratio (x) = 0.34839 0.34925
# Poissons Ratio (y) = 0.17525 0.46723
# Poissons Ratio (z) = 0.18086 0.48101
#
# Static dielectric constant tensor:
#      x y z
#    x 3.266620 0.000000 0.000000 
#    y 0.000000 3.540390 0.000000 
#    z 0.000000 0.000000 3.729100 
# 
# 
# High freq. dielectric constant tensor:
#      x y z
#    x 1.730330 0.000000 0.000000 
#    y 0.000000 1.757210 0.000000 
#    z 0.000000 0.000000 1.752670 
# 
# From -- ./inp_files/16671.got.cif
#   From: 2010.03.12/outbox.cif.g09.slc.cpg/sg36_9_cif.got.tgz:16671.got - 2010.04.14 02:13:53.
