data_PCOD8175454
_publ_section_title
;
Structure prediction by ZEFSAII (Michael W. Deem and Ramdas Pophale) SiO2 
 PCOD8175454
Probable space group: C M C 21
;
_chemical_formula_sum "Si O2"
_cell_formula_units_Z 48
_cell_length_a 8.465403
_cell_length_b 23.927272
_cell_length_c 11.967035
_cell_angle_alpha 90.000000
_cell_angle_beta 90.000000
_cell_angle_gamma 90.000000
_cell_volume 2423.970809
_symmetry_space_group_name_H-M "C M C 21"
_symmetry_group_IT_number 36
_symmetry_cell_setting 'orthorhombic'
loop_
_space_group_symop_operation_xyz
x,y,z
-x,-y,1/2+z
x,-y,1/2+z
-x,y,z
1/2+x,1/2+y,z
1/2-x,1/2-y,1/2+z
1/2+x,1/2-y,1/2+z
1/2-x,1/2+y,z
loop_
_atom_site_type_symbol
_atom_site_label
_atom_site_fract_x
_atom_site_fract_y
_atom_site_fract_z
Si Si1 0.812650 0.330903 0.450190
Si Si2 0.184175 0.605054 0.525524
Si Si3 0.685029 0.143761 0.198102
Si Si4 0.313589 0.922815 0.276905
Si Si5 0.682866 0.543028 0.323434
Si Si6 0.814309 0.207111 0.401627
O O1 0.751496 0.348078 0.572682
O O2 0.748790 0.375421 0.360585
O O3 0.748715 0.269640 0.418237
O O4 0.000000 0.330899 0.446575
O O5 0.233233 0.596060 0.653010
O O6 0.278189 0.560643 0.450207
O O7 0.226773 0.668137 0.491431
O O8 0.000000 0.594609 0.506002
O O9 0.500000 0.156290 0.206971
O O10 0.717831 0.080364 0.236298
O O11 0.776971 0.187453 0.276180
O O12 0.500000 0.932387 0.289809
O O13 0.223807 0.978985 0.306983
O O14 0.500000 0.553816 0.299891
O O15 0.000000 0.203385 0.423747
#
# Coordination Sequence:
#
# PCOD8175454 Si02
#       6
#     8   8   8   8   8   8
#     4   9  21  38  59  86 116 149 190 236 284 335
#     4  10  21  38  62  86 113 153 196 234 280 346
#     4  10  20  38  61  85 113 153 196 232 280 347
#     4  10  22  40  61  85 113 152 197 237 280 339
#     4  11  23  39  59  86 119 150 187 240 294 342
#     4  10  20  37  60  86 118 151 186 237 290 335
#
# _framework density 19.802219999999998
#
# number of rings (size 3 to 8) (size 9 to 14) (size 15 to 20)
#    0.000    2.000    0.000    5.000    4.667    1.333 
#    0.000    5.000    0.000    0.000    0.000    0.000 
#    0.000    0.000    0.000    0.000    0.000    0.000 
#
# Total GULP energy -297688.529565 kJ/mol
# GULP energy per Si atom -12403.688732 kJ/mol
# Density = 1.975715 g / cm^3
# Si number density = 19.802220 Si / 1000 Ang^3
#
#
#
# Elastic Constant Matrix: (Units=GPa)
#
#
# Indices 1 2 3 4 5 6 
#
# 1 38.6922 15.2443 17.2960 0.0000 0.0000 0.0000
# 2 15.2443 158.5607 83.5475 0.0000 0.0000 0.0000
# 3 17.2960 83.5475 161.7357 0.0000 0.0000 0.0000
# 4 0.0000 0.0000 0.0000 22.3524 0.0000 0.0000
# 5 0.0000 0.0000 0.0000 0.0000 18.1044 0.0000
# 6 0.0000 0.0000 0.0000 0.0000 0.0000 27.3260
#
#
#
# Elastic Compliance Matrix: (Units=1/GPa)
#
#
# Indices 1 2 3 4 5 6 
#
# 1 0.027399 -0.001498 -0.002156 0.000000 0.000000 0.000000
# 2 -0.001498 0.008747 -0.004358 0.000000 0.000000 0.000000
# 3 -0.002156 -0.004358 0.008665 0.000000 0.000000 0.000000
# 4 0.000000 0.000000 0.000000 0.044738 0.000000 0.000000
# 5 0.000000 0.000000 0.000000 0.000000 0.055235 0.000000
# 6 0.000000 0.000000 0.000000 0.000000 0.000000 0.036595
#
#
# Mechanical properties :
#
#
# Convention : Reuss Voigt Hill
#
# Bulk Modulus (GPa) = 34.73917 65.68494 50.21205
# Shear Modulus (GPa) = 24.15459 29.74994 26.95226
#
# Velocity S-wave (km/s) = 3.49634 3.88023 3.69327
# Velocity P-wave (km/s) = 5.82068 7.30187 6.60294
#
# Compressibility (1/GPa) = 0.02878595
#
# Stress axis : x y z
#
# Youngs Moduli (GPa) = 36.49761 114.32213 115.40833
#
# Poissons Ratio (x) = 0.17126 0.24884
# Poissons Ratio (y) = 0.05468 0.50299
# Poissons Ratio (z) = 0.07870 0.49825
#
# Static dielectric constant tensor:
#      x y z
#    x 3.462280 0.000000 0.000000 
#    y 0.000000 3.713030 0.000000 
#    z 0.000000 0.000000 3.778820 
# 
# 
# High freq. dielectric constant tensor:
#      x y z
#    x 1.761050 0.000000 0.000000 
#    y 0.000000 1.779610 0.000000 
#    z 0.000000 0.000000 1.779650 
# 
# From -- ./inp_files/6730.got.cif
#   From: 2010.03.12/outbox.cif.g09.slc.cpg/sg36_4_cif.got.tgz:6730.got - 2010.04.14 02:13:53.
