data_PCOD8175134
_publ_section_title
;
Structure prediction by ZEFSAII (Michael W. Deem and Ramdas Pophale) SiO2 
 PCOD8175134
Probable space group: C M C 21
;
_chemical_formula_sum "Si O2"
_cell_formula_units_Z 64
_cell_length_a 8.875528
_cell_length_b 18.503636
_cell_length_c 20.301425
_cell_angle_alpha 90.000000
_cell_angle_beta 90.000000
_cell_angle_gamma 90.000000
_cell_volume 3334.093677
_symmetry_space_group_name_H-M "C M C 21"
_symmetry_group_IT_number 36
_symmetry_cell_setting 'orthorhombic'
loop_
_space_group_symop_operation_xyz
x,y,z
-x,-y,1/2+z
x,-y,1/2+z
-x,y,z
1/2+x,1/2+y,z
1/2-x,1/2-y,1/2+z
1/2+x,1/2-y,1/2+z
1/2-x,1/2+y,z
loop_
_atom_site_type_symbol
_atom_site_label
_atom_site_fract_x
_atom_site_fract_y
_atom_site_fract_z
Si Si1 0.178547 0.046048 0.336540
Si Si2 0.677608 0.295823 0.199819
Si Si3 0.677257 0.199514 0.321214
Si Si4 0.679197 0.542769 0.710959
Si Si5 0.327749 0.712965 0.086548
Si Si6 0.324342 0.547539 0.086951
Si Si7 0.177948 0.543566 0.948417
Si Si8 0.675079 0.693715 0.938238
O O1 0.226105 0.127598 0.322752
O O2 0.000000 0.041435 0.344094
O O3 0.238196 0.997009 0.276267
O O4 0.255668 0.019344 0.403122
O O5 0.500000 0.301171 0.202238
O O6 0.735059 0.244236 0.258094
O O7 0.744855 0.376038 0.210150
O O8 0.725075 0.265663 0.129136
O O9 0.500000 0.181841 0.317353
O O10 0.716496 0.245391 0.385956
O O11 0.500000 0.541750 0.710381
O O12 0.738407 0.501168 0.646298
O O13 0.500000 0.734257 0.099454
O O14 0.296910 0.630488 0.107287
O O15 0.283903 0.724422 0.010211
O O16 0.500000 0.534067 0.071937
O O17 0.231589 0.527329 0.022246
O O18 0.232855 0.621366 0.922483
O O19 0.000000 0.540509 0.945616
O O20 0.500000 0.671561 0.935012
#
# Coordination Sequence:
#
# PCOD8175134 Si02
#       8
#     8   8   8   8   8   8   8   8
#     4  11  22  38  59  80 108 147 188 228 275 329
#     4  10  20  34  54  79 108 140 174 220 276 327
#     4  10  21  37  56  80 111 143 180 228 277 324
#     4   9  19  36  58  81 105 141 187 228 269 326
#     4   9  18  33  54  79 106 139 178 219 264 318
#     4   9  18  36  59  80 106 143 185 223 266 325
#     4  11  22  36  56  84 115 144 182 229 274 324
#     4   9  19  38  60  79 107 147 184 221 271 327
#
# _framework density 19.195620999999999
#
# number of rings (size 3 to 8) (size 9 to 14) (size 15 to 20)
#    0.000    2.250    0.000    3.750    0.000    7.000 
#    0.000    6.875    0.000    0.000    0.000    0.000 
#    0.000    0.000    0.000    0.000    0.000    0.000 
#
# Total GULP energy -396903.600840 kJ/mol
# GULP energy per Si atom -12403.237526 kJ/mol
# Density = 1.915193 g / cm^3
# Si number density = 19.195621 Si / 1000 Ang^3
#
#
#
# Elastic Constant Matrix: (Units=GPa)
#
#
# Indices 1 2 3 4 5 6 
#
# 1 59.6218 34.0162 32.3979 0.0000 0.0000 0.0000
# 2 34.0162 105.8811 58.2512 0.0000 0.0000 0.0000
# 3 32.3979 58.2512 106.2859 0.0000 0.0000 0.0000
# 4 0.0000 0.0000 0.0000 39.9231 0.0000 0.0000
# 5 0.0000 0.0000 0.0000 0.0000 20.0597 0.0000
# 6 0.0000 0.0000 0.0000 0.0000 0.0000 27.9836
#
#
#
# Elastic Compliance Matrix: (Units=1/GPa)
#
#
# Indices 1 2 3 4 5 6 
#
# 1 0.021658 -0.004762 -0.003992 0.000000 0.000000 0.000000
# 2 -0.004762 0.014569 -0.006533 0.000000 0.000000 0.000000
# 3 -0.003992 -0.006533 0.014206 0.000000 0.000000 0.000000
# 4 0.000000 0.000000 0.000000 0.025048 0.000000 0.000000
# 5 0.000000 0.000000 0.000000 0.000000 0.049851 0.000000
# 6 0.000000 0.000000 0.000000 0.000000 0.000000 0.035735
#
#
# Mechanical properties :
#
#
# Convention : Reuss Voigt Hill
#
# Bulk Modulus (GPa) = 50.35486 57.90216 54.12851
# Shear Modulus (GPa) = 25.21929 27.40151 26.31040
#
# Velocity S-wave (km/s) = 3.62858 3.78231 3.70624
# Velocity P-wave (km/s) = 6.62154 7.02170 6.82455
#
# Compressibility (1/GPa) = 0.01985906
#
# Stress axis : x y z
#
# Youngs Moduli (GPa) = 46.17132 68.64097 70.39327
#
# Poissons Ratio (x) = 0.32686 0.28102
# Poissons Ratio (y) = 0.21986 0.45988
# Poissons Ratio (z) = 0.18432 0.44843
#
# Static dielectric constant tensor:
#      x y z
#    x 3.241180 0.000000 0.000000 
#    y 0.000000 3.573060 0.000000 
#    z 0.000000 0.000000 3.708950 
# 
# 
# High freq. dielectric constant tensor:
#      x y z
#    x 1.724580 0.000000 0.000000 
#    y 0.000000 1.749770 0.000000 
#    z 0.000000 0.000000 1.760930 
# 
# From -- ./inp_files/15724.got.cif
#   From: 2010.03.12/outbox.cif.g09.slc.cpg/sg36_8_cif.got.tgz:15724.got - 2010.04.14 02:13:53.
