data_PCOD8175792
_publ_section_title
;
Structure prediction by ZEFSAII (Michael W. Deem and Ramdas Pophale) SiO2 
 PCOD8175792
Probable space group: C M C 21
;
_chemical_formula_sum "Si O2"
_cell_formula_units_Z 48
_cell_length_a 9.090814
_cell_length_b 23.808806
_cell_length_c 11.795830
_cell_angle_alpha 90.000000
_cell_angle_beta 90.000000
_cell_angle_gamma 90.000000
_cell_volume 2553.106277
_symmetry_space_group_name_H-M "C M C 21"
_symmetry_group_IT_number 36
_symmetry_cell_setting 'orthorhombic'
loop_
_space_group_symop_operation_xyz
x,y,z
-x,-y,1/2+z
x,-y,1/2+z
-x,y,z
1/2+x,1/2+y,z
1/2-x,1/2-y,1/2+z
1/2+x,1/2-y,1/2+z
1/2-x,1/2+y,z
loop_
_atom_site_type_symbol
_atom_site_label
_atom_site_fract_x
_atom_site_fract_y
_atom_site_fract_z
Si Si1 0.670693 0.607423 0.318970
Si Si2 0.167364 0.357671 0.482876
Si Si3 0.671394 0.962624 0.637355
Si Si4 0.172161 0.707629 0.204507
Si Si5 0.673718 0.332071 0.254669
Si Si6 0.170532 0.924034 0.076652
O O1 0.500000 0.607888 0.286139
O O2 0.748024 0.556806 0.251761
O O3 0.739927 0.667384 0.288945
O O4 0.696110 0.598267 0.451087
O O5 0.199816 0.417955 0.537993
O O6 0.201540 0.309176 0.574285
O O7 0.273577 0.350445 0.377634
O O8 0.000000 0.353600 0.440338
O O9 0.500000 0.968046 0.665759
O O10 0.733220 0.021258 0.595736
O O11 0.233065 0.770359 0.222545
O O12 0.000000 0.701275 0.233079
O O13 0.500000 0.330706 0.255232
O O14 0.729851 0.376306 0.161731
O O15 0.000000 0.938438 0.099017
#
# Coordination Sequence:
#
# PCOD8175792 Si02
#       6
#     8   8   8   8   8   8
#     4  10  21  38  62  87 114 150 193 238 285 341
#     4   9  20  38  59  83 112 149 190 234 284 337
#     4  10  22  40  61  84 116 153 190 237 288 342
#     4   9  20  39  60  83 116 153 189 233 286 340
#     4  10  22  38  58  85 117 150 188 235 284 336
#     4  10  23  39  58  86 117 151 190 237 287 336
#
# _framework density 18.800629000000001
#
# number of rings (size 3 to 8) (size 9 to 14) (size 15 to 20)
#    0.000    2.333    0.000    2.000    4.667    6.000 
#    0.000    0.000    0.000    0.000    0.000    0.000 
#    0.000    0.000    0.000    0.000    0.000    0.000 
#
# Total GULP energy -297684.352918 kJ/mol
# GULP energy per Si atom -12403.514705 kJ/mol
# Density = 1.875784 g / cm^3
# Si number density = 18.800629 Si / 1000 Ang^3
#
#
#
# Elastic Constant Matrix: (Units=GPa)
#
#
# Indices 1 2 3 4 5 6 
#
# 1 61.6667 50.1140 42.0195 0.0000 0.0000 0.0000
# 2 50.1140 133.6879 58.5480 0.0000 0.0000 0.0000
# 3 42.0195 58.5480 109.1733 0.0000 0.0000 0.0000
# 4 0.0000 0.0000 0.0000 18.3393 0.0000 0.0000
# 5 0.0000 0.0000 0.0000 0.0000 30.0539 0.0000
# 6 0.0000 0.0000 0.0000 0.0000 0.0000 25.2615
#
#
#
# Elastic Compliance Matrix: (Units=1/GPa)
#
#
# Indices 1 2 3 4 5 6 
#
# 1 0.026276 -0.007085 -0.006314 0.000000 0.000000 0.000000
# 2 -0.007085 0.011686 -0.003540 0.000000 0.000000 0.000000
# 3 -0.006314 -0.003540 0.013489 0.000000 0.000000 0.000000
# 4 0.000000 0.000000 0.000000 0.054528 0.000000 0.000000
# 5 0.000000 0.000000 0.000000 0.000000 0.033274 0.000000
# 6 0.000000 0.000000 0.000000 0.000000 0.000000 0.039586
#
#
# Mechanical properties :
#
#
# Convention : Reuss Voigt Hill
#
# Bulk Modulus (GPa) = 56.90576 67.32122 62.11349
# Shear Modulus (GPa) = 22.87560 24.98736 23.93148
#
# Velocity S-wave (km/s) = 3.49197 3.64960 3.57165
# Velocity P-wave (km/s) = 6.82585 7.32428 7.07945
#
# Compressibility (1/GPa) = 0.01757291
#
# Stress axis : x y z
#
# Youngs Moduli (GPa) = 38.05777 85.57005 74.13679
#
# Poissons Ratio (x) = 0.60623 0.46809
# Poissons Ratio (y) = 0.26962 0.26248
# Poissons Ratio (z) = 0.24029 0.30296
#
# Static dielectric constant tensor:
#      x y z
#    x 3.430150 0.000000 0.000000 
#    y 0.000000 3.723490 0.000000 
#    z 0.000000 0.000000 3.395980 
# 
# 
# High freq. dielectric constant tensor:
#      x y z
#    x 1.728980 0.000000 0.000000 
#    y 0.000000 1.740790 0.000000 
#    z 0.000000 0.000000 1.734120 
# 
# From -- ./inp_files/6704.got.cif
#   From: 2010.03.12/outbox.cif.g09.slc.cpg/sg36_4_cif.got.tgz:6704.got - 2010.04.14 02:13:53.
