data_PCOD8175760
_publ_section_title
;
Structure prediction by ZEFSAII (Michael W. Deem and Ramdas Pophale) SiO2 
 PCOD8175760
Probable space group: C M C 21
;
_chemical_formula_sum "Si O2"
_cell_formula_units_Z 64
_cell_length_a 8.830970
_cell_length_b 18.232757
_cell_length_c 20.122739
_cell_angle_alpha 90.000000
_cell_angle_beta 90.000000
_cell_angle_gamma 90.000000
_cell_volume 3240.021168
_symmetry_space_group_name_H-M "C M C 21"
_symmetry_group_IT_number 36
_symmetry_cell_setting 'orthorhombic'
loop_
_space_group_symop_operation_xyz
x,y,z
-x,-y,1/2+z
x,-y,1/2+z
-x,y,z
1/2+x,1/2+y,z
1/2-x,1/2-y,1/2+z
1/2+x,1/2-y,1/2+z
1/2-x,1/2+y,z
loop_
_atom_site_type_symbol
_atom_site_label
_atom_site_fract_x
_atom_site_fract_y
_atom_site_fract_z
Si Si1 0.678146 0.946624 0.007390
Si Si2 0.323271 0.702768 0.147453
Si Si3 0.821980 0.965389 0.623133
Si Si4 0.326222 0.699488 0.914992
Si Si5 0.177856 0.789703 0.029413
Si Si6 0.676395 0.469554 0.393195
Si Si7 0.822904 0.220898 0.763648
Si Si8 0.320354 0.557415 0.747524
O O1 0.500000 0.939821 0.011660
O O2 0.748157 0.868640 0.023450
O O3 0.736304 0.007539 0.058365
O O4 0.726039 0.972381 0.934187
O O5 0.500000 0.718088 0.138845
O O6 0.283015 0.619201 0.132175
O O7 0.231703 0.754095 0.097775
O O8 0.272211 0.719250 0.222891
O O9 0.000000 0.979180 0.614070
O O10 0.758033 0.009248 0.686917
O O11 0.500000 0.715996 0.934105
O O12 0.295410 0.612930 0.918832
O O13 0.290019 0.730749 0.841817
O O14 0.218584 0.739095 0.967054
O O15 0.000000 0.800396 0.032689
O O16 0.500000 0.489780 0.400003
O O17 0.735102 0.476563 0.317389
O O18 0.764530 0.140955 0.739879
O O19 0.000000 0.230846 0.748813
O O20 0.500000 0.558119 0.749953
#
# Coordination Sequence:
#
# PCOD8175760 Si02
#       8
#     8   8   8   8   8   8   8   8
#     4  12  25  39  57  84 115 145 185 238 289 338
#     4  11  23  37  56  85 119 152 190 238 284 332
#     4  10  21  38  59  83 114 151 188 228 277 335
#     4   9  19  37  60  87 119 152 188 234 282 329
#     4  12  25  40  59  80 108 151 197 239 288 344
#     4   9  18  36  61  86 115 151 186 223 274 335
#     4   9  18  35  60  86 115 153 192 231 279 335
#     4   8  16  34  60  85 109 145 190 227 267 328
#
# _framework density 19.752956999999999
#
# number of rings (size 3 to 8) (size 9 to 14) (size 15 to 20)
#    0.000    2.000    0.000    5.625    0.000    7.000 
#    0.000    3.750    0.000    0.000    0.000    0.000 
#    0.000    0.000    0.000    0.000    0.000    0.000 
#
# Total GULP energy -396896.155283 kJ/mol
# GULP energy per Si atom -12403.004853 kJ/mol
# Density = 1.970800 g / cm^3
# Si number density = 19.752957 Si / 1000 Ang^3
#
#
#
# Elastic Constant Matrix: (Units=GPa)
#
#
# Indices 1 2 3 4 5 6 
#
# 1 62.0327 20.8166 13.6309 0.0000 0.0000 0.0000
# 2 20.8166 46.7454 8.3078 0.0000 0.0000 0.0000
# 3 13.6309 8.3078 72.3455 0.0000 0.0000 0.0000
# 4 0.0000 0.0000 0.0000 40.7000 0.0000 0.0000
# 5 0.0000 0.0000 0.0000 0.0000 26.7699 0.0000
# 6 0.0000 0.0000 0.0000 0.0000 0.0000 26.0946
#
#
#
# Elastic Compliance Matrix: (Units=1/GPa)
#
#
# Indices 1 2 3 4 5 6 
#
# 1 0.019466 -0.008184 -0.002728 0.000000 0.000000 0.000000
# 2 -0.008184 0.025279 -0.001361 0.000000 0.000000 0.000000
# 3 -0.002728 -0.001361 0.014493 0.000000 0.000000 0.000000
# 4 0.000000 0.000000 0.000000 0.024570 0.000000 0.000000
# 5 0.000000 0.000000 0.000000 0.000000 0.037355 0.000000
# 6 0.000000 0.000000 0.000000 0.000000 0.000000 0.038322
#
#
# Mechanical properties :
#
#
# Convention : Reuss Voigt Hill
#
# Bulk Modulus (GPa) = 28.82473 29.62601 29.22537
# Shear Modulus (GPa) = 25.56303 27.93745 26.75024
#
# Velocity S-wave (km/s) = 3.60131 3.76485 3.68399
# Velocity P-wave (km/s) = 5.64951 5.82492 5.73788
#
# Compressibility (1/GPa) = 0.03469243
#
# Stress axis : x y z
#
# Youngs Moduli (GPa) = 51.37096 39.55887 68.99967
#
# Poissons Ratio (x) = 0.32374 0.18823
# Poissons Ratio (y) = 0.42041 0.09390
# Poissons Ratio (z) = 0.14014 0.05384
#
# Static dielectric constant tensor:
#      x y z
#    x 3.384330 0.000000 0.000000 
#    y 0.000000 3.628540 0.000000 
#    z 0.000000 0.000000 3.832570 
# 
# 
# High freq. dielectric constant tensor:
#      x y z
#    x 1.751340 0.000000 0.000000 
#    y 0.000000 1.772500 0.000000 
#    z 0.000000 0.000000 1.786530 
# 
# From -- ./inp_files/15582.got.cif
#   From: 2010.03.12/outbox.cif.g09.slc.cpg/sg36_8_cif.got.tgz:15582.got - 2010.04.14 02:13:53.
