data_PCOD8175093
_publ_section_title
;
Structure prediction by ZEFSAII (Michael W. Deem and Ramdas Pophale) SiO2 
 PCOD8175093
Probable space group: C M C 21
;
_chemical_formula_sum "Si O2"
_cell_formula_units_Z 64
_cell_length_a 9.093443
_cell_length_b 24.472437
_cell_length_c 15.008630
_cell_angle_alpha 90.000000
_cell_angle_beta 90.000000
_cell_angle_gamma 90.000000
_cell_volume 3340.001173
_symmetry_space_group_name_H-M "C M C 21"
_symmetry_group_IT_number 36
_symmetry_cell_setting 'orthorhombic'
loop_
_space_group_symop_operation_xyz
x,y,z
-x,-y,1/2+z
x,-y,1/2+z
-x,y,z
1/2+x,1/2+y,z
1/2-x,1/2-y,1/2+z
1/2+x,1/2-y,1/2+z
1/2-x,1/2+y,z
loop_
_atom_site_type_symbol
_atom_site_label
_atom_site_fract_x
_atom_site_fract_y
_atom_site_fract_z
Si Si1 0.330762 0.861838 0.180670
Si Si2 0.675248 0.630781 0.863427
Si Si3 0.673498 0.557988 0.027181
Si Si4 0.325935 0.865060 0.666784
Si Si5 0.339106 0.255889 0.167181
Si Si6 0.669964 0.944092 0.020341
Si Si7 0.324415 0.863510 0.868578
Si Si8 0.160105 0.752675 0.377834
O O1 0.500000 0.853457 0.205457
O O2 0.245931 0.882558 0.268200
O O3 0.271763 0.804370 0.140958
O O4 0.307999 0.907941 0.107453
O O5 0.500000 0.635179 0.850087
O O6 0.738394 0.689434 0.901330
O O7 0.720248 0.584027 0.932599
O O8 0.500000 0.558437 0.039427
O O9 0.743057 0.591410 0.107307
O O10 0.730780 0.496832 0.030179
O O11 0.500000 0.873728 0.658160
O O12 0.281717 0.803674 0.634585
O O13 0.272956 0.876419 0.768257
O O14 0.500000 0.268310 0.125179
O O15 0.357508 0.251834 0.272096
O O16 0.500000 0.960907 0.008138
O O17 0.728700 0.911139 0.934118
O O18 0.500000 0.857213 0.871266
O O19 0.257993 0.804392 0.903017
O O20 0.000000 0.753018 0.424132
#
# Coordination Sequence:
#
# PCOD8175093 Si02
#       8
#     8   8   8   8   8   8   8   8
#     4  10  20  33  54  83 110 139 178 223 265 308
#     4   9  19  36  56  77 105 141 175 213 271 331
#     4  11  24  38  53  76 105 140 183 229 272 314
#     4   9  18  35  59  83 108 141 177 213 262 323
#     4   8  15  30  53  80 111 143 170 204 260 325
#     4  10  22  38  54  75 104 140 183 225 264 312
#     4   8  15  31  56  80 101 132 172 211 255 312
#     4   7  11  25  51  78 100 126 164 204 247 309
#
# _framework density 19.161670000000001
#
# number of rings (size 3 to 8) (size 9 to 14) (size 15 to 20)
#    0.000    3.000    0.000    3.000    0.000    4.500 
#    0.000    6.875    0.000    3.000    0.000    0.000 
#    0.000    0.000    0.000    0.000    0.000    0.000 
#
# Total GULP energy -396507.857233 kJ/mol
# GULP energy per Si atom -12390.870539 kJ/mol
# Density = 1.911806 g / cm^3
# Si number density = 19.161670 Si / 1000 Ang^3
#
#
#
# Elastic Constant Matrix: (Units=GPa)
#
#
# Indices 1 2 3 4 5 6 
#
# 1 57.3440 52.1297 40.4394 0.0000 0.0000 0.0000
# 2 52.1297 147.1350 56.5031 0.0000 0.0000 0.0000
# 3 40.4394 56.5031 86.7893 0.0000 0.0000 0.0000
# 4 0.0000 0.0000 0.0000 35.6910 0.0000 0.0000
# 5 0.0000 0.0000 0.0000 0.0000 22.2897 0.0000
# 6 0.0000 0.0000 0.0000 0.0000 0.0000 18.7444
#
#
#
# Elastic Compliance Matrix: (Units=1/GPa)
#
#
# Indices 1 2 3 4 5 6 
#
# 1 0.030799 -0.007202 -0.009662 0.000000 0.000000 0.000000
# 2 -0.007202 0.010746 -0.003640 0.000000 0.000000 0.000000
# 3 -0.009662 -0.003640 0.018394 0.000000 0.000000 0.000000
# 4 0.000000 0.000000 0.000000 0.028018 0.000000 0.000000
# 5 0.000000 0.000000 0.000000 0.000000 0.044864 0.000000
# 6 0.000000 0.000000 0.000000 0.000000 0.000000 0.053349
#
#
# Mechanical properties :
#
#
# Convention : Reuss Voigt Hill
#
# Bulk Modulus (GPa) = 52.82391 65.49032 59.15712
# Shear Modulus (GPa) = 21.41417 24.82477 23.11947
#
# Velocity S-wave (km/s) = 3.34661 3.60327 3.47731
# Velocity P-wave (km/s) = 6.52383 7.18076 6.86017
#
# Compressibility (1/GPa) = 0.01893082
#
# Stress axis : x y z
#
# Youngs Moduli (GPa) = 32.46819 93.05780 54.36417
#
# Poissons Ratio (x) = 0.67016 0.52529
# Poissons Ratio (y) = 0.23382 0.19791
# Poissons Ratio (z) = 0.31372 0.33878
#
# Static dielectric constant tensor:
#      x y z
#    x 3.224560 0.000000 0.000000 
#    y 0.000000 3.594710 0.000000 
#    z 0.000000 0.000000 3.378250 
# 
# 
# High freq. dielectric constant tensor:
#      x y z
#    x 1.712840 0.000000 0.000000 
#    y 0.000000 1.757020 0.000000 
#    z 0.000000 0.000000 1.734950 
# 
# From -- ./inp_files/11052.got.cif
#   From: 2010.03.12/outbox.cif.g09.slc.cpg/sg36_6_cif.got.tgz:11052.got - 2010.04.14 02:13:53.
