data_PCOD8175953
_publ_section_title
;
Structure prediction by ZEFSAII (Michael W. Deem and Ramdas Pophale) SiO2 
 PCOD8175953
Probable space group: C M C 21
;
_chemical_formula_sum "Si O2"
_cell_formula_units_Z 64
_cell_length_a 25.042920
_cell_length_b 13.108290
_cell_length_c 9.858770
_cell_angle_alpha 90.000000
_cell_angle_beta 90.000000
_cell_angle_gamma 90.000000
_cell_volume 3236.337026
_symmetry_space_group_name_H-M "C M C 21"
_symmetry_group_IT_number 36
_symmetry_cell_setting 'orthorhombic'
loop_
_space_group_symop_operation_xyz
x,y,z
-x,-y,1/2+z
x,-y,1/2+z
-x,y,z
1/2+x,1/2+y,z
1/2-x,1/2-y,1/2+z
1/2+x,1/2-y,1/2+z
1/2-x,1/2+y,z
loop_
_atom_site_type_symbol
_atom_site_label
_atom_site_fract_x
_atom_site_fract_y
_atom_site_fract_z
Si Si1 0.060699 0.848976 0.625000
Si Si2 0.842909 0.578584 0.967111
Si Si3 0.269528 0.670802 0.263021
Si Si4 0.121340 0.185244 0.867024
Si Si5 0.938021 0.089222 0.624937
Si Si6 0.157318 0.594122 0.270471
Si Si7 0.122495 0.803831 0.883875
Si Si8 0.231638 0.152592 0.954549
O O1 0.093665 0.790876 0.509812
O O2 0.076700 0.807526 0.771745
O O3 0.000000 0.819341 0.602956
O O4 0.069916 0.969440 0.611559
O O5 0.866821 0.487682 0.875730
O O6 0.862649 0.686973 0.912111
O O7 0.777976 0.567828 0.963872
O O8 0.863103 0.563862 0.120784
O O9 0.222140 0.588065 0.276022
O O10 0.325862 0.633410 0.327158
O O11 0.252635 0.767874 0.346746
O O12 0.277350 0.701038 0.104595
O O13 0.080559 0.122405 0.774314
O O14 0.136698 0.292920 0.801444
O O15 0.174312 0.115900 0.896332
O O16 0.899321 0.144008 0.518948
O O17 0.000000 0.120272 0.603595
#
# Coordination Sequence:
#
# PCOD8175953 Si02
#       8
#     8   8   8   8   8   8   8   8
#     4  11  24  40  64  93 117 151 204 256 310 367
#     4  10  22  38  60  91 125 163 201 241 291 357
#     4   9  19  35  56  87 121 157 198 240 290 349
#     4  11  21  41  63  89 126 161 199 248 304 361
#     4  11  24  42  64  89 119 157 202 256 312 363
#     4  10  22  38  60  91 125 163 201 241 291 357
#     4  11  21  41  63  89 126 161 199 248 304 361
#     4   9  19  35  56  87 121 157 198 240 290 349
#
# _framework density 19.775444
#
# number of rings (size 3 to 8) (size 9 to 14) (size 15 to 20)
#    0.000    1.750    2.500    1.500    3.500    5.000 
#    0.000    0.000    0.000    4.500    0.000    0.000 
#    0.000    0.000    0.000    0.000    0.000    0.000 
#
# Total GULP energy -396626.195422 kJ/mol
# GULP energy per Si atom -12394.568607 kJ/mol
# Density = 1.973043 g / cm^3
# Si number density = 19.775444 Si / 1000 Ang^3
#
#
#
# Elastic Constant Matrix: (Units=GPa)
#
#
# Indices 1 2 3 4 5 6 
#
# 1 88.2124 23.1236 17.7971 0.0000 0.0000 0.0000
# 2 23.1236 49.1402 27.8303 0.0000 0.0000 0.0000
# 3 17.7971 27.8303 96.5558 0.0000 0.0000 0.0000
# 4 0.0000 0.0000 0.0000 33.0037 0.0000 0.0000
# 5 0.0000 0.0000 0.0000 0.0000 36.8731 0.0000
# 6 0.0000 0.0000 0.0000 0.0000 0.0000 17.3476
#
#
#
# Elastic Compliance Matrix: (Units=1/GPa)
#
#
# Indices 1 2 3 4 5 6 
#
# 1 0.012977 -0.005679 -0.000755 0.000000 0.000000 0.000000
# 2 -0.005679 0.026805 -0.006679 0.000000 0.000000 0.000000
# 3 -0.000755 -0.006679 0.012421 0.000000 0.000000 0.000000
# 4 0.000000 0.000000 0.000000 0.030300 0.000000 0.000000
# 5 0.000000 0.000000 0.000000 0.000000 0.027120 0.000000
# 6 0.000000 0.000000 0.000000 0.000000 0.000000 0.057645
#
#
# Mechanical properties :
#
#
# Convention : Reuss Voigt Hill
#
# Bulk Modulus (GPa) = 38.49613 41.26782 39.88197
# Shear Modulus (GPa) = 24.73371 28.45540 26.59455
#
# Velocity S-wave (km/s) = 3.54040 3.79743 3.67117
# Velocity P-wave (km/s) = 6.01843 6.33568 6.17909
#
# Compressibility (1/GPa) = 0.02597664
#
# Stress axis : x y z
#
# Youngs Moduli (GPa) = 77.05777 37.30644 80.50852
#
# Poissons Ratio (x) = 0.21186 0.06079
# Poissons Ratio (y) = 0.43761 0.53774
# Poissons Ratio (z) = 0.05819 0.24918
#
# Static dielectric constant tensor:
#      x y z
#    x 3.934220 0.000000 0.000000 
#    y 0.000000 3.190960 0.000000 
#    z 0.000000 0.000000 3.835040 
# 
# 
# High freq. dielectric constant tensor:
#      x y z
#    x 1.767390 0.000000 0.000000 
#    y 0.000000 1.738610 0.000000 
#    z 0.000000 0.000000 1.796060 
# 
# From -- ./inp_files/5671.got.cif
#   From: 2010.03.12/outbox.cif.g09.slc.cpg/sg36_3_cif.got.tgz:5671.got - 2010.04.14 02:13:53.
