data_PCOD8175248
_publ_section_title
;
Structure prediction by ZEFSAII (Michael W. Deem and Ramdas Pophale) SiO2 
 PCOD8175248
Probable space group: C M C 21
;
_chemical_formula_sum "Si O2"
_cell_formula_units_Z 64
_cell_length_a 8.919517
_cell_length_b 28.905706
_cell_length_c 12.393018
_cell_angle_alpha 90.000000
_cell_angle_beta 90.000000
_cell_angle_gamma 90.000000
_cell_volume 3195.229073
_symmetry_space_group_name_H-M "C M C 21"
_symmetry_group_IT_number 36
_symmetry_cell_setting 'orthorhombic'
loop_
_space_group_symop_operation_xyz
x,y,z
-x,-y,1/2+z
x,-y,1/2+z
-x,y,z
1/2+x,1/2+y,z
1/2-x,1/2-y,1/2+z
1/2+x,1/2-y,1/2+z
1/2-x,1/2+y,z
loop_
_atom_site_type_symbol
_atom_site_label
_atom_site_fract_x
_atom_site_fract_y
_atom_site_fract_z
Si Si1 0.833365 0.933874 0.383840
Si Si2 0.822589 0.275417 0.299118
Si Si3 0.832646 0.165294 0.968971
Si Si4 0.671529 0.064038 0.669642
Si Si5 0.178462 0.318016 0.856371
Si Si6 0.822620 0.881898 0.690396
Si Si7 0.829869 0.464782 0.586416
Si Si8 0.323094 0.163933 0.597012
O O1 0.834536 0.878714 0.391296
O O2 0.781245 0.947884 0.266491
O O3 0.714309 0.955270 0.464459
O O4 0.000000 0.953504 0.407125
O O5 0.778481 0.298206 0.413850
O O6 0.746674 0.225452 0.293019
O O7 0.761387 0.304764 0.196166
O O8 0.000000 0.269749 0.294687
O O9 0.000000 0.187133 0.976108
O O10 0.777295 0.150433 0.088099
O O11 0.500000 0.070684 0.709728
O O12 0.727160 0.110525 0.609995
O O13 0.688549 0.019837 0.593780
O O14 0.239165 0.363816 0.796750
O O15 0.000000 0.317169 0.849948
O O16 0.235822 0.318352 0.980782
O O17 0.772461 0.934797 0.668104
O O18 0.000000 0.881457 0.707750
O O19 0.000000 0.449287 0.607503
O O20 0.500000 0.167444 0.598376
#
# Coordination Sequence:
#
# PCOD8175248 Si02
#       8
#     8   8   8   8   8   8   8   8
#     4  10  20  35  56  85 119 154 195 251 311 360
#     4  11  22  38  62  89 117 155 201 250 306 363
#     4   9  19  36  58  83 113 150 192 247 302 355
#     4  10  20  38  62  87 116 157 207 253 301 363
#     4  11  24  41  61  88 125 165 205 249 308 369
#     4  10  22  41  61  86 124 161 202 252 307 363
#     4  10  21  36  60  90 120 159 208 255 304 367
#     4   9  21  41  62  86 120 159 198 251 307 358
#
# _framework density 20.029862999999999
#
# number of rings (size 3 to 8) (size 9 to 14) (size 15 to 20)
#    0.000    2.000    1.250    2.625    1.750    4.500 
#    0.000    5.625    0.000    0.000    0.000    0.000 
#    0.000    0.000    0.000    0.000    0.000    0.000 
#
# Total GULP energy -396771.446374 kJ/mol
# GULP energy per Si atom -12399.107699 kJ/mol
# Density = 1.998427 g / cm^3
# Si number density = 20.029863 Si / 1000 Ang^3
#
#
#
# Elastic Constant Matrix: (Units=GPa)
#
#
# Indices 1 2 3 4 5 6 
#
# 1 74.4053 38.2500 30.2672 0.0000 0.0000 0.0000
# 2 38.2500 110.4257 45.5574 0.0000 0.0000 0.0000
# 3 30.2672 45.5574 95.1678 0.0000 0.0000 0.0000
# 4 0.0000 0.0000 0.0000 25.7364 0.0000 0.0000
# 5 0.0000 0.0000 0.0000 0.0000 29.3255 0.0000
# 6 0.0000 0.0000 0.0000 0.0000 0.0000 30.8799
#
#
#
# Elastic Compliance Matrix: (Units=1/GPa)
#
#
# Indices 1 2 3 4 5 6 
#
# 1 0.017121 -0.004591 -0.003248 0.000000 0.000000 0.000000
# 2 -0.004591 0.012515 -0.004531 0.000000 0.000000 0.000000
# 3 -0.003248 -0.004531 0.013710 0.000000 0.000000 0.000000
# 4 0.000000 0.000000 0.000000 0.038855 0.000000 0.000000
# 5 0.000000 0.000000 0.000000 0.000000 0.034100 0.000000
# 6 0.000000 0.000000 0.000000 0.000000 0.000000 0.032384
#
#
# Mechanical properties :
#
#
# Convention : Reuss Voigt Hill
#
# Bulk Modulus (GPa) = 53.74254 56.46089 55.10172
# Shear Modulus (GPa) = 27.83558 28.24998 28.04278
#
# Velocity S-wave (km/s) = 3.73192 3.75959 3.74578
# Velocity P-wave (km/s) = 6.74233 6.86262 6.80275
#
# Compressibility (1/GPa) = 0.01860723
#
# Stress axis : x y z
#
# Youngs Moduli (GPa) = 58.40812 79.90152 72.94093
#
# Poissons Ratio (x) = 0.36680 0.23688
# Poissons Ratio (y) = 0.26813 0.33051
# Poissons Ratio (z) = 0.18968 0.36205
#
# Static dielectric constant tensor:
#      x y z
#    x 3.586430 0.000000 0.000000 
#    y 0.000000 3.678840 0.000000 
#    z 0.000000 0.000000 3.658890 
# 
# 
# High freq. dielectric constant tensor:
#      x y z
#    x 1.773860 0.000000 0.000000 
#    y 0.000000 1.780570 0.000000 
#    z 0.000000 0.000000 1.778220 
# 
# From -- ./inp_files/7242.got.cif
#   From: 2010.03.12/outbox.cif.g09.slc.cpg/sg36_4_cif.got.tgz:7242.got - 2010.04.14 02:13:53.
