data_PCOD8175157
_publ_section_title
;
Structure prediction by ZEFSAII (Michael W. Deem and Ramdas Pophale) SiO2 
 PCOD8175157
Probable space group: C M C 21
;
_chemical_formula_sum "Si O2"
_cell_formula_units_Z 64
_cell_length_a 9.477202
_cell_length_b 15.128661
_cell_length_c 23.811246
_cell_angle_alpha 90.000000
_cell_angle_beta 90.000000
_cell_angle_gamma 90.000000
_cell_volume 3413.993978
_symmetry_space_group_name_H-M "C M C 21"
_symmetry_group_IT_number 36
_symmetry_cell_setting 'orthorhombic'
loop_
_space_group_symop_operation_xyz
x,y,z
-x,-y,1/2+z
x,-y,1/2+z
-x,y,z
1/2+x,1/2+y,z
1/2-x,1/2-y,1/2+z
1/2+x,1/2-y,1/2+z
1/2-x,1/2+y,z
loop_
_atom_site_type_symbol
_atom_site_label
_atom_site_fract_x
_atom_site_fract_y
_atom_site_fract_z
Si Si1 0.167967 0.740737 0.625000
Si Si2 0.165314 0.144764 0.329650
Si Si3 0.665270 0.599902 0.202397
Si Si4 0.837404 0.014065 0.908385
Si Si5 0.335618 0.291942 0.385793
Si Si6 0.841998 0.525130 0.511127
Si Si7 0.333524 0.042493 0.637714
Si Si8 0.158920 0.732669 0.503295
O O1 0.220547 0.814492 0.668309
O O2 0.217294 0.643926 0.645524
O O3 0.231250 0.761576 0.562499
O O4 0.000000 0.737435 0.619590
O O5 0.200337 0.114253 0.267116
O O6 0.249041 0.235226 0.340748
O O7 0.000000 0.163279 0.337234
O O8 0.219417 0.067627 0.371406
O O9 0.500000 0.584659 0.191811
O O10 0.749034 0.513892 0.183018
O O11 0.816105 0.104139 0.872678
O O12 0.000000 0.999433 0.923068
O O13 0.759055 0.024728 0.967781
O O14 0.500000 0.263806 0.382698
O O15 0.268858 0.273474 0.447872
O O16 0.794033 0.508155 0.575247
O O17 0.835730 0.628052 0.497909
O O18 0.000000 0.489206 0.502051
O O19 0.500000 0.033140 0.648511
O O20 0.000000 0.768705 0.503623
#
# Coordination Sequence:
#
# PCOD8175157 Si02
#       8
#     8   8   8   8   8   8   8   8
#     4   8  16  32  53  76 103 138 175 215 260 315
#     4  10  22  39  52  75 114 145 175 224 272 311
#     4  10  21  36  57  78 104 146 186 216 260 323
#     4  10  21  34  52  79 110 140 175 221 269 316
#     4  10  20  34  55  79 100 138 185 218 258 318
#     4   9  17  32  54  78 108 138 169 216 270 319
#     4   9  19  35  54  79 108 135 171 224 271 309
#     4   8  14  28  51  76 101 128 170 218 254 305
#
# _framework density 18.746371
#
# number of rings (size 3 to 8) (size 9 to 14) (size 15 to 20)
#    0.000    2.750    1.250    1.500    1.750    2.500 
#    0.000    0.625    0.000    0.750    0.000    0.000 
#    0.000    0.000    0.000    0.000    0.000    0.000 
#
# Total GULP energy -396682.789507 kJ/mol
# GULP energy per Si atom -12396.337172 kJ/mol
# Density = 1.870370 g / cm^3
# Si number density = 18.746371 Si / 1000 Ang^3
#
#
#
# Elastic Constant Matrix: (Units=GPa)
#
#
# Indices 1 2 3 4 5 6 
#
# 1 32.3378 17.0088 24.2369 0.0000 0.0000 0.0000
# 2 17.0088 56.1711 17.6023 0.0000 0.0000 0.0000
# 3 24.2369 17.6023 75.8943 0.0000 0.0000 0.0000
# 4 0.0000 0.0000 0.0000 28.2382 0.0000 0.0000
# 5 0.0000 0.0000 0.0000 0.0000 26.3411 0.0000
# 6 0.0000 0.0000 0.0000 0.0000 0.0000 23.6295
#
#
#
# Elastic Compliance Matrix: (Units=1/GPa)
#
#
# Indices 1 2 3 4 5 6 
#
# 1 0.045232 -0.009888 -0.012151 0.000000 0.000000 0.000000
# 2 -0.009888 0.021360 -0.001796 0.000000 0.000000 0.000000
# 3 -0.012151 -0.001796 0.017473 0.000000 0.000000 0.000000
# 4 0.000000 0.000000 0.000000 0.035413 0.000000 0.000000
# 5 0.000000 0.000000 0.000000 0.000000 0.037963 0.000000
# 6 0.000000 0.000000 0.000000 0.000000 0.000000 0.042320
#
#
# Mechanical properties :
#
#
# Convention : Reuss Voigt Hill
#
# Bulk Modulus (GPa) = 27.47771 31.34435 29.41103
# Shear Modulus (GPa) = 19.26303 22.67880 20.97092
#
# Velocity S-wave (km/s) = 3.20904 3.48195 3.34827
# Velocity P-wave (km/s) = 5.33104 5.73775 5.53813
#
# Compressibility (1/GPa) = 0.03639313
#
# Stress axis : x y z
#
# Youngs Moduli (GPa) = 22.10827 46.81680 57.22996
#
# Poissons Ratio (x) = 0.46295 0.69542
# Poissons Ratio (y) = 0.21862 0.10279
# Poissons Ratio (z) = 0.26865 0.08409
#
# Static dielectric constant tensor:
#      x y z
#    x 3.099300 0.000000 0.000000 
#    y 0.000000 3.412550 0.000000 
#    z 0.000000 0.000000 3.494490 
# 
# 
# High freq. dielectric constant tensor:
#      x y z
#    x 1.691330 0.000000 0.000000 
#    y 0.000000 1.730080 0.000000 
#    z 0.000000 0.000000 1.728660 
# 
# From -- ./inp_files/16668.got.cif
#   From: 2010.03.12/outbox.cif.g09.slc.cpg/sg36_9_cif.got.tgz:16668.got - 2010.04.14 02:13:53.
