data_PCOD8175870
_publ_section_title
;
Structure prediction by ZEFSAII (Michael W. Deem and Ramdas Pophale) SiO2 
 PCOD8175870
Probable space group: C M C 21
;
_chemical_formula_sum "Si O2"
_cell_formula_units_Z 64
_cell_length_a 8.474023
_cell_length_b 15.363801
_cell_length_c 23.846383
_cell_angle_alpha 90.000000
_cell_angle_beta 90.000000
_cell_angle_gamma 90.000000
_cell_volume 3104.636984
_symmetry_space_group_name_H-M "C M C 21"
_symmetry_group_IT_number 36
_symmetry_cell_setting 'orthorhombic'
loop_
_space_group_symop_operation_xyz
x,y,z
-x,-y,1/2+z
x,-y,1/2+z
-x,y,z
1/2+x,1/2+y,z
1/2-x,1/2-y,1/2+z
1/2+x,1/2-y,1/2+z
1/2-x,1/2+y,z
loop_
_atom_site_type_symbol
_atom_site_label
_atom_site_fract_x
_atom_site_fract_y
_atom_site_fract_z
Si Si1 0.317494 0.168348 0.905510
Si Si2 0.818980 0.350268 0.904217
Si Si3 0.184339 0.992550 0.471203
Si Si4 0.682768 0.089527 0.787369
Si Si5 0.314940 0.344203 0.175432
Si Si6 0.817588 0.902023 0.790046
Si Si7 0.813645 0.837232 0.668039
Si Si8 0.187038 0.000685 0.597683
O O1 0.500000 0.191369 0.911887
O O2 0.219693 0.252878 0.924798
O O3 0.274366 0.146438 0.841495
O O4 0.277525 0.087278 0.944585
O O5 0.712508 0.419245 0.937118
O O6 0.786279 0.357665 0.838048
O O7 0.000000 0.371888 0.916777
O O8 0.249429 0.005077 0.534209
O O9 0.000000 0.970354 0.470361
O O10 0.500000 0.061294 0.788439
O O11 0.719940 0.147669 0.733398
O O12 0.792041 0.005039 0.787265
O O13 0.500000 0.355966 0.186693
O O14 0.276516 0.250046 0.149590
O O15 0.250031 0.415952 0.131871
O O16 0.765783 0.860819 0.731325
O O17 0.000000 0.883218 0.803041
O O18 0.000000 0.824216 0.661915
O O19 0.750785 0.913061 0.627234
O O20 0.000000 0.002186 0.598726
#
# Coordination Sequence:
#
# PCOD8175870 Si02
#       8
#     8   8   8   8   8   8   8   8
#     4  11  24  42  63  91 126 161 204 255 309 367
#     4  12  25  41  62  92 128 163 205 252 305 370
#     4  11  23  42  67  90 120 162 209 258 310 363
#     4  11  22  37  61  92 126 159 198 249 307 368
#     4  11  22  39  62  91 124 160 202 247 300 364
#     4  11  21  37  64  91 124 163 199 246 310 368
#     4  10  21  40  62  89 124 159 197 247 305 362
#     4   9  21  42  63  86 120 161 204 252 304 358
#
# _framework density 20.614325999999998
#
# number of rings (size 3 to 8) (size 9 to 14) (size 15 to 20)
#    0.000    1.250    2.500    3.750    0.000    6.500 
#    0.000    6.250    0.000    0.000    0.000    0.000 
#    0.000    0.000    0.000    0.000    0.000    0.000 
#
# Total GULP energy -397009.575144 kJ/mol
# GULP energy per Si atom -12406.549223 kJ/mol
# Density = 2.056741 g / cm^3
# Si number density = 20.614326 Si / 1000 Ang^3
#
#
#
# Elastic Constant Matrix: (Units=GPa)
#
#
# Indices 1 2 3 4 5 6 
#
# 1 39.1909 11.2663 17.6670 0.0000 0.0000 0.0000
# 2 11.2663 143.4414 49.0816 0.0000 0.0000 0.0000
# 3 17.6670 49.0816 125.5612 0.0000 0.0000 0.0000
# 4 0.0000 0.0000 0.0000 7.9809 0.0000 0.0000
# 5 0.0000 0.0000 0.0000 0.0000 3.4891 0.0000
# 6 0.0000 0.0000 0.0000 0.0000 0.0000 36.9377
#
#
#
# Elastic Compliance Matrix: (Units=1/GPa)
#
#
# Indices 1 2 3 4 5 6 
#
# 1 0.027358 -0.000960 -0.003474 0.000000 0.000000 0.000000
# 2 -0.000960 0.008082 -0.003024 0.000000 0.000000 0.000000
# 3 -0.003474 -0.003024 0.009635 0.000000 0.000000 0.000000
# 4 0.000000 0.000000 0.000000 0.125300 0.000000 0.000000
# 5 0.000000 0.000000 0.000000 0.000000 0.286611 0.000000
# 6 0.000000 0.000000 0.000000 0.000000 0.000000 0.027073
#
#
# Mechanical properties :
#
#
# Convention : Reuss Voigt Hill
#
# Bulk Modulus (GPa) = 33.15804 51.58039 42.36922
# Shear Modulus (GPa) = 9.82265 25.02677 17.42471
#
# Velocity S-wave (km/s) = 2.18525 3.48810 2.91051
# Velocity P-wave (km/s) = 4.74204 6.42638 5.64736
#
# Compressibility (1/GPa) = 0.03015860
#
# Stress axis : x y z
#
# Youngs Moduli (GPa) = 36.55209 123.73756 103.78661
#
# Poissons Ratio (x) = 0.11879 0.36057
# Poissons Ratio (y) = 0.03509 0.31385
# Poissons Ratio (z) = 0.12699 0.37418
#
# Static dielectric constant tensor:
#      x y z
#    x 3.585630 0.000000 0.000000 
#    y 0.000000 3.809420 0.000000 
#    z 0.000000 0.000000 3.870170 
# 
# 
# High freq. dielectric constant tensor:
#      x y z
#    x 1.796510 0.000000 0.000000 
#    y 0.000000 1.820610 0.000000 
#    z 0.000000 0.000000 1.803200 
# 
# From -- ./inp_files/16636.got.cif
#   From: 2010.03.12/outbox.cif.g09.slc.cpg/sg36_9_cif.got.tgz:16636.got - 2010.04.14 02:13:53.
