data_PCOD8175567
_publ_section_title
;
Structure prediction by ZEFSAII (Michael W. Deem and Ramdas Pophale) SiO2 
 PCOD8175567
Probable space group: C M C 21
;
_chemical_formula_sum "Si O2"
_cell_formula_units_Z 64
_cell_length_a 9.020326
_cell_length_b 19.558486
_cell_length_c 18.566068
_cell_angle_alpha 90.000000
_cell_angle_beta 90.000000
_cell_angle_gamma 90.000000
_cell_volume 3275.498492
_symmetry_space_group_name_H-M "C M C 21"
_symmetry_group_IT_number 36
_symmetry_cell_setting 'orthorhombic'
loop_
_space_group_symop_operation_xyz
x,y,z
-x,-y,1/2+z
x,-y,1/2+z
-x,y,z
1/2+x,1/2+y,z
1/2-x,1/2-y,1/2+z
1/2+x,1/2-y,1/2+z
1/2-x,1/2+y,z
loop_
_atom_site_type_symbol
_atom_site_label
_atom_site_fract_x
_atom_site_fract_y
_atom_site_fract_z
Si Si1 0.827483 0.621868 0.836880
Si Si2 0.676795 0.726268 0.369591
Si Si3 0.328757 0.473773 0.229517
Si Si4 0.324155 0.374897 0.746653
Si Si5 0.327996 0.560721 0.566153
Si Si6 0.173392 0.441533 0.488500
Si Si7 0.669772 0.192830 0.518406
Si Si8 0.169856 0.836536 0.589325
O O1 0.764843 0.698357 0.848456
O O2 0.755023 0.588414 0.766968
O O3 0.000000 0.626566 0.821329
O O4 0.791474 0.575556 0.905845
O O5 0.500000 0.725135 0.376086
O O6 0.737656 0.672934 0.310182
O O7 0.743282 0.704550 0.445103
O O8 0.500000 0.465160 0.248663
O O9 0.267733 0.547158 0.257228
O O10 0.302273 0.472186 0.144139
O O11 0.500000 0.373714 0.747650
O O12 0.269281 0.345754 0.670154
O O13 0.500000 0.572970 0.549389
O O14 0.262728 0.509888 0.506440
O O15 0.242546 0.631780 0.562833
O O16 0.225929 0.378226 0.536130
O O17 0.000000 0.453346 0.501934
O O18 0.500000 0.175588 0.499991
O O19 0.681877 0.257364 0.570573
O O20 0.000000 0.863189 0.581970
#
# Coordination Sequence:
#
# PCOD8175567 Si02
#       8
#     8   8   8   8   8   8   8   8
#     4  10  23  39  59  88 125 159 196 247 303 360
#     4  10  21  40  63  86 119 164 203 243 298 360
#     4  10  22  40  61  87 118 155 204 250 292 357
#     4   9  19  38  62  86 113 154 206 246 290 358
#     4  11  24  42  63  87 121 161 204 253 303 359
#     4  11  22  39  62  90 120 154 200 250 298 357
#     4  11  24  39  62  93 124 157 201 255 303 358
#     4  10  20  39  64  87 116 156 200 246 299 359
#
# _framework density 19.539010999999999
#
# number of rings (size 3 to 8) (size 9 to 14) (size 15 to 20)
#    0.000    1.750    2.500    1.125    3.500    3.000 
#    0.000    0.625    0.000    0.000    0.000    0.000 
#    0.000    0.000    0.000    0.000    0.000    0.000 
#
# Total GULP energy -396926.931949 kJ/mol
# GULP energy per Si atom -12403.966623 kJ/mol
# Density = 1.949454 g / cm^3
# Si number density = 19.539011 Si / 1000 Ang^3
#
#
#
# Elastic Constant Matrix: (Units=GPa)
#
#
# Indices 1 2 3 4 5 6 
#
# 1 40.5516 27.9817 26.2123 0.0000 0.0000 0.0000
# 2 27.9817 105.4078 27.6867 0.0000 0.0000 0.0000
# 3 26.2123 27.6867 61.7729 0.0000 0.0000 0.0000
# 4 0.0000 0.0000 0.0000 36.0973 0.0000 0.0000
# 5 0.0000 0.0000 0.0000 0.0000 26.6482 0.0000
# 6 0.0000 0.0000 0.0000 0.0000 0.0000 32.2352
#
#
#
# Elastic Compliance Matrix: (Units=1/GPa)
#
#
# Indices 1 2 3 4 5 6 
#
# 1 0.037601 -0.006563 -0.013014 0.000000 0.000000 0.000000
# 2 -0.006563 0.011899 -0.002548 0.000000 0.000000 0.000000
# 3 -0.013014 -0.002548 0.022852 0.000000 0.000000 0.000000
# 4 0.000000 0.000000 0.000000 0.027703 0.000000 0.000000
# 5 0.000000 0.000000 0.000000 0.000000 0.037526 0.000000
# 6 0.000000 0.000000 0.000000 0.000000 0.000000 0.031022
#
#
# Mechanical properties :
#
#
# Convention : Reuss Voigt Hill
#
# Bulk Modulus (GPa) = 35.58458 41.27708 38.43083
# Shear Modulus (GPa) = 22.50029 27.38625 24.94327
#
# Velocity S-wave (km/s) = 3.39714 3.74788 3.57681
# Velocity P-wave (km/s) = 5.79992 6.31666 6.06379
#
# Compressibility (1/GPa) = 0.02810206
#
# Stress axis : x y z
#
# Youngs Moduli (GPa) = 26.59523 84.04411 43.75921
#
# Poissons Ratio (x) = 0.55161 0.56946
# Poissons Ratio (y) = 0.17455 0.11149
# Poissons Ratio (z) = 0.34610 0.21413
#
# Static dielectric constant tensor:
#      x y z
#    x 3.451210 0.000000 0.000000 
#    y 0.000000 3.778870 0.000000 
#    z 0.000000 0.000000 3.595080 
# 
# 
# High freq. dielectric constant tensor:
#      x y z
#    x 1.745520 0.000000 0.000000 
#    y 0.000000 1.776900 0.000000 
#    z 0.000000 0.000000 1.766530 
# 
# From -- ./inp_files/13836.got.cif
#   From: 2010.03.12/outbox.cif.g09.slc.cpg/sg36_7_cif.got.tgz:13836.got - 2010.04.14 02:13:53.
