data_PCOD8175805
_publ_section_title
;
Structure prediction by ZEFSAII (Michael W. Deem and Ramdas Pophale) SiO2 
 PCOD8175805
Probable space group: C M C 21
;
_chemical_formula_sum "Si O2"
_cell_formula_units_Z 40
_cell_length_a 17.562128
_cell_length_b 9.120266
_cell_length_c 12.762581
_cell_angle_alpha 90.000000
_cell_angle_beta 90.000000
_cell_angle_gamma 90.000000
_cell_volume 2044.198921
_symmetry_space_group_name_H-M "C M C 21"
_symmetry_group_IT_number 36
_symmetry_cell_setting 'orthorhombic'
loop_
_space_group_symop_operation_xyz
x,y,z
-x,-y,1/2+z
x,-y,1/2+z
-x,y,z
1/2+x,1/2+y,z
1/2-x,1/2-y,1/2+z
1/2+x,1/2-y,1/2+z
1/2-x,1/2+y,z
loop_
_atom_site_type_symbol
_atom_site_label
_atom_site_fract_x
_atom_site_fract_y
_atom_site_fract_z
Si Si1 0.192284 0.506206 0.170010
Si Si2 0.188333 0.808337 0.052381
Si Si3 0.913138 0.255786 0.174956
Si Si4 0.413104 0.547684 0.989668
Si Si5 0.691208 0.587989 0.336032
O O1 0.176948 0.650038 0.102026
O O2 0.244083 0.390676 0.110010
O O3 0.111240 0.425903 0.183913
O O4 0.229881 0.538195 0.283038
O O5 0.209724 0.794472 0.928438
O O6 0.111208 0.906825 0.062051
O O7 0.861284 0.158621 0.248850
O O8 0.000000 0.242488 0.211985
O O9 0.902873 0.196477 0.056083
O O10 0.500000 0.527915 0.952711
O O11 0.356091 0.548648 0.888708
#
# Coordination Sequence:
#
# PCOD8175805 Si02
#       5
#     8   8   8   8   8
#     4  12  22  41  62  94 125 165 213 266 313 378
#     4  10  23  36  60  93 122 161 213 254 319 370
#     4  11  23  41  63  93 130 165 207 264 322 374
#     4   9  20  40  64  91 125 165 210 261 317 381
#     4  10  21  38  66  89 120 168 211 259 312 385
#
# _framework density 19.567568000000001
#
# number of rings (size 3 to 8) (size 9 to 14) (size 15 to 20)
#    1.200    0.400    4.000    0.600    2.800    0.800 
#    0.000    0.000    0.000    0.000    0.000    0.000 
#    0.000    0.000    0.000    0.000    0.000    0.000 
#
# Total GULP energy -247807.802741 kJ/mol
# GULP energy per Si atom -12390.390137 kJ/mol
# Density = 1.952303 g / cm^3
# Si number density = 19.567568 Si / 1000 Ang^3
#
#
#
# Elastic Constant Matrix: (Units=GPa)
#
#
# Indices 1 2 3 4 5 6 
#
# 1 40.3189 34.3418 28.2100 0.0000 0.0000 0.0000
# 2 34.3418 95.5202 24.6860 0.0000 0.0000 0.0000
# 3 28.2100 24.6860 88.2237 0.0000 0.0000 0.0000
# 4 0.0000 0.0000 0.0000 16.6217 0.0000 0.0000
# 5 0.0000 0.0000 0.0000 0.0000 23.0624 0.0000
# 6 0.0000 0.0000 0.0000 0.0000 0.0000 32.8504
#
#
#
# Elastic Compliance Matrix: (Units=1/GPa)
#
#
# Indices 1 2 3 4 5 6 
#
# 1 0.042727 -0.012753 -0.010094 0.000000 0.000000 0.000000
# 2 -0.012753 0.015091 -0.000145 0.000000 0.000000 0.000000
# 3 -0.010094 -0.000145 0.014603 0.000000 0.000000 0.000000
# 4 0.000000 0.000000 0.000000 0.060162 0.000000 0.000000
# 5 0.000000 0.000000 0.000000 0.000000 0.043361 0.000000
# 6 0.000000 0.000000 0.000000 0.000000 0.000000 0.030441
#
#
# Mechanical properties :
#
#
# Convention : Reuss Voigt Hill
#
# Bulk Modulus (GPa) = 37.82411 44.28202 41.05307
# Shear Modulus (GPa) = 19.14384 23.62856 21.38620
#
# Velocity S-wave (km/s) = 3.13124 3.47873 3.30955
# Velocity P-wave (km/s) = 5.69604 6.23016 5.96908
#
# Compressibility (1/GPa) = 0.02643816
#
# Stress axis : x y z
#
# Youngs Moduli (GPa) = 23.40453 66.26309 68.47939
#
# Poissons Ratio (x) = 0.84503 0.69122
# Poissons Ratio (y) = 0.29847 0.00993
# Poissons Ratio (z) = 0.23624 0.00961
#
# Static dielectric constant tensor:
#      x y z
#    x 3.609370 0.000000 0.000000 
#    y 0.000000 3.740280 0.000000 
#    z 0.000000 0.000000 3.674870 
# 
# 
# High freq. dielectric constant tensor:
#      x y z
#    x 1.756200 0.000000 0.000000 
#    y 0.000000 1.747570 0.000000 
#    z 0.000000 0.000000 1.763440 
# 
# From -- ./inp_files/9162.got.cif
#   From: 2010.03.12/outbox.cif.g09.slc.cpg/sg36_5_cif.got.tgz:9162.got - 2010.04.14 02:13:53.
