data_PCOD8175704
_publ_section_title
;
Structure prediction by ZEFSAII (Michael W. Deem and Ramdas Pophale) SiO2 
 PCOD8175704
Probable space group: C M C 21
;
_chemical_formula_sum "Si O2"
_cell_formula_units_Z 64
_cell_length_a 9.091291
_cell_length_b 24.328892
_cell_length_c 14.844510
_cell_angle_alpha 90.000000
_cell_angle_beta 90.000000
_cell_angle_gamma 90.000000
_cell_volume 3283.324114
_symmetry_space_group_name_H-M "C M C 21"
_symmetry_group_IT_number 36
_symmetry_cell_setting 'orthorhombic'
loop_
_space_group_symop_operation_xyz
x,y,z
-x,-y,1/2+z
x,-y,1/2+z
-x,y,z
1/2+x,1/2+y,z
1/2-x,1/2-y,1/2+z
1/2+x,1/2-y,1/2+z
1/2-x,1/2+y,z
loop_
_atom_site_type_symbol
_atom_site_label
_atom_site_fract_x
_atom_site_fract_y
_atom_site_fract_z
Si Si1 0.834728 0.129990 0.011410
Si Si2 0.328157 0.938399 0.163202
Si Si3 0.331920 0.868128 0.996972
Si Si4 0.173009 0.864769 0.807985
Si Si5 0.829975 0.864473 0.299050
Si Si6 0.171208 0.566186 0.157757
Si Si7 0.669696 0.242486 0.806001
Si Si8 0.335233 0.252441 0.483690
O O1 0.719663 0.091935 0.062701
O O2 0.000000 0.108674 0.031020
O O3 0.800135 0.128754 0.905212
O O4 0.818791 0.193536 0.046753
O O5 0.500000 0.926682 0.175238
O O6 0.268080 0.908155 0.073494
O O7 0.246470 0.915634 0.250762
O O8 0.292298 0.002161 0.153778
O O9 0.500000 0.883638 0.974466
O O10 0.240875 0.875263 0.905944
O O11 0.321319 0.805421 0.036094
O O12 0.238677 0.908396 0.739483
O O13 0.207612 0.803548 0.768858
O O14 0.000000 0.874042 0.816307
O O15 0.764349 0.806582 0.261678
O O16 0.000000 0.865185 0.274774
O O17 0.000000 0.577712 0.172791
O O18 0.500000 0.227787 0.791643
O O19 0.705943 0.245365 0.911424
O O20 0.500000 0.255778 0.437987
#
# Coordination Sequence:
#
# PCOD8175704 Si02
#       8
#     8   8   8   8   8   8   8   8
#     4   9  19  36  56  81 112 142 176 223 278 331
#     4  10  23  40  56  79 111 148 191 233 274 324
#     4   9  18  36  60  83 110 143 179 225 280 333
#     4  10  21  37  58  84 113 146 184 227 277 330
#     4  10  21  37  59  86 114 145 181 224 276 331
#     4  11  24  39  55  78 109 148 194 236 273 322
#     4   9  17  31  54  83 113 143 177 220 272 331
#     4   8  15  30  54  82 110 139 174 220 276 334
#
# _framework density 19.492440999999999
#
# number of rings (size 3 to 8) (size 9 to 14) (size 15 to 20)
#    0.000    2.500    0.000    2.250    0.000    7.500 
#    0.000    6.250    0.000    0.000    0.000    0.000 
#    0.000    0.000    0.000    0.000    0.000    0.000 
#
# Total GULP energy -396653.856591 kJ/mol
# GULP energy per Si atom -12395.433018 kJ/mol
# Density = 1.944808 g / cm^3
# Si number density = 19.492441 Si / 1000 Ang^3
#
#
#
# Elastic Constant Matrix: (Units=GPa)
#
#
# Indices 1 2 3 4 5 6 
#
# 1 80.2975 64.9246 44.7470 0.0000 0.0000 0.0000
# 2 64.9246 145.0257 62.4785 0.0000 0.0000 0.0000
# 3 44.7470 62.4785 83.7834 0.0000 0.0000 0.0000
# 4 0.0000 0.0000 0.0000 33.2306 0.0000 0.0000
# 5 0.0000 0.0000 0.0000 0.0000 26.7038 0.0000
# 6 0.0000 0.0000 0.0000 0.0000 0.0000 31.5919
#
#
#
# Elastic Compliance Matrix: (Units=1/GPa)
#
#
# Indices 1 2 3 4 5 6 
#
# 1 0.021606 -0.006927 -0.006374 0.000000 0.000000 0.000000
# 2 -0.006927 0.012380 -0.005532 0.000000 0.000000 0.000000
# 3 -0.006374 -0.005532 0.019465 0.000000 0.000000 0.000000
# 4 0.000000 0.000000 0.000000 0.030093 0.000000 0.000000
# 5 0.000000 0.000000 0.000000 0.000000 0.037448 0.000000
# 6 0.000000 0.000000 0.000000 0.000000 0.000000 0.031654
#
#
# Mechanical properties :
#
#
# Convention : Reuss Voigt Hill
#
# Bulk Modulus (GPa) = 63.35094 72.60076 67.97585
# Shear Modulus (GPa) = 25.56586 27.43570 26.50078
#
# Velocity S-wave (km/s) = 3.62550 3.75574 3.69120
# Velocity P-wave (km/s) = 7.07789 7.49226 7.28802
#
# Compressibility (1/GPa) = 0.01578508
#
# Stress axis : x y z
#
# Youngs Moduli (GPa) = 46.28287 80.77841 51.37320
#
# Poissons Ratio (x) = 0.55951 0.32746
# Poissons Ratio (y) = 0.32058 0.28421
# Poissons Ratio (z) = 0.29502 0.44689
#
# Static dielectric constant tensor:
#      x y z
#    x 3.549010 0.000000 0.000000 
#    y 0.000000 3.819830 0.000000 
#    z 0.000000 0.000000 3.254000 
# 
# 
# High freq. dielectric constant tensor:
#      x y z
#    x 1.760670 0.000000 0.000000 
#    y 0.000000 1.767790 0.000000 
#    z 0.000000 0.000000 1.736500 
# 
# From -- ./inp_files/10902.got.cif
#   From: 2010.03.12/outbox.cif.g09.slc.cpg/sg36_6_cif.got.tgz:10902.got - 2010.04.14 02:13:53.
