data_PCOD8175820
_publ_section_title
;
Structure prediction by ZEFSAII (Michael W. Deem and Ramdas Pophale) SiO2 
 PCOD8175820
Probable space group: C M C 21
;
_chemical_formula_sum "Si O2"
_cell_formula_units_Z 48
_cell_length_a 9.120037
_cell_length_b 23.829009
_cell_length_c 11.723989
_cell_angle_alpha 90.000000
_cell_angle_beta 90.000000
_cell_angle_gamma 90.000000
_cell_volume 2547.874216
_symmetry_space_group_name_H-M "C M C 21"
_symmetry_group_IT_number 36
_symmetry_cell_setting 'orthorhombic'
loop_
_space_group_symop_operation_xyz
x,y,z
-x,-y,1/2+z
x,-y,1/2+z
-x,y,z
1/2+x,1/2+y,z
1/2-x,1/2-y,1/2+z
1/2+x,1/2-y,1/2+z
1/2-x,1/2+y,z
loop_
_atom_site_type_symbol
_atom_site_label
_atom_site_fract_x
_atom_site_fract_y
_atom_site_fract_z
Si Si1 0.669372 0.117906 0.735110
Si Si2 0.326295 0.672679 0.324401
Si Si3 0.671810 0.288643 0.360366
Si Si4 0.170084 0.864108 0.574910
Si Si5 0.329555 0.956428 0.447769
Si Si6 0.828698 0.416601 0.979388
O O1 0.500000 0.135344 0.747229
O O2 0.765387 0.173319 0.757902
O O3 0.710918 0.069073 0.824506
O O4 0.705857 0.094603 0.611200
O O5 0.500000 0.679172 0.334993
O O6 0.250597 0.729393 0.364428
O O7 0.276552 0.659578 0.195651
O O8 0.271673 0.623189 0.404549
O O9 0.500000 0.279970 0.341041
O O10 0.708208 0.317571 0.480704
O O11 0.251339 0.922211 0.548386
O O12 0.000000 0.878476 0.576455
O O13 0.500000 0.952524 0.474711
O O14 0.277848 0.020557 0.449945
O O15 0.000000 0.406673 0.951581
#
# Coordination Sequence:
#
# PCOD8175820 Si02
#       6
#     8   8   8   8   8   8
#     4   9  19  37  58  84 117 150 185 233 285 331
#     4  11  24  39  57  85 117 150 189 235 284 336
#     4  10  21  39  61  84 110 148 192 234 283 340
#     4   9  21  40  59  81 114 150 185 232 286 333
#     4   9  19  36  61  87 112 148 191 231 277 335
#     4  10  22  37  58  87 118 150 188 235 281 331
#
# _framework density 18.839234999999999
#
# number of rings (size 3 to 8) (size 9 to 14) (size 15 to 20)
#    0.000    2.333    0.000    1.000    4.667    3.333 
#    0.000    0.000    0.000    0.000    0.000    0.000 
#    0.000    0.000    0.000    0.000    0.000    0.000 
#
# Total GULP energy -297701.412236 kJ/mol
# GULP energy per Si atom -12404.225510 kJ/mol
# Density = 1.879636 g / cm^3
# Si number density = 18.839235 Si / 1000 Ang^3
#
#
#
# Elastic Constant Matrix: (Units=GPa)
#
#
# Indices 1 2 3 4 5 6 
#
# 1 68.8488 64.8226 45.8018 0.0000 0.0000 0.0000
# 2 64.8226 162.3844 57.8964 0.0000 0.0000 0.0000
# 3 45.8018 57.8964 103.6625 0.0000 0.0000 0.0000
# 4 0.0000 0.0000 0.0000 22.7292 0.0000 0.0000
# 5 0.0000 0.0000 0.0000 0.0000 27.8956 0.0000
# 6 0.0000 0.0000 0.0000 0.0000 0.0000 37.0103
#
#
#
# Elastic Compliance Matrix: (Units=1/GPa)
#
#
# Indices 1 2 3 4 5 6 
#
# 1 0.027196 -0.008206 -0.007433 0.000000 0.000000 0.000000
# 2 -0.008206 0.010166 -0.002052 0.000000 0.000000 0.000000
# 3 -0.007433 -0.002052 0.014077 0.000000 0.000000 0.000000
# 4 0.000000 0.000000 0.000000 0.043996 0.000000 0.000000
# 5 0.000000 0.000000 0.000000 0.000000 0.035848 0.000000
# 6 0.000000 0.000000 0.000000 0.000000 0.000000 0.027020
#
#
# Mechanical properties :
#
#
# Convention : Reuss Voigt Hill
#
# Bulk Modulus (GPa) = 62.28046 74.65971 68.47008
# Shear Modulus (GPa) = 25.12117 28.61866 26.86992
#
# Velocity S-wave (km/s) = 3.65560 3.90179 3.78070
# Velocity P-wave (km/s) = 7.13783 7.74691 7.44860
#
# Compressibility (1/GPa) = 0.01605640
#
# Stress axis : x y z
#
# Youngs Moduli (GPa) = 36.77071 98.37066 71.03943
#
# Poissons Ratio (x) = 0.80725 0.52802
# Poissons Ratio (y) = 0.30175 0.14576
# Poissons Ratio (z) = 0.27331 0.20184
#
# Static dielectric constant tensor:
#      x y z
#    x 3.431410 0.000000 0.000000 
#    y 0.000000 3.551110 0.000000 
#    z 0.000000 0.000000 3.567970 
# 
# 
# High freq. dielectric constant tensor:
#      x y z
#    x 1.729750 0.000000 0.000000 
#    y 0.000000 1.740540 0.000000 
#    z 0.000000 0.000000 1.737110 
# 
# From -- ./inp_files/6726.got.cif
#   From: 2010.03.12/outbox.cif.g09.slc.cpg/sg36_4_cif.got.tgz:6726.got - 2010.04.14 02:13:53.
