data_PCOD8175422
_publ_section_title
;
Structure prediction by ZEFSAII (Michael W. Deem and Ramdas Pophale) SiO2 
 PCOD8175422
Probable space group: C M C 21
;
_chemical_formula_sum "Si O2"
_cell_formula_units_Z 48
_cell_length_a 22.661320
_cell_length_b 9.583939
_cell_length_c 9.076938
_cell_angle_alpha 90.000000
_cell_angle_beta 90.000000
_cell_angle_gamma 90.000000
_cell_volume 1971.372134
_symmetry_space_group_name_H-M "C M C 21"
_symmetry_group_IT_number 36
_symmetry_cell_setting 'orthorhombic'
loop_
_space_group_symop_operation_xyz
x,y,z
-x,-y,1/2+z
x,-y,1/2+z
-x,y,z
1/2+x,1/2+y,z
1/2-x,1/2-y,1/2+z
1/2+x,1/2-y,1/2+z
1/2-x,1/2+y,z
loop_
_atom_site_type_symbol
_atom_site_label
_atom_site_fract_x
_atom_site_fract_y
_atom_site_fract_z
Si Si1 0.375692 0.449352 0.739500
Si Si2 0.620696 0.677477 0.534093
Si Si3 0.755808 0.077549 0.822862
Si Si4 0.761329 0.664340 0.514186
Si Si5 0.568137 0.055051 0.930019
Si Si6 0.931446 0.310777 0.122750
O O1 0.406241 0.403995 0.891876
O O2 0.403165 0.593654 0.676668
O O3 0.305826 0.476788 0.754235
O O4 0.388585 0.323452 0.624127
O O5 0.690796 0.672404 0.520619
O O6 0.600539 0.835992 0.538215
O O7 0.783608 0.196081 0.930912
O O8 0.718199 0.147130 0.686928
O O9 0.716174 0.972264 0.922296
O O10 0.500000 0.071976 0.968793
O O11 0.587193 0.898144 0.977073
O O12 0.581860 0.086480 0.760599
O O13 0.000000 0.263968 0.122168
#
# Coordination Sequence:
#
# PCOD8175422 Si02
#       6
#     8   8   8   8   8   8
#     4   9  19  35  54  79 113 148 183 228 278 332
#     4   9  19  35  53  81 111 144 184 226 277 333
#     4  10  20  37  58  82 112 148 192 239 288 342
#     4  10  20  37  58  81 111 147 188 237 290 341
#     4   9  18  34  55  80 112 146 184 228 272 325
#     4   9  18  34  56  83 115 149 185 226 273 327
#
# _framework density 24.348524999999999
#
# number of rings (size 3 to 8) (size 9 to 14) (size 15 to 20)
#    0.000    2.667    0.000    1.000    0.000    3.333 
#    0.000   20.000    0.000    0.000    0.000    0.000 
#    0.000    0.000    0.000    0.000    0.000    0.000 
#
# Total GULP energy -297380.600020 kJ/mol
# GULP energy per Si atom -12390.858334 kJ/mol
# Density = 2.429311 g / cm^3
# Si number density = 24.348525 Si / 1000 Ang^3
#
#
#
# Elastic Constant Matrix: (Units=GPa)
#
#
# Indices 1 2 3 4 5 6 
#
# 1 24.7995 29.9612 23.4997 0.0000 0.0000 0.0000
# 2 29.9612 104.3084 19.6777 0.0000 0.0000 0.0000
# 3 23.4997 19.6777 64.5739 0.0000 0.0000 0.0000
# 4 0.0000 0.0000 0.0000 54.8332 0.0000 0.0000
# 5 0.0000 0.0000 0.0000 0.0000 23.1981 0.0000
# 6 0.0000 0.0000 0.0000 0.0000 0.0000 33.0348
#
#
#
# Elastic Compliance Matrix: (Units=1/GPa)
#
#
# Indices 1 2 3 4 5 6 
#
# 1 0.091243 -0.021161 -0.026757 0.000000 0.000000 0.000000
# 2 -0.021161 0.015079 0.003106 0.000000 0.000000 0.000000
# 3 -0.026757 0.003106 0.024277 0.000000 0.000000 0.000000
# 4 0.000000 0.000000 0.000000 0.018237 0.000000 0.000000
# 5 0.000000 0.000000 0.000000 0.000000 0.043107 0.000000
# 6 0.000000 0.000000 0.000000 0.000000 0.000000 0.030271
#
#
# Mechanical properties :
#
#
# Convention : Reuss Voigt Hill
#
# Bulk Modulus (GPa) = 24.40482 37.77322 31.08902
# Shear Modulus (GPa) = 15.36118 30.24941 22.80530
#
# Velocity S-wave (km/s) = 2.51447 3.52852 3.06374
# Velocity P-wave (km/s) = 4.29825 5.66991 5.03105
#
# Compressibility (1/GPa) = 0.04097552
#
# Stress axis : x y z
#
# Youngs Moduli (GPa) = 10.95980 66.31667 41.19115
#
# Poissons Ratio (x) = 1.40330 1.10214
# Poissons Ratio (y) = 0.23192 -0.12793
# Poissons Ratio (z) = 0.29325 -0.20596
#
# Static dielectric constant tensor:
#      x y z
#    x 3.874110 0.000000 0.000000 
#    y 0.000000 4.707810 0.000000 
#    z 0.000000 0.000000 5.016130 
# 
# 
# High freq. dielectric constant tensor:
#      x y z
#    x 1.922380 0.000000 0.000000 
#    y 0.000000 1.975540 0.000000 
#    z 0.000000 0.000000 1.971680 
# 
# From -- ./inp_files/5986.got.cif
#   From: 2010.03.12/outbox.cif.g09.slc.cpg/sg36_3_cif.got.tgz:5986.got - 2010.04.14 02:13:53.
