data_PCOD8175114
_publ_section_title
;
Structure prediction by ZEFSAII (Michael W. Deem and Ramdas Pophale) SiO2 
 PCOD8175114
Probable space group: C M C 21
;
_chemical_formula_sum "Si O2"
_cell_formula_units_Z 64
_cell_length_a 8.924105
_cell_length_b 20.294411
_cell_length_c 19.740349
_cell_angle_alpha 90.000000
_cell_angle_beta 90.000000
_cell_angle_gamma 90.000000
_cell_volume 3575.163843
_symmetry_space_group_name_H-M "C M C 21"
_symmetry_group_IT_number 36
_symmetry_cell_setting 'orthorhombic'
loop_
_space_group_symop_operation_xyz
x,y,z
-x,-y,1/2+z
x,-y,1/2+z
-x,y,z
1/2+x,1/2+y,z
1/2-x,1/2-y,1/2+z
1/2+x,1/2-y,1/2+z
1/2-x,1/2+y,z
loop_
_atom_site_type_symbol
_atom_site_label
_atom_site_fract_x
_atom_site_fract_y
_atom_site_fract_z
Si Si1 0.322606 0.323917 0.592110
Si Si2 0.175017 0.435881 0.833274
Si Si3 0.676651 0.819139 0.732686
Si Si4 0.174500 0.933708 0.487041
Si Si5 0.677231 0.180894 0.740151
Si Si6 0.323497 0.067840 0.487555
Si Si7 0.176204 0.677074 0.587231
Si Si8 0.324475 0.429037 0.331203
O O1 0.500000 0.325450 0.605529
O O2 0.240767 0.344155 0.661229
O O3 0.271992 0.372986 0.532979
O O4 0.269295 0.250960 0.569720
O O5 0.219185 0.374145 0.787556
O O6 0.221667 0.417800 0.910020
O O7 0.266661 0.499411 0.807809
O O8 0.000000 0.453118 0.828173
O O9 0.500000 0.808612 0.727064
O O10 0.751081 0.751397 0.757386
O O11 0.215059 0.917108 0.409751
O O12 0.000000 0.947301 0.495540
O O13 0.258919 0.998480 0.512688
O O14 0.500000 0.187419 0.748028
O O15 0.722511 0.159333 0.664015
O O16 0.738851 0.126881 0.790762
O O17 0.500000 0.064579 0.496625
O O18 0.251594 0.125148 0.534647
O O19 0.000000 0.673694 0.578533
O O20 0.500000 0.423868 0.316500
#
# Coordination Sequence:
#
# PCOD8175114 Si02
#       8
#     8   8   8   8   8   8   8   8
#     4   9  18  34  53  72  98 133 169 205 252 304
#     4   9  19  34  52  74 101 133 167 207 253 300
#     4  10  20  34  52  76 104 133 171 214 253 298
#     4   9  19  34  51  73 101 130 162 205 253 299
#     4  10  20  35  53  74 104 137 169 208 256 306
#     4   9  17  32  53  73  95 127 166 204 245 297
#     4   8  16  31  51  72  93 124 164 202 240 289
#     4  10  20  34  53  76 102 133 170 211 252 299
#
# _framework density 17.901278999999999
#
# number of rings (size 3 to 8) (size 9 to 14) (size 15 to 20)
#    0.000    2.750    0.000    1.875    0.000    4.000 
#    0.000   10.625    0.000    0.000    0.000    0.000 
#    0.000    0.000    0.000    0.000    0.000    0.000 
#
# Total GULP energy -396805.386453 kJ/mol
# GULP energy per Si atom -12400.168327 kJ/mol
# Density = 1.786053 g / cm^3
# Si number density = 17.901279 Si / 1000 Ang^3
#
#
#
# Elastic Constant Matrix: (Units=GPa)
#
#
# Indices 1 2 3 4 5 6 
#
# 1 51.6202 55.3676 40.4977 0.0000 0.0000 0.0000
# 2 55.3676 157.6375 102.7520 0.0000 0.0000 0.0000
# 3 40.4977 102.7520 107.5544 0.0000 0.0000 0.0000
# 4 0.0000 0.0000 0.0000 39.3292 0.0000 0.0000
# 5 0.0000 0.0000 0.0000 0.0000 25.4460 0.0000
# 6 0.0000 0.0000 0.0000 0.0000 0.0000 32.6454
#
#
#
# Elastic Compliance Matrix: (Units=1/GPa)
#
#
# Indices 1 2 3 4 5 6 
#
# 1 0.031551 -0.008848 -0.003427 0.000000 0.000000 0.000000
# 2 -0.008848 0.019295 -0.015102 0.000000 0.000000 0.000000
# 3 -0.003427 -0.015102 0.025016 0.000000 0.000000 0.000000
# 4 0.000000 0.000000 0.000000 0.025426 0.000000 0.000000
# 5 0.000000 0.000000 0.000000 0.000000 0.039299 0.000000
# 6 0.000000 0.000000 0.000000 0.000000 0.000000 0.030632
#
#
# Mechanical properties :
#
#
# Convention : Reuss Voigt Hill
#
# Bulk Modulus (GPa) = 47.37577 79.33854 63.35716
# Shear Modulus (GPa) = 21.45819 27.36377 24.41098
#
# Velocity S-wave (km/s) = 3.46597 3.91396 3.69676
# Velocity P-wave (km/s) = 6.52225 8.05244 7.32740
#
# Compressibility (1/GPa) = 0.02110784
#
# Stress axis : x y z
#
# Youngs Moduli (GPa) = 31.69445 51.82565 39.97430
#
# Poissons Ratio (x) = 0.45855 0.13700
# Poissons Ratio (y) = 0.28043 0.60371
# Poissons Ratio (z) = 0.10862 0.78269
#
# Static dielectric constant tensor:
#      x y z
#    x 3.203190 0.000000 0.000000 
#    y 0.000000 3.530670 0.000000 
#    z 0.000000 0.000000 3.442400 
# 
# 
# High freq. dielectric constant tensor:
#      x y z
#    x 1.683090 0.000000 0.000000 
#    y 0.000000 1.700160 0.000000 
#    z 0.000000 0.000000 1.692570 
# 
# From -- ./inp_files/15605.got.cif
#   From: 2010.03.12/outbox.cif.g09.slc.cpg/sg36_8_cif.got.tgz:15605.got - 2010.04.14 02:13:53.
