data_PCOD8175224
_publ_section_title
;
Structure prediction by ZEFSAII (Michael W. Deem and Ramdas Pophale) SiO2 
 PCOD8175224
Probable space group: C M C 21
;
_chemical_formula_sum "Si O2"
_cell_formula_units_Z 64
_cell_length_a 21.879209
_cell_length_b 8.537350
_cell_length_c 17.925073
_cell_angle_alpha 90.000000
_cell_angle_beta 90.000000
_cell_angle_gamma 90.000000
_cell_volume 3348.232720
_symmetry_space_group_name_H-M "C M C 21"
_symmetry_group_IT_number 36
_symmetry_cell_setting 'orthorhombic'
loop_
_space_group_symop_operation_xyz
x,y,z
-x,-y,1/2+z
x,-y,1/2+z
-x,y,z
1/2+x,1/2+y,z
1/2-x,1/2-y,1/2+z
1/2+x,1/2-y,1/2+z
1/2-x,1/2+y,z
loop_
_atom_site_type_symbol
_atom_site_label
_atom_site_fract_x
_atom_site_fract_y
_atom_site_fract_z
Si Si1 0.431656 0.169045 0.115120
Si Si2 0.759046 0.970658 0.636388
Si Si3 0.287402 0.789965 0.382520
Si Si4 0.674257 0.881973 0.825027
Si Si5 0.813681 0.217387 0.549246
Si Si6 0.356558 0.921945 0.184009
Si Si7 0.353355 0.613162 0.261266
Si Si8 0.068822 0.186422 0.777624
O O1 0.500000 0.167080 0.081315
O O2 0.386054 0.243064 0.053648
O O3 0.429315 0.263372 0.191818
O O4 0.410849 0.991243 0.133621
O O5 0.805641 0.035173 0.573082
O O6 0.706541 0.108812 0.639812
O O7 0.722938 0.817375 0.610436
O O8 0.795446 0.950868 0.714497
O O9 0.222003 0.759685 0.341724
O O10 0.285361 0.744603 0.468514
O O11 0.333741 0.672521 0.342489
O O12 0.309813 0.970930 0.378451
O O13 0.607435 0.800041 0.833374
O O14 0.671846 0.947863 0.741253
O O15 0.382584 0.762872 0.218850
O O16 0.405399 0.488475 0.276857
O O17 0.000000 0.186861 0.808885
#
# Coordination Sequence:
#
# PCOD8175224 Si02
#       8
#     8   8   8   8   8   8   8   8
#     4   9  19  36  56  78 112 153 193 234 286 343
#     4  11  19  33  53  82 116 147 193 237 297 336
#     4  11  22  35  57  88 120 150 193 239 306 351
#     4  10  20  35  55  82 115 147 184 237 290 345
#     4  11  22  35  55  86 117 154 188 245 289 351
#     4   9  19  31  55  84 108 144 191 238 285 337
#     4  11  20  34  58  86 113 151 191 245 290 349
#     4  10  21  37  59  86 113 150 197 241 285 340
#
# _framework density 19.114561999999999
#
# number of rings (size 3 to 8) (size 9 to 14) (size 15 to 20)
#    0.000    1.750    3.750    1.500    1.750    0.500 
#    0.000    3.125    0.000    0.000    0.000    0.000 
#    0.000    0.000    0.000    0.000    0.000    0.000 
#
# Total GULP energy -396436.480784 kJ/mol
# GULP energy per Si atom -12388.640025 kJ/mol
# Density = 1.907106 g / cm^3
# Si number density = 19.114562 Si / 1000 Ang^3
#
#
#
# Elastic Constant Matrix: (Units=GPa)
#
#
# Indices 1 2 3 4 5 6 
#
# 1 133.5502 60.4399 12.7253 0.0000 0.0000 0.0000
# 2 60.4399 88.0847 14.2879 0.0000 0.0000 0.0000
# 3 12.7253 14.2879 42.8307 0.0000 0.0000 0.0000
# 4 0.0000 0.0000 0.0000 19.8496 0.0000 0.0000
# 5 0.0000 0.0000 0.0000 0.0000 16.4570 0.0000
# 6 0.0000 0.0000 0.0000 0.0000 0.0000 26.9357
#
#
#
# Elastic Compliance Matrix: (Units=1/GPa)
#
#
# Indices 1 2 3 4 5 6 
#
# 1 0.010885 -0.007342 -0.000785 0.000000 0.000000 0.000000
# 2 -0.007342 0.016954 -0.003474 0.000000 0.000000 0.000000
# 3 -0.000785 -0.003474 0.024740 0.000000 0.000000 0.000000
# 4 0.000000 0.000000 0.000000 0.050379 0.000000 0.000000
# 5 0.000000 0.000000 0.000000 0.000000 0.060764 0.000000
# 6 0.000000 0.000000 0.000000 0.000000 0.000000 0.037125
#
#
# Mechanical properties :
#
#
# Convention : Reuss Voigt Hill
#
# Bulk Modulus (GPa) = 34.04021 48.81909 41.42965
# Shear Modulus (GPa) = 21.38198 24.44929 22.91564
#
# Velocity S-wave (km/s) = 3.34821 3.58032 3.46621
# Velocity P-wave (km/s) = 5.72665 6.53355 6.14336
#
# Compressibility (1/GPa) = 0.02937702
#
# Stress axis : x y z
#
# Youngs Moduli (GPa) = 91.86833 58.98405 40.42040
#
# Poissons Ratio (x) = 0.43304 0.03173
# Poissons Ratio (y) = 0.67446 0.14043
# Poissons Ratio (z) = 0.07212 0.20493
#
# Static dielectric constant tensor:
#      x y z
#    x 3.598790 0.000000 0.000000 
#    y 0.000000 3.617530 0.000000 
#    z 0.000000 0.000000 3.124420 
# 
# 
# High freq. dielectric constant tensor:
#      x y z
#    x 1.731270 0.000000 0.000000 
#    y 0.000000 1.752320 0.000000 
#    z 0.000000 0.000000 1.710150 
# 
# From -- ./inp_files/15034.got.cif
#   From: 2010.03.12/outbox.cif.g09.slc.cpg/sg36_8_cif.got.tgz:15034.got - 2010.04.14 02:13:53.
