data_PCOD8175355
_publ_section_title
;
Structure prediction by ZEFSAII (Michael W. Deem and Ramdas Pophale) SiO2 
 PCOD8175355
Probable space group: C M C 21
;
_chemical_formula_sum "Si O2"
_cell_formula_units_Z 48
_cell_length_a 8.826697
_cell_length_b 15.153637
_cell_length_c 18.750671
_cell_angle_alpha 90.000000
_cell_angle_beta 90.000000
_cell_angle_gamma 90.000000
_cell_volume 2508.025293
_symmetry_space_group_name_H-M "C M C 21"
_symmetry_group_IT_number 36
_symmetry_cell_setting 'orthorhombic'
loop_
_space_group_symop_operation_xyz
x,y,z
-x,-y,1/2+z
x,-y,1/2+z
-x,y,z
1/2+x,1/2+y,z
1/2-x,1/2-y,1/2+z
1/2+x,1/2-y,1/2+z
1/2-x,1/2+y,z
loop_
_atom_site_type_symbol
_atom_site_label
_atom_site_fract_x
_atom_site_fract_y
_atom_site_fract_z
Si Si1 0.820464 0.906599 0.115220
Si Si2 0.178059 0.896209 0.625262
Si Si3 0.677195 0.420600 0.783933
Si Si4 0.176359 0.754044 0.876417
Si Si5 0.322331 0.102436 0.765701
Si Si6 0.820820 0.258056 0.026466
O O1 0.759830 0.874845 0.191719
O O2 0.752574 0.849384 0.051472
O O3 0.000000 0.898448 0.115572
O O4 0.766537 0.007005 0.100753
O O5 0.225812 0.880318 0.707337
O O6 0.249062 0.820649 0.575168
O O7 0.000000 0.890247 0.616871
O O8 0.500000 0.444689 0.782392
O O9 0.716371 0.349693 0.844191
O O10 0.768766 0.509908 0.799587
O O11 0.221321 0.679085 0.820398
O O12 0.000000 0.748598 0.896627
O O13 0.277314 0.738638 0.945526
O O14 0.500000 0.099698 0.750731
O O15 0.000000 0.265271 0.033890
#
# Coordination Sequence:
#
# PCOD8175355 Si02
#       6
#     8   8   8   8   8   8
#     4  10  20  37  59  81 107 141 181 221 271 331
#     4   8  17  35  57  78 102 138 179 218 266 323
#     4   9  18  36  59  78 102 141 183 219 265 326
#     4  10  22  38  54  76 112 151 179 212 269 332
#     4  10  20  36  58  83 109 138 179 229 272 312
#     4  11  22  36  55  80 110 143 183 227 267 312
#
# _framework density 19.138563999999999
#
# number of rings (size 3 to 8) (size 9 to 14) (size 15 to 20)
#    0.000    2.333    0.000    3.500    0.000    6.000 
#    0.000   16.667    0.000    0.000    0.000    0.000 
#    0.000    0.000    0.000    0.000    0.000    0.000 
#
# Total GULP energy -297635.898437 kJ/mol
# GULP energy per Si atom -12401.495768 kJ/mol
# Density = 1.909500 g / cm^3
# Si number density = 19.138564 Si / 1000 Ang^3
#
#
#
# Elastic Constant Matrix: (Units=GPa)
#
#
# Indices 1 2 3 4 5 6 
#
# 1 54.8131 22.5335 31.6454 0.0000 0.0000 0.0000
# 2 22.5335 74.6391 36.6037 0.0000 0.0000 0.0000
# 3 31.6454 36.6037 77.1387 0.0000 0.0000 0.0000
# 4 0.0000 0.0000 0.0000 21.7283 0.0000 0.0000
# 5 0.0000 0.0000 0.0000 0.0000 34.6862 0.0000
# 6 0.0000 0.0000 0.0000 0.0000 0.0000 26.7703
#
#
#
# Elastic Compliance Matrix: (Units=1/GPa)
#
#
# Indices 1 2 3 4 5 6 
#
# 1 0.024483 -0.003214 -0.008519 0.000000 0.000000 0.000000
# 2 -0.003214 0.017883 -0.007167 0.000000 0.000000 0.000000
# 3 -0.008519 -0.007167 0.019860 0.000000 0.000000 0.000000
# 4 0.000000 0.000000 0.000000 0.046023 0.000000 0.000000
# 5 0.000000 0.000000 0.000000 0.000000 0.028830 0.000000
# 6 0.000000 0.000000 0.000000 0.000000 0.000000 0.037355
#
#
# Mechanical properties :
#
#
# Convention : Reuss Voigt Hill
#
# Bulk Modulus (GPa) = 40.94074 43.12844 42.03459
# Shear Modulus (GPa) = 22.68853 24.35752 23.52303
#
# Velocity S-wave (km/s) = 3.44683 3.57135 3.50964
# Velocity P-wave (km/s) = 6.10565 6.29205 6.19955
#
# Compressibility (1/GPa) = 0.02442555
#
# Stress axis : x y z
#
# Youngs Moduli (GPa) = 40.84417 55.91916 50.35349
#
# Poissons Ratio (x) = 0.17970 0.42897
# Poissons Ratio (y) = 0.13126 0.36090
# Poissons Ratio (z) = 0.34796 0.40080
#
# Static dielectric constant tensor:
#      x y z
#    x 3.325530 0.000000 0.000000 
#    y 0.000000 3.784670 0.000000 
#    z 0.000000 0.000000 3.461400 
# 
# 
# High freq. dielectric constant tensor:
#      x y z
#    x 1.730930 0.000000 0.000000 
#    y 0.000000 1.756940 0.000000 
#    z 0.000000 0.000000 1.740400 
# 
# From -- ./inp_files/13467.got.cif
#   From: 2010.03.12/outbox.cif.g09.slc.cpg/sg36_7_cif.got.tgz:13467.got - 2010.04.14 02:13:53.
