data_PCOD8175470
_publ_section_title
;
Structure prediction by ZEFSAII (Michael W. Deem and Ramdas Pophale) SiO2 
 PCOD8175470
Probable space group: C M C 21
;
_chemical_formula_sum "Si O2"
_cell_formula_units_Z 64
_cell_length_a 8.970249
_cell_length_b 28.874142
_cell_length_c 12.200252
_cell_angle_alpha 90.000000
_cell_angle_beta 90.000000
_cell_angle_gamma 90.000000
_cell_volume 3159.965840
_symmetry_space_group_name_H-M "C M C 21"
_symmetry_group_IT_number 36
_symmetry_cell_setting 'orthorhombic'
loop_
_space_group_symop_operation_xyz
x,y,z
-x,-y,1/2+z
x,-y,1/2+z
-x,y,z
1/2+x,1/2+y,z
1/2-x,1/2-y,1/2+z
1/2+x,1/2-y,1/2+z
1/2-x,1/2+y,z
loop_
_atom_site_type_symbol
_atom_site_label
_atom_site_fract_x
_atom_site_fract_y
_atom_site_fract_z
Si Si1 0.325696 0.338837 0.902160
Si Si2 0.828386 0.118278 0.633653
Si Si3 0.330902 0.568326 0.105892
Si Si4 0.826452 0.318086 0.291740
Si Si5 0.825998 0.339587 0.539874
Si Si6 0.167033 0.029611 0.505465
Si Si7 0.675856 0.225777 0.242392
Si Si8 0.827216 0.573382 0.317550
O O1 0.500000 0.331126 0.886113
O O2 0.242699 0.293590 0.856604
O O3 0.269316 0.380272 0.826035
O O4 0.285737 0.350225 0.027854
O O5 0.727905 0.133839 0.736298
O O6 0.795538 0.063949 0.607544
O O7 0.000000 0.125622 0.665719
O O8 0.500000 0.577607 0.145560
O O9 0.268785 0.613540 0.045841
O O10 0.222044 0.551929 0.202780
O O11 0.327422 0.524516 0.026508
O O12 0.792285 0.317479 0.421434
O O13 0.738474 0.277395 0.229497
O O14 0.000000 0.311776 0.269354
O O15 0.776262 0.304004 0.635457
O O16 0.000000 0.352072 0.552657
O O17 0.288896 0.037184 0.411928
O O18 0.000000 0.043889 0.464943
O O19 0.500000 0.227864 0.252522
O O20 0.000000 0.586237 0.319361
#
# Coordination Sequence:
#
# PCOD8175470 Si02
#       8
#     8   8   8   8   8   8   8   8
#     4  10  20  37  62  88 117 153 199 255 306 356
#     4   9  20  40  62  86 122 161 201 253 310 362
#     4  11  22  38  64  92 122 162 209 258 308 370
#     4  11  25  42  61  89 127 166 207 253 310 375
#     4  10  24  44  62  88 128 164 202 258 317 368
#     4   9  21  40  61  88 121 163 212 258 307 365
#     4  11  23  40  63  90 120 158 204 253 310 371
#     4  11  21  35  57  87 121 157 200 252 310 367
#
# _framework density 20.253385000000002
#
# number of rings (size 3 to 8) (size 9 to 14) (size 15 to 20)
#    0.000    1.750    1.250    3.375    1.750    6.000 
#    0.000    3.750    0.000    0.000    0.000    0.000 
#    0.000    0.000    0.000    0.000    0.000    0.000 
#
# Total GULP energy -396798.733054 kJ/mol
# GULP energy per Si atom -12399.960408 kJ/mol
# Density = 2.020729 g / cm^3
# Si number density = 20.253385 Si / 1000 Ang^3
#
#
#
# Elastic Constant Matrix: (Units=GPa)
#
#
# Indices 1 2 3 4 5 6 
#
# 1 88.5930 45.2535 46.4375 0.0000 0.0000 0.0000
# 2 45.2535 108.2312 33.3395 0.0000 0.0000 0.0000
# 3 46.4375 33.3395 79.8939 0.0000 0.0000 0.0000
# 4 0.0000 0.0000 0.0000 21.4559 0.0000 0.0000
# 5 0.0000 0.0000 0.0000 0.0000 32.6561 0.0000
# 6 0.0000 0.0000 0.0000 0.0000 0.0000 28.8057
#
#
#
# Elastic Compliance Matrix: (Units=1/GPa)
#
#
# Indices 1 2 3 4 5 6 
#
# 1 0.018348 -0.005033 -0.008564 0.000000 0.000000 0.000000
# 2 -0.005033 0.011983 -0.002075 0.000000 0.000000 0.000000
# 3 -0.008564 -0.002075 0.018360 0.000000 0.000000 0.000000
# 4 0.000000 0.000000 0.000000 0.046607 0.000000 0.000000
# 5 0.000000 0.000000 0.000000 0.000000 0.030622 0.000000
# 6 0.000000 0.000000 0.000000 0.000000 0.000000 0.034715
#
#
# Mechanical properties :
#
#
# Convention : Reuss Voigt Hill
#
# Bulk Modulus (GPa) = 57.64883 58.53099 58.08991
# Shear Modulus (GPa) = 25.28287 26.69605 25.98946
#
# Velocity S-wave (km/s) = 3.53700 3.63451 3.58609
# Velocity P-wave (km/s) = 6.72355 6.82459 6.77426
#
# Compressibility (1/GPa) = 0.01734640
#
# Stress axis : x y z
#
# Youngs Moduli (GPa) = 54.50315 83.45005 54.46581
#
# Poissons Ratio (x) = 0.42004 0.46644
# Poissons Ratio (y) = 0.27434 0.11301
# Poissons Ratio (z) = 0.46676 0.17315
#
# Static dielectric constant tensor:
#      x y z
#    x 3.713140 0.000000 0.000000 
#    y 0.000000 3.581960 0.000000 
#    z 0.000000 0.000000 3.639640 
# 
# 
# High freq. dielectric constant tensor:
#      x y z
#    x 1.794330 0.000000 0.000000 
#    y 0.000000 1.789660 0.000000 
#    z 0.000000 0.000000 1.785920 
# 
# From -- ./inp_files/7159.got.cif
#   From: 2010.03.12/outbox.cif.g09.slc.cpg/sg36_4_cif.got.tgz:7159.got - 2010.04.14 02:13:53.
