data_PCOD8175201
_publ_section_title
;
Structure prediction by ZEFSAII (Michael W. Deem and Ramdas Pophale) SiO2 
 PCOD8175201
Probable space group: C M C 21
;
_chemical_formula_sum "Si O2"
_cell_formula_units_Z 64
_cell_length_a 21.540723
_cell_length_b 18.921843
_cell_length_c 9.125238
_cell_angle_alpha 90.000000
_cell_angle_beta 90.000000
_cell_angle_gamma 90.000000
_cell_volume 3719.357387
_symmetry_space_group_name_H-M "C M C 21"
_symmetry_group_IT_number 36
_symmetry_cell_setting 'orthorhombic'
loop_
_space_group_symop_operation_xyz
x,y,z
-x,-y,1/2+z
x,-y,1/2+z
-x,y,z
1/2+x,1/2+y,z
1/2-x,1/2-y,1/2+z
1/2+x,1/2-y,1/2+z
1/2-x,1/2+y,z
loop_
_atom_site_type_symbol
_atom_site_label
_atom_site_fract_x
_atom_site_fract_y
_atom_site_fract_z
Si Si1 0.929691 0.068163 0.424840
Si Si2 0.739983 0.079538 0.310512
Si Si3 0.858483 0.166979 0.243529
Si Si4 0.388955 0.561963 0.745285
Si Si5 0.750399 0.058874 0.648170
Si Si6 0.720507 0.790109 0.181390
Si Si7 0.927995 0.187711 0.946327
Si Si8 0.679910 0.219008 0.362028
O O1 0.899724 0.144321 0.383415
O O2 0.926752 0.053171 0.595954
O O3 0.000000 0.066442 0.371237
O O4 0.891647 0.009832 0.336202
O O5 0.798443 0.116346 0.231310
O O6 0.756822 0.052839 0.473251
O O7 0.683304 0.136242 0.315338
O O8 0.719913 0.012295 0.212944
O O9 0.834341 0.247449 0.265312
O O10 0.899715 0.159463 0.098130
O O11 0.317210 0.575612 0.715644
O O12 0.421512 0.625107 0.831029
O O13 0.708233 0.125892 0.696447
O O14 0.788350 0.768747 0.240414
O O15 0.719663 0.769385 0.010143
O O16 0.891204 0.256974 0.887282
O O17 0.000000 0.208484 0.966091
#
# Coordination Sequence:
#
# PCOD8175201 Si02
#       8
#     8   8   8   8   8   8   8   8
#     4  12  23  35  48  67 102 141 178 207 238 289
#     4  10  21  33  52  75 102 132 167 210 257 305
#     4  10  20  35  50  74 100 134 171 208 255 298
#     4  12  22  35  47  71  98 141 174 207 241 296
#     4  11  19  34  51  75 101 133 162 207 258 301
#     4   9  19  32  53  72 101 127 164 210 256 304
#     4  11  22  35  53  75 103 138 177 210 251 306
#     4   9  19  35  51  75 100 132 170 209 258 301
#
# _framework density 17.207274000000002
#
# number of rings (size 3 to 8) (size 9 to 14) (size 15 to 20)
#    0.000    1.500    3.750    2.250    1.750    1.000 
#    0.000    0.000    0.000    0.000    0.000    8.750 
#    0.000    0.000    0.000    0.000    0.000    0.000 
#
# Total GULP energy -396756.781984 kJ/mol
# GULP energy per Si atom -12398.649437 kJ/mol
# Density = 1.716811 g / cm^3
# Si number density = 17.207274 Si / 1000 Ang^3
#
#
#
# Elastic Constant Matrix: (Units=GPa)
#
#
# Indices 1 2 3 4 5 6 
#
# 1 73.7286 50.6790 42.9239 0.0000 0.0000 0.0000
# 2 50.6790 119.0999 48.5089 0.0000 0.0000 0.0000
# 3 42.9239 48.5089 81.5003 0.0000 0.0000 0.0000
# 4 0.0000 0.0000 0.0000 29.1697 0.0000 0.0000
# 5 0.0000 0.0000 0.0000 0.0000 20.7851 0.0000
# 6 0.0000 0.0000 0.0000 0.0000 0.0000 22.7937
#
#
#
# Elastic Compliance Matrix: (Units=1/GPa)
#
#
# Indices 1 2 3 4 5 6 
#
# 1 0.022664 -0.006313 -0.008179 0.000000 0.000000 0.000000
# 2 -0.006313 0.012841 -0.004318 0.000000 0.000000 0.000000
# 3 -0.008179 -0.004318 0.019148 0.000000 0.000000 0.000000
# 4 0.000000 0.000000 0.000000 0.034282 0.000000 0.000000
# 5 0.000000 0.000000 0.000000 0.000000 0.048111 0.000000
# 6 0.000000 0.000000 0.000000 0.000000 0.000000 0.043872
#
#
# Mechanical properties :
#
#
# Convention : Reuss Voigt Hill
#
# Bulk Modulus (GPa) = 58.71031 62.06138 60.38585
# Shear Modulus (GPa) = 22.29977 23.36418 22.83197
#
# Velocity S-wave (km/s) = 3.60384 3.68884 3.64659
# Velocity P-wave (km/s) = 7.17707 7.36808 7.27321
#
# Compressibility (1/GPa) = 0.01703278
#
# Stress axis : x y z
#
# Youngs Moduli (GPa) = 44.12221 77.87356 52.22450
#
# Poissons Ratio (x) = 0.49159 0.42717
# Poissons Ratio (y) = 0.27853 0.22553
# Poissons Ratio (z) = 0.36089 0.33629
#
# Static dielectric constant tensor:
#      x y z
#    x 3.024670 0.000000 0.000000 
#    y 0.000000 3.405450 0.000000 
#    z 0.000000 0.000000 3.315070 
# 
# 
# High freq. dielectric constant tensor:
#      x y z
#    x 1.630760 0.000000 0.000000 
#    y 0.000000 1.662270 0.000000 
#    z 0.000000 0.000000 1.674270 
# 
# From -- ./inp_files/5336.got.cif
#   From: 2010.03.12/outbox.cif.g09.slc.cpg/sg36_3_cif.got.tgz:5336.got - 2010.04.14 02:13:53.
