data_PCOD8175881
_publ_section_title
;
Structure prediction by ZEFSAII (Michael W. Deem and Ramdas Pophale) SiO2 
 PCOD8175881
Probable space group: C M C 21
;
_chemical_formula_sum "Si O2"
_cell_formula_units_Z 48
_cell_length_a 17.056836
_cell_length_b 15.167081
_cell_length_c 9.251378
_cell_angle_alpha 90.000000
_cell_angle_beta 90.000000
_cell_angle_gamma 90.000000
_cell_volume 2393.353814
_symmetry_space_group_name_H-M "C M C 21"
_symmetry_group_IT_number 36
_symmetry_cell_setting 'orthorhombic'
loop_
_space_group_symop_operation_xyz
x,y,z
-x,-y,1/2+z
x,-y,1/2+z
-x,y,z
1/2+x,1/2+y,z
1/2-x,1/2-y,1/2+z
1/2+x,1/2-y,1/2+z
1/2-x,1/2+y,z
loop_
_atom_site_type_symbol
_atom_site_label
_atom_site_fract_x
_atom_site_fract_y
_atom_site_fract_z
Si Si1 0.410574 0.926937 0.442040
Si Si2 0.839382 0.569901 0.245269
Si Si3 0.910315 0.771204 0.923209
Si Si4 0.908793 0.920554 0.445368
Si Si5 0.340474 0.427019 0.758958
Si Si6 0.408124 0.255634 0.253449
O O1 0.500000 0.933969 0.497712
O O2 0.352463 0.941176 0.575200
O O3 0.396770 0.829850 0.375391
O O4 0.394540 0.999155 0.321872
O O5 0.749867 0.548937 0.282798
O O6 0.861653 0.667842 0.298466
O O7 0.855724 0.829936 0.821620
O O8 0.000000 0.800114 0.898598
O O9 0.886557 0.784951 0.090738
O O10 0.858773 0.929193 0.589705
O O11 0.882362 0.832315 0.362274
O O12 0.000000 0.917032 0.485863
O O13 0.894225 0.003452 0.342362
O O14 0.500000 0.234507 0.262719
#
# Coordination Sequence:
#
# PCOD8175881 Si02
#       6
#     8   8   8   8   8   8
#     4  10  21  40  64  86 115 156 197 234 279 344
#     4  11  23  38  59  89 122 151 186 239 297 343
#     4   9  19  38  61  83 111 151 195 237 284 340
#     4  11  23  40  61  83 113 156 202 239 278 341
#     4  12  24  37  58  88 120 151 189 242 296 341
#     4   9  20  39  61  83 111 151 195 237 284 341
#
# _framework density 20.055539
#
# number of rings (size 3 to 8) (size 9 to 14) (size 15 to 20)
#    0.000    1.667    0.000    6.000    0.000    6.667 
#    0.000    1.667    0.000    0.000    0.000    0.000 
#    0.000    0.000    0.000    0.000    0.000    0.000 
#
# Total GULP energy -297735.776743 kJ/mol
# GULP energy per Si atom -12405.657364 kJ/mol
# Density = 2.000989 g / cm^3
# Si number density = 20.055539 Si / 1000 Ang^3
#
#
#
# Elastic Constant Matrix: (Units=GPa)
#
#
# Indices 1 2 3 4 5 6 
#
# 1 62.2218 26.3524 16.5987 0.0000 0.0000 0.0000
# 2 26.3524 120.5726 57.3124 0.0000 0.0000 0.0000
# 3 16.5987 57.3124 91.7517 0.0000 0.0000 0.0000
# 4 0.0000 0.0000 0.0000 40.8497 0.0000 0.0000
# 5 0.0000 0.0000 0.0000 0.0000 29.2552 0.0000
# 6 0.0000 0.0000 0.0000 0.0000 0.0000 24.0239
#
#
#
# Elastic Compliance Matrix: (Units=1/GPa)
#
#
# Indices 1 2 3 4 5 6 
#
# 1 0.017792 -0.003355 -0.001123 0.000000 0.000000 0.000000
# 2 -0.003355 0.012429 -0.007157 0.000000 0.000000 0.000000
# 3 -0.001123 -0.007157 0.015573 0.000000 0.000000 0.000000
# 4 0.000000 0.000000 0.000000 0.024480 0.000000 0.000000
# 5 0.000000 0.000000 0.000000 0.000000 0.034182 0.000000
# 6 0.000000 0.000000 0.000000 0.000000 0.000000 0.041625
#
#
# Mechanical properties :
#
#
# Convention : Reuss Voigt Hill
#
# Bulk Modulus (GPa) = 44.39690 52.78589 48.59140
# Shear Modulus (GPa) = 28.27128 30.44459 29.35794
#
# Velocity S-wave (km/s) = 3.75860 3.90040 3.83016
# Velocity P-wave (km/s) = 6.40478 6.83089 6.62126
#
# Compressibility (1/GPa) = 0.02252409
#
# Stress axis : x y z
#
# Youngs Moduli (GPa) = 56.20513 80.45826 64.21536
#
# Poissons Ratio (x) = 0.26991 0.07213
# Poissons Ratio (y) = 0.18855 0.45957
# Poissons Ratio (z) = 0.06313 0.57582
#
# Static dielectric constant tensor:
#      x y z
#    x 3.469410 0.000000 0.000000 
#    y 0.000000 3.727550 0.000000 
#    z 0.000000 0.000000 3.508720 
# 
# 
# High freq. dielectric constant tensor:
#      x y z
#    x 1.779940 0.000000 0.000000 
#    y 0.000000 1.794920 0.000000 
#    z 0.000000 0.000000 1.778640 
# 
# From -- ./inp_files/4631.got.cif
#   From: 2010.03.12/outbox.cif.g09.slc.cpg/sg36_3_cif.got.tgz:4631.got - 2010.04.14 02:13:53.
