data_PCOD8175767
_publ_section_title
;
Structure prediction by ZEFSAII (Michael W. Deem and Ramdas Pophale) SiO2 
 PCOD8175767
Probable space group: C M C 21
;
_chemical_formula_sum "Si O2"
_cell_formula_units_Z 64
_cell_length_a 8.824707
_cell_length_b 26.453236
_cell_length_c 12.873524
_cell_angle_alpha 90.000000
_cell_angle_beta 90.000000
_cell_angle_gamma 90.000000
_cell_volume 3005.221922
_symmetry_space_group_name_H-M "C M C 21"
_symmetry_group_IT_number 36
_symmetry_cell_setting 'orthorhombic'
loop_
_space_group_symop_operation_xyz
x,y,z
-x,-y,1/2+z
x,-y,1/2+z
-x,y,z
1/2+x,1/2+y,z
1/2-x,1/2-y,1/2+z
1/2+x,1/2-y,1/2+z
1/2-x,1/2+y,z
loop_
_atom_site_type_symbol
_atom_site_label
_atom_site_fract_x
_atom_site_fract_y
_atom_site_fract_z
Si Si1 0.677343 0.587626 0.394980
Si Si2 0.678477 0.125444 0.983259
Si Si3 0.174324 0.221465 0.068145
Si Si4 0.667225 0.188757 0.438134
Si Si5 0.168753 0.239586 0.750255
Si Si6 0.177017 0.558412 0.177776
Si Si7 0.820334 0.125289 0.769857
Si Si8 0.677438 0.946726 0.101480
O O1 0.500000 0.577518 0.402802
O O2 0.708512 0.647026 0.412935
O O3 0.733548 0.571771 0.281730
O O4 0.760337 0.555208 0.483940
O O5 0.500000 0.120885 0.969861
O O6 0.753249 0.103465 0.877981
O O7 0.726917 0.183374 0.999312
O O8 0.734347 0.093210 0.082710
O O9 0.227664 0.220613 0.187178
O O10 0.000000 0.205433 0.056305
O O11 0.204711 0.281193 0.043732
O O12 0.500000 0.162797 0.441171
O O13 0.664194 0.236928 0.363408
O O14 0.234460 0.183054 0.757766
O O15 0.000000 0.238185 0.701239
O O16 0.213569 0.501072 0.148839
O O17 0.000000 0.567639 0.198587
O O18 0.758458 0.095075 0.671345
O O19 0.000000 0.120286 0.774057
O O20 0.500000 0.935391 0.099417
#
# Coordination Sequence:
#
# PCOD8175767 Si02
#       8
#     8   8   8   8   8   8   8   8
#     4  12  26  43  66 100 134 166 214 276 333 382
#     4  11  23  41  66  97 131 174 222 267 324 391
#     4  11  22  37  59  91 127 168 213 263 316 370
#     4  10  21  40  61  84 124 174 212 246 309 381
#     4  10  21  38  59  87 126 170 210 255 312 379
#     4  10  25  47  70  94 126 173 222 266 321 395
#     4  11  23  42  66  99 137 170 215 274 330 385
#     4  11  25  46  71  96 127 173 222 267 325 397
#
# _framework density 21.296265999999999
#
# number of rings (size 3 to 8) (size 9 to 14) (size 15 to 20)
#    0.000    1.250    1.250    4.125    1.750    9.500 
#    0.000    0.000    0.000    0.000    0.000    0.000 
#    0.000    0.000    0.000    0.000    0.000    0.000 
#
# Total GULP energy -396835.510371 kJ/mol
# GULP energy per Si atom -12401.109699 kJ/mol
# Density = 2.124779 g / cm^3
# Si number density = 21.296266 Si / 1000 Ang^3
#
#
#
# Elastic Constant Matrix: (Units=GPa)
#
#
# Indices 1 2 3 4 5 6 
#
# 1 87.2157 25.6228 35.8036 0.0000 0.0000 0.0000
# 2 25.6228 72.9551 10.8831 0.0000 0.0000 0.0000
# 3 35.8036 10.8831 99.4457 0.0000 0.0000 0.0000
# 4 0.0000 0.0000 0.0000 31.3059 0.0000 0.0000
# 5 0.0000 0.0000 0.0000 0.0000 35.3862 0.0000
# 6 0.0000 0.0000 0.0000 0.0000 0.0000 25.6951
#
#
#
# Elastic Compliance Matrix: (Units=1/GPa)
#
#
# Indices 1 2 3 4 5 6 
#
# 1 0.014758 -0.004463 -0.004825 0.000000 0.000000 0.000000
# 2 -0.004463 0.015284 -0.000066 0.000000 0.000000 0.000000
# 3 -0.004825 -0.000066 0.011800 0.000000 0.000000 0.000000
# 4 0.000000 0.000000 0.000000 0.031943 0.000000 0.000000
# 5 0.000000 0.000000 0.000000 0.000000 0.028260 0.000000
# 6 0.000000 0.000000 0.000000 0.000000 0.000000 0.038918
#
#
# Mechanical properties :
#
#
# Convention : Reuss Voigt Hill
#
# Bulk Modulus (GPa) = 43.22566 44.91506 44.07036
# Shear Modulus (GPa) = 29.87181 30.96459 30.41820
#
# Velocity S-wave (km/s) = 3.74930 3.81726 3.78343
# Velocity P-wave (km/s) = 6.25175 6.36907 6.31068
#
# Compressibility (1/GPa) = 0.02313441
#
# Stress axis : x y z
#
# Youngs Moduli (GPa) = 67.76091 65.42593 84.74566
#
# Poissons Ratio (x) = 0.29202 0.40888
# Poissons Ratio (y) = 0.30244 0.00557
# Poissons Ratio (z) = 0.32693 0.00430
#
# Static dielectric constant tensor:
#      x y z
#    x 3.799590 0.000000 0.000000 
#    y 0.000000 3.774600 0.000000 
#    z 0.000000 0.000000 3.978600 
# 
# 
# High freq. dielectric constant tensor:
#      x y z
#    x 1.832270 0.000000 0.000000 
#    y 0.000000 1.834010 0.000000 
#    z 0.000000 0.000000 1.854360 
# 
# From -- ./inp_files/7054.got.cif
#   From: 2010.03.12/outbox.cif.g09.slc.cpg/sg36_4_cif.got.tgz:7054.got - 2010.04.14 02:13:53.
