data_PCOD8175703
_publ_section_title
;
Structure prediction by ZEFSAII (Michael W. Deem and Ramdas Pophale) SiO2 
 PCOD8175703
Probable space group: C M C 21
;
_chemical_formula_sum "Si O2"
_cell_formula_units_Z 64
_cell_length_a 8.455179
_cell_length_b 17.803404
_cell_length_c 20.659511
_cell_angle_alpha 90.000000
_cell_angle_beta 90.000000
_cell_angle_gamma 90.000000
_cell_volume 3109.896182
_symmetry_space_group_name_H-M "C M C 21"
_symmetry_group_IT_number 36
_symmetry_cell_setting 'orthorhombic'
loop_
_space_group_symop_operation_xyz
x,y,z
-x,-y,1/2+z
x,-y,1/2+z
-x,y,z
1/2+x,1/2+y,z
1/2-x,1/2-y,1/2+z
1/2+x,1/2-y,1/2+z
1/2-x,1/2+y,z
loop_
_atom_site_type_symbol
_atom_site_label
_atom_site_fract_x
_atom_site_fract_y
_atom_site_fract_z
Si Si1 0.683927 0.581970 0.804360
Si Si2 0.317494 0.835819 0.184665
Si Si3 0.314488 0.073662 0.556079
Si Si4 0.313615 0.917621 0.802768
Si Si5 0.187923 0.168394 0.929477
Si Si6 0.815748 0.089101 0.060254
Si Si7 0.188005 0.662910 0.430049
Si Si8 0.684620 0.173897 0.179524
O O1 0.500000 0.566148 0.812925
O O2 0.710892 0.636206 0.743665
O O3 0.768971 0.503572 0.792744
O O4 0.754546 0.621943 0.868294
O O5 0.500000 0.847003 0.202850
O O6 0.272973 0.882296 0.121117
O O7 0.283614 0.749275 0.170127
O O8 0.500000 0.054368 0.551172
O O9 0.256541 0.124184 0.496177
O O10 0.211368 0.999089 0.554284
O O11 0.500000 0.911789 0.804057
O O12 0.242762 0.884219 0.869433
O O13 0.249357 0.868724 0.742891
O O14 0.257317 0.252755 0.927471
O O15 0.000000 0.170953 0.925819
O O16 0.245206 0.128374 0.994789
O O17 0.711692 0.120438 0.118546
O O18 0.000000 0.105990 0.072644
O O19 0.000000 0.665833 0.426922
O O20 0.500000 0.193031 0.186094
#
# Coordination Sequence:
#
# PCOD8175703 Si02
#       8
#     8   8   8   8   8   8   8   8
#     4  11  22  37  59  85 115 151 190 234 283 336
#     4  11  23  39  59  84 115 150 190 236 286 341
#     4  10  21  37  58  83 112 148 188 231 281 337
#     4  10  21  37  58  83 112 148 188 231 281 337
#     4   9  19  36  57  83 114 149 190 235 284 336
#     4  11  22  37  59  85 115 151 190 234 283 336
#     4   9  17  34  59  81 106 145 190 231 276 334
#     4  11  23  39  59  84 115 150 190 236 286 341
#
# _framework density 20.579466
#
# number of rings (size 3 to 8) (size 9 to 14) (size 15 to 20)
#    0.000    1.750    0.000    4.500    0.000    9.000 
#    0.000    1.875    0.000    3.000    0.000    0.000 
#    0.000    0.000    0.000    0.000    0.000    0.000 
#
# Total GULP energy -396966.766787 kJ/mol
# GULP energy per Si atom -12405.211462 kJ/mol
# Density = 2.053263 g / cm^3
# Si number density = 20.579466 Si / 1000 Ang^3
#
#
#
# Elastic Constant Matrix: (Units=GPa)
#
#
# Indices 1 2 3 4 5 6 
#
# 1 17.2319 12.8962 22.5503 0.0000 0.0000 0.0000
# 2 12.8962 133.8563 46.6858 0.0000 0.0000 0.0000
# 3 22.5503 46.6858 153.2796 0.0000 0.0000 0.0000
# 4 0.0000 0.0000 0.0000 47.4052 0.0000 0.0000
# 5 0.0000 0.0000 0.0000 0.0000 24.5857 0.0000
# 6 0.0000 0.0000 0.0000 0.0000 0.0000 10.5953
#
#
#
# Elastic Compliance Matrix: (Units=1/GPa)
#
#
# Indices 1 2 3 4 5 6 
#
# 1 0.073472 -0.003702 -0.009682 0.000000 0.000000 0.000000
# 2 -0.003702 0.008545 -0.002058 0.000000 0.000000 0.000000
# 3 -0.009682 -0.002058 0.008575 0.000000 0.000000 0.000000
# 4 0.000000 0.000000 0.000000 0.021095 0.000000 0.000000
# 5 0.000000 0.000000 0.000000 0.000000 0.040674 0.000000
# 6 0.000000 0.000000 0.000000 0.000000 0.000000 0.094381
#
#
# Mechanical properties :
#
#
# Convention : Reuss Voigt Hill
#
# Bulk Modulus (GPa) = 16.74780 52.07027 34.40903
# Shear Modulus (GPa) = 16.80512 31.33294 24.06903
#
# Velocity S-wave (km/s) = 2.86072 3.90620 3.42360
# Velocity P-wave (km/s) = 4.36662 6.76029 5.69073
#
# Compressibility (1/GPa) = 0.05970934
#
# Stress axis : x y z
#
# Youngs Moduli (GPa) = 13.61063 117.02539 116.61519
#
# Poissons Ratio (x) = 0.43321 1.12902
# Poissons Ratio (y) = 0.05038 0.24000
# Poissons Ratio (z) = 0.13177 0.24085
#
# Static dielectric constant tensor:
#      x y z
#    x 3.332080 0.000000 0.000000 
#    y 0.000000 3.800780 0.000000 
#    z 0.000000 0.000000 4.004270 
# 
# 
# High freq. dielectric constant tensor:
#      x y z
#    x 1.775120 0.000000 0.000000 
#    y 0.000000 1.821030 0.000000 
#    z 0.000000 0.000000 1.824200 
# 
# From -- ./inp_files/15649.got.cif
#   From: 2010.03.12/outbox.cif.g09.slc.cpg/sg36_8_cif.got.tgz:15649.got - 2010.04.14 02:13:53.
