data_PCOD8175416
_publ_section_title
;
Structure prediction by ZEFSAII (Michael W. Deem and Ramdas Pophale) SiO2 
 PCOD8175416
Probable space group: C M C 21
;
_chemical_formula_sum "Si O2"
_cell_formula_units_Z 32
_cell_length_a 12.578555
_cell_length_b 26.563946
_cell_length_c 5.186377
_cell_angle_alpha 90.000000
_cell_angle_beta 90.000000
_cell_angle_gamma 90.000000
_cell_volume 1732.955555
_symmetry_space_group_name_H-M "C M C 21"
_symmetry_group_IT_number 36
_symmetry_cell_setting 'orthorhombic'
loop_
_space_group_symop_operation_xyz
x,y,z
-x,-y,1/2+z
x,-y,1/2+z
-x,y,z
1/2+x,1/2+y,z
1/2-x,1/2-y,1/2+z
1/2+x,1/2-y,1/2+z
1/2-x,1/2+y,z
loop_
_atom_site_type_symbol
_atom_site_label
_atom_site_fract_x
_atom_site_fract_y
_atom_site_fract_z
Si Si1 0.678899 0.696301 0.888600
Si Si2 0.795618 0.140572 0.377935
Si Si3 0.880955 0.701538 0.176036
Si Si4 0.376866 0.531757 0.333933
O O1 0.659675 0.658771 0.651075
O O2 0.614870 0.747566 0.845259
O O3 0.637612 0.667859 0.146895
O O4 0.805204 0.710389 0.924630
O O5 0.671180 0.156343 0.345576
O O6 0.804403 0.080844 0.360000
O O7 0.000000 0.686518 0.091770
O O8 0.348218 0.494064 0.564349
O O9 0.500000 0.547818 0.347453
#
# Coordination Sequence:
#
# PCOD8175416 Si02
#       4
#     8   8   8   8
#     4  10  20  37  51  86 114 147 191 222 273 337
#     4  10  20  37  55  81 113 146 188 228 282 339
#     4  10  21  37  57  81 119 153 186 231 278 332
#     4  10  21  37  59  84 110 144 185 237 295 338
#
# _framework density 18.465561999999998
#
# number of rings (size 3 to 8) (size 9 to 14) (size 15 to 20)
#    1.500    0.500    2.500    1.500    0.000    3.000 
#    0.000    0.000    0.000    1.500    0.000    0.000 
#    0.000    0.000    0.000    0.000    0.000    0.000 
#
# Total GULP energy -198277.926967 kJ/mol
# GULP energy per Si atom -12392.370435 kJ/mol
# Density = 1.842353 g / cm^3
# Si number density = 18.465562 Si / 1000 Ang^3
#
#
#
# Elastic Constant Matrix: (Units=GPa)
#
#
# Indices 1 2 3 4 5 6 
#
# 1 62.6770 30.1930 6.2681 0.0000 0.0000 0.0000
# 2 30.1930 103.1676 12.4751 0.0000 0.0000 0.0000
# 3 6.2681 12.4751 101.7527 0.0000 0.0000 0.0000
# 4 0.0000 0.0000 0.0000 28.4371 0.0000 0.0000
# 5 0.0000 0.0000 0.0000 0.0000 14.5959 0.0000
# 6 0.0000 0.0000 0.0000 0.0000 0.0000 16.3536
#
#
#
# Elastic Compliance Matrix: (Units=1/GPa)
#
#
# Indices 1 2 3 4 5 6 
#
# 1 0.018597 -0.005384 -0.000486 0.000000 0.000000 0.000000
# 2 -0.005384 0.011397 -0.001066 0.000000 0.000000 0.000000
# 3 -0.000486 -0.001066 0.009988 0.000000 0.000000 0.000000
# 4 0.000000 0.000000 0.000000 0.035165 0.000000 0.000000
# 5 0.000000 0.000000 0.000000 0.000000 0.068512 0.000000
# 6 0.000000 0.000000 0.000000 0.000000 0.000000 0.061149
#
#
# Mechanical properties :
#
#
# Convention : Reuss Voigt Hill
#
# Bulk Modulus (GPa) = 38.29578 40.60774 39.45176
# Shear Modulus (GPa) = 21.98931 26.45474 24.22203
#
# Velocity S-wave (km/s) = 3.45458 3.78915 3.62573
# Velocity P-wave (km/s) = 6.05774 6.41734 6.24013
#
# Compressibility (1/GPa) = 0.02611254
#
# Stress axis : x y z
#
# Youngs Moduli (GPa) = 53.77244 87.73884 100.11694
#
# Poissons Ratio (x) = 0.47237 0.04861
# Poissons Ratio (y) = 0.28950 0.10669
# Poissons Ratio (z) = 0.02611 0.09350
#
# Static dielectric constant tensor:
#      x y z
#    x 3.004530 0.000000 0.000000 
#    y 0.000000 3.164940 0.000000 
#    z 0.000000 0.000000 3.464990 
# 
# 
# High freq. dielectric constant tensor:
#      x y z
#    x 1.674890 0.000000 0.000000 
#    y 0.000000 1.706350 0.000000 
#    z 0.000000 0.000000 1.728560 
# 
# From -- ./inp_files/230.got.cif
#   From: 2010.03.12/outbox.cif.g09.slc.cpg/sg36_1_cif.got.tgz:230.got - 2010.04.14 02:13:53.
