data_PCOD8175219
_publ_section_title
;
Structure prediction by ZEFSAII (Michael W. Deem and Ramdas Pophale) SiO2 
 PCOD8175219
Probable space group: C M C 21
;
_chemical_formula_sum "Si O2"
_cell_formula_units_Z 64
_cell_length_a 8.905776
_cell_length_b 18.436137
_cell_length_c 20.352971
_cell_angle_alpha 90.000000
_cell_angle_beta 90.000000
_cell_angle_gamma 90.000000
_cell_volume 3341.715769
_symmetry_space_group_name_H-M "C M C 21"
_symmetry_group_IT_number 36
_symmetry_cell_setting 'orthorhombic'
loop_
_space_group_symop_operation_xyz
x,y,z
-x,-y,1/2+z
x,-y,1/2+z
-x,y,z
1/2+x,1/2+y,z
1/2-x,1/2-y,1/2+z
1/2+x,1/2-y,1/2+z
1/2-x,1/2+y,z
loop_
_atom_site_type_symbol
_atom_site_label
_atom_site_fract_x
_atom_site_fract_y
_atom_site_fract_z
Si Si1 0.825194 0.204154 0.413750
Si Si2 0.822754 0.448221 0.309394
Si Si3 0.824230 0.198904 0.658346
Si Si4 0.176105 0.794539 0.305865
Si Si5 0.322092 0.792360 0.540100
Si Si6 0.178003 0.962343 0.173986
Si Si7 0.172708 0.036047 0.422057
Si Si8 0.673958 0.554579 0.050018
O O1 0.733084 0.228890 0.350209
O O2 0.766734 0.249860 0.475826
O O3 0.790814 0.120660 0.427488
O O4 0.000000 0.218166 0.400539
O O5 0.756797 0.369161 0.325359
O O6 0.756660 0.482464 0.242522
O O7 0.781119 0.501299 0.368482
O O8 0.000000 0.442043 0.303239
O O9 0.785455 0.227870 0.731041
O O10 0.751278 0.251914 0.603965
O O11 0.764039 0.116771 0.650603
O O12 0.000000 0.197579 0.645487
O O13 0.000000 0.807135 0.315538
O O14 0.500000 0.792897 0.543771
O O15 0.267405 0.874027 0.536152
O O16 0.000000 0.960862 0.185785
O O17 0.225449 0.020506 0.119324
O O18 0.000000 0.022337 0.401716
O O19 0.207850 0.003052 0.493190
O O20 0.500000 0.575404 0.052186
#
# Coordination Sequence:
#
# PCOD8175219 Si02
#       8
#     8   8   8   8   8   8   8   8
#     4  10  21  36  56  81 108 141 181 226 273 322
#     4  11  22  36  56  83 113 145 184 227 272 324
#     4   8  16  33  56  77  99 135 178 214 256 314
#     4  10  20  36  58  81 109 145 181 221 271 326
#     4  10  20  35  55  79 108 140 176 222 273 323
#     4   9  18  36  59  80 105 141 184 225 269 324
#     4  10  21  38  58  80 110 147 185 227 276 327
#     4  10  21  36  56  81 108 142 183 224 270 328
#
# _framework density 19.151838000000001
#
# number of rings (size 3 to 8) (size 9 to 14) (size 15 to 20)
#    0.000    2.250    0.000    3.750    0.000    8.000 
#    0.000    5.625    0.000    4.500    0.000    0.000 
#    0.000    0.000    0.000    0.000    0.000    0.000 
#
# Total GULP energy -396866.188692 kJ/mol
# GULP energy per Si atom -12402.068397 kJ/mol
# Density = 1.910825 g / cm^3
# Si number density = 19.151838 Si / 1000 Ang^3
#
#
#
# Elastic Constant Matrix: (Units=GPa)
#
#
# Indices 1 2 3 4 5 6 
#
# 1 51.8010 23.5119 31.4327 0.0000 0.0000 0.0000
# 2 23.5119 74.2907 27.7304 0.0000 0.0000 0.0000
# 3 31.4327 27.7304 90.4800 0.0000 0.0000 0.0000
# 4 0.0000 0.0000 0.0000 42.2394 0.0000 0.0000
# 5 0.0000 0.0000 0.0000 0.0000 20.1517 0.0000
# 6 0.0000 0.0000 0.0000 0.0000 0.0000 26.1522
#
#
#
# Elastic Compliance Matrix: (Units=1/GPa)
#
#
# Indices 1 2 3 4 5 6 
#
# 1 0.026348 -0.005558 -0.007450 0.000000 0.000000 0.000000
# 2 -0.005558 0.016372 -0.003087 0.000000 0.000000 0.000000
# 3 -0.007450 -0.003087 0.014586 0.000000 0.000000 0.000000
# 4 0.000000 0.000000 0.000000 0.023675 0.000000 0.000000
# 5 0.000000 0.000000 0.000000 0.000000 0.049624 0.000000
# 6 0.000000 0.000000 0.000000 0.000000 0.000000 0.038238
#
#
# Mechanical properties :
#
#
# Convention : Reuss Voigt Hill
#
# Bulk Modulus (GPa) = 39.81397 42.43574 41.12485
# Shear Modulus (GPa) = 23.87735 26.63510 25.25623
#
# Velocity S-wave (km/s) = 3.53475 3.73330 3.63538
# Velocity P-wave (km/s) = 6.12315 6.38663 6.25628
#
# Compressibility (1/GPa) = 0.02511681
#
# Stress axis : x y z
#
# Youngs Moduli (GPa) = 37.95376 61.08042 68.55759
#
# Poissons Ratio (x) = 0.33948 0.51074
# Poissons Ratio (y) = 0.21094 0.21163
# Poissons Ratio (z) = 0.28275 0.18855
#
# Static dielectric constant tensor:
#      x y z
#    x 3.288760 0.000000 0.000000 
#    y 0.000000 3.488940 0.000000 
#    z 0.000000 0.000000 3.728880 
# 
# 
# High freq. dielectric constant tensor:
#      x y z
#    x 1.723040 0.000000 0.000000 
#    y 0.000000 1.745820 0.000000 
#    z 0.000000 0.000000 1.760060 
# 
# From -- ./inp_files/15669.got.cif
#   From: 2010.03.12/outbox.cif.g09.slc.cpg/sg36_8_cif.got.tgz:15669.got - 2010.04.14 02:13:53.
