data_PCOD8175752
_publ_section_title
;
Structure prediction by ZEFSAII (Michael W. Deem and Ramdas Pophale) SiO2 
 PCOD8175752
Probable space group: C M C 21
;
_chemical_formula_sum "Si O2"
_cell_formula_units_Z 64
_cell_length_a 13.832339
_cell_length_b 13.488337
_cell_length_c 18.231602
_cell_angle_alpha 90.000000
_cell_angle_beta 90.000000
_cell_angle_gamma 90.000000
_cell_volume 3401.565700
_symmetry_space_group_name_H-M "C M C 21"
_symmetry_group_IT_number 36
_symmetry_cell_setting 'orthorhombic'
loop_
_space_group_symop_operation_xyz
x,y,z
-x,-y,1/2+z
x,-y,1/2+z
-x,y,z
1/2+x,1/2+y,z
1/2-x,1/2-y,1/2+z
1/2+x,1/2-y,1/2+z
1/2-x,1/2+y,z
loop_
_atom_site_type_symbol
_atom_site_label
_atom_site_fract_x
_atom_site_fract_y
_atom_site_fract_z
Si Si1 0.232200 0.934363 0.868540
Si Si2 0.888147 0.519222 0.123359
Si Si3 0.776221 0.716708 0.122580
Si Si4 0.611090 0.376004 0.380389
Si Si5 0.112337 0.551007 0.787242
Si Si6 0.240025 0.738929 0.787752
Si Si7 0.889076 0.895569 0.549528
Si Si8 0.728894 0.588727 0.537686
O O1 0.201536 0.844132 0.816238
O O2 0.148640 0.015517 0.857989
O O3 0.335351 0.979893 0.845389
O O4 0.241183 0.897283 0.951313
O O5 0.854795 0.631382 0.108539
O O6 0.866369 0.491426 0.206972
O O7 0.831727 0.443060 0.071354
O O8 0.000000 0.509107 0.103441
O O9 0.777994 0.753755 0.205420
O O10 0.669303 0.677090 0.103055
O O11 0.806217 0.807426 0.070680
O O12 0.500000 0.368372 0.357200
O O13 0.669030 0.291916 0.337432
O O14 0.625799 0.357776 0.466716
O O15 0.152265 0.662145 0.793829
O O16 0.000000 0.552232 0.806833
O O17 0.000000 0.891935 0.574044
O O18 0.852180 0.007892 0.557586
#
# Coordination Sequence:
#
# PCOD8175752 Si02
#       8
#     8   8   8   8   8   8   8   8
#     4  10  21  38  59  83 114 151 188 236 290 340
#     4  10  21  38  58  83 117 153 191 235 285 344
#     4  11  21  35  58  84 116 151 192 238 286 337
#     4   9  20  38  58  82 114 150 189 235 286 342
#     4  10  21  38  58  83 117 153 191 235 285 344
#     4  11  21  35  58  84 116 151 192 238 286 337
#     4   9  20  38  58  82 114 150 189 235 286 342
#     4  10  21  38  59  83 114 151 188 236 290 340
#
# _framework density 18.814865000000001
#
# number of rings (size 3 to 8) (size 9 to 14) (size 15 to 20)
#    0.000    2.000    2.500    0.750    0.000    4.500 
#    0.000    1.250    0.000    0.000    0.000    0.000 
#    0.000    0.000    0.000    0.000    0.000    0.000 
#
# Total GULP energy -396967.584520 kJ/mol
# GULP energy per Si atom -12405.237016 kJ/mol
# Density = 1.877204 g / cm^3
# Si number density = 18.814865 Si / 1000 Ang^3
#
#
#
# Elastic Constant Matrix: (Units=GPa)
#
#
# Indices 1 2 3 4 5 6 
#
# 1 89.3392 6.9144 8.6003 0.0000 0.0000 0.0000
# 2 6.9144 74.2514 5.8677 0.0000 0.0000 0.0000
# 3 8.6003 5.8677 46.0344 0.0000 0.0000 0.0000
# 4 0.0000 0.0000 0.0000 37.4459 0.0000 0.0000
# 5 0.0000 0.0000 0.0000 0.0000 26.1294 0.0000
# 6 0.0000 0.0000 0.0000 0.0000 0.0000 15.2874
#
#
#
# Elastic Compliance Matrix: (Units=1/GPa)
#
#
# Indices 1 2 3 4 5 6 
#
# 1 0.011458 -0.000907 -0.002025 0.000000 0.000000 0.000000
# 2 -0.000907 0.013677 -0.001574 0.000000 0.000000 0.000000
# 3 -0.002025 -0.001574 0.022302 0.000000 0.000000 0.000000
# 4 0.000000 0.000000 0.000000 0.026705 0.000000 0.000000
# 5 0.000000 0.000000 0.000000 0.000000 0.038271 0.000000
# 6 0.000000 0.000000 0.000000 0.000000 0.000000 0.065413
#
#
# Mechanical properties :
#
#
# Convention : Reuss Voigt Hill
#
# Bulk Modulus (GPa) = 26.02469 28.04331 27.03400
# Shear Modulus (GPa) = 25.04425 28.32204 26.68314
#
# Velocity S-wave (km/s) = 3.65237 3.88403 3.76998
# Velocity P-wave (km/s) = 5.62569 5.92043 5.77494
#
# Compressibility (1/GPa) = 0.03842504
#
# Stress axis : x y z
#
# Youngs Moduli (GPa) = 87.27187 73.11764 44.83934
#
# Poissons Ratio (x) = 0.06632 0.09080
# Poissons Ratio (y) = 0.07916 0.07057
# Poissons Ratio (z) = 0.17673 0.11507
#
# Static dielectric constant tensor:
#      x y z
#    x 3.334750 0.000000 0.000000 
#    y 0.000000 3.550170 0.000000 
#    z 0.000000 0.000000 3.507150 
# 
# 
# High freq. dielectric constant tensor:
#      x y z
#    x 1.722310 0.000000 0.000000 
#    y 0.000000 1.742040 0.000000 
#    z 0.000000 0.000000 1.736720 
# 
# From -- ./inp_files/14707.got.cif
#   From: 2010.03.12/outbox.cif.g09.slc.cpg/sg36_8_cif.got.tgz:14707.got - 2010.04.14 02:13:53.
