data_PCOD8175217
_publ_section_title
;
Structure prediction by ZEFSAII (Michael W. Deem and Ramdas Pophale) SiO2 
 PCOD8175217
Probable space group: C M C 21
;
_chemical_formula_sum "Si O2"
_cell_formula_units_Z 48
_cell_length_a 8.494988
_cell_length_b 18.312964
_cell_length_c 16.467010
_cell_angle_alpha 90.000000
_cell_angle_beta 90.000000
_cell_angle_gamma 90.000000
_cell_volume 2561.746554
_symmetry_space_group_name_H-M "C M C 21"
_symmetry_group_IT_number 36
_symmetry_cell_setting 'orthorhombic'
loop_
_space_group_symop_operation_xyz
x,y,z
-x,-y,1/2+z
x,-y,1/2+z
-x,y,z
1/2+x,1/2+y,z
1/2-x,1/2-y,1/2+z
1/2+x,1/2-y,1/2+z
1/2-x,1/2+y,z
loop_
_atom_site_type_symbol
_atom_site_label
_atom_site_fract_x
_atom_site_fract_y
_atom_site_fract_z
Si Si1 0.320154 0.083934 0.630270
Si Si2 0.684177 0.329091 0.277746
Si Si3 0.685520 0.157674 0.948112
Si Si4 0.320251 0.568939 0.096665
Si Si5 0.319107 0.287047 0.678293
Si Si6 0.179098 0.202305 0.535312
O O1 0.500000 0.094866 0.654541
O O2 0.215621 0.114777 0.704061
O O3 0.283054 0.129001 0.546762
O O4 0.289301 0.999363 0.614830
O O5 0.500000 0.317621 0.289344
O O6 0.757036 0.364294 0.358843
O O7 0.768361 0.249636 0.263693
O O8 0.500000 0.145104 0.958524
O O9 0.774709 0.106661 0.012144
O O10 0.729568 0.243823 0.961792
O O11 0.500000 0.542552 0.090667
O O12 0.298707 0.625504 0.172375
O O13 0.500000 0.266082 0.657718
O O14 0.198243 0.251163 0.615512
O O15 0.000000 0.176807 0.525566
#
# Coordination Sequence:
#
# PCOD8175217 Si02
#       6
#     8   8   8   8   8   8
#     4  11  21  34  54  78 107 141 178 217 259 312
#     4  11  21  34  54  78 106 138 174 218 264 310
#     4  10  20  35  55  79 106 136 173 217 264 312
#     4  10  20  35  55  79 107 139 176 215 262 317
#     4   9  17  31  52  75 100 131 168 209 251 303
#     4   9  17  31  52  75 100 131 169 210 252 304
#
# _framework density 18.737217000000001
#
# number of rings (size 3 to 8) (size 9 to 14) (size 15 to 20)
#    0.000    2.000    0.000    7.000    0.000    4.000 
#    0.000    1.667    0.000    6.000    0.000    0.000 
#    0.000    0.000    0.000    0.000    0.000    0.000 
#
# Total GULP energy -297453.769226 kJ/mol
# GULP energy per Si atom -12393.907051 kJ/mol
# Density = 1.869457 g / cm^3
# Si number density = 18.737217 Si / 1000 Ang^3
#
#
#
# Elastic Constant Matrix: (Units=GPa)
#
#
# Indices 1 2 3 4 5 6 
#
# 1 70.9293 24.0744 10.7096 0.0000 0.0000 0.0000
# 2 24.0744 107.9889 23.2420 0.0000 0.0000 0.0000
# 3 10.7096 23.2420 64.9240 0.0000 0.0000 0.0000
# 4 0.0000 0.0000 0.0000 18.9002 0.0000 0.0000
# 5 0.0000 0.0000 0.0000 0.0000 26.9057 0.0000
# 6 0.0000 0.0000 0.0000 0.0000 0.0000 28.0459
#
#
#
# Elastic Compliance Matrix: (Units=1/GPa)
#
#
# Indices 1 2 3 4 5 6 
#
# 1 0.015372 -0.003122 -0.001418 0.000000 0.000000 0.000000
# 2 -0.003122 0.010667 -0.003304 0.000000 0.000000 0.000000
# 3 -0.001418 -0.003304 0.016819 0.000000 0.000000 0.000000
# 4 0.000000 0.000000 0.000000 0.052909 0.000000 0.000000
# 5 0.000000 0.000000 0.000000 0.000000 0.037167 0.000000
# 6 0.000000 0.000000 0.000000 0.000000 0.000000 0.035656
#
#
# Mechanical properties :
#
#
# Convention : Reuss Voigt Hill
#
# Bulk Modulus (GPa) = 36.80358 39.98824 38.39591
# Shear Modulus (GPa) = 25.86179 27.15812 26.50996
#
# Velocity S-wave (km/s) = 3.71918 3.81126 3.76550
# Velocity P-wave (km/s) = 6.17476 6.38400 6.28026
#
# Compressibility (1/GPa) = 0.02717127
#
# Stress axis : x y z
#
# Youngs Moduli (GPa) = 65.05226 93.74517 59.45560
#
# Poissons Ratio (x) = 0.29265 0.08432
# Poissons Ratio (y) = 0.20308 0.19643
# Poissons Ratio (z) = 0.09226 0.30971
#
# Static dielectric constant tensor:
#      x y z
#    x 3.454490 0.000000 0.000000 
#    y 0.000000 3.500460 0.000000 
#    z 0.000000 0.000000 3.385250 
# 
# 
# High freq. dielectric constant tensor:
#      x y z
#    x 1.743340 0.000000 0.000000 
#    y 0.000000 1.719380 0.000000 
#    z 0.000000 0.000000 1.698360 
# 
# From -- ./inp_files/13556.got.cif
#   From: 2010.03.12/outbox.cif.g09.slc.cpg/sg36_7_cif.got.tgz:13556.got - 2010.04.14 02:13:53.
