data_PCOD8175299
_publ_section_title
;
Structure prediction by ZEFSAII (Michael W. Deem and Ramdas Pophale) SiO2 
 PCOD8175299
Probable space group: C M C 21
;
_chemical_formula_sum "Si O2"
_cell_formula_units_Z 64
_cell_length_a 8.845595
_cell_length_b 15.346555
_cell_length_c 23.906452
_cell_angle_alpha 90.000000
_cell_angle_beta 90.000000
_cell_angle_gamma 90.000000
_cell_volume 3245.286758
_symmetry_space_group_name_H-M "C M C 21"
_symmetry_group_IT_number 36
_symmetry_cell_setting 'orthorhombic'
loop_
_space_group_symop_operation_xyz
x,y,z
-x,-y,1/2+z
x,-y,1/2+z
-x,y,z
1/2+x,1/2+y,z
1/2-x,1/2-y,1/2+z
1/2+x,1/2-y,1/2+z
1/2-x,1/2+y,z
loop_
_atom_site_type_symbol
_atom_site_label
_atom_site_fract_x
_atom_site_fract_y
_atom_site_fract_z
Si Si1 0.820516 0.377021 0.262340
Si Si2 0.177429 0.718056 0.061642
Si Si3 0.322129 0.861633 0.135959
Si Si4 0.174542 0.224196 0.945367
Si Si5 0.820938 0.216525 0.334900
Si Si6 0.178622 0.541513 0.330843
Si Si7 0.824254 0.481344 0.555518
Si Si8 0.173891 0.020454 0.940678
O O1 0.761821 0.373080 0.198981
O O2 0.757412 0.295072 0.297100
O O3 0.758777 0.463972 0.291943
O O4 0.000000 0.377160 0.263857
O O5 0.237590 0.777751 0.111567
O O6 0.217630 0.616946 0.074935
O O7 0.000000 0.731007 0.054531
O O8 0.257375 0.750220 0.005077
O O9 0.500000 0.842874 0.133853
O O10 0.281484 0.951261 0.104299
O O11 0.261694 0.277331 0.898109
O O12 0.199073 0.122857 0.933650
O O13 0.000000 0.251280 0.944653
O O14 0.756560 0.128611 0.307543
O O15 0.000000 0.214965 0.335756
O O16 0.224943 0.527246 0.394970
O O17 0.000000 0.550792 0.326965
O O18 0.728216 0.509623 0.501662
O O19 0.000000 0.486504 0.539462
O O20 0.000000 0.993567 0.932649
#
# Coordination Sequence:
#
# PCOD8175299 Si02
#       8
#     8   8   8   8   8   8   8   8
#     4   9  21  41  62  83 116 158 199 243 295 351
#     4  10  21  37  57  87 120 154 192 243 298 347
#     4  10  21  40  63  85 113 157 204 243 287 352
#     4  10  20  36  59  87 119 157 195 241 296 355
#     4  11  22  38  59  87 118 154 196 246 299 351
#     4  11  22  38  60  87 117 156 200 240 295 358
#     4   9  20  37  58  83 116 155 194 236 290 353
#     4  10  20  35  58  87 121 153 192 244 296 347
#
# _framework density 19.720908000000001
#
# number of rings (size 3 to 8) (size 9 to 14) (size 15 to 20)
#    0.000    2.000    1.250    1.875    1.750    3.000 
#    0.000    3.750    0.000    0.000    0.000    0.000 
#    0.000    0.000    0.000    0.000    0.000    0.000 
#
# Total GULP energy -396929.335867 kJ/mol
# GULP energy per Si atom -12404.041746 kJ/mol
# Density = 1.967602 g / cm^3
# Si number density = 19.720908 Si / 1000 Ang^3
#
#
#
# Elastic Constant Matrix: (Units=GPa)
#
#
# Indices 1 2 3 4 5 6 
#
# 1 72.3425 37.1047 34.4534 0.0000 0.0000 0.0000
# 2 37.1047 121.6387 66.6825 0.0000 0.0000 0.0000
# 3 34.4534 66.6825 127.7969 0.0000 0.0000 0.0000
# 4 0.0000 0.0000 0.0000 24.4884 0.0000 0.0000
# 5 0.0000 0.0000 0.0000 0.0000 23.7839 0.0000
# 6 0.0000 0.0000 0.0000 0.0000 0.0000 32.7419
#
#
#
# Elastic Compliance Matrix: (Units=1/GPa)
#
#
# Indices 1 2 3 4 5 6 
#
# 1 0.016995 -0.003743 -0.002629 0.000000 0.000000 0.000000
# 2 -0.003743 0.012339 -0.005429 0.000000 0.000000 0.000000
# 3 -0.002629 -0.005429 0.011366 0.000000 0.000000 0.000000
# 4 0.000000 0.000000 0.000000 0.040836 0.000000 0.000000
# 5 0.000000 0.000000 0.000000 0.000000 0.042045 0.000000
# 6 0.000000 0.000000 0.000000 0.000000 0.000000 0.030542
#
#
# Mechanical properties :
#
#
# Convention : Reuss Voigt Hill
#
# Bulk Modulus (GPa) = 58.48456 66.47325 62.47890
# Shear Modulus (GPa) = 27.25909 28.43867 27.84888
#
# Velocity S-wave (km/s) = 3.72189 3.80156 3.76194
# Velocity P-wave (km/s) = 6.94193 7.28350 7.11476
#
# Compressibility (1/GPa) = 0.01709853
#
# Stress axis : x y z
#
# Youngs Moduli (GPa) = 58.84127 81.04250 87.97783
#
# Poissons Ratio (x) = 0.30335 0.23126
# Poissons Ratio (y) = 0.22025 0.47766
# Poissons Ratio (z) = 0.15467 0.44000
#
# Static dielectric constant tensor:
#      x y z
#    x 3.468280 0.000000 0.000000 
#    y 0.000000 3.803190 0.000000 
#    z 0.000000 0.000000 3.584970 
# 
# 
# High freq. dielectric constant tensor:
#      x y z
#    x 1.760250 0.000000 0.000000 
#    y 0.000000 1.780730 0.000000 
#    z 0.000000 0.000000 1.762220 
# 
# From -- ./inp_files/16542.got.cif
#   From: 2010.03.12/outbox.cif.g09.slc.cpg/sg36_9_cif.got.tgz:16542.got - 2010.04.14 02:13:53.
