data_PCOD8175414
_publ_section_title
;
Structure prediction by ZEFSAII (Michael W. Deem and Ramdas Pophale) SiO2 
 PCOD8175414
Probable space group: C M C 21
;
_chemical_formula_sum "Si O2"
_cell_formula_units_Z 64
_cell_length_a 17.846858
_cell_length_b 8.991099
_cell_length_c 19.652154
_cell_angle_alpha 90.000000
_cell_angle_beta 90.000000
_cell_angle_gamma 90.000000
_cell_volume 3153.440976
_symmetry_space_group_name_H-M "C M C 21"
_symmetry_group_IT_number 36
_symmetry_cell_setting 'orthorhombic'
loop_
_space_group_symop_operation_xyz
x,y,z
-x,-y,1/2+z
x,-y,1/2+z
-x,y,z
1/2+x,1/2+y,z
1/2-x,1/2-y,1/2+z
1/2+x,1/2-y,1/2+z
1/2-x,1/2+y,z
loop_
_atom_site_type_symbol
_atom_site_label
_atom_site_fract_x
_atom_site_fract_y
_atom_site_fract_z
Si Si1 0.852486 0.803209 0.614130
Si Si2 0.296466 0.358679 0.969400
Si Si3 0.178149 0.851575 0.266242
Si Si4 0.648947 0.685852 0.965981
Si Si5 0.084259 0.138250 0.253903
Si Si6 0.914571 0.645422 0.350391
Si Si7 0.723586 0.396854 0.118432
Si Si8 0.833721 0.655298 0.848882
O O1 0.890895 0.823007 0.540087
O O2 0.912847 0.826722 0.673129
O O3 0.812040 0.642715 0.617627
O O4 0.785373 0.925135 0.621347
O O5 0.310609 0.529701 0.946878
O O6 0.209281 0.318656 0.964250
O O7 0.340997 0.251468 0.918081
O O8 0.318495 0.336490 0.049635
O O9 0.118988 0.723242 0.283642
O O10 0.191855 0.822224 0.186762
O O11 0.251122 0.841250 0.314740
O O12 0.142175 0.012919 0.277616
O O13 0.587211 0.730786 0.910578
O O14 0.106539 0.285809 0.294128
O O15 0.000000 0.089084 0.271431
O O16 0.860898 0.508134 0.368454
O O17 0.000000 0.595905 0.337863
#
# Coordination Sequence:
#
# PCOD8175414 Si02
#       8
#     8   8   8   8   8   8   8   8
#     4   9  19  35  59  88 117 152 195 242 298 358
#     4  10  20  36  63  94 118 152 203 257 297 348
#     4  11  22  39  64  88 116 159 206 249 295 360
#     4  10  20  37  60  90 121 156 198 247 303 356
#     4  11  23  39  60  88 123 159 197 249 305 356
#     4  12  26  40  58  89 128 162 199 252 305 354
#     4   9  19  35  59  93 117 146 196 257 296 343
#     4  12  23  39  63  90 118 160 208 247 293 359
#
# _framework density 20.295290000000001
#
# number of rings (size 3 to 8) (size 9 to 14) (size 15 to 20)
#    0.000    1.500    2.500    3.000    1.750    1.500 
#    0.000    0.625    0.000    9.000    0.000    0.000 
#    0.000    0.000    0.000    0.000    0.000    0.000 
#
# Total GULP energy -396605.902684 kJ/mol
# GULP energy per Si atom -12393.934459 kJ/mol
# Density = 2.024910 g / cm^3
# Si number density = 20.295290 Si / 1000 Ang^3
#
#
#
# Elastic Constant Matrix: (Units=GPa)
#
#
# Indices 1 2 3 4 5 6 
#
# 1 81.8626 23.5128 33.3662 0.0000 0.0000 0.0000
# 2 23.5128 82.5198 42.8433 0.0000 0.0000 0.0000
# 3 33.3662 42.8433 131.2921 0.0000 0.0000 0.0000
# 4 0.0000 0.0000 0.0000 29.7808 0.0000 0.0000
# 5 0.0000 0.0000 0.0000 0.0000 18.5016 0.0000
# 6 0.0000 0.0000 0.0000 0.0000 0.0000 20.9363
#
#
#
# Elastic Compliance Matrix: (Units=1/GPa)
#
#
# Indices 1 2 3 4 5 6 
#
# 1 0.014073 -0.002592 -0.002731 0.000000 0.000000 0.000000
# 2 -0.002592 0.015068 -0.004258 0.000000 0.000000 0.000000
# 3 -0.002731 -0.004258 0.009700 0.000000 0.000000 0.000000
# 4 0.000000 0.000000 0.000000 0.033579 0.000000 0.000000
# 5 0.000000 0.000000 0.000000 0.000000 0.054049 0.000000
# 6 0.000000 0.000000 0.000000 0.000000 0.000000 0.047764
#
#
# Mechanical properties :
#
#
# Convention : Reuss Voigt Hill
#
# Bulk Modulus (GPa) = 50.81568 55.01322 52.91445
# Shear Modulus (GPa) = 25.00571 26.90723 25.95647
#
# Velocity S-wave (km/s) = 3.51393 3.64509 3.58011
# Velocity P-wave (km/s) = 6.44640 6.69931 6.57407
#
# Compressibility (1/GPa) = 0.01967896
#
# Stress axis : x y z
#
# Youngs Moduli (GPa) = 71.05760 66.36726 103.09218
#
# Poissons Ratio (x) = 0.17204 0.28150
# Poissons Ratio (y) = 0.18420 0.43898
# Poissons Ratio (z) = 0.19403 0.28260
#
# Static dielectric constant tensor:
#      x y z
#    x 3.210780 0.000000 0.000000 
#    y 0.000000 3.697160 0.000000 
#    z 0.000000 0.000000 4.091210 
# 
# 
# High freq. dielectric constant tensor:
#      x y z
#    x 1.746090 0.000000 0.000000 
#    y 0.000000 1.795520 0.000000 
#    z 0.000000 0.000000 1.818090 
# 
# From -- ./inp_files/16236.got.cif
#   From: 2010.03.12/outbox.cif.g09.slc.cpg/sg36_9_cif.got.tgz:16236.got - 2010.04.14 02:13:53.
