data_PCOD8175824
_publ_section_title
;
Structure prediction by ZEFSAII (Michael W. Deem and Ramdas Pophale) SiO2 
 PCOD8175824
Probable space group: C M C 21
;
_chemical_formula_sum "Si O2"
_cell_formula_units_Z 64
_cell_length_a 8.697313
_cell_length_b 15.367411
_cell_length_c 23.824866
_cell_angle_alpha 90.000000
_cell_angle_beta 90.000000
_cell_angle_gamma 90.000000
_cell_volume 3184.316836
_symmetry_space_group_name_H-M "C M C 21"
_symmetry_group_IT_number 36
_symmetry_cell_setting 'orthorhombic'
loop_
_space_group_symop_operation_xyz
x,y,z
-x,-y,1/2+z
x,-y,1/2+z
-x,y,z
1/2+x,1/2+y,z
1/2-x,1/2-y,1/2+z
1/2+x,1/2-y,1/2+z
1/2-x,1/2+y,z
loop_
_atom_site_type_symbol
_atom_site_label
_atom_site_fract_x
_atom_site_fract_y
_atom_site_fract_z
Si Si1 0.319617 0.150764 0.336180
Si Si2 0.177729 0.902266 0.434220
Si Si3 0.178279 0.665193 0.828428
Si Si4 0.176517 0.095620 0.449233
Si Si5 0.679292 0.098381 0.705457
Si Si6 0.682529 0.095416 0.214730
Si Si7 0.320272 0.752119 0.016096
Si Si8 0.818960 0.251199 0.637211
O O1 0.500000 0.133851 0.345691
O O2 0.289017 0.253217 0.337109
O O3 0.223642 0.104908 0.384664
O O4 0.257610 0.111928 0.277694
O O5 0.281969 0.901806 0.378254
O O6 0.233413 0.825228 0.475125
O O7 0.000000 0.889514 0.417339
O O8 0.201338 0.994530 0.465652
O O9 0.218114 0.620527 0.769612
O O10 0.000000 0.692633 0.831364
O O11 0.280065 0.154858 0.489312
O O12 0.000000 0.124001 0.456882
O O13 0.500000 0.109208 0.693070
O O14 0.768629 0.159412 0.662632
O O15 0.735426 0.999712 0.693958
O O16 0.500000 0.101280 0.215892
O O17 0.751952 0.169141 0.173631
O O18 0.500000 0.748325 0.027827
O O19 0.234008 0.738911 0.074003
O O20 0.000000 0.256042 0.639175
#
# Coordination Sequence:
#
# PCOD8175824 Si02
#       8
#     8   8   8   8   8   8   8   8
#     4  11  20  36  61  89 125 164 197 239 300 361
#     4  10  23  41  62  88 124 159 196 245 302 360
#     4  11  21  34  60  93 125 159 200 244 295 356
#     4  11  23  40  62  93 124 155 198 249 298 357
#     4  10  21  39  61  89 122 157 197 242 293 358
#     4   9  20  38  61  87 120 159 198 239 292 357
#     4  11  24  43  63  85 116 160 201 246 302 358
#     4  11  23  41  62  86 116 155 201 252 298 347
#
# _framework density 20.098503000000001
#
# number of rings (size 3 to 8) (size 9 to 14) (size 15 to 20)
#    0.000    1.500    2.500    2.625    0.000    4.000 
#    0.000    5.000    0.000    0.000    0.000    0.000 
#    0.000    0.000    0.000    0.000    0.000    0.000 
#
# Total GULP energy -396929.740622 kJ/mol
# GULP energy per Si atom -12404.054394 kJ/mol
# Density = 2.005276 g / cm^3
# Si number density = 20.098503 Si / 1000 Ang^3
#
#
#
# Elastic Constant Matrix: (Units=GPa)
#
#
# Indices 1 2 3 4 5 6 
#
# 1 29.4811 22.9832 9.2141 0.0000 0.0000 0.0000
# 2 22.9832 113.6974 30.8759 0.0000 0.0000 0.0000
# 3 9.2141 30.8759 88.7275 0.0000 0.0000 0.0000
# 4 0.0000 0.0000 0.0000 13.5745 0.0000 0.0000
# 5 0.0000 0.0000 0.0000 0.0000 34.3326 0.0000
# 6 0.0000 0.0000 0.0000 0.0000 0.0000 26.2877
#
#
#
# Elastic Compliance Matrix: (Units=1/GPa)
#
#
# Indices 1 2 3 4 5 6 
#
# 1 0.040445 -0.007769 -0.001496 0.000000 0.000000 0.000000
# 2 -0.007769 0.011206 -0.003093 0.000000 0.000000 0.000000
# 3 -0.001496 -0.003093 0.012502 0.000000 0.000000 0.000000
# 4 0.000000 0.000000 0.000000 0.073667 0.000000 0.000000
# 5 0.000000 0.000000 0.000000 0.000000 0.029127 0.000000
# 6 0.000000 0.000000 0.000000 0.000000 0.000000 0.038041
#
#
# Mechanical properties :
#
#
# Convention : Reuss Voigt Hill
#
# Bulk Modulus (GPa) = 25.35776 39.78359 32.57067
# Shear Modulus (GPa) = 20.58894 26.09449 23.34171
#
# Velocity S-wave (km/s) = 3.20410 3.60714 3.41158
# Velocity P-wave (km/s) = 5.13152 6.09803 5.63553
#
# Compressibility (1/GPa) = 0.03943566
#
# Stress axis : x y z
#
# Youngs Moduli (GPa) = 24.72520 89.24103 79.98699
#
# Poissons Ratio (x) = 0.69334 0.11970
# Poissons Ratio (y) = 0.19210 0.24737
# Poissons Ratio (z) = 0.03700 0.27598
#
# Static dielectric constant tensor:
#      x y z
#    x 3.502540 0.000000 0.000000 
#    y 0.000000 3.880910 0.000000 
#    z 0.000000 0.000000 3.657400 
# 
# 
# High freq. dielectric constant tensor:
#      x y z
#    x 1.774830 0.000000 0.000000 
#    y 0.000000 1.797930 0.000000 
#    z 0.000000 0.000000 1.782030 
# 
# From -- ./inp_files/16582.got.cif
#   From: 2010.03.12/outbox.cif.g09.slc.cpg/sg36_9_cif.got.tgz:16582.got - 2010.04.14 02:13:53.
