data_PCOD8175556
_publ_section_title
;
Structure prediction by ZEFSAII (Michael W. Deem and Ramdas Pophale) SiO2 
 PCOD8175556
Probable space group: C M C 21
;
_chemical_formula_sum "Si O2"
_cell_formula_units_Z 40
_cell_length_a 7.736003
_cell_length_b 28.887846
_cell_length_c 9.015957
_cell_angle_alpha 90.000000
_cell_angle_beta 90.000000
_cell_angle_gamma 90.000000
_cell_volume 2014.854184
_symmetry_space_group_name_H-M "C M C 21"
_symmetry_group_IT_number 36
_symmetry_cell_setting 'orthorhombic'
loop_
_space_group_symop_operation_xyz
x,y,z
-x,-y,1/2+z
x,-y,1/2+z
-x,y,z
1/2+x,1/2+y,z
1/2-x,1/2-y,1/2+z
1/2+x,1/2-y,1/2+z
1/2-x,1/2+y,z
loop_
_atom_site_type_symbol
_atom_site_label
_atom_site_fract_x
_atom_site_fract_y
_atom_site_fract_z
Si Si1 0.803917 0.698037 0.791760
Si Si2 0.691646 0.609099 0.640204
Si Si3 0.500000 0.946426 0.779314
Si Si4 0.301609 0.620968 0.300177
Si Si5 0.000000 0.456120 0.126359
Si Si6 0.702709 0.287841 0.620855
O O1 0.696438 0.652386 0.751754
O O2 0.727888 0.742084 0.703684
O O3 0.000000 0.689258 0.742198
O O4 0.799915 0.707533 0.966160
O O5 0.500000 0.586965 0.650512
O O6 0.729889 0.627694 0.475166
O O7 0.829896 0.570240 0.686364
O O8 0.326778 0.918149 0.737275
O O9 0.500000 0.992249 0.683759
O O10 0.500000 0.959605 0.950536
O O11 0.500000 0.606592 0.265422
O O12 0.250808 0.669015 0.224725
O O13 0.500000 0.285063 0.590834
#
# Coordination Sequence:
#
# PCOD8175556 Si02
#       6
#     8   8   4   8   4   8
#     4  11  22  36  56  85 119 155 198 240 285 347
#     4  10  20  39  62  83 117 155 191 243 294 342
#     4  10  22  38  62  86 118 152 194 248 293 346
#     4   9  20  39  60  84 115 153 195 239 293 348
#     4  10  22  40  58  90 116 150 200 240 295 356
#     4  10  22  37  54  83 119 155 197 239 288 348
#
# _framework density 19.852553
#
# number of rings (size 3 to 8) (size 9 to 14) (size 15 to 20)
#    0.000    2.000    1.000    1.800    1.400    5.600 
#    0.000    0.000    0.000    0.000    0.000    0.000 
#    0.000    0.000    0.000    0.000    0.000    0.000 
#
# Total GULP energy -248073.473016 kJ/mol
# GULP energy per Si atom -12403.673651 kJ/mol
# Density = 1.980737 g / cm^3
# Si number density = 19.852553 Si / 1000 Ang^3
#
#
#
# Elastic Constant Matrix: (Units=GPa)
#
#
# Indices 1 2 3 4 5 6 
#
# 1 101.4433 43.0621 13.5055 0.0000 0.0000 0.0000
# 2 43.0621 87.3002 0.7719 0.0000 0.0000 0.0000
# 3 13.5055 0.7719 36.9477 0.0000 0.0000 0.0000
# 4 0.0000 0.0000 0.0000 39.6121 0.0000 0.0000
# 5 0.0000 0.0000 0.0000 0.0000 25.1606 0.0000
# 6 0.0000 0.0000 0.0000 0.0000 0.0000 23.1893
#
#
#
# Elastic Compliance Matrix: (Units=1/GPa)
#
#
# Indices 1 2 3 4 5 6 
#
# 1 0.013238 -0.006488 -0.004703 0.000000 0.000000 0.000000
# 2 -0.006488 0.014637 0.002066 0.000000 0.000000 0.000000
# 3 -0.004703 0.002066 0.028741 0.000000 0.000000 0.000000
# 4 0.000000 0.000000 0.000000 0.025245 0.000000 0.000000
# 5 0.000000 0.000000 0.000000 0.000000 0.039745 0.000000
# 6 0.000000 0.000000 0.000000 0.000000 0.000000 0.043123
#
#
# Mechanical properties :
#
#
# Convention : Reuss Voigt Hill
#
# Bulk Modulus (GPa) = 26.06557 37.81892 31.94225
# Shear Modulus (GPa) = 25.54027 28.81584 27.17805
#
# Velocity S-wave (km/s) = 3.59067 3.81398 3.70401
# Velocity P-wave (km/s) = 5.50896 6.20375 5.86665
#
# Compressibility (1/GPa) = 0.03836478
#
# Stress axis : x y z
#
# Youngs Moduli (GPa) = 75.53910 68.32034 34.79303
#
# Poissons Ratio (x) = 0.44329 0.16365
# Poissons Ratio (y) = 0.49012 -0.07188
# Poissons Ratio (z) = 0.35529 -0.14114
#
# Static dielectric constant tensor:
#      x y z
#    x 3.728920 0.000000 0.000000 
#    y 0.000000 3.491600 0.000000 
#    z 0.000000 0.000000 3.449960 
# 
# 
# High freq. dielectric constant tensor:
#      x y z
#    x 1.785240 0.000000 0.000000 
#    y 0.000000 1.765250 0.000000 
#    z 0.000000 0.000000 1.768130 
# 
# From -- ./inp_files/2438.got.cif
#   From: 2010.03.12/outbox.cif.g09.slc.cpg/sg36_2_cif.got.tgz:2438.got - 2010.04.14 02:13:53.
