data_PCOD8175601
_publ_section_title
;
Structure prediction by ZEFSAII (Michael W. Deem and Ramdas Pophale) SiO2 
 PCOD8175601
Probable space group: C M C 21
;
_chemical_formula_sum "Si O2"
_cell_formula_units_Z 56
_cell_length_a 19.852298
_cell_length_b 10.061725
_cell_length_c 12.863159
_cell_angle_alpha 90.000000
_cell_angle_beta 90.000000
_cell_angle_gamma 90.000000
_cell_volume 2569.394954
_symmetry_space_group_name_H-M "C M C 21"
_symmetry_group_IT_number 36
_symmetry_cell_setting 'orthorhombic'
loop_
_space_group_symop_operation_xyz
x,y,z
-x,-y,1/2+z
x,-y,1/2+z
-x,y,z
1/2+x,1/2+y,z
1/2-x,1/2-y,1/2+z
1/2+x,1/2-y,1/2+z
1/2-x,1/2+y,z
loop_
_atom_site_type_symbol
_atom_site_label
_atom_site_fract_x
_atom_site_fract_y
_atom_site_fract_z
Si Si1 0.132363 0.865188 0.841930
Si Si2 0.812861 0.697700 0.021057
Si Si3 0.126183 0.612262 0.708521
Si Si4 0.574757 0.635710 0.874203
Si Si5 0.774393 0.486989 0.853266
Si Si6 0.328139 0.788435 0.001795
Si Si7 0.574736 0.157726 0.191677
O O1 0.108124 0.755514 0.758148
O O2 0.201596 0.940588 0.814336
O O3 0.076381 0.980237 0.843761
O O4 0.140916 0.795410 0.953160
O O5 0.743598 0.765744 0.060652
O O6 0.862116 0.652907 0.112581
O O7 0.778925 0.580400 0.954251
O O8 0.197615 0.564830 0.754278
O O9 0.128510 0.626760 0.583779
O O10 0.073632 0.493800 0.737822
O O11 0.500000 0.668580 0.915606
O O12 0.589938 0.729115 0.775386
O O13 0.628272 0.659712 0.967592
O O14 0.817573 0.359900 0.890130
O O15 0.500000 0.183037 0.142475
#
# Coordination Sequence:
#
# PCOD8175601 Si02
#       7
#     8   8   8   8   8   8   8
#     4  10  24  41  64 101 135 175 224 281 337 404
#     4  10  22  40  68  98 132 171 228 284 337 402
#     4  11  24  38  68 100 130 178 220 291 327 399
#     4  11  25  46  67  92 142 188 221 278 346 418
#     4  10  20  41  63  96 136 169 218 278 337 394
#     4  11  22  38  66 102 126 174 229 273 340 396
#     4  11  25  44  68  99 137 185 230 277 344 413
#
# _framework density 21.795014999999999
#
# number of rings (size 3 to 8) (size 9 to 14) (size 15 to 20)
#    0.000    1.429    4.286    0.000    4.000    2.857 
#    0.000    3.571    0.000    0.000    0.000    0.000 
#    0.000    0.000    0.000    0.000    0.000    0.000 
#
# Total GULP energy -346876.557622 kJ/mol
# GULP energy per Si atom -12388.448486 kJ/mol
# Density = 2.174541 g / cm^3
# Si number density = 21.795015 Si / 1000 Ang^3
#
#
#
# Elastic Constant Matrix: (Units=GPa)
#
#
# Indices 1 2 3 4 5 6 
#
# 1 83.6463 40.8552 41.3884 0.0000 0.0000 0.0000
# 2 40.8552 127.3702 27.9145 0.0000 0.0000 0.0000
# 3 41.3884 27.9145 62.4366 0.0000 0.0000 0.0000
# 4 0.0000 0.0000 0.0000 29.6654 0.0000 0.0000
# 5 0.0000 0.0000 0.0000 0.0000 22.4866 0.0000
# 6 0.0000 0.0000 0.0000 0.0000 0.0000 19.0683
#
#
#
# Elastic Compliance Matrix: (Units=1/GPa)
#
#
# Indices 1 2 3 4 5 6 
#
# 1 0.019282 -0.003751 -0.011105 0.000000 0.000000 0.000000
# 2 -0.003751 0.009434 -0.001731 0.000000 0.000000 0.000000
# 3 -0.011105 -0.001731 0.024151 0.000000 0.000000 0.000000
# 4 0.000000 0.000000 0.000000 0.033709 0.000000 0.000000
# 5 0.000000 0.000000 0.000000 0.000000 0.044471 0.000000
# 6 0.000000 0.000000 0.000000 0.000000 0.000000 0.052443
#
#
# Mechanical properties :
#
#
# Convention : Reuss Voigt Hill
#
# Bulk Modulus (GPa) = 50.77900 54.86324 52.82112
# Shear Modulus (GPa) = 22.39859 25.13039 23.76449
#
# Velocity S-wave (km/s) = 3.20924 3.39932 3.30565
# Velocity P-wave (km/s) = 6.08945 6.37450 6.23360
#
# Compressibility (1/GPa) = 0.01969318
#
# Stress axis : x y z
#
# Youngs Moduli (GPa) = 51.86225 106.00262 41.40570
#
# Poissons Ratio (x) = 0.39763 0.45979
# Poissons Ratio (y) = 0.19454 0.07168
# Poissons Ratio (z) = 0.57591 0.18350
#
# Static dielectric constant tensor:
#      x y z
#    x 3.755070 0.000000 0.000000 
#    y 0.000000 4.244690 0.000000 
#    z 0.000000 0.000000 3.575830 
# 
# 
# High freq. dielectric constant tensor:
#      x y z
#    x 1.843300 0.000000 0.000000 
#    y 0.000000 1.876860 0.000000 
#    z 0.000000 0.000000 1.831640 
# 
# From -- ./inp_files/12821.got.cif
#   From: 2010.03.12/outbox.cif.g09.slc.cpg/sg36_7_cif.got.tgz:12821.got - 2010.04.14 02:13:53.
