data_PCOD8175130
_publ_section_title
;
Structure prediction by ZEFSAII (Michael W. Deem and Ramdas Pophale) SiO2 
 PCOD8175130
Probable space group: C M C 21
;
_chemical_formula_sum "Si O2"
_cell_formula_units_Z 64
_cell_length_a 9.460057
_cell_length_b 14.777834
_cell_length_c 24.300676
_cell_angle_alpha 90.000000
_cell_angle_beta 90.000000
_cell_angle_gamma 90.000000
_cell_volume 3397.213897
_symmetry_space_group_name_H-M "C M C 21"
_symmetry_group_IT_number 36
_symmetry_cell_setting 'orthorhombic'
loop_
_space_group_symop_operation_xyz
x,y,z
-x,-y,1/2+z
x,-y,1/2+z
-x,y,z
1/2+x,1/2+y,z
1/2-x,1/2-y,1/2+z
1/2+x,1/2-y,1/2+z
1/2-x,1/2+y,z
loop_
_atom_site_type_symbol
_atom_site_label
_atom_site_fract_x
_atom_site_fract_y
_atom_site_fract_z
Si Si1 0.332909 0.380870 0.054880
Si Si2 0.161043 0.088226 0.053573
Si Si3 0.833317 0.400429 0.281273
Si Si4 0.166019 0.761504 0.350647
Si Si5 0.837290 0.250884 0.977495
Si Si6 0.667680 0.102764 0.272610
Si Si7 0.656572 0.888235 0.158384
Si Si8 0.656526 0.896803 0.653510
O O1 0.500000 0.364731 0.056015
O O2 0.292116 0.485158 0.041550
O O3 0.269021 0.350742 0.114082
O O4 0.263992 0.321776 0.007159
O O5 0.246096 0.135101 0.103377
O O6 0.000000 0.088545 0.072865
O O7 0.186574 0.148945 0.999687
O O8 0.749884 0.346441 0.327506
O O9 0.775466 0.502970 0.286836
O O10 0.798344 0.360626 0.220404
O O11 0.000000 0.394285 0.292993
O O12 0.205384 0.749146 0.414007
O O13 0.219104 0.671769 0.319140
O O14 0.000000 0.778048 0.341929
O O15 0.000000 0.280913 0.985998
O O16 0.500000 0.096426 0.268634
O O17 0.720510 0.136554 0.212163
O O18 0.500000 0.849539 0.144401
O O19 0.650521 0.995610 0.156127
O O20 0.500000 0.856932 0.643049
#
# Coordination Sequence:
#
# PCOD8175130 Si02
#       8
#     8   8   8   8   8   8   8   8
#     4  10  20  34  54  78 102 130 168 215 256 293
#     4   9  19  35  52  73 104 135 163 205 259 306
#     4   9  18  34  55  77 103 134 165 204 255 305
#     4  10  21  36  53  74 101 136 178 217 252 297
#     4  10  22  38  52  70 102 142 177 209 255 311
#     4   8  16  33  54  75 102 133 164 204 254 304
#     4   8  15  30  52  77 105 134 161 195 252 319
#     4   8  14  28  52  78 101 128 164 203 247 305
#
# _framework density 18.838968000000001
#
# number of rings (size 3 to 8) (size 9 to 14) (size 15 to 20)
#    0.000    3.000    0.000    1.875    0.000    4.000 
#    0.000    5.625    0.000    0.000    0.000    0.000 
#    0.000    0.000    0.000    0.000    0.000    0.000 
#
# Total GULP energy -396706.419083 kJ/mol
# GULP energy per Si atom -12397.075596 kJ/mol
# Density = 1.879609 g / cm^3
# Si number density = 18.838968 Si / 1000 Ang^3
#
#
#
# Elastic Constant Matrix: (Units=GPa)
#
#
# Indices 1 2 3 4 5 6 
#
# 1 60.7223 24.9085 41.8926 0.0000 0.0000 0.0000
# 2 24.9085 57.4252 29.1944 0.0000 0.0000 0.0000
# 3 41.8926 29.1944 113.8123 0.0000 0.0000 0.0000
# 4 0.0000 0.0000 0.0000 32.1526 0.0000 0.0000
# 5 0.0000 0.0000 0.0000 0.0000 30.4336 0.0000
# 6 0.0000 0.0000 0.0000 0.0000 0.0000 17.0960
#
#
#
# Elastic Compliance Matrix: (Units=1/GPa)
#
#
# Indices 1 2 3 4 5 6 
#
# 1 0.024221 -0.006869 -0.007153 0.000000 0.000000 0.000000
# 2 -0.006869 0.021974 -0.003108 0.000000 0.000000 0.000000
# 3 -0.007153 -0.003108 0.012217 0.000000 0.000000 0.000000
# 4 0.000000 0.000000 0.000000 0.031102 0.000000 0.000000
# 5 0.000000 0.000000 0.000000 0.000000 0.032858 0.000000
# 6 0.000000 0.000000 0.000000 0.000000 0.000000 0.058493
#
#
# Mechanical properties :
#
#
# Convention : Reuss Voigt Hill
#
# Bulk Modulus (GPa) = 41.40775 47.10564 44.25669
# Shear Modulus (GPa) = 22.40374 25.00073 23.70223
#
# Velocity S-wave (km/s) = 3.45225 3.64686 3.55089
# Velocity P-wave (km/s) = 6.15778 6.54151 6.35255
#
# Compressibility (1/GPa) = 0.02415007
#
# Stress axis : x y z
#
# Youngs Moduli (GPa) = 41.28568 45.50890 81.85501
#
# Poissons Ratio (x) = 0.31262 0.58555
# Poissons Ratio (y) = 0.28361 0.25441
# Poissons Ratio (z) = 0.29533 0.14144
#
# Static dielectric constant tensor:
#      x y z
#    x 3.370230 0.000000 0.000000 
#    y 0.000000 3.381070 0.000000 
#    z 0.000000 0.000000 3.585680 
# 
# 
# High freq. dielectric constant tensor:
#      x y z
#    x 1.714900 0.000000 0.000000 
#    y 0.000000 1.724840 0.000000 
#    z 0.000000 0.000000 1.731790 
# 
# From -- ./inp_files/16573.got.cif
#   From: 2010.03.12/outbox.cif.g09.slc.cpg/sg36_9_cif.got.tgz:16573.got - 2010.04.14 02:13:53.
