data_PCOD8175550
_publ_section_title
;
Structure prediction by ZEFSAII (Michael W. Deem and Ramdas Pophale) SiO2 
 PCOD8175550
Probable space group: C M C 21
;
_chemical_formula_sum "Si O2"
_cell_formula_units_Z 64
_cell_length_a 13.252836
_cell_length_b 12.567646
_cell_length_c 18.439847
_cell_angle_alpha 90.000000
_cell_angle_beta 90.000000
_cell_angle_gamma 90.000000
_cell_volume 3071.284700
_symmetry_space_group_name_H-M "C M C 21"
_symmetry_group_IT_number 36
_symmetry_cell_setting 'orthorhombic'
loop_
_space_group_symop_operation_xyz
x,y,z
-x,-y,1/2+z
x,-y,1/2+z
-x,y,z
1/2+x,1/2+y,z
1/2-x,1/2-y,1/2+z
1/2+x,1/2-y,1/2+z
1/2-x,1/2+y,z
loop_
_atom_site_type_symbol
_atom_site_label
_atom_site_fract_x
_atom_site_fract_y
_atom_site_fract_z
Si Si1 0.882476 0.815508 0.588210
Si Si2 0.389506 0.732124 0.696425
Si Si3 0.819279 0.330798 0.221179
Si Si4 0.114576 0.691576 0.878682
Si Si5 0.617484 0.001118 0.975873
Si Si6 0.883088 0.467692 0.638632
Si Si7 0.259175 0.814736 0.974050
Si Si8 0.111388 0.941935 0.071929
O O1 0.859770 0.751936 0.661772
O O2 0.805370 0.776876 0.525325
O O3 0.860147 0.940272 0.601714
O O4 0.000000 0.795312 0.566609
O O5 0.500000 0.733198 0.736030
O O6 0.295277 0.699337 0.746863
O O7 0.365779 0.847030 0.662694
O O8 0.391074 0.644075 0.634874
O O9 0.886960 0.322890 0.292513
O O10 0.821511 0.450232 0.189144
O O11 0.156207 0.586574 0.918225
O O12 0.193950 0.778850 0.905367
O O13 0.000000 0.720074 0.902887
O O14 0.500000 0.009528 0.980629
O O15 0.647595 0.885217 0.945561
O O16 0.659470 0.021730 0.057114
O O17 0.000000 0.500673 0.643669
O O18 0.190198 0.901565 0.013848
O O19 0.000000 0.948060 0.036115
#
# Coordination Sequence:
#
# PCOD8175550 Si02
#       8
#     8   8   8   8   8   8   8   8
#     4  11  23  39  65  97 129 165 215 268 318 378
#     4  10  22  38  60  93 128 165 212 263 318 379
#     4  12  24  40  68  95 131 168 217 267 335 385
#     4  11  26  44  62  92 132 172 212 266 333 400
#     4  10  21  38  63  93 125 165 215 267 321 382
#     4  10  20  38  67  98 127 165 219 275 317 377
#     4  12  21  38  64  94 122 169 216 264 313 382
#     4  10  21  37  59  92 128 161 202 258 315 375
#
# _framework density 20.838184999999999
#
# number of rings (size 3 to 8) (size 9 to 14) (size 15 to 20)
#    0.000    1.250    2.500    3.375    3.500    3.000 
#    0.000    2.500    0.000    0.750    0.000    0.000 
#    0.000    0.000    0.000    0.000    0.000    0.000 
#
# Total GULP energy -396597.079118 kJ/mol
# GULP energy per Si atom -12393.658722 kJ/mol
# Density = 2.079076 g / cm^3
# Si number density = 20.838185 Si / 1000 Ang^3
#
#
#
# Elastic Constant Matrix: (Units=GPa)
#
#
# Indices 1 2 3 4 5 6 
#
# 1 68.0385 29.2191 21.7234 0.0000 0.0000 0.0000
# 2 29.2191 119.2337 14.4236 0.0000 0.0000 0.0000
# 3 21.7234 14.4236 72.6051 0.0000 0.0000 0.0000
# 4 0.0000 0.0000 0.0000 24.0127 0.0000 0.0000
# 5 0.0000 0.0000 0.0000 0.0000 25.7042 0.0000
# 6 0.0000 0.0000 0.0000 0.0000 0.0000 38.6682
#
#
#
# Elastic Compliance Matrix: (Units=1/GPa)
#
#
# Indices 1 2 3 4 5 6 
#
# 1 0.017791 -0.003807 -0.004567 0.000000 0.000000 0.000000
# 2 -0.003807 0.009408 -0.000730 0.000000 0.000000 0.000000
# 3 -0.004567 -0.000730 0.015284 0.000000 0.000000 0.000000
# 4 0.000000 0.000000 0.000000 0.041645 0.000000 0.000000
# 5 0.000000 0.000000 0.000000 0.000000 0.038904 0.000000
# 6 0.000000 0.000000 0.000000 0.000000 0.000000 0.025861
#
#
# Mechanical properties :
#
#
# Convention : Reuss Voigt Hill
#
# Bulk Modulus (GPa) = 41.19339 43.40105 42.29722
# Shear Modulus (GPa) = 28.54004 30.64445 29.59224
#
# Velocity S-wave (km/s) = 3.70483 3.83899 3.77251
# Velocity P-wave (km/s) = 6.17350 6.36579 6.27039
#
# Compressibility (1/GPa) = 0.02427574
#
# Stress axis : x y z
#
# Youngs Moduli (GPa) = 56.20931 106.29033 65.42592
#
# Poissons Ratio (x) = 0.40468 0.29877
# Poissons Ratio (y) = 0.21401 0.04775
# Poissons Ratio (z) = 0.25669 0.07758
#
# Static dielectric constant tensor:
#      x y z
#    x 4.479080 0.000000 0.000000 
#    y 0.000000 3.958310 0.000000 
#    z 0.000000 0.000000 3.389270 
# 
# 
# High freq. dielectric constant tensor:
#      x y z
#    x 1.846400 0.000000 0.000000 
#    y 0.000000 1.830600 0.000000 
#    z 0.000000 0.000000 1.766880 
# 
# From -- ./inp_files/14725.got.cif
#   From: 2010.03.12/outbox.cif.g09.slc.cpg/sg36_8_cif.got.tgz:14725.got - 2010.04.14 02:13:53.
