data_PCOD8175194
_publ_section_title
;
Structure prediction by ZEFSAII (Michael W. Deem and Ramdas Pophale) SiO2 
 PCOD8175194
Probable space group: C M C 21
;
_chemical_formula_sum "Si O2"
_cell_formula_units_Z 52
_cell_length_a 7.822241
_cell_length_b 23.554274
_cell_length_c 15.158771
_cell_angle_alpha 90.000000
_cell_angle_beta 90.000000
_cell_angle_gamma 90.000000
_cell_volume 2792.961231
_symmetry_space_group_name_H-M "C M C 21"
_symmetry_group_IT_number 36
_symmetry_cell_setting 'orthorhombic'
loop_
_space_group_symop_operation_xyz
x,y,z
-x,-y,1/2+z
x,-y,1/2+z
-x,y,z
1/2+x,1/2+y,z
1/2-x,1/2-y,1/2+z
1/2+x,1/2-y,1/2+z
1/2-x,1/2+y,z
loop_
_atom_site_type_symbol
_atom_site_label
_atom_site_fract_x
_atom_site_fract_y
_atom_site_fract_z
Si Si1 0.313651 0.382078 0.631050
Si Si2 0.500000 0.925171 0.736258
Si Si3 0.500000 0.990561 0.379934
Si Si4 0.698166 0.213848 0.828174
Si Si5 0.198951 0.807849 0.974639
Si Si6 0.307579 0.759293 0.648139
Si Si7 0.500000 0.886472 0.922489
Si Si8 0.310601 0.110769 0.940837
O O1 0.500000 0.403338 0.663345
O O2 0.305099 0.315659 0.654713
O O3 0.307014 0.391273 0.526237
O O4 0.169026 0.419015 0.677983
O O5 0.500000 0.878580 0.815461
O O6 0.500000 0.988609 0.778067
O O7 0.669209 0.952236 0.398376
O O8 0.500000 0.045846 0.444065
O O9 0.500000 0.209401 0.804057
O O10 0.798938 0.223608 0.737888
O O11 0.766668 0.154801 0.869816
O O12 0.735342 0.264197 0.896214
O O13 0.252299 0.779418 0.066852
O O14 0.000000 0.827866 0.974768
O O15 0.325776 0.860814 0.962013
O O16 0.500000 0.779838 0.630724
O O17 0.500000 0.133986 0.969201
#
# Coordination Sequence:
#
# PCOD8175194 Si02
#       8
#     8   4   4   8   8   8   4   8
#     4  12  22  36  64  94 127 163 213 268 311 383
#     4  10  21  41  60  93 123 164 219 266 304 369
#     4   8  21  41  68  84 114 180 215 259 315 365
#     4  10  20  34  58  90 121 159 201 259 316 373
#     4  10  22  37  55  90 128 156 198 263 319 379
#     4  11  22  36  55  89 133 168 201 259 328 396
#     4  10  22  38  64  87 119 178 202 251 323 374
#     4   9  18  41  64  86 122 162 215 257 312 372
#
# _framework density 18.618231000000002
#
# number of rings (size 3 to 8) (size 9 to 14) (size 15 to 20)
#    0.923    0.923    3.077    1.385    3.231    2.462 
#    0.000    4.615    0.000    1.846    0.000    0.000 
#    0.000    0.000    0.000    0.000    0.000    0.000 
#
# Total GULP energy -322300.840154 kJ/mol
# GULP energy per Si atom -12396.186160 kJ/mol
# Density = 1.857585 g / cm^3
# Si number density = 18.618231 Si / 1000 Ang^3
#
#
#
# Elastic Constant Matrix: (Units=GPa)
#
#
# Indices 1 2 3 4 5 6 
#
# 1 90.3788 32.8077 26.9648 0.0000 0.0000 0.0000
# 2 32.8077 109.2614 35.3944 0.0000 0.0000 0.0000
# 3 26.9648 35.3944 115.4597 0.0000 0.0000 0.0000
# 4 0.0000 0.0000 0.0000 32.0672 0.0000 0.0000
# 5 0.0000 0.0000 0.0000 0.0000 21.7458 0.0000
# 6 0.0000 0.0000 0.0000 0.0000 0.0000 19.2154
#
#
#
# Elastic Compliance Matrix: (Units=1/GPa)
#
#
# Indices 1 2 3 4 5 6 
#
# 1 0.012827 -0.003199 -0.002015 0.000000 0.000000 0.000000
# 2 -0.003199 0.010959 -0.002613 0.000000 0.000000 0.000000
# 3 -0.002015 -0.002613 0.009932 0.000000 0.000000 0.000000
# 4 0.000000 0.000000 0.000000 0.031184 0.000000 0.000000
# 5 0.000000 0.000000 0.000000 0.000000 0.045986 0.000000
# 6 0.000000 0.000000 0.000000 0.000000 0.000000 0.052042
#
#
# Mechanical properties :
#
#
# Convention : Reuss Voigt Hill
#
# Bulk Modulus (GPa) = 55.35278 56.15930 55.75604
# Shear Modulus (GPa) = 27.08483 29.26788 28.17635
#
# Velocity S-wave (km/s) = 3.81825 3.96915 3.89443
# Velocity P-wave (km/s) = 7.01667 7.15784 7.08761
#
# Compressibility (1/GPa) = 0.01806594
#
# Stress axis : x y z
#
# Youngs Moduli (GPa) = 77.96121 91.24796 100.67959
#
# Poissons Ratio (x) = 0.29188 0.20287
# Poissons Ratio (y) = 0.24938 0.26303
# Poissons Ratio (z) = 0.15710 0.23839
#
# Static dielectric constant tensor:
#      x y z
#    x 3.255400 0.000000 0.000000 
#    y 0.000000 3.176380 0.000000 
#    z 0.000000 0.000000 3.401570 
# 
# 
# High freq. dielectric constant tensor:
#      x y z
#    x 1.715010 0.000000 0.000000 
#    y 0.000000 1.697540 0.000000 
#    z 0.000000 0.000000 1.725590 
# 
# From -- ./inp_files/10818.got.cif
#   From: 2010.03.12/outbox.cif.g09.slc.cpg/sg36_6_cif.got.tgz:10818.got - 2010.04.14 02:13:53.
