data_PCOD8175587
_publ_section_title
;
Structure prediction by ZEFSAII (Michael W. Deem and Ramdas Pophale) SiO2 
 PCOD8175587
Probable space group: C M C 21
;
_chemical_formula_sum "Si O2"
_cell_formula_units_Z 32
_cell_length_a 10.438276
_cell_length_b 9.431152
_cell_length_c 15.480022
_cell_angle_alpha 90.000000
_cell_angle_beta 90.000000
_cell_angle_gamma 90.000000
_cell_volume 1523.930264
_symmetry_space_group_name_H-M "C M C 21"
_symmetry_group_IT_number 36
_symmetry_cell_setting 'orthorhombic'
loop_
_space_group_symop_operation_xyz
x,y,z
-x,-y,1/2+z
x,-y,1/2+z
-x,y,z
1/2+x,1/2+y,z
1/2-x,1/2-y,1/2+z
1/2+x,1/2-y,1/2+z
1/2-x,1/2+y,z
loop_
_atom_site_type_symbol
_atom_site_label
_atom_site_fract_x
_atom_site_fract_y
_atom_site_fract_z
Si Si1 0.000000 0.279116 0.356310
Si Si2 0.228702 0.734467 0.348371
Si Si3 0.500000 0.611061 0.176509
Si Si4 0.500000 0.103499 0.619368
Si Si5 0.500000 0.087182 0.428167
Si Si6 0.246527 0.489041 0.226822
O O1 0.131950 0.217675 0.396603
O O2 0.000000 0.224753 0.257004
O O3 0.000000 0.452565 0.362423
O O4 0.209737 0.642449 0.262449
O O5 0.222398 0.894146 0.311633
O O6 0.121387 0.691029 0.416412
O O7 0.500000 0.726208 0.099187
O O8 0.377259 0.507850 0.172072
O O9 0.500000 0.027279 0.525802
O O10 0.369595 0.063485 0.668593
#
# Coordination Sequence:
#
# PCOD8175587 Si02
#       6
#     4   8   4   4   4   8
#     4  10  20  40  60  90 122 157 215 265 287 379
#     4  11  20  41  69  89 118 170 216 257 308 381
#     4  10  21  39  64  90 118 162 222 262 296 380
#     4  12  24  41  59  98 139 157 203 280 320 369
#     4  12  25  38  63  96 135 166 202 265 339 366
#     4  11  20  41  70  87 122 167 219 259 303 377
#
# _framework density 20.998338
#
# number of rings (size 3 to 8) (size 9 to 14) (size 15 to 20)
#    0.000    1.000    7.500    1.500    0.000    2.000 
#    0.000    1.250    0.000    0.000    0.000    0.000 
#    0.000    0.000    0.000    0.000    0.000    0.000 
#
# Total GULP energy -198211.046511 kJ/mol
# GULP energy per Si atom -12388.190407 kJ/mol
# Density = 2.095054 g / cm^3
# Si number density = 20.998338 Si / 1000 Ang^3
#
#
#
# Elastic Constant Matrix: (Units=GPa)
#
#
# Indices 1 2 3 4 5 6 
#
# 1 219.0505 55.9451 39.3895 0.0000 0.0000 0.0000
# 2 55.9451 68.2845 16.8928 0.0000 0.0000 0.0000
# 3 39.3895 16.8928 50.3144 0.0000 0.0000 0.0000
# 4 0.0000 0.0000 0.0000 13.6262 0.0000 0.0000
# 5 0.0000 0.0000 0.0000 0.0000 19.8328 0.0000
# 6 0.0000 0.0000 0.0000 0.0000 0.0000 39.1693
#
#
#
# Elastic Compliance Matrix: (Units=1/GPa)
#
#
# Indices 1 2 3 4 5 6 
#
# 1 0.006287 -0.004289 -0.003482 0.000000 0.000000 0.000000
# 2 -0.004289 0.018898 -0.002987 0.000000 0.000000 0.000000
# 3 -0.003482 -0.002987 0.023603 0.000000 0.000000 0.000000
# 4 0.000000 0.000000 0.000000 0.073388 0.000000 0.000000
# 5 0.000000 0.000000 0.000000 0.000000 0.050421 0.000000
# 6 0.000000 0.000000 0.000000 0.000000 0.000000 0.025530
#
#
# Mechanical properties :
#
#
# Convention : Reuss Voigt Hill
#
# Bulk Modulus (GPa) = 36.66701 62.45600 49.56151
# Shear Modulus (GPa) = 21.85949 29.55380 25.70664
#
# Velocity S-wave (km/s) = 3.22997 3.75565 3.50269
# Velocity P-wave (km/s) = 5.60447 6.97240 6.32552
#
# Compressibility (1/GPa) = 0.02727247
#
# Stress axis : x y z
#
# Youngs Moduli (GPa) = 159.06600 52.91629 42.36680
#
# Poissons Ratio (x) = 0.22698 0.14750
# Poissons Ratio (y) = 0.68229 0.12654
# Poissons Ratio (z) = 0.55379 0.15805
#
# Static dielectric constant tensor:
#      x y z
#    x 4.334210 0.000000 0.000000 
#    y 0.000000 3.871790 0.000000 
#    z 0.000000 0.000000 3.358410 
# 
# 
# High freq. dielectric constant tensor:
#      x y z
#    x 1.852460 0.000000 0.000000 
#    y 0.000000 1.826980 0.000000 
#    z 0.000000 0.000000 1.763590 
# 
# From -- ./inp_files/11275.got.cif
#   From: 2010.03.12/outbox.cif.g09.slc.cpg/sg36_6_cif.got.tgz:11275.got - 2010.04.14 02:13:53.
