data_PCOD8175196
_publ_section_title
;
Structure prediction by ZEFSAII (Michael W. Deem and Ramdas Pophale) SiO2 
 PCOD8175196
Probable space group: C M C 21
;
_chemical_formula_sum "Si O2"
_cell_formula_units_Z 40
_cell_length_a 7.687326
_cell_length_b 25.777716
_cell_length_c 10.014851
_cell_angle_alpha 90.000000
_cell_angle_beta 90.000000
_cell_angle_gamma 90.000000
_cell_volume 1984.559964
_symmetry_space_group_name_H-M "C M C 21"
_symmetry_group_IT_number 36
_symmetry_cell_setting 'orthorhombic'
loop_
_space_group_symop_operation_xyz
x,y,z
-x,-y,1/2+z
x,-y,1/2+z
-x,y,z
1/2+x,1/2+y,z
1/2-x,1/2-y,1/2+z
1/2+x,1/2-y,1/2+z
1/2-x,1/2+y,z
loop_
_atom_site_type_symbol
_atom_site_label
_atom_site_fract_x
_atom_site_fract_y
_atom_site_fract_z
Si Si1 0.800173 0.627472 0.881700
Si Si2 0.808832 0.144655 0.325204
Si Si3 0.306026 0.790912 0.589830
Si Si4 0.000000 0.047865 0.934811
Si Si5 0.206235 0.823988 0.111648
Si Si6 0.500000 0.549877 0.243414
O O1 0.676211 0.578362 0.900869
O O2 0.800978 0.645827 0.729508
O O3 0.000000 0.613437 0.922188
O O4 0.719232 0.673096 0.975835
O O5 0.687701 0.178271 0.229359
O O6 0.738187 0.146329 0.476182
O O7 0.000000 0.171628 0.322481
O O8 0.827701 0.085091 0.273679
O O9 0.500000 0.779735 0.541000
O O10 0.216652 0.734709 0.604500
O O11 0.000000 0.031204 0.090216
O O12 0.000000 0.997709 0.843004
O O13 0.000000 0.825255 0.138393
#
# Coordination Sequence:
#
# PCOD8175196 Si02
#       6
#     8   8   8   4   8   4
#     4  11  23  41  63  93 130 167 207 269 316 378
#     4   9  19  38  57  86 119 162 207 254 312 367
#     4  10  20  35  56  90 128 170 209 252 311 373
#     4  12  24  46  70  94 122 164 220 268 331 368
#     4  10  20  34  59  90 131 171 207 251 301 386
#     4  10  24  40  74  88 116 174 208 272 327 370
#
# _framework density 20.155602999999999
#
# number of rings (size 3 to 8) (size 9 to 14) (size 15 to 20)
#    0.600    1.200    3.000    1.200    2.800    3.200 
#    0.000    2.000    0.000    0.000    0.000    0.000 
#    0.000    0.000    0.000    0.000    0.000    0.000 
#
# Total GULP energy -247901.702409 kJ/mol
# GULP energy per Si atom -12395.085120 kJ/mol
# Density = 2.010973 g / cm^3
# Si number density = 20.155603 Si / 1000 Ang^3
#
#
#
# Elastic Constant Matrix: (Units=GPa)
#
#
# Indices 1 2 3 4 5 6 
#
# 1 56.7325 25.6064 11.8058 0.0000 0.0000 0.0000
# 2 25.6064 121.7779 61.1499 0.0000 0.0000 0.0000
# 3 11.8058 61.1499 170.5172 0.0000 0.0000 0.0000
# 4 0.0000 0.0000 0.0000 45.7970 0.0000 0.0000
# 5 0.0000 0.0000 0.0000 0.0000 21.1075 0.0000
# 6 0.0000 0.0000 0.0000 0.0000 0.0000 19.7987
#
#
#
# Elastic Compliance Matrix: (Units=1/GPa)
#
#
# Indices 1 2 3 4 5 6 
#
# 1 0.019478 -0.004169 0.000147 0.000000 0.000000 0.000000
# 2 -0.004169 0.010908 -0.003623 0.000000 0.000000 0.000000
# 3 0.000147 -0.003623 0.007154 0.000000 0.000000 0.000000
# 4 0.000000 0.000000 0.000000 0.021835 0.000000 0.000000
# 5 0.000000 0.000000 0.000000 0.000000 0.047376 0.000000
# 6 0.000000 0.000000 0.000000 0.000000 0.000000 0.050508
#
#
# Mechanical properties :
#
#
# Convention : Reuss Voigt Hill
#
# Bulk Modulus (GPa) = 44.94817 60.68353 52.81585
# Shear Modulus (GPa) = 27.78293 34.03834 30.91064
#
# Velocity S-wave (km/s) = 3.71674 4.11393 3.92037
# Velocity P-wave (km/s) = 6.38497 7.26215 6.83764
#
# Compressibility (1/GPa) = 0.02224785
#
# Stress axis : x y z
#
# Youngs Moduli (GPa) = 51.34032 91.67938 139.78971
#
# Poissons Ratio (x) = 0.38223 -0.02049
# Poissons Ratio (y) = 0.21405 0.50645
# Poissons Ratio (z) = -0.00753 0.33215
#
# Static dielectric constant tensor:
#      x y z
#    x 3.370560 0.000000 0.000000 
#    y 0.000000 3.516650 0.000000 
#    z 0.000000 0.000000 3.729400 
# 
# 
# High freq. dielectric constant tensor:
#      x y z
#    x 1.761350 0.000000 0.000000 
#    y 0.000000 1.767170 0.000000 
#    z 0.000000 0.000000 1.805300 
# 
# From -- ./inp_files/2539.got.cif
#   From: 2010.03.12/outbox.cif.g09.slc.cpg/sg36_2_cif.got.tgz:2539.got - 2010.04.14 02:13:53.
