data_PCOD8175327
_publ_section_title
;
Structure prediction by ZEFSAII (Michael W. Deem and Ramdas Pophale) SiO2 
 PCOD8175327
Probable space group: C M C 21
;
_chemical_formula_sum "Si O2"
_cell_formula_units_Z 64
_cell_length_a 15.902201
_cell_length_b 9.271957
_cell_length_c 21.122069
_cell_angle_alpha 90.000000
_cell_angle_beta 90.000000
_cell_angle_gamma 90.000000
_cell_volume 3114.333407
_symmetry_space_group_name_H-M "C M C 21"
_symmetry_group_IT_number 36
_symmetry_cell_setting 'orthorhombic'
loop_
_space_group_symop_operation_xyz
x,y,z
-x,-y,1/2+z
x,-y,1/2+z
-x,y,z
1/2+x,1/2+y,z
1/2-x,1/2-y,1/2+z
1/2+x,1/2-y,1/2+z
1/2-x,1/2+y,z
loop_
_atom_site_type_symbol
_atom_site_label
_atom_site_fract_x
_atom_site_fract_y
_atom_site_fract_z
Si Si1 0.592316 0.751950 0.491190
Si Si2 0.818424 0.742298 0.196261
Si Si3 0.749276 0.634130 0.320161
Si Si4 0.691934 0.473551 0.532489
Si Si5 0.276775 0.885295 0.406276
Si Si6 0.369700 0.034748 0.094066
Si Si7 0.138921 0.764916 0.636507
Si Si8 0.904494 0.969134 0.746120
O O1 0.500000 0.694453 0.472731
O O2 0.644521 0.625258 0.524873
O O3 0.638228 0.806103 0.428015
O O4 0.581621 0.891190 0.536290
O O5 0.801857 0.636819 0.255688
O O6 0.876792 0.648713 0.150784
O O7 0.731811 0.779388 0.160624
O O8 0.865684 0.888249 0.214488
O O9 0.758042 0.793921 0.347803
O O10 0.793789 0.539407 0.374550
O O11 0.653475 0.582040 0.305193
O O12 0.711600 0.401097 0.464462
O O13 0.775947 0.504858 0.571366
O O14 0.636702 0.363758 0.573619
O O15 0.409358 0.883129 0.117294
O O16 0.090719 0.845137 0.692863
O O17 0.000000 0.997786 0.770198
#
# Coordination Sequence:
#
# PCOD8175327 Si02
#       8
#     8   8   8   8   8   8   8   8
#     4  11  24  40  61  91 126 160 196 254 317 361
#     4  10  20  37  61  90 118 162 207 247 293 361
#     4  11  22  40  66  89 116 159 209 252 292 358
#     4  10  20  37  61  91 116 163 208 244 293 367
#     4  11  22  40  66  88 116 160 208 250 295 359
#     4  10  20  35  62  90 123 158 206 250 295 354
#     4  10  20  35  62  90 123 158 206 249 295 358
#     4  11  24  40  61  91 126 160 198 252 314 366
#
# _framework density 20.550145000000001
#
# number of rings (size 3 to 8) (size 9 to 14) (size 15 to 20)
#    0.000    1.500    2.500    5.250    3.500    3.000 
#    0.000    0.625    0.000    0.000    0.000    0.000 
#    0.000    0.000    0.000    0.000    0.000    0.000 
#
# Total GULP energy -396709.346856 kJ/mol
# GULP energy per Si atom -12397.167089 kJ/mol
# Density = 2.050337 g / cm^3
# Si number density = 20.550145 Si / 1000 Ang^3
#
#
#
# Elastic Constant Matrix: (Units=GPa)
#
#
# Indices 1 2 3 4 5 6 
#
# 1 68.2815 24.2776 2.1262 0.0000 0.0000 0.0000
# 2 24.2776 101.7913 27.5523 0.0000 0.0000 0.0000
# 3 2.1262 27.5523 90.0969 0.0000 0.0000 0.0000
# 4 0.0000 0.0000 0.0000 51.2844 0.0000 0.0000
# 5 0.0000 0.0000 0.0000 0.0000 5.3124 0.0000
# 6 0.0000 0.0000 0.0000 0.0000 0.0000 12.1117
#
#
#
# Elastic Compliance Matrix: (Units=1/GPa)
#
#
# Indices 1 2 3 4 5 6 
#
# 1 0.016064 -0.004065 0.000864 0.000000 0.000000 0.000000
# 2 -0.004065 0.011739 -0.003494 0.000000 0.000000 0.000000
# 3 0.000864 -0.003494 0.012147 0.000000 0.000000 0.000000
# 4 0.000000 0.000000 0.000000 0.019499 0.000000 0.000000
# 5 0.000000 0.000000 0.000000 0.000000 0.188239 0.000000
# 6 0.000000 0.000000 0.000000 0.000000 0.000000 0.082565
#
#
# Mechanical properties :
#
#
# Convention : Reuss Voigt Hill
#
# Bulk Modulus (GPa) = 37.65050 40.89800 39.27425
# Shear Modulus (GPa) = 14.18451 27.48926 20.83689
#
# Velocity S-wave (km/s) = 2.63009 3.66138 3.18772
# Velocity P-wave (km/s) = 5.25207 6.14972 5.71853
#
# Compressibility (1/GPa) = 0.02656007
#
# Stress axis : x y z
#
# Youngs Moduli (GPa) = 62.25214 85.18384 82.32302
#
# Poissons Ratio (x) = 0.34628 -0.07113
# Poissons Ratio (y) = 0.25306 0.28764
# Poissons Ratio (z) = -0.05379 0.29764
#
# Static dielectric constant tensor:
#      x y z
#    x 3.390940 0.000000 0.000000 
#    y 0.000000 3.809550 0.000000 
#    z 0.000000 0.000000 3.796030 
# 
# 
# High freq. dielectric constant tensor:
#      x y z
#    x 1.761890 0.000000 0.000000 
#    y 0.000000 1.820000 0.000000 
#    z 0.000000 0.000000 1.812940 
# 
# From -- ./inp_files/16244.got.cif
#   From: 2010.03.12/outbox.cif.g09.slc.cpg/sg36_9_cif.got.tgz:16244.got - 2010.04.14 02:13:53.
