data_PCOD8175342
_publ_section_title
;
Structure prediction by ZEFSAII (Michael W. Deem and Ramdas Pophale) SiO2 
 PCOD8175342
Probable space group: C M C 21
;
_chemical_formula_sum "Si O2"
_cell_formula_units_Z 64
_cell_length_a 9.051801
_cell_length_b 22.443115
_cell_length_c 15.905283
_cell_angle_alpha 90.000000
_cell_angle_beta 90.000000
_cell_angle_gamma 90.000000
_cell_volume 3231.167956
_symmetry_space_group_name_H-M "C M C 21"
_symmetry_group_IT_number 36
_symmetry_cell_setting 'orthorhombic'
loop_
_space_group_symop_operation_xyz
x,y,z
-x,-y,1/2+z
x,-y,1/2+z
-x,y,z
1/2+x,1/2+y,z
1/2-x,1/2-y,1/2+z
1/2+x,1/2-y,1/2+z
1/2-x,1/2+y,z
loop_
_atom_site_type_symbol
_atom_site_label
_atom_site_fract_x
_atom_site_fract_y
_atom_site_fract_z
Si Si1 0.671532 0.220287 0.746060
Si Si2 0.826923 0.506770 0.610514
Si Si3 0.829781 0.357699 0.089500
Si Si4 0.161753 0.842703 0.793373
Si Si5 0.324872 0.538591 0.942633
Si Si6 0.662107 0.280722 0.968685
Si Si7 0.325967 0.037622 0.294947
Si Si8 0.326884 0.674507 0.908506
O O1 0.500000 0.208304 0.769202
O O2 0.717166 0.186646 0.662357
O O3 0.701533 0.291015 0.725427
O O4 0.775104 0.191101 0.815847
O O5 0.786274 0.575873 0.614432
O O6 0.736626 0.477589 0.534533
O O7 0.776956 0.481755 0.701351
O O8 0.000000 0.495240 0.594891
O O9 0.000000 0.353360 0.065525
O O10 0.738755 0.337913 0.009012
O O11 0.150715 0.798789 0.872338
O O12 0.285354 0.892765 0.802335
O O13 0.000000 0.872211 0.776078
O O14 0.500000 0.528081 0.941548
O O15 0.255266 0.498993 0.868081
O O16 0.280829 0.606835 0.927468
O O17 0.500000 0.270502 0.007778
O O18 0.752117 0.218803 0.976800
O O19 0.500000 0.029444 0.308568
O O20 0.500000 0.683642 0.916242
#
# Coordination Sequence:
#
# PCOD8175342 Si02
#       8
#     8   8   8   8   8   8   8   8
#     4   9  19  36  58  82 110 145 181 226 283 338
#     4  10  23  40  59  86 117 153 196 239 285 342
#     4  10  20  36  57  81 111 144 182 229 281 334
#     4   9  19  36  56  80 111 147 186 226 277 338
#     4  11  24  40  60  86 117 155 195 238 288 342
#     4  10  21  36  56  82 111 145 184 228 279 335
#     4  11  23  39  61  87 117 154 194 239 289 339
#     4  10  21  37  57  82 110 143 186 231 280 336
#
# _framework density 19.807079999999999
#
# number of rings (size 3 to 8) (size 9 to 14) (size 15 to 20)
#    0.000    2.000    0.000    3.750    0.000   10.500 
#    0.000    3.750    0.000    0.000    0.000    0.000 
#    0.000    0.000    0.000    0.000    0.000    0.000 
#
# Total GULP energy -396698.487612 kJ/mol
# GULP energy per Si atom -12396.827738 kJ/mol
# Density = 1.976200 g / cm^3
# Si number density = 19.807080 Si / 1000 Ang^3
#
#
#
# Elastic Constant Matrix: (Units=GPa)
#
#
# Indices 1 2 3 4 5 6 
#
# 1 73.3875 52.8175 30.4702 0.0000 0.0000 0.0000
# 2 52.8175 134.0230 37.2821 0.0000 0.0000 0.0000
# 3 30.4702 37.2821 77.6556 0.0000 0.0000 0.0000
# 4 0.0000 0.0000 0.0000 34.1500 0.0000 0.0000
# 5 0.0000 0.0000 0.0000 0.0000 25.9979 0.0000
# 6 0.0000 0.0000 0.0000 0.0000 0.0000 22.7912
#
#
#
# Elastic Compliance Matrix: (Units=1/GPa)
#
#
# Indices 1 2 3 4 5 6 
#
# 1 0.020461 -0.006729 -0.004798 0.000000 0.000000 0.000000
# 2 -0.006729 0.010824 -0.002556 0.000000 0.000000 0.000000
# 3 -0.004798 -0.002556 0.015987 0.000000 0.000000 0.000000
# 4 0.000000 0.000000 0.000000 0.029283 0.000000 0.000000
# 5 0.000000 0.000000 0.000000 0.000000 0.038465 0.000000
# 6 0.000000 0.000000 0.000000 0.000000 0.000000 0.043877
#
#
# Mechanical properties :
#
#
# Convention : Reuss Voigt Hill
#
# Bulk Modulus (GPa) = 52.33901 58.46731 55.40316
# Shear Modulus (GPa) = 25.84884 27.55425 26.70154
#
# Velocity S-wave (km/s) = 3.61644 3.73383 3.67561
# Velocity P-wave (km/s) = 6.62721 6.94054 6.78569
#
# Compressibility (1/GPa) = 0.01910621
#
# Stress axis : x y z
#
# Youngs Moduli (GPa) = 48.87283 92.38406 62.54952
#
# Poissons Ratio (x) = 0.62165 0.30011
# Poissons Ratio (y) = 0.32886 0.15991
# Poissons Ratio (z) = 0.23449 0.23618
#
# Static dielectric constant tensor:
#      x y z
#    x 3.614990 0.000000 0.000000 
#    y 0.000000 3.813230 0.000000 
#    z 0.000000 0.000000 3.621890 
# 
# 
# High freq. dielectric constant tensor:
#      x y z
#    x 1.773520 0.000000 0.000000 
#    y 0.000000 1.787260 0.000000 
#    z 0.000000 0.000000 1.766940 
# 
# From -- ./inp_files/13781.got.cif
#   From: 2010.03.12/outbox.cif.g09.slc.cpg/sg36_7_cif.got.tgz:13781.got - 2010.04.14 02:13:53.
