data_PCOD8175535
_publ_section_title
;
Structure prediction by ZEFSAII (Michael W. Deem and Ramdas Pophale) SiO2 
 PCOD8175535
Probable space group: C M C 21
;
_chemical_formula_sum "Si O2"
_cell_formula_units_Z 40
_cell_length_a 9.963691
_cell_length_b 21.837044
_cell_length_c 8.925401
_cell_angle_alpha 90.000000
_cell_angle_beta 90.000000
_cell_angle_gamma 90.000000
_cell_volume 1941.966961
_symmetry_space_group_name_H-M "C M C 21"
_symmetry_group_IT_number 36
_symmetry_cell_setting 'orthorhombic'
loop_
_space_group_symop_operation_xyz
x,y,z
-x,-y,1/2+z
x,-y,1/2+z
-x,y,z
1/2+x,1/2+y,z
1/2-x,1/2-y,1/2+z
1/2+x,1/2-y,1/2+z
1/2-x,1/2+y,z
loop_
_atom_site_type_symbol
_atom_site_label
_atom_site_fract_x
_atom_site_fract_y
_atom_site_fract_z
Si Si1 0.275709 0.007239 0.690590
Si Si2 0.346233 0.709362 0.318639
Si Si3 0.652186 0.422294 0.921044
Si Si4 0.154794 0.806507 0.470184
Si Si5 0.857403 0.413896 0.454585
O O1 0.218226 0.056102 0.574331
O O2 0.366513 0.044294 0.806652
O O3 0.163070 0.971738 0.787585
O O4 0.359215 0.956508 0.601309
O O5 0.500000 0.721212 0.374231
O O6 0.289124 0.643477 0.370876
O O7 0.241049 0.758910 0.375681
O O8 0.343479 0.713862 0.140671
O O9 0.500000 0.411847 0.959687
O O10 0.225090 0.872355 0.450589
O O11 0.000000 0.810753 0.412282
O O12 0.000000 0.376945 0.459413
#
# Coordination Sequence:
#
# PCOD8175535 Si02
#       5
#     8   8   8   8   8
#     4  10  22  38  62  96 125 166 207 251 310 379
#     4  10  23  44  64  92 127 164 208 259 312 373
#     4  10  20  38  63  93 129 162 203 257 315 371
#     4  11  25  44  66  94 123 163 213 262 312 371
#     4  11  23  42  65  93 129 167 206 257 310 372
#
# _framework density 20.597671999999999
#
# number of rings (size 3 to 8) (size 9 to 14) (size 15 to 20)
#    0.000    1.600    2.000    1.800    2.800    5.600 
#    0.000    1.000    0.000    0.000    0.000    0.000 
#    0.000    0.000    0.000    0.000    0.000    0.000 
#
# Total GULP energy -247884.680030 kJ/mol
# GULP energy per Si atom -12394.234001 kJ/mol
# Density = 2.055079 g / cm^3
# Si number density = 20.597672 Si / 1000 Ang^3
#
#
#
# Elastic Constant Matrix: (Units=GPa)
#
#
# Indices 1 2 3 4 5 6 
#
# 1 141.2611 61.6998 44.3228 0.0000 0.0000 0.0000
# 2 61.6998 96.2545 35.3616 0.0000 0.0000 0.0000
# 3 44.3228 35.3616 98.0181 0.0000 0.0000 0.0000
# 4 0.0000 0.0000 0.0000 30.5782 0.0000 0.0000
# 5 0.0000 0.0000 0.0000 0.0000 1.9685 0.0000
# 6 0.0000 0.0000 0.0000 0.0000 0.0000 29.8152
#
#
#
# Elastic Compliance Matrix: (Units=1/GPa)
#
#
# Indices 1 2 3 4 5 6 
#
# 1 0.010395 -0.005691 -0.002648 0.000000 0.000000 0.000000
# 2 -0.005691 0.015092 -0.002871 0.000000 0.000000 0.000000
# 3 -0.002648 -0.002871 0.012435 0.000000 0.000000 0.000000
# 4 0.000000 0.000000 0.000000 0.032703 0.000000 0.000000
# 5 0.000000 0.000000 0.000000 0.000000 0.507990 0.000000
# 6 0.000000 0.000000 0.000000 0.000000 0.000000 0.033540
#
#
# Mechanical properties :
#
#
# Convention : Reuss Voigt Hill
#
# Bulk Modulus (GPa) = 64.50356 68.70023 66.60189
# Shear Modulus (GPa) = 7.81564 25.41569 16.61566
#
# Velocity S-wave (km/s) = 1.95004 3.51652 2.84329
# Velocity P-wave (km/s) = 6.03773 7.06496 6.57145
#
# Compressibility (1/GPa) = 0.01550302
#
# Stress axis : x y z
#
# Youngs Moduli (GPa) = 96.19553 66.26088 80.41628
#
# Poissons Ratio (x) = 0.37708 0.21291
# Poissons Ratio (y) = 0.54744 0.23090
# Poissons Ratio (z) = 0.25469 0.19025
#
# Static dielectric constant tensor:
#      x y z
#    x 4.174360 0.000000 0.000000 
#    y 0.000000 3.925270 0.000000 
#    z 0.000000 0.000000 3.834830 
# 
# 
# High freq. dielectric constant tensor:
#      x y z
#    x 1.803720 0.000000 0.000000 
#    y 0.000000 1.805810 0.000000 
#    z 0.000000 0.000000 1.815690 
# 
# From -- ./inp_files/2402.got.cif
#   From: 2010.03.12/outbox.cif.g09.slc.cpg/sg36_2_cif.got.tgz:2402.got - 2010.04.14 02:13:53.
