data_PCOD8175295
_publ_section_title
;
Structure prediction by ZEFSAII (Michael W. Deem and Ramdas Pophale) SiO2 
 PCOD8175295
Probable space group: C M C 21
;
_chemical_formula_sum "Si O2"
_cell_formula_units_Z 64
_cell_length_a 8.823830
_cell_length_b 14.688096
_cell_length_c 24.108820
_cell_angle_alpha 90.000000
_cell_angle_beta 90.000000
_cell_angle_gamma 90.000000
_cell_volume 3124.629936
_symmetry_space_group_name_H-M "C M C 21"
_symmetry_group_IT_number 36
_symmetry_cell_setting 'orthorhombic'
loop_
_space_group_symop_operation_xyz
x,y,z
-x,-y,1/2+z
x,-y,1/2+z
-x,y,z
1/2+x,1/2+y,z
1/2-x,1/2-y,1/2+z
1/2+x,1/2-y,1/2+z
1/2-x,1/2+y,z
loop_
_atom_site_type_symbol
_atom_site_label
_atom_site_fract_x
_atom_site_fract_y
_atom_site_fract_z
Si Si1 0.823901 0.979364 0.150060
Si Si2 0.676382 0.516684 0.521968
Si Si3 0.679075 0.837261 0.221480
Si Si4 0.177911 0.867323 0.732190
Si Si5 0.819859 0.675339 0.462378
Si Si6 0.179073 0.630073 0.944526
Si Si7 0.329678 0.637144 0.832118
Si Si8 0.832434 0.646895 0.341235
O O1 0.796283 0.003505 0.086421
O O2 0.757836 0.062774 0.186689
O O3 0.000000 0.961805 0.162574
O O4 0.732536 0.888265 0.165999
O O5 0.500000 0.506446 0.506020
O O6 0.734339 0.618813 0.509818
O O7 0.779476 0.446673 0.488585
O O8 0.500000 0.839022 0.227249
O O9 0.740651 0.733535 0.218379
O O10 0.750117 0.890063 0.274381
O O11 0.224863 0.897366 0.794662
O O12 0.000000 0.866636 0.729142
O O13 0.759962 0.777816 0.464026
O O14 0.779958 0.624776 0.403950
O O15 0.000000 0.677360 0.472230
O O16 0.236050 0.596937 0.883979
O O17 0.000000 0.645076 0.942473
O O18 0.500000 0.597392 0.833020
O O19 0.330834 0.744962 0.837153
O O20 0.000000 0.608338 0.330353
#
# Coordination Sequence:
#
# PCOD8175295 Si02
#       8
#     8   8   8   8   8   8   8   8
#     4  10  23  41  57  78 111 151 195 238 283 341
#     4  11  24  41  59  82 114 155 203 248 291 344
#     4  10  20  35  58  87 115 146 187 235 287 341
#     4   9  19  36  57  81 111 146 181 223 277 335
#     4  10  21  39  61  86 118 153 190 238 295 350
#     4  11  22  38  61  89 119 151 191 240 295 352
#     4   9  17  33  57  85 117 151 186 228 284 347
#     4   8  16  31  54  84 113 141 177 224 278 338
#
# _framework density 20.482426
#
# number of rings (size 3 to 8) (size 9 to 14) (size 15 to 20)
#    0.000    2.250    0.000    3.375    0.000    7.500 
#    0.000    3.750    0.000    0.000    0.000    0.000 
#    0.000    0.000    0.000    0.000    0.000    0.000 
#
# Total GULP energy -396823.059756 kJ/mol
# GULP energy per Si atom -12400.720617 kJ/mol
# Density = 2.043581 g / cm^3
# Si number density = 20.482426 Si / 1000 Ang^3
#
#
#
# Elastic Constant Matrix: (Units=GPa)
#
#
# Indices 1 2 3 4 5 6 
#
# 1 73.9799 16.1956 29.1936 0.0000 0.0000 0.0000
# 2 16.1956 45.8996 18.1912 0.0000 0.0000 0.0000
# 3 29.1936 18.1912 83.8924 0.0000 0.0000 0.0000
# 4 0.0000 0.0000 0.0000 33.1065 0.0000 0.0000
# 5 0.0000 0.0000 0.0000 0.0000 35.1428 0.0000
# 6 0.0000 0.0000 0.0000 0.0000 0.0000 28.9437
#
#
#
# Elastic Compliance Matrix: (Units=1/GPa)
#
#
# Indices 1 2 3 4 5 6 
#
# 1 0.016260 -0.003823 -0.004829 0.000000 0.000000 0.000000
# 2 -0.003823 0.024734 -0.004033 0.000000 0.000000 0.000000
# 3 -0.004829 -0.004033 0.014475 0.000000 0.000000 0.000000
# 4 0.000000 0.000000 0.000000 0.030206 0.000000 0.000000
# 5 0.000000 0.000000 0.000000 0.000000 0.028455 0.000000
# 6 0.000000 0.000000 0.000000 0.000000 0.000000 0.034550
#
#
# Mechanical properties :
#
#
# Convention : Reuss Voigt Hill
#
# Bulk Modulus (GPa) = 33.22459 36.77031 34.99745
# Shear Modulus (GPa) = 27.16164 28.78471 27.97317
#
# Velocity S-wave (km/s) = 3.64551 3.75285 3.69957
# Velocity P-wave (km/s) = 5.82888 6.06379 5.94750
#
# Compressibility (1/GPa) = 0.03009819
#
# Stress axis : x y z
#
# Youngs Moduli (GPa) = 61.50116 40.43003 69.08454
#
# Poissons Ratio (x) = 0.15458 0.33362
# Poissons Ratio (y) = 0.23514 0.27861
# Poissons Ratio (z) = 0.29700 0.16305
#
# Static dielectric constant tensor:
#      x y z
#    x 3.681540 0.000000 0.000000 
#    y 0.000000 3.668320 0.000000 
#    z 0.000000 0.000000 3.866860 
# 
# 
# High freq. dielectric constant tensor:
#      x y z
#    x 1.800050 0.000000 0.000000 
#    y 0.000000 1.795330 0.000000 
#    z 0.000000 0.000000 1.798660 
# 
# From -- ./inp_files/16640.got.cif
#   From: 2010.03.12/outbox.cif.g09.slc.cpg/sg36_9_cif.got.tgz:16640.got - 2010.04.14 02:13:53.
