data_PCOD8175845
_publ_section_title
;
Structure prediction by ZEFSAII (Michael W. Deem and Ramdas Pophale) SiO2 
 PCOD8175845
Probable space group: C M C 21
;
_chemical_formula_sum "Si O2"
_cell_formula_units_Z 64
_cell_length_a 18.010773
_cell_length_b 12.685523
_cell_length_c 13.960677
_cell_angle_alpha 90.000000
_cell_angle_beta 90.000000
_cell_angle_gamma 90.000000
_cell_volume 3189.680687
_symmetry_space_group_name_H-M "C M C 21"
_symmetry_group_IT_number 36
_symmetry_cell_setting 'orthorhombic'
loop_
_space_group_symop_operation_xyz
x,y,z
-x,-y,1/2+z
x,-y,1/2+z
-x,y,z
1/2+x,1/2+y,z
1/2-x,1/2-y,1/2+z
1/2+x,1/2-y,1/2+z
1/2-x,1/2+y,z
loop_
_atom_site_type_symbol
_atom_site_label
_atom_site_fract_x
_atom_site_fract_y
_atom_site_fract_z
Si Si1 0.777719 0.894693 0.871920
Si Si2 0.194622 0.056638 0.025016
Si Si3 0.082706 0.033936 0.662596
Si Si4 0.686538 0.074177 0.182961
Si Si5 0.913969 0.377637 0.148026
Si Si6 0.644398 0.222053 0.461704
Si Si7 0.082764 0.179424 0.280437
Si Si8 0.584161 0.249337 0.255115
O O1 0.746132 0.923383 0.767958
O O2 0.725575 0.819364 0.934351
O O3 0.855560 0.830966 0.863353
O O4 0.785937 0.007088 0.922888
O O5 0.270088 0.076990 0.083101
O O6 0.141660 0.971806 0.077159
O O7 0.150123 0.164118 0.010004
O O8 0.104582 0.129558 0.732990
O O9 0.000000 0.050756 0.619892
O O10 0.085916 0.927232 0.721275
O O11 0.635482 0.177167 0.188526
O O12 0.635514 0.971072 0.190909
O O13 0.896147 0.275289 0.211107
O O14 0.000000 0.409925 0.154780
O O15 0.893928 0.356226 0.037306
O O16 0.594035 0.226634 0.367431
O O17 0.000000 0.195436 0.324580
O O18 0.500000 0.223621 0.227395
#
# Coordination Sequence:
#
# PCOD8175845 Si02
#       8
#     8   8   8   8   8   8   8   8
#     4  11  24  40  62  94 125 165 211 261 314 379
#     4  12  24  39  63  94 127 165 205 263 316 381
#     4  10  21  39  63  90 122 161 204 254 316 374
#     4  11  24  41  64  92 128 168 210 258 311 373
#     4  11  22  41  66  92 128 170 213 260 311 378
#     4  11  23  38  64  94 126 163 214 261 308 378
#     4  10  21  40  63  91 124 163 205 257 320 372
#     4  10  23  42  65  91 124 167 210 260 312 369
#
# _framework density 20.064703999999999
#
# number of rings (size 3 to 8) (size 9 to 14) (size 15 to 20)
#    0.000    1.250    3.750    1.500    3.500    2.000 
#    0.000    0.000    0.000    0.000    0.000    0.000 
#    0.000    0.000    0.000    0.000    0.000    0.000 
#
# Total GULP energy -396922.770681 kJ/mol
# GULP energy per Si atom -12403.836584 kJ/mol
# Density = 2.001904 g / cm^3
# Si number density = 20.064704 Si / 1000 Ang^3
#
#
#
# Elastic Constant Matrix: (Units=GPa)
#
#
# Indices 1 2 3 4 5 6 
#
# 1 118.3490 35.0621 35.5779 0.0000 0.0000 0.0000
# 2 35.0621 94.2768 16.6940 0.0000 0.0000 0.0000
# 3 35.5779 16.6940 55.0686 0.0000 0.0000 0.0000
# 4 0.0000 0.0000 0.0000 34.4349 0.0000 0.0000
# 5 0.0000 0.0000 0.0000 0.0000 7.5083 0.0000
# 6 0.0000 0.0000 0.0000 0.0000 0.0000 32.7184
#
#
#
# Elastic Compliance Matrix: (Units=1/GPa)
#
#
# Indices 1 2 3 4 5 6 
#
# 1 0.011267 -0.003066 -0.006350 0.000000 0.000000 0.000000
# 2 -0.003066 0.012043 -0.001670 0.000000 0.000000 0.000000
# 3 -0.006350 -0.001670 0.022768 0.000000 0.000000 0.000000
# 4 0.000000 0.000000 0.000000 0.029040 0.000000 0.000000
# 5 0.000000 0.000000 0.000000 0.000000 0.133186 0.000000
# 6 0.000000 0.000000 0.000000 0.000000 0.000000 0.030564
#
#
# Mechanical properties :
#
#
# Convention : Reuss Voigt Hill
#
# Bulk Modulus (GPa) = 41.82990 49.15137 45.49063
# Shear Modulus (GPa) = 18.58682 26.95634 22.77158
#
# Velocity S-wave (km/s) = 3.04689 3.66932 3.37249
# Velocity P-wave (km/s) = 5.76809 6.51931 6.15517
#
# Compressibility (1/GPa) = 0.02390635
#
# Stress axis : x y z
#
# Youngs Moduli (GPa) = 88.75743 83.03595 43.92180
#
# Poissons Ratio (x) = 0.25457 0.27889
# Poissons Ratio (y) = 0.27211 0.07335
# Poissons Ratio (z) = 0.56357 0.13868
#
# Static dielectric constant tensor:
#      x y z
#    x 3.970490 0.000000 0.000000 
#    y 0.000000 3.629990 0.000000 
#    z 0.000000 0.000000 3.528130 
# 
# 
# High freq. dielectric constant tensor:
#      x y z
#    x 1.799410 0.000000 0.000000 
#    y 0.000000 1.786370 0.000000 
#    z 0.000000 0.000000 1.772180 
# 
# From -- ./inp_files/12648.got.cif
#   From: 2010.03.12/outbox.cif.g09.slc.cpg/sg36_7_cif.got.tgz:12648.got - 2010.04.14 02:13:53.
