data_PCOD8175695
_publ_section_title
;
Structure prediction by ZEFSAII (Michael W. Deem and Ramdas Pophale) SiO2 
 PCOD8175695
Probable space group: C M C 21
;
_chemical_formula_sum "Si O2"
_cell_formula_units_Z 64
_cell_length_a 9.159161
_cell_length_b 10.182132
_cell_length_c 35.249879
_cell_angle_alpha 90.000000
_cell_angle_beta 90.000000
_cell_angle_gamma 90.000000
_cell_volume 3287.396183
_symmetry_space_group_name_H-M "C M C 21"
_symmetry_group_IT_number 36
_symmetry_cell_setting 'orthorhombic'
loop_
_space_group_symop_operation_xyz
x,y,z
-x,-y,1/2+z
x,-y,1/2+z
-x,y,z
1/2+x,1/2+y,z
1/2-x,1/2-y,1/2+z
1/2+x,1/2-y,1/2+z
1/2-x,1/2+y,z
loop_
_atom_site_type_symbol
_atom_site_label
_atom_site_fract_x
_atom_site_fract_y
_atom_site_fract_z
Si Si1 0.327822 0.735347 0.668240
Si Si2 0.168229 0.031864 0.295988
Si Si3 0.168569 0.032956 0.459202
Si Si4 0.171032 0.751086 0.588437
Si Si5 0.672490 0.267381 0.420612
Si Si6 0.832250 0.965304 0.708232
Si Si7 0.827462 0.766348 0.334476
Si Si8 0.167369 0.978214 0.047172
O O1 0.500000 0.752914 0.663903
O O2 0.253170 0.752770 0.628011
O O3 0.287214 0.592317 0.684059
O O4 0.269679 0.844483 0.697100
O O5 0.193364 0.000380 0.252008
O O6 0.225487 0.908120 0.320003
O O7 0.000000 0.060901 0.305089
O O8 0.259282 0.157946 0.307547
O O9 0.224594 0.910004 0.434615
O O10 0.000000 0.062189 0.450800
O O11 0.258721 0.159812 0.447772
O O12 0.196573 0.000296 0.502934
O O13 0.226797 0.633861 0.562263
O O14 0.000000 0.732506 0.595642
O O15 0.206525 0.886872 0.567790
O O16 0.500000 0.255048 0.424186
O O17 0.726352 0.247253 0.377567
O O18 0.000000 0.926664 0.700251
O O19 0.000000 0.754794 0.331039
O O20 0.000000 0.937359 0.055156
#
# Coordination Sequence:
#
# PCOD8175695 Si02
#       8
#     8   8   8   8   8   8   8   8
#     4  11  23  39  60  85 114 148 186 229 278 332
#     4  10  21  38  59  82 111 148 188 230 277 330
#     4  10  21  38  59  82 111 148 188 230 277 330
#     4  11  23  39  60  85 114 148 186 229 278 332
#     4  10  21  37  57  83 115 149 187 232 280 331
#     4  10  22  39  58  83 114 147 186 231 277 329
#     4  10  21  37  57  83 115 149 187 232 280 331
#     4  10  22  39  58  83 114 147 186 231 277 329
#
# _framework density 19.468295000000001
#
# number of rings (size 3 to 8) (size 9 to 14) (size 15 to 20)
#    0.000    1.750    0.000    3.750    0.000   10.500 
#    0.000    0.000    0.000    0.000    0.000    0.000 
#    0.000    0.000    0.000    0.000    0.000    0.000 
#
# Total GULP energy -396991.399587 kJ/mol
# GULP energy per Si atom -12405.981237 kJ/mol
# Density = 1.942398 g / cm^3
# Si number density = 19.468295 Si / 1000 Ang^3
#
#
#
# Elastic Constant Matrix: (Units=GPa)
#
#
# Indices 1 2 3 4 5 6 
#
# 1 60.8705 49.5830 30.9274 0.0000 0.0000 0.0000
# 2 49.5830 112.3246 27.2023 0.0000 0.0000 0.0000
# 3 30.9274 27.2023 84.8288 0.0000 0.0000 0.0000
# 4 0.0000 0.0000 0.0000 44.2126 0.0000 0.0000
# 5 0.0000 0.0000 0.0000 0.0000 31.8389 0.0000
# 6 0.0000 0.0000 0.0000 0.0000 0.0000 38.7911
#
#
#
# Elastic Compliance Matrix: (Units=1/GPa)
#
#
# Indices 1 2 3 4 5 6 
#
# 1 0.029063 -0.011127 -0.007028 0.000000 0.000000 0.000000
# 2 -0.011127 0.013913 -0.000405 0.000000 0.000000 0.000000
# 3 -0.007028 -0.000405 0.014480 0.000000 0.000000 0.000000
# 4 0.000000 0.000000 0.000000 0.022618 0.000000 0.000000
# 5 0.000000 0.000000 0.000000 0.000000 0.031408 0.000000
# 6 0.000000 0.000000 0.000000 0.000000 0.000000 0.025779
#
#
# Mechanical properties :
#
#
# Convention : Reuss Voigt Hill
#
# Bulk Modulus (GPa) = 49.17176 52.60550 50.88863
# Shear Modulus (GPa) = 27.60009 32.98927 30.29468
#
# Velocity S-wave (km/s) = 3.76931 4.12091 3.94903
# Velocity P-wave (km/s) = 6.65250 7.05141 6.85486
#
# Compressibility (1/GPa) = 0.02033687
#
# Stress axis : x y z
#
# Youngs Moduli (GPa) = 34.40824 71.87750 69.05892
#
# Poissons Ratio (x) = 0.79979 0.48533
# Poissons Ratio (y) = 0.38287 0.02794
# Poissons Ratio (z) = 0.24181 0.02908
#
# Static dielectric constant tensor:
#      x y z
#    x 3.581650 0.000000 0.000000 
#    y 0.000000 3.629220 0.000000 
#    z 0.000000 0.000000 3.720400 
# 
# 
# High freq. dielectric constant tensor:
#      x y z
#    x 1.752990 0.000000 0.000000 
#    y 0.000000 1.770440 0.000000 
#    z 0.000000 0.000000 1.777300 
# 
# From -- ./inp_files/17308.got.cif
#   From: 2010.03.12/outbox.cif.g09.slc.cpg/sg36_9_cif.got.tgz:17308.got - 2010.04.14 02:13:53.
