data_PCOD8175404
_publ_section_title
;
Structure prediction by ZEFSAII (Michael W. Deem and Ramdas Pophale) SiO2 
 PCOD8175404
Probable space group: C M C 21
;
_chemical_formula_sum "Si O2"
_cell_formula_units_Z 64
_cell_length_a 8.802299
_cell_length_b 29.037012
_cell_length_c 12.118375
_cell_angle_alpha 90.000000
_cell_angle_beta 90.000000
_cell_angle_gamma 90.000000
_cell_volume 3097.365298
_symmetry_space_group_name_H-M "C M C 21"
_symmetry_group_IT_number 36
_symmetry_cell_setting 'orthorhombic'
loop_
_space_group_symop_operation_xyz
x,y,z
-x,-y,1/2+z
x,-y,1/2+z
-x,y,z
1/2+x,1/2+y,z
1/2-x,1/2-y,1/2+z
1/2+x,1/2-y,1/2+z
1/2-x,1/2+y,z
loop_
_atom_site_type_symbol
_atom_site_label
_atom_site_fract_x
_atom_site_fract_y
_atom_site_fract_z
Si Si1 0.671128 0.472342 0.828470
Si Si2 0.177505 0.839111 0.338248
Si Si3 0.678362 0.318312 0.089086
Si Si4 0.676841 0.062837 0.882907
Si Si5 0.677456 0.841544 0.695683
Si Si6 0.821920 0.385254 0.927022
Si Si7 0.669333 0.425779 0.596100
Si Si8 0.179178 0.225128 0.042443
O O1 0.500000 0.475680 0.875838
O O2 0.745886 0.522175 0.814161
O O3 0.766134 0.437273 0.904699
O O4 0.670807 0.455020 0.704964
O O5 0.219334 0.818592 0.218649
O O6 0.262367 0.887286 0.350857
O O7 0.228989 0.802995 0.432718
O O8 0.000000 0.849157 0.346768
O O9 0.500000 0.312012 0.069599
O O10 0.769426 0.277732 0.027347
O O11 0.733355 0.365892 0.032965
O O12 0.500000 0.061292 0.861044
O O13 0.717669 0.050744 0.009367
O O14 0.500000 0.848553 0.673349
O O15 0.715252 0.851705 0.823239
O O16 0.773362 0.874425 0.616416
O O17 0.732993 0.791701 0.653885
O O18 0.000000 0.386887 0.951866
O O19 0.500000 0.422293 0.545826
O O20 0.000000 0.222504 0.061213
#
# Coordination Sequence:
#
# PCOD8175404 Si02
#       8
#     8   8   8   8   8   8   8   8
#     4  10  22  40  64  91 123 167 215 259 313 378
#     4  10  24  45  65  89 127 168 209 262 319 375
#     4  11  25  43  64  92 129 171 215 260 317 381
#     4  12  24  38  63  94 126 164 208 262 318 375
#     4  10  20  36  61  90 120 155 200 257 311 366
#     4  10  22  41  63  91 129 165 207 261 317 372
#     4  10  20  37  60  87 119 158 205 256 311 371
#     4  11  23  40  64  92 123 162 207 259 318 376
#
# _framework density 20.662723
#
# number of rings (size 3 to 8) (size 9 to 14) (size 15 to 20)
#    0.000    1.500    1.250    3.375    1.750    5.500 
#    0.000    1.250    0.000    0.000    0.000    0.000 
#    0.000    0.000    0.000    0.000    0.000    0.000 
#
# Total GULP energy -396850.098166 kJ/mol
# GULP energy per Si atom -12401.565568 kJ/mol
# Density = 2.061569 g / cm^3
# Si number density = 20.662723 Si / 1000 Ang^3
#
#
#
# Elastic Constant Matrix: (Units=GPa)
#
#
# Indices 1 2 3 4 5 6 
#
# 1 95.1674 46.7044 45.7801 0.0000 0.0000 0.0000
# 2 46.7044 112.9627 35.7351 0.0000 0.0000 0.0000
# 3 45.7801 35.7351 75.5646 0.0000 0.0000 0.0000
# 4 0.0000 0.0000 0.0000 20.8150 0.0000 0.0000
# 5 0.0000 0.0000 0.0000 0.0000 30.0761 0.0000
# 6 0.0000 0.0000 0.0000 0.0000 0.0000 38.5112
#
#
#
# Elastic Compliance Matrix: (Units=1/GPa)
#
#
# Indices 1 2 3 4 5 6 
#
# 1 0.016421 -0.004283 -0.007923 0.000000 0.000000 0.000000
# 2 -0.004283 0.011527 -0.002856 0.000000 0.000000 0.000000
# 3 -0.007923 -0.002856 0.019385 0.000000 0.000000 0.000000
# 4 0.000000 0.000000 0.000000 0.048042 0.000000 0.000000
# 5 0.000000 0.000000 0.000000 0.000000 0.033249 0.000000
# 6 0.000000 0.000000 0.000000 0.000000 0.000000 0.025966
#
#
# Mechanical properties :
#
#
# Convention : Reuss Voigt Hill
#
# Bulk Modulus (GPa) = 58.11328 60.01490 59.06409
# Shear Modulus (GPa) = 26.25345 28.24547 27.24946
#
# Velocity S-wave (km/s) = 3.56837 3.70128 3.63543
# Velocity P-wave (km/s) = 6.72038 6.88288 6.80211
#
# Compressibility (1/GPa) = 0.01720777
#
# Stress axis : x y z
#
# Youngs Moduli (GPa) = 60.89730 86.75410 51.58700
#
# Poissons Ratio (x) = 0.37155 0.40873
# Poissons Ratio (y) = 0.26081 0.14735
# Poissons Ratio (z) = 0.48250 0.24781
#
# Static dielectric constant tensor:
#      x y z
#    x 3.833630 0.000000 0.000000 
#    y 0.000000 3.740340 0.000000 
#    z 0.000000 0.000000 3.791430 
# 
# 
# High freq. dielectric constant tensor:
#      x y z
#    x 1.816880 0.000000 0.000000 
#    y 0.000000 1.810860 0.000000 
#    z 0.000000 0.000000 1.806670 
# 
# From -- ./inp_files/7214.got.cif
#   From: 2010.03.12/outbox.cif.g09.slc.cpg/sg36_4_cif.got.tgz:7214.got - 2010.04.14 02:13:53.
