data_PCOD8175554
_publ_section_title
;
Structure prediction by ZEFSAII (Michael W. Deem and Ramdas Pophale) SiO2 
 PCOD8175554
Probable space group: C M C 21
;
_chemical_formula_sum "Si O2"
_cell_formula_units_Z 48
_cell_length_a 16.721662
_cell_length_b 16.029711
_cell_length_c 8.896091
_cell_angle_alpha 90.000000
_cell_angle_beta 90.000000
_cell_angle_gamma 90.000000
_cell_volume 2384.538561
_symmetry_space_group_name_H-M "C M C 21"
_symmetry_group_IT_number 36
_symmetry_cell_setting 'orthorhombic'
loop_
_space_group_symop_operation_xyz
x,y,z
-x,-y,1/2+z
x,-y,1/2+z
-x,y,z
1/2+x,1/2+y,z
1/2-x,1/2-y,1/2+z
1/2+x,1/2-y,1/2+z
1/2-x,1/2+y,z
loop_
_atom_site_type_symbol
_atom_site_label
_atom_site_fract_x
_atom_site_fract_y
_atom_site_fract_z
Si Si1 0.691445 0.498034 0.436690
Si Si2 0.408908 0.932943 0.212182
Si Si3 0.333614 0.251612 0.220799
Si Si4 0.347034 0.083817 0.378339
Si Si5 0.707246 0.161303 0.918142
Si Si6 0.590929 0.422002 0.192473
O O1 0.754429 0.557519 0.348984
O O2 0.738844 0.413991 0.484435
O O3 0.613605 0.473528 0.340857
O O4 0.657524 0.549629 0.574763
O O5 0.500000 0.906726 0.186618
O O6 0.372225 0.872821 0.338602
O O7 0.404051 0.026969 0.275091
O O8 0.363027 0.926426 0.054968
O O9 0.364583 0.177738 0.327471
O O10 0.252606 0.288040 0.289432
O O11 0.401541 0.322738 0.217361
O O12 0.316889 0.221554 0.052555
O O13 0.500000 0.443334 0.146771
#
# Coordination Sequence:
#
# PCOD8175554 Si02
#       6
#     8   8   8   8   8   8
#     4  10  20  39  61  80 108 151 199 233 273 348
#     4  11  23  38  60  89 121 157 196 244 303 363
#     4  11  22  37  60  87 118 152 198 250 297 354
#     4  11  21  39  63  86 115 157 202 244 292 357
#     4  10  21  38  61  87 115 157 202 243 292 353
#     4  11  23  37  57  85 115 148 187 240 297 341
#
# _framework density 20.129681000000001
#
# number of rings (size 3 to 8) (size 9 to 14) (size 15 to 20)
#    0.000    1.333    0.000    9.000    0.000    2.000 
#    0.000    0.000    0.000    7.000    0.000    0.000 
#    0.000    0.000    0.000    0.000    0.000    0.000 
#
# Total GULP energy -297644.014266 kJ/mol
# GULP energy per Si atom -12401.833928 kJ/mol
# Density = 2.008387 g / cm^3
# Si number density = 20.129681 Si / 1000 Ang^3
#
#
#
# Elastic Constant Matrix: (Units=GPa)
#
#
# Indices 1 2 3 4 5 6 
#
# 1 104.6790 29.6807 28.9535 0.0000 0.0000 0.0000
# 2 29.6807 113.6759 50.6660 0.0000 0.0000 0.0000
# 3 28.9535 50.6660 91.7776 0.0000 0.0000 0.0000
# 4 0.0000 0.0000 0.0000 38.4771 0.0000 0.0000
# 5 0.0000 0.0000 0.0000 0.0000 18.3976 0.0000
# 6 0.0000 0.0000 0.0000 0.0000 0.0000 13.8652
#
#
#
# Elastic Compliance Matrix: (Units=1/GPa)
#
#
# Indices 1 2 3 4 5 6 
#
# 1 0.010712 -0.001712 -0.002434 0.000000 0.000000 0.000000
# 2 -0.001712 0.011941 -0.006052 0.000000 0.000000 0.000000
# 3 -0.002434 -0.006052 0.015005 0.000000 0.000000 0.000000
# 4 0.000000 0.000000 0.000000 0.025990 0.000000 0.000000
# 5 0.000000 0.000000 0.000000 0.000000 0.054355 0.000000
# 6 0.000000 0.000000 0.000000 0.000000 0.000000 0.072123
#
#
# Mechanical properties :
#
#
# Convention : Reuss Voigt Hill
#
# Bulk Modulus (GPa) = 57.93259 58.74812 58.34035
# Shear Modulus (GPa) = 23.11861 27.53679 25.32770
#
# Velocity S-wave (km/s) = 3.39261 3.70262 3.55100
# Velocity P-wave (km/s) = 6.64744 6.89401 6.77185
#
# Compressibility (1/GPa) = 0.01726144
#
# Stress axis : x y z
#
# Youngs Moduli (GPa) = 93.35592 83.74206 66.64448
#
# Poissons Ratio (x) = 0.14336 0.16223
# Poissons Ratio (y) = 0.15981 0.40335
# Poissons Ratio (z) = 0.22725 0.50683
#
# Static dielectric constant tensor:
#      x y z
#    x 3.434820 0.000000 0.000000 
#    y 0.000000 3.838840 0.000000 
#    z 0.000000 0.000000 3.611100 
# 
# 
# High freq. dielectric constant tensor:
#      x y z
#    x 1.775390 0.000000 0.000000 
#    y 0.000000 1.791520 0.000000 
#    z 0.000000 0.000000 1.793490 
# 
# From -- ./inp_files/3984.got.cif
#   From: 2010.03.12/outbox.cif.g09.slc.cpg/sg36_2_cif.got.tgz:3984.got - 2010.04.14 02:13:53.
