data_PCOD8175045
_publ_section_title
;
Structure prediction by ZEFSAII (Michael W. Deem and Ramdas Pophale) SiO2 
 PCOD8175045
Probable space group: C M C 21
;
_chemical_formula_sum "Si O2"
_cell_formula_units_Z 64
_cell_length_a 9.354295
_cell_length_b 18.709513
_cell_length_c 20.794148
_cell_angle_alpha 90.000000
_cell_angle_beta 90.000000
_cell_angle_gamma 90.000000
_cell_volume 3639.273338
_symmetry_space_group_name_H-M "C M C 21"
_symmetry_group_IT_number 36
_symmetry_cell_setting 'orthorhombic'
loop_
_space_group_symop_operation_xyz
x,y,z
-x,-y,1/2+z
x,-y,1/2+z
-x,y,z
1/2+x,1/2+y,z
1/2-x,1/2-y,1/2+z
1/2+x,1/2-y,1/2+z
1/2-x,1/2+y,z
loop_
_atom_site_type_symbol
_atom_site_label
_atom_site_fract_x
_atom_site_fract_y
_atom_site_fract_z
Si Si1 0.331095 0.664048 0.635110
Si Si2 0.329949 0.175398 0.132246
Si Si3 0.160946 0.580711 0.740310
Si Si4 0.665871 0.568804 0.516448
Si Si5 0.333718 0.913293 0.753939
Si Si6 0.335678 0.077344 0.019238
Si Si7 0.660798 0.934811 0.379085
Si Si8 0.165101 0.925697 0.874423
O O1 0.500000 0.664541 0.643441
O O2 0.268583 0.744327 0.633767
O O3 0.269297 0.622360 0.695743
O O4 0.284455 0.626141 0.569133
O O5 0.500000 0.177373 0.130782
O O6 0.273991 0.132529 0.194399
O O7 0.271777 0.135818 0.068195
O O8 0.198691 0.496499 0.740508
O O9 0.176880 0.611611 0.813680
O O10 0.000000 0.592306 0.714708
O O11 0.500000 0.548272 0.524259
O O12 0.754982 0.497166 0.527077
O O13 0.692126 0.605389 0.446310
O O14 0.500000 0.899161 0.764508
O O15 0.254007 0.885675 0.818596
O O16 0.500000 0.061703 0.036856
O O17 0.321846 0.108699 0.946065
O O18 0.500000 0.970014 0.377486
O O19 0.784676 0.992848 0.378122
O O20 0.000000 0.922452 0.855031
#
# Coordination Sequence:
#
# PCOD8175045 Si02
#       8
#     8   8   8   8   8   8   8   8
#     4  10  20  33  47  65  93 127 157 185 224 274
#     4   9  18  32  49  68  91 122 159 193 223 263
#     4   9  17  30  48  71  95 116 146 191 233 267
#     4   9  18  31  47  70  97 120 147 188 232 272
#     4   9  17  31  50  70  92 118 152 193 228 263
#     4   9  16  30  53  73  88 116 157 192 225 268
#     4   8  15  28  47  71  94 116 148 190 230 267
#     4   9  16  27  45  70  96 119 146 184 231 276
#
# _framework density 17.585929
#
# number of rings (size 3 to 8) (size 9 to 14) (size 15 to 20)
#    0.000    3.000    0.000    1.875    0.000    4.000 
#    0.000    3.125    0.000    3.000    0.000    0.000 
#    0.000    0.000    0.000    0.000    0.000    0.000 
#
# Total GULP energy -396530.614041 kJ/mol
# GULP energy per Si atom -12391.581689 kJ/mol
# Density = 1.754590 g / cm^3
# Si number density = 17.585929 Si / 1000 Ang^3
#
#
#
# Elastic Constant Matrix: (Units=GPa)
#
#
# Indices 1 2 3 4 5 6 
#
# 1 41.8349 29.1187 47.3009 0.0000 0.0000 0.0000
# 2 29.1187 82.0505 70.3141 0.0000 0.0000 0.0000
# 3 47.3009 70.3141 177.1559 0.0000 0.0000 0.0000
# 4 0.0000 0.0000 0.0000 4.9922 0.0000 0.0000
# 5 0.0000 0.0000 0.0000 0.0000 26.9855 0.0000
# 6 0.0000 0.0000 0.0000 0.0000 0.0000 14.6333
#
#
#
# Elastic Compliance Matrix: (Units=1/GPa)
#
#
# Indices 1 2 3 4 5 6 
#
# 1 0.036726 -0.007017 -0.007021 0.000000 0.000000 0.000000
# 2 -0.007017 0.019810 -0.005989 0.000000 0.000000 0.000000
# 3 -0.007021 -0.005989 0.009896 0.000000 0.000000 0.000000
# 4 0.000000 0.000000 0.000000 0.200311 0.000000 0.000000
# 5 0.000000 0.000000 0.000000 0.000000 0.037057 0.000000
# 6 0.000000 0.000000 0.000000 0.000000 0.000000 0.068337
#
#
# Mechanical properties :
#
#
# Convention : Reuss Voigt Hill
#
# Bulk Modulus (GPa) = 37.90962 66.05652 51.98307
# Shear Modulus (GPa) = 11.87692 19.60938 15.74315
#
# Velocity S-wave (km/s) = 2.60160 3.34288 2.99526
# Velocity P-wave (km/s) = 5.53426 7.24869 6.44870
#
# Compressibility (1/GPa) = 0.02637853
#
# Stress axis : x y z
#
# Youngs Moduli (GPa) = 27.22892 50.47836 101.04588
#
# Poissons Ratio (x) = 0.35421 0.70942
# Poissons Ratio (y) = 0.19106 0.60520
# Poissons Ratio (z) = 0.19117 0.30233
#
# Static dielectric constant tensor:
#      x y z
#    x 3.123400 0.000000 0.000000 
#    y 0.000000 2.996250 0.000000 
#    z 0.000000 0.000000 3.784020 
# 
# 
# High freq. dielectric constant tensor:
#      x y z
#    x 1.664790 0.000000 0.000000 
#    y 0.000000 1.632710 0.000000 
#    z 0.000000 0.000000 1.706520 
# 
# From -- ./inp_files/15794.got.cif
#   From: 2010.03.12/outbox.cif.g09.slc.cpg/sg36_8_cif.got.tgz:15794.got - 2010.04.14 02:13:53.
