data_PCOD8175308
_publ_section_title
;
Structure prediction by ZEFSAII (Michael W. Deem and Ramdas Pophale) SiO2 
 PCOD8175308
Probable space group: C M C 21
;
_chemical_formula_sum "Si O2"
_cell_formula_units_Z 64
_cell_length_a 19.102520
_cell_length_b 9.557667
_cell_length_c 17.320047
_cell_angle_alpha 90.000000
_cell_angle_beta 90.000000
_cell_angle_gamma 90.000000
_cell_volume 3162.216674
_symmetry_space_group_name_H-M "C M C 21"
_symmetry_group_IT_number 36
_symmetry_cell_setting 'orthorhombic'
loop_
_space_group_symop_operation_xyz
x,y,z
-x,-y,1/2+z
x,-y,1/2+z
-x,y,z
1/2+x,1/2+y,z
1/2-x,1/2-y,1/2+z
1/2+x,1/2-y,1/2+z
1/2-x,1/2+y,z
loop_
_atom_site_type_symbol
_atom_site_label
_atom_site_fract_x
_atom_site_fract_y
_atom_site_fract_z
Si Si1 0.353341 0.734931 0.617050
Si Si2 0.695120 0.762680 0.082777
Si Si3 0.820094 0.019358 0.200487
Si Si4 0.818797 0.266343 0.905768
Si Si5 0.417314 0.998347 0.850792
Si Si6 0.919676 0.754862 0.957163
Si Si7 0.181005 0.942722 0.867244
Si Si8 0.162189 0.519985 0.699187
O O1 0.277606 0.703390 0.579304
O O2 0.371738 0.604549 0.672923
O O3 0.408707 0.757152 0.548926
O O4 0.354853 0.863987 0.674292
O O5 0.683879 0.619662 0.127584
O O6 0.648897 0.879939 0.125892
O O7 0.667316 0.752035 0.996554
O O8 0.846140 0.091102 0.279845
O O9 0.743099 0.960651 0.223367
O O10 0.885299 0.345825 0.869268
O O11 0.809360 0.110285 0.873104
O O12 0.752510 0.362096 0.885312
O O13 0.500000 0.980541 0.843720
O O14 0.395796 0.109667 0.917173
O O15 0.387163 0.059772 0.770668
O O16 0.000000 0.784700 0.939339
O O17 0.877666 0.888080 0.925464
#
# Coordination Sequence:
#
# PCOD8175308 Si02
#       8
#     8   8   8   8   8   8   8   8
#     4  10  20  36  58  87 119 160 204 255 312 373
#     4  10  21  34  60  90 124 154 203 261 313 368
#     4  10  21  35  59  91 122 156 202 261 317 367
#     4  12  24  39  65  96 125 168 208 269 316 377
#     4  11  24  42  64  93 131 173 215 260 316 381
#     4  11  24  42  63  88 126 170 212 260 318 384
#     4  12  24  39  66  94 127 165 211 265 323 373
#     4  10  20  35  59  87 124 160 203 259 307 371
#
# _framework density 20.238968
#
# number of rings (size 3 to 8) (size 9 to 14) (size 15 to 20)
#    0.000    1.250    2.500    3.750    7.000    1.000 
#    0.000    1.250    0.000    3.000    0.000    0.000 
#    0.000    0.000    0.000    0.000    0.000    0.000 
#
# Total GULP energy -396829.342287 kJ/mol
# GULP energy per Si atom -12400.916946 kJ/mol
# Density = 2.019290 g / cm^3
# Si number density = 20.238968 Si / 1000 Ang^3
#
#
#
# Elastic Constant Matrix: (Units=GPa)
#
#
# Indices 1 2 3 4 5 6 
#
# 1 64.6136 37.6503 25.6572 0.0000 0.0000 0.0000
# 2 37.6503 120.5076 29.1026 0.0000 0.0000 0.0000
# 3 25.6572 29.1026 127.5522 0.0000 0.0000 0.0000
# 4 0.0000 0.0000 0.0000 36.4207 0.0000 0.0000
# 5 0.0000 0.0000 0.0000 0.0000 24.2010 0.0000
# 6 0.0000 0.0000 0.0000 0.0000 0.0000 21.1134
#
#
#
# Elastic Compliance Matrix: (Units=1/GPa)
#
#
# Indices 1 2 3 4 5 6 
#
# 1 0.019773 -0.005521 -0.002718 0.000000 0.000000 0.000000
# 2 -0.005521 0.010324 -0.001245 0.000000 0.000000 0.000000
# 3 -0.002718 -0.001245 0.008671 0.000000 0.000000 0.000000
# 4 0.000000 0.000000 0.000000 0.027457 0.000000 0.000000
# 5 0.000000 0.000000 0.000000 0.000000 0.041321 0.000000
# 6 0.000000 0.000000 0.000000 0.000000 0.000000 0.047363
#
#
# Mechanical properties :
#
#
# Convention : Reuss Voigt Hill
#
# Bulk Modulus (GPa) = 50.50553 55.27706 52.89129
# Shear Modulus (GPa) = 27.70450 31.03125 29.36787
#
# Velocity S-wave (km/s) = 3.70384 3.91991 3.81341
# Velocity P-wave (km/s) = 6.58027 6.91803 6.75126
#
# Compressibility (1/GPa) = 0.01979981
#
# Stress axis : x y z
#
# Youngs Moduli (GPa) = 50.57385 96.86239 115.33214
#
# Poissons Ratio (x) = 0.53482 0.31343
# Poissons Ratio (y) = 0.27924 0.14358
# Poissons Ratio (z) = 0.13744 0.12058
#
# Static dielectric constant tensor:
#      x y z
#    x 3.374150 0.000000 0.000000 
#    y 0.000000 3.785960 0.000000 
#    z 0.000000 0.000000 3.851860 
# 
# 
# High freq. dielectric constant tensor:
#      x y z
#    x 1.746860 0.000000 0.000000 
#    y 0.000000 1.801440 0.000000 
#    z 0.000000 0.000000 1.812000 
# 
# From -- ./inp_files/15023.got.cif
#   From: 2010.03.12/outbox.cif.g09.slc.cpg/sg36_8_cif.got.tgz:15023.got - 2010.04.14 02:13:53.
