data_PCOD8175038
_publ_section_title
;
Structure prediction by ZEFSAII (Michael W. Deem and Ramdas Pophale) SiO2 
 PCOD8175038
Probable space group: C M C 21
;
_chemical_formula_sum "Si O2"
_cell_formula_units_Z 56
_cell_length_a 12.647425
_cell_length_b 17.399329
_cell_length_c 14.285423
_cell_angle_alpha 90.000000
_cell_angle_beta 90.000000
_cell_angle_gamma 90.000000
_cell_volume 3143.603166
_symmetry_space_group_name_H-M "C M C 21"
_symmetry_group_IT_number 36
_symmetry_cell_setting 'orthorhombic'
loop_
_space_group_symop_operation_xyz
x,y,z
-x,-y,1/2+z
x,-y,1/2+z
-x,y,z
1/2+x,1/2+y,z
1/2-x,1/2-y,1/2+z
1/2+x,1/2-y,1/2+z
1/2-x,1/2+y,z
loop_
_atom_site_type_symbol
_atom_site_label
_atom_site_fract_x
_atom_site_fract_y
_atom_site_fract_z
Si Si1 0.881181 0.064586 0.265190
Si Si2 0.232399 0.778493 0.549810
Si Si3 0.732415 0.278502 0.765936
Si Si4 0.123688 0.337805 0.921065
Si Si5 0.876314 0.337790 0.394677
Si Si6 0.881184 0.935403 0.550564
Si Si7 0.724518 0.999988 0.407868
O O1 0.852694 0.153836 0.278863
O O2 0.873010 0.040095 0.157875
O O3 0.000000 0.052539 0.303285
O O4 0.800068 0.009864 0.318648
O O5 0.264001 0.766067 0.657872
O O6 0.181210 0.700992 0.509616
O O7 0.337782 0.799669 0.491924
O O8 0.147267 0.846144 0.536907
O O9 0.837807 0.299665 0.823819
O O10 0.681210 0.201008 0.806129
O O11 0.149077 0.427794 0.924147
O O12 0.000000 0.324625 0.929429
O O13 0.850950 0.427784 0.391575
O O14 0.000000 0.324586 0.386328
O O15 0.800041 0.990097 0.497103
O O16 0.000000 0.947470 0.512463
#
# Coordination Sequence:
#
# PCOD8175038 Si02
#       7
#     8   8   8   8   8   8   8
#     4   9  17  31  51  72  96 130 170 211 253 292
#     4   9  19  35  54  75  98 128 172 217 252 294
#     4   9  19  35  54  75  98 128 172 217 252 294
#     4  10  20  34  53  76 103 135 168 205 252 303
#     4  10  20  34  53  76 103 135 168 205 252 303
#     4   9  17  31  51  72  96 130 170 211 253 292
#     4  10  20  32  48  74 108 136 164 200 246 304
#
# _framework density 17.813953000000001
#
# number of rings (size 3 to 8) (size 9 to 14) (size 15 to 20)
#    0.000    2.571    0.000    1.714    0.000    3.429 
#    0.000    1.429    0.000    5.143    0.000    0.000 
#    0.000    0.000    0.000    0.000    0.000    0.000 
#
# Total GULP energy -347245.771205 kJ/mol
# GULP energy per Si atom -12401.634686 kJ/mol
# Density = 1.777341 g / cm^3
# Si number density = 17.813953 Si / 1000 Ang^3
#
#
#
# Elastic Constant Matrix: (Units=GPa)
#
#
# Indices 1 2 3 4 5 6 
#
# 1 47.2532 38.8958 6.9917 0.0000 0.0000 0.0000
# 2 38.8958 96.6058 41.8316 0.0000 0.0000 0.0000
# 3 6.9917 41.8316 90.6830 0.0000 0.0000 0.0000
# 4 0.0000 0.0000 0.0000 25.6613 0.0000 0.0000
# 5 0.0000 0.0000 0.0000 0.0000 21.3449 0.0000
# 6 0.0000 0.0000 0.0000 0.0000 0.0000 16.5877
#
#
#
# Elastic Compliance Matrix: (Units=1/GPa)
#
#
# Indices 1 2 3 4 5 6 
#
# 1 0.033052 -0.015250 0.004487 0.000000 0.000000 0.000000
# 2 -0.015250 0.019972 -0.008037 0.000000 0.000000 0.000000
# 3 0.004487 -0.008037 0.014389 0.000000 0.000000 0.000000
# 4 0.000000 0.000000 0.000000 0.038969 0.000000 0.000000
# 5 0.000000 0.000000 0.000000 0.000000 0.046850 0.000000
# 6 0.000000 0.000000 0.000000 0.000000 0.000000 0.060286
#
#
# Mechanical properties :
#
#
# Convention : Reuss Voigt Hill
#
# Bulk Modulus (GPa) = 33.54467 45.55336 39.54902
# Shear Modulus (GPa) = 19.15306 22.50696 20.83001
#
# Velocity S-wave (km/s) = 3.28254 3.55835 3.42323
# Velocity P-wave (km/s) = 5.76526 6.51995 6.15418
#
# Compressibility (1/GPa) = 0.02981099
#
# Stress axis : x y z
#
# Youngs Moduli (GPa) = 30.25560 50.07123 69.49781
#
# Poissons Ratio (x) = 0.76359 -0.31180
# Poissons Ratio (y) = 0.46140 0.55855
# Poissons Ratio (z) = -0.13574 0.40242
#
# Static dielectric constant tensor:
#      x y z
#    x 3.215930 0.000000 0.000000 
#    y 0.000000 3.237680 0.000000 
#    z 0.000000 0.000000 3.405720 
# 
# 
# High freq. dielectric constant tensor:
#      x y z
#    x 1.688170 0.000000 0.000000 
#    y 0.000000 1.687180 0.000000 
#    z 0.000000 0.000000 1.690830 
# 
# From -- ./inp_files/11602.got.cif
#   From: 2010.03.12/outbox.cif.g09.slc.cpg/sg36_6_cif.got.tgz:11602.got - 2010.04.14 02:13:53.
