data_PCOD8175347
_publ_section_title
;
Structure prediction by ZEFSAII (Michael W. Deem and Ramdas Pophale) SiO2 
 PCOD8175347
Probable space group: C M C 21
;
_chemical_formula_sum "Si O2"
_cell_formula_units_Z 56
_cell_length_a 24.718548
_cell_length_b 20.801873
_cell_length_c 5.344283
_cell_angle_alpha 90.000000
_cell_angle_beta 90.000000
_cell_angle_gamma 90.000000
_cell_volume 2747.988079
_symmetry_space_group_name_H-M "C M C 21"
_symmetry_group_IT_number 36
_symmetry_cell_setting 'orthorhombic'
loop_
_space_group_symop_operation_xyz
x,y,z
-x,-y,1/2+z
x,-y,1/2+z
-x,y,z
1/2+x,1/2+y,z
1/2-x,1/2-y,1/2+z
1/2+x,1/2-y,1/2+z
1/2-x,1/2+y,z
loop_
_atom_site_type_symbol
_atom_site_label
_atom_site_fract_x
_atom_site_fract_y
_atom_site_fract_z
Si Si1 0.386754 0.767304 0.229670
Si Si2 0.287929 0.963351 0.726886
Si Si3 0.111549 0.142293 0.496439
Si Si4 0.802804 0.329305 0.534761
Si Si5 0.810089 0.200056 0.839956
Si Si6 0.500000 0.336071 0.071837
Si Si7 0.000000 0.754694 0.570657
Si Si8 0.339961 0.464673 0.716954
O O1 0.400958 0.718074 0.451891
O O2 0.353929 0.828108 0.342093
O O3 0.443794 0.787414 0.097054
O O4 0.345062 0.726229 0.066240
O O5 0.312218 0.890844 0.714048
O O6 0.223853 0.957717 0.723417
O O7 0.308191 0.003747 0.483904
O O8 0.158385 0.141192 0.705157
O O9 0.053114 0.118017 0.597308
O O10 0.132113 0.104984 0.249462
O O11 0.796977 0.261378 0.670555
O O12 0.745266 0.337435 0.399489
O O13 0.500000 0.283666 0.293581
O O14 0.500000 0.307987 0.787287
O O15 0.360671 0.495303 0.459473
#
# Coordination Sequence:
#
# PCOD8175347 Si02
#       8
#     8   8   8   8   8   4   4   8
#     4  10  21  36  57  85 118 154 187 244 300 369
#     4  10  24  40  58  80 116 161 197 235 280 355
#     4  10  22  36  56  79 110 157 196 246 301 356
#     4  11  23  34  55  91 120 153 194 239 307 361
#     4  11  21  33  55  85 123 151 182 244 305 361
#     4  10  20  36  58  79 108 151 202 242 289 358
#     4  10  20  38  56  85 118 151 196 228 297 368
#     4  10  23  37  55  79 108 154 205 249 289 345
#
# _framework density 20.378544000000002
#
# number of rings (size 3 to 8) (size 9 to 14) (size 15 to 20)
#    0.000    1.714    2.857    0.857   12.000    0.000 
#    0.000    0.714    0.000    0.000    0.000    1.000 
#    0.000    0.000    0.000    0.000    0.000    0.000 
#
# Total GULP energy -346912.096037 kJ/mol
# GULP energy per Si atom -12389.717716 kJ/mol
# Density = 2.033216 g / cm^3
# Si number density = 20.378544 Si / 1000 Ang^3
#
#
#
# Elastic Constant Matrix: (Units=GPa)
#
#
# Indices 1 2 3 4 5 6 
#
# 1 91.8441 14.4645 22.0659 0.0000 0.0000 0.0000
# 2 14.4645 54.2621 26.6613 0.0000 0.0000 0.0000
# 3 22.0659 26.6613 95.4392 0.0000 0.0000 0.0000
# 4 0.0000 0.0000 0.0000 33.9127 0.0000 0.0000
# 5 0.0000 0.0000 0.0000 0.0000 21.9566 0.0000
# 6 0.0000 0.0000 0.0000 0.0000 0.0000 13.3812
#
#
#
# Elastic Compliance Matrix: (Units=1/GPa)
#
#
# Indices 1 2 3 4 5 6 
#
# 1 0.011727 -0.002079 -0.002131 0.000000 0.000000 0.000000
# 2 -0.002079 0.021730 -0.005590 0.000000 0.000000 0.000000
# 3 -0.002131 -0.005590 0.012532 0.000000 0.000000 0.000000
# 4 0.000000 0.000000 0.000000 0.029487 0.000000 0.000000
# 5 0.000000 0.000000 0.000000 0.000000 0.045544 0.000000
# 6 0.000000 0.000000 0.000000 0.000000 0.000000 0.074732
#
#
# Mechanical properties :
#
#
# Convention : Reuss Voigt Hill
#
# Bulk Modulus (GPa) = 37.89282 40.88098 39.38690
# Shear Modulus (GPa) = 22.30669 25.74036 24.02353
#
# Velocity S-wave (km/s) = 3.31209 3.55788 3.43718
# Velocity P-wave (km/s) = 5.76727 6.08131 5.92637
#
# Compressibility (1/GPa) = 0.02639022
#
# Stress axis : x y z
#
# Youngs Moduli (GPa) = 85.27069 46.01995 79.79627
#
# Poissons Ratio (x) = 0.09569 0.17001
# Poissons Ratio (y) = 0.17730 0.44602
# Poissons Ratio (z) = 0.18167 0.25723
#
# Static dielectric constant tensor:
#      x y z
#    x 4.233760 0.000000 0.000000 
#    y 0.000000 3.507160 0.000000 
#    z 0.000000 0.000000 3.890360 
# 
# 
# High freq. dielectric constant tensor:
#      x y z
#    x 1.786850 0.000000 0.000000 
#    y 0.000000 1.755350 0.000000 
#    z 0.000000 0.000000 1.807960 
# 
# From -- ./inp_files/1617.got.cif
#   From: 2010.03.12/outbox.cif.g09.slc.cpg/sg36_1_cif.got.tgz:1617.got - 2010.04.14 02:13:53.
