data_PCOD8175270
_publ_section_title
;
Structure prediction by ZEFSAII (Michael W. Deem and Ramdas Pophale) SiO2 
 PCOD8175270
Probable space group: C M C 21
;
_chemical_formula_sum "Si O2"
_cell_formula_units_Z 64
_cell_length_a 8.914671
_cell_length_b 24.863857
_cell_length_c 14.280853
_cell_angle_alpha 90.000000
_cell_angle_beta 90.000000
_cell_angle_gamma 90.000000
_cell_volume 3165.395409
_symmetry_space_group_name_H-M "C M C 21"
_symmetry_group_IT_number 36
_symmetry_cell_setting 'orthorhombic'
loop_
_space_group_symop_operation_xyz
x,y,z
-x,-y,1/2+z
x,-y,1/2+z
-x,y,z
1/2+x,1/2+y,z
1/2-x,1/2-y,1/2+z
1/2+x,1/2-y,1/2+z
1/2-x,1/2+y,z
loop_
_atom_site_type_symbol
_atom_site_label
_atom_site_fract_x
_atom_site_fract_y
_atom_site_fract_z
Si Si1 0.822252 0.047173 0.349710
Si Si2 0.327294 0.835476 0.366187
Si Si3 0.174175 0.906378 0.653448
Si Si4 0.174376 0.937688 0.447124
Si Si5 0.672548 0.816178 0.151640
Si Si6 0.824725 0.863094 0.989145
Si Si7 0.171608 0.706891 0.172730
Si Si8 0.170223 0.729686 0.390124
O O1 0.764010 0.059848 0.243754
O O2 0.756625 0.091592 0.420893
O O3 0.000000 0.049785 0.350097
O O4 0.768905 0.990295 0.391354
O O5 0.500000 0.823299 0.390359
O O6 0.280200 0.891670 0.408616
O O7 0.299618 0.835860 0.255930
O O8 0.220204 0.790504 0.410424
O O9 0.198233 0.942352 0.559806
O O10 0.257012 0.849464 0.640699
O O11 0.000000 0.893003 0.669207
O O12 0.000000 0.925821 0.425124
O O13 0.500000 0.810293 0.126228
O O14 0.745573 0.758178 0.127437
O O15 0.745787 0.864023 0.090310
O O16 0.788013 0.805544 0.946097
O O17 0.000000 0.871285 0.003546
O O18 0.186030 0.712672 0.283270
O O19 0.000000 0.707563 0.139040
O O20 0.000000 0.721836 0.425695
#
# Coordination Sequence:
#
# PCOD8175270 Si02
#       8
#     8   8   8   8   8   8   8   8
#     4   9  20  39  61  87 119 158 203 247 299 358
#     4  10  22  40  59  83 119 159 197 247 303 356
#     4  10  20  37  60  85 117 155 196 247 302 354
#     4  10  22  39  62  89 116 156 204 250 300 358
#     4  10  22  38  57  84 122 163 200 242 303 362
#     4  11  21  35  59  89 119 157 201 246 296 352
#     4  10  20  35  57  86 118 154 200 246 295 354
#     4  10  20  35  57  85 118 156 195 243 298 356
#
# _framework density 20.218643
#
# number of rings (size 3 to 8) (size 9 to 14) (size 15 to 20)
#    0.000    2.000    1.250    1.875    1.750    4.000 
#    0.000    4.375    0.000    0.000    0.000    0.000 
#    0.000    0.000    0.000    0.000    0.000    0.000 
#
# Total GULP energy -396756.075301 kJ/mol
# GULP energy per Si atom -12398.627353 kJ/mol
# Density = 2.017262 g / cm^3
# Si number density = 20.218643 Si / 1000 Ang^3
#
#
#
# Elastic Constant Matrix: (Units=GPa)
#
#
# Indices 1 2 3 4 5 6 
#
# 1 65.0371 21.2815 25.7031 0.0000 0.0000 0.0000
# 2 21.2815 90.1524 51.0160 0.0000 0.0000 0.0000
# 3 25.7031 51.0160 82.6825 0.0000 0.0000 0.0000
# 4 0.0000 0.0000 0.0000 31.9722 0.0000 0.0000
# 5 0.0000 0.0000 0.0000 0.0000 27.3257 0.0000
# 6 0.0000 0.0000 0.0000 0.0000 0.0000 27.3125
#
#
#
# Elastic Compliance Matrix: (Units=1/GPa)
#
#
# Indices 1 2 3 4 5 6 
#
# 1 0.017685 -0.001634 -0.004489 0.000000 0.000000 0.000000
# 2 -0.001634 0.017194 -0.010101 0.000000 0.000000 0.000000
# 3 -0.004489 -0.010101 0.019722 0.000000 0.000000 0.000000
# 4 0.000000 0.000000 0.000000 0.031277 0.000000 0.000000
# 5 0.000000 0.000000 0.000000 0.000000 0.036596 0.000000
# 6 0.000000 0.000000 0.000000 0.000000 0.000000 0.036613
#
#
# Mechanical properties :
#
#
# Convention : Reuss Voigt Hill
#
# Bulk Modulus (GPa) = 45.14181 48.20814 46.67498
# Shear Modulus (GPa) = 25.13572 26.64684 25.89128
#
# Velocity S-wave (km/s) = 3.52972 3.63427 3.58238
# Velocity P-wave (km/s) = 6.24397 6.44250 6.34401
#
# Compressibility (1/GPa) = 0.02215241
#
# Stress axis : x y z
#
# Youngs Moduli (GPa) = 56.54581 58.15964 50.70393
#
# Poissons Ratio (x) = 0.09505 0.22762
# Poissons Ratio (y) = 0.09241 0.51215
# Poissons Ratio (z) = 0.25385 0.58746
#
# Static dielectric constant tensor:
#      x y z
#    x 3.549400 0.000000 0.000000 
#    y 0.000000 3.625290 0.000000 
#    z 0.000000 0.000000 4.024960 
# 
# 
# High freq. dielectric constant tensor:
#      x y z
#    x 1.777490 0.000000 0.000000 
#    y 0.000000 1.777370 0.000000 
#    z 0.000000 0.000000 1.806180 
# 
# From -- ./inp_files/11009.got.cif
#   From: 2010.03.12/outbox.cif.g09.slc.cpg/sg36_6_cif.got.tgz:11009.got - 2010.04.14 02:13:53.
