data_PCOD8175440
_publ_section_title
;
Structure prediction by ZEFSAII (Michael W. Deem and Ramdas Pophale) SiO2 
 PCOD8175440
Probable space group: C M C 21
;
_chemical_formula_sum "Si O2"
_cell_formula_units_Z 64
_cell_length_a 8.704206
_cell_length_b 19.906271
_cell_length_c 18.813150
_cell_angle_alpha 90.000000
_cell_angle_beta 90.000000
_cell_angle_gamma 90.000000
_cell_volume 3259.722207
_symmetry_space_group_name_H-M "C M C 21"
_symmetry_group_IT_number 36
_symmetry_cell_setting 'orthorhombic'
loop_
_space_group_symop_operation_xyz
x,y,z
-x,-y,1/2+z
x,-y,1/2+z
-x,y,z
1/2+x,1/2+y,z
1/2-x,1/2-y,1/2+z
1/2+x,1/2-y,1/2+z
1/2-x,1/2+y,z
loop_
_atom_site_type_symbol
_atom_site_label
_atom_site_fract_x
_atom_site_fract_y
_atom_site_fract_z
Si Si1 0.181927 0.198485 0.471660
Si Si2 0.182738 0.021933 0.678395
Si Si3 0.179006 0.567080 0.938225
Si Si4 0.317270 0.447100 0.019531
Si Si5 0.180901 0.126433 0.200680
Si Si6 0.178736 0.325001 0.558463
Si Si7 0.181631 0.874824 0.296799
Si Si8 0.683081 0.268940 0.815589
O O1 0.240019 0.127138 0.499640
O O2 0.237135 0.254364 0.527286
O O3 0.249314 0.215506 0.393906
O O4 0.000000 0.199792 0.465804
O O5 0.242409 0.036762 0.598807
O O6 0.243018 0.079098 0.731885
O O7 0.000000 0.020856 0.678385
O O8 0.248809 0.949350 0.703311
O O9 0.271879 0.590042 0.869723
O O10 0.000000 0.565373 0.919054
O O11 0.237478 0.494533 0.961973
O O12 0.214578 0.618117 0.001322
O O13 0.500000 0.454936 0.013541
O O14 0.222272 0.162069 0.127569
O O15 0.245797 0.171315 0.265218
O O16 0.000000 0.122098 0.207001
O O17 0.000000 0.323192 0.578875
O O18 0.255119 0.801862 0.287570
O O19 0.000000 0.867387 0.293904
O O20 0.500000 0.265219 0.815277
#
# Coordination Sequence:
#
# PCOD8175440 Si02
#       8
#     8   8   8   8   8   8   8   8
#     4   9  19  36  60  83 109 153 196 233 283 344
#     4   9  20  37  57  86 115 145 192 240 283 340
#     4  11  22  39  60  84 116 153 191 238 294 346
#     4  10  20  37  63  87 112 148 195 244 285 339
#     4  10  21  37  59  84 114 150 188 236 288 344
#     4  10  20  37  60  81 109 151 194 234 282 343
#     4  11  23  38  61  87 115 153 198 243 286 343
#     4  10  21  39  58  82 118 155 190 232 293 353
#
# _framework density 19.633575
#
# number of rings (size 3 to 8) (size 9 to 14) (size 15 to 20)
#    0.000    2.000    2.500    0.750    3.500    1.000 
#    0.000    3.750    0.000    0.000    0.000    0.000 
#    0.000    0.000    0.000    0.000    0.000    0.000 
#
# Total GULP energy -396851.572641 kJ/mol
# GULP energy per Si atom -12401.611645 kJ/mol
# Density = 1.958889 g / cm^3
# Si number density = 19.633575 Si / 1000 Ang^3
#
#
#
# Elastic Constant Matrix: (Units=GPa)
#
#
# Indices 1 2 3 4 5 6 
#
# 1 12.3615 17.2769 11.9334 0.0000 0.0000 0.0000
# 2 17.2769 183.6100 65.8534 0.0000 0.0000 0.0000
# 3 11.9334 65.8534 101.2394 0.0000 0.0000 0.0000
# 4 0.0000 0.0000 0.0000 40.5819 0.0000 0.0000
# 5 0.0000 0.0000 0.0000 0.0000 25.1563 0.0000
# 6 0.0000 0.0000 0.0000 0.0000 0.0000 25.7248
#
#
#
# Elastic Compliance Matrix: (Units=1/GPa)
#
#
# Indices 1 2 3 4 5 6 
#
# 1 0.096976 -0.006554 -0.007167 0.000000 0.000000 0.000000
# 2 -0.006554 0.007547 -0.004136 0.000000 0.000000 0.000000
# 3 -0.007167 -0.004136 0.013413 0.000000 0.000000 0.000000
# 4 0.000000 0.000000 0.000000 0.024642 0.000000 0.000000
# 5 0.000000 0.000000 0.000000 0.000000 0.039751 0.000000
# 6 0.000000 0.000000 0.000000 0.000000 0.000000 0.038873
#
#
# Mechanical properties :
#
#
# Convention : Reuss Voigt Hill
#
# Bulk Modulus (GPa) = 12.16260 54.14871 33.15566
# Shear Modulus (GPa) = 17.58559 31.76909 24.67734
#
# Velocity S-wave (km/s) = 2.99605 4.02693 3.54912
# Velocity P-wave (km/s) = 4.26341 7.01862 5.80679
#
# Compressibility (1/GPa) = 0.08221923
#
# Stress axis : x y z
#
# Youngs Moduli (GPa) = 10.31186 132.51074 74.55488
#
# Poissons Ratio (x) = 0.86851 0.53437
# Poissons Ratio (y) = 0.06759 0.30838
# Poissons Ratio (z) = 0.07391 0.54810
#
# Static dielectric constant tensor:
#      x y z
#    x 3.220170 0.000000 0.000000 
#    y 0.000000 3.925770 0.000000 
#    z 0.000000 0.000000 3.741460 
# 
# 
# High freq. dielectric constant tensor:
#      x y z
#    x 1.730180 0.000000 0.000000 
#    y 0.000000 1.784060 0.000000 
#    z 0.000000 0.000000 1.774800 
# 
# From -- ./inp_files/13980.got.cif
#   From: 2010.03.12/outbox.cif.g09.slc.cpg/sg36_7_cif.got.tgz:13980.got - 2010.04.14 02:13:53.
