data_PCOD8175078
_publ_section_title
;
Structure prediction by ZEFSAII (Michael W. Deem and Ramdas Pophale) SiO2 
 PCOD8175078
Probable space group: C M C 21
;
_chemical_formula_sum "Si O2"
_cell_formula_units_Z 64
_cell_length_a 9.250417
_cell_length_b 18.467022
_cell_length_c 20.173634
_cell_angle_alpha 90.000000
_cell_angle_beta 90.000000
_cell_angle_gamma 90.000000
_cell_volume 3446.214574
_symmetry_space_group_name_H-M "C M C 21"
_symmetry_group_IT_number 36
_symmetry_cell_setting 'orthorhombic'
loop_
_space_group_symop_operation_xyz
x,y,z
-x,-y,1/2+z
x,-y,1/2+z
-x,y,z
1/2+x,1/2+y,z
1/2-x,1/2-y,1/2+z
1/2+x,1/2-y,1/2+z
1/2-x,1/2+y,z
loop_
_atom_site_type_symbol
_atom_site_label
_atom_site_fract_x
_atom_site_fract_y
_atom_site_fract_z
Si Si1 0.835628 0.213189 0.841060
Si Si2 0.167259 0.547618 0.712056
Si Si3 0.832045 0.192452 0.691102
Si Si4 0.671680 0.795259 0.575099
Si Si5 0.670715 0.294067 0.949592
Si Si6 0.666926 0.957963 0.583603
Si Si7 0.829669 0.957921 0.971400
Si Si8 0.169302 0.952427 0.343414
O O1 0.811147 0.227491 0.763320
O O2 0.735299 0.268516 0.880140
O O3 0.792647 0.130892 0.858729
O O4 0.000000 0.228404 0.861707
O O5 0.241670 0.619346 0.683241
O O6 0.185673 0.483763 0.658972
O O7 0.242670 0.520549 0.779472
O O8 0.000000 0.564559 0.726408
O O9 0.771685 0.249799 0.638012
O O10 0.000000 0.172826 0.678682
O O11 0.500000 0.796253 0.577062
O O12 0.728915 0.757562 0.508175
O O13 0.731671 0.876892 0.578439
O O14 0.500000 0.290017 0.943342
O O15 0.721534 0.375405 0.964232
O O16 0.500000 0.959772 0.561780
O O17 0.754165 0.010102 0.535570
O O18 0.000000 0.964236 0.982004
O O19 0.780390 0.000758 0.905913
O O20 0.000000 0.961422 0.327529
#
# Coordination Sequence:
#
# PCOD8175078 Si02
#       8
#     8   8   8   8   8   8   8   8
#     4   9  18  32  52  76 100 131 167 203 248 300
#     4  10  20  33  52  79 107 134 169 212 255 303
#     4   9  18  35  57  76 100 137 174 208 251 304
#     4   9  18  34  54  74  99 134 173 207 247 303
#     4  10  20  33  52  76 101 132 168 208 253 301
#     4  10  21  35  52  77 106 136 173 215 258 307
#     4  10  21  36  54  77 103 134 175 217 258 307
#     4   9  19  36  55  75 102 136 173 210 252 307
#
# _framework density 18.571100999999999
#
# number of rings (size 3 to 8) (size 9 to 14) (size 15 to 20)
#    0.000    2.500    0.000    2.625    0.000    6.000 
#    0.000    2.500    0.000    0.000    0.000    0.000 
#    0.000    0.000    0.000    0.000    0.000    0.000 
#
# Total GULP energy -396887.688821 kJ/mol
# GULP energy per Si atom -12402.740276 kJ/mol
# Density = 1.852883 g / cm^3
# Si number density = 18.571101 Si / 1000 Ang^3
#
#
#
# Elastic Constant Matrix: (Units=GPa)
#
#
# Indices 1 2 3 4 5 6 
#
# 1 41.7893 21.1742 27.5733 0.0000 0.0000 0.0000
# 2 21.1742 76.5306 30.1669 0.0000 0.0000 0.0000
# 3 27.5733 30.1669 82.6306 0.0000 0.0000 0.0000
# 4 0.0000 0.0000 0.0000 38.5199 0.0000 0.0000
# 5 0.0000 0.0000 0.0000 0.0000 29.5318 0.0000
# 6 0.0000 0.0000 0.0000 0.0000 0.0000 21.2996
#
#
#
# Elastic Compliance Matrix: (Units=1/GPa)
#
#
# Indices 1 2 3 4 5 6 
#
# 1 0.032568 -0.005522 -0.008852 0.000000 0.000000 0.000000
# 2 -0.005522 0.016199 -0.004072 0.000000 0.000000 0.000000
# 3 -0.008852 -0.004072 0.016542 0.000000 0.000000 0.000000
# 4 0.000000 0.000000 0.000000 0.025961 0.000000 0.000000
# 5 0.000000 0.000000 0.000000 0.000000 0.033862 0.000000
# 6 0.000000 0.000000 0.000000 0.000000 0.000000 0.046949
#
#
# Mechanical properties :
#
#
# Convention : Reuss Voigt Hill
#
# Bulk Modulus (GPa) = 35.18707 39.86438 37.52573
# Shear Modulus (GPa) = 22.88914 26.00600 24.44757
#
# Velocity S-wave (km/s) = 3.51453 3.74618 3.63220
# Velocity P-wave (km/s) = 5.95462 6.34226 6.15150
#
# Compressibility (1/GPa) = 0.02841953
#
# Stress axis : x y z
#
# Youngs Moduli (GPa) = 30.70509 61.73121 60.45103
#
# Poissons Ratio (x) = 0.34085 0.53511
# Poissons Ratio (y) = 0.16954 0.24613
# Poissons Ratio (z) = 0.27180 0.25134
#
# Static dielectric constant tensor:
#      x y z
#    x 3.220330 0.000000 0.000000 
#    y 0.000000 3.501990 0.000000 
#    z 0.000000 0.000000 3.471450 
# 
# 
# High freq. dielectric constant tensor:
#      x y z
#    x 1.701340 0.000000 0.000000 
#    y 0.000000 1.722130 0.000000 
#    z 0.000000 0.000000 1.731280 
# 
# From -- ./inp_files/15676.got.cif
#   From: 2010.03.12/outbox.cif.g09.slc.cpg/sg36_8_cif.got.tgz:15676.got - 2010.04.14 02:13:53.
