data_PCOD8175540
_publ_section_title
;
Structure prediction by ZEFSAII (Michael W. Deem and Ramdas Pophale) SiO2 
 PCOD8175540
Probable space group: C M C 21
;
_chemical_formula_sum "Si O2"
_cell_formula_units_Z 36
_cell_length_a 12.175700
_cell_length_b 10.529155
_cell_length_c 13.390072
_cell_angle_alpha 90.000000
_cell_angle_beta 90.000000
_cell_angle_gamma 90.000000
_cell_volume 1716.604988
_symmetry_space_group_name_H-M "C M C 21"
_symmetry_group_IT_number 36
_symmetry_cell_setting 'orthorhombic'
loop_
_space_group_symop_operation_xyz
x,y,z
-x,-y,1/2+z
x,-y,1/2+z
-x,y,z
1/2+x,1/2+y,z
1/2-x,1/2-y,1/2+z
1/2+x,1/2-y,1/2+z
1/2-x,1/2+y,z
loop_
_atom_site_type_symbol
_atom_site_label
_atom_site_fract_x
_atom_site_fract_y
_atom_site_fract_z
Si Si1 0.762543 0.388297 0.751550
Si Si2 0.000000 0.379717 0.124693
Si Si3 0.376840 0.347363 0.564632
Si Si4 0.500000 0.938582 0.455661
Si Si5 0.277234 0.144444 0.878240
Si Si6 0.000000 0.419830 0.768859
O O1 0.697625 0.414644 0.648651
O O2 0.713285 0.271504 0.812857
O O3 0.758421 0.519268 0.812433
O O4 0.890105 0.351531 0.728952
O O5 0.109727 0.300029 0.099025
O O6 0.000000 0.427581 0.239274
O O7 0.000000 0.514832 0.069044
O O8 0.500000 0.409735 0.560104
O O9 0.323135 0.350907 0.456040
O O10 0.609042 0.856851 0.438376
O O11 0.500000 0.069413 0.389422
#
# Coordination Sequence:
#
# PCOD8175540 Si02
#       6
#     8   4   8   4   8   4
#     4  11  24  41  69  97 132 173 224 273 330 396
#     4  10  20  40  66  86 130 170 222 250 324 392
#     4  10  23  40  64  96 135 173 210 280 338 380
#     4  10  20  38  64  89 118 171 217 253 311 399
#     4  11  24  41  69  97 132 173 224 273 330 396
#     4  10  20  38  64  89 118 171 217 253 311 399
#
# _framework density 20.971625
#
# number of rings (size 3 to 8) (size 9 to 14) (size 15 to 20)
#    0.667    0.889    0.000    6.667    3.111    2.667 
#    0.000    0.000    0.000    0.000    0.000    0.000 
#    0.000    0.000    0.000    0.000    0.000    0.000 
#
# Total GULP energy -223095.298305 kJ/mol
# GULP energy per Si atom -12394.183239 kJ/mol
# Density = 2.092389 g / cm^3
# Si number density = 20.971625 Si / 1000 Ang^3
#
#
#
# Elastic Constant Matrix: (Units=GPa)
#
#
# Indices 1 2 3 4 5 6 
#
# 1 119.6949 -7.3967 6.6516 0.0000 0.0000 0.0000
# 2 -7.3967 79.5429 2.3083 0.0000 0.0000 0.0000
# 3 6.6516 2.3083 62.9924 0.0000 0.0000 0.0000
# 4 0.0000 0.0000 0.0000 37.8146 0.0000 0.0000
# 5 0.0000 0.0000 0.0000 0.0000 37.7546 0.0000
# 6 0.0000 0.0000 0.0000 0.0000 0.0000 33.3708
#
#
#
# Elastic Compliance Matrix: (Units=1/GPa)
#
#
# Indices 1 2 3 4 5 6 
#
# 1 0.008456 0.000813 -0.000923 0.000000 0.000000 0.000000
# 2 0.000813 0.012663 -0.000550 0.000000 0.000000 0.000000
# 3 -0.000923 -0.000550 0.015993 0.000000 0.000000 0.000000
# 4 0.000000 0.000000 0.000000 0.026445 0.000000 0.000000
# 5 0.000000 0.000000 0.000000 0.000000 0.026487 0.000000
# 6 0.000000 0.000000 0.000000 0.000000 0.000000 0.029966
#
#
# Mechanical properties :
#
#
# Convention : Reuss Voigt Hill
#
# Bulk Modulus (GPa) = 27.93842 29.48408 28.71125
# Shear Modulus (GPa) = 37.52062 39.16579 38.34321
#
# Velocity S-wave (km/s) = 4.23438 4.32622 4.28054
# Velocity P-wave (km/s) = 6.10390 6.24855 6.17665
#
# Compressibility (1/GPa) = 0.03579301
#
# Stress axis : x y z
#
# Youngs Moduli (GPa) = 118.25790 78.96774 62.52924
#
# Poissons Ratio (x) = -0.06421 0.05770
# Poissons Ratio (y) = -0.09616 0.03438
# Poissons Ratio (z) = 0.10912 0.04342
#
# Static dielectric constant tensor:
#      x y z
#    x 4.048400 0.000000 0.000000 
#    y 0.000000 3.451030 0.000000 
#    z 0.000000 0.000000 3.763700 
# 
# 
# High freq. dielectric constant tensor:
#      x y z
#    x 1.834730 0.000000 0.000000 
#    y 0.000000 1.789400 0.000000 
#    z 0.000000 0.000000 1.836390 
# 
# From -- ./inp_files/7420.got.cif
#   From: 2010.03.12/outbox.cif.g09.slc.cpg/sg36_4_cif.got.tgz:7420.got - 2010.04.14 02:13:53.
