data_PCOD8175376
_publ_section_title
;
Structure prediction by ZEFSAII (Michael W. Deem and Ramdas Pophale) SiO2 
 PCOD8175376
Probable space group: C M C 21
;
_chemical_formula_sum "Si O2"
_cell_formula_units_Z 64
_cell_length_a 9.167104
_cell_length_b 22.552807
_cell_length_c 16.362602
_cell_angle_alpha 90.000000
_cell_angle_beta 90.000000
_cell_angle_gamma 90.000000
_cell_volume 3382.868598
_symmetry_space_group_name_H-M "C M C 21"
_symmetry_group_IT_number 36
_symmetry_cell_setting 'orthorhombic'
loop_
_space_group_symop_operation_xyz
x,y,z
-x,-y,1/2+z
x,-y,1/2+z
-x,y,z
1/2+x,1/2+y,z
1/2-x,1/2-y,1/2+z
1/2+x,1/2-y,1/2+z
1/2-x,1/2+y,z
loop_
_atom_site_type_symbol
_atom_site_label
_atom_site_fract_x
_atom_site_fract_y
_atom_site_fract_z
Si Si1 0.838798 0.143379 0.520570
Si Si2 0.165269 0.783033 0.176354
Si Si3 0.835588 0.029683 0.426322
Si Si4 0.671618 0.849623 0.625228
Si Si5 0.331678 0.810878 0.337141
Si Si6 0.833286 0.589125 0.958563
Si Si7 0.173621 0.884435 0.780530
Si Si8 0.170145 0.705377 0.389787
O O1 0.826555 0.161959 0.614014
O O2 0.823023 0.073191 0.504922
O O3 0.706015 0.174277 0.474459
O O4 0.000000 0.162861 0.486274
O O5 0.211945 0.720368 0.135115
O O6 0.275949 0.804315 0.245236
O O7 0.000000 0.777194 0.210970
O O8 0.781242 0.062468 0.342758
O O9 0.000000 0.008646 0.412112
O O10 0.744371 0.973029 0.449338
O O11 0.500000 0.859009 0.638274
O O12 0.723064 0.871698 0.535584
O O13 0.757910 0.891351 0.690307
O O14 0.500000 0.791120 0.341926
O O15 0.311923 0.876777 0.372765
O O16 0.231258 0.771515 0.396456
O O17 0.000000 0.574083 0.974891
O O18 0.244170 0.823825 0.813983
O O19 0.000000 0.878178 0.775396
O O20 0.000000 0.703203 0.371573
#
# Coordination Sequence:
#
# PCOD8175376 Si02
#       8
#     8   8   8   8   8   8   8   8
#     4   9  19  37  59  83 114 151 187 234 290 340
#     4  10  20  36  59  87 118 150 187 234 294 352
#     4   9  20  39  60  82 111 151 199 238 282 344
#     4  10  20  36  59  87 116 149 193 239 292 353
#     4  11  22  37  56  81 117 154 190 235 291 347
#     4  10  23  41  59  82 116 158 195 241 295 340
#     4  10  20  36  59  86 115 150 190 240 291 338
#     4  11  20  32  55  86 115 147 187 231 285 344
#
# _framework density 18.918854
#
# number of rings (size 3 to 8) (size 9 to 14) (size 15 to 20)
#    0.000    2.000    1.250    3.375    0.000    6.500 
#    2.250    1.250    0.000    0.000    0.000    0.000 
#    0.000    0.000    0.000    0.000    0.000    0.000 
#
# Total GULP energy -396633.768021 kJ/mol
# GULP energy per Si atom -12394.805251 kJ/mol
# Density = 1.887579 g / cm^3
# Si number density = 18.918854 Si / 1000 Ang^3
#
#
#
# Elastic Constant Matrix: (Units=GPa)
#
#
# Indices 1 2 3 4 5 6 
#
# 1 91.1165 53.3624 51.8575 0.0000 0.0000 0.0000
# 2 53.3624 111.8796 62.0865 0.0000 0.0000 0.0000
# 3 51.8575 62.0865 101.4281 0.0000 0.0000 0.0000
# 4 0.0000 0.0000 0.0000 24.5188 0.0000 0.0000
# 5 0.0000 0.0000 0.0000 0.0000 30.9673 0.0000
# 6 0.0000 0.0000 0.0000 0.0000 0.0000 33.2614
#
#
#
# Elastic Compliance Matrix: (Units=1/GPa)
#
#
# Indices 1 2 3 4 5 6 
#
# 1 0.017160 -0.005022 -0.005699 0.000000 0.000000 0.000000
# 2 -0.005022 0.015006 -0.006618 0.000000 0.000000 0.000000
# 3 -0.005699 -0.006618 0.016824 0.000000 0.000000 0.000000
# 4 0.000000 0.000000 0.000000 0.040785 0.000000 0.000000
# 5 0.000000 0.000000 0.000000 0.000000 0.032292 0.000000
# 6 0.000000 0.000000 0.000000 0.000000 0.000000 0.030065
#
#
# Mechanical properties :
#
#
# Convention : Reuss Voigt Hill
#
# Bulk Modulus (GPa) = 69.87349 71.00411 70.43880
# Shear Modulus (GPa) = 26.09870 26.89070 26.49470
#
# Velocity S-wave (km/s) = 3.71820 3.77420 3.74630
# Velocity P-wave (km/s) = 7.44626 7.52364 7.48505
#
# Compressibility (1/GPa) = 0.01431158
#
# Stress axis : x y z
#
# Youngs Moduli (GPa) = 58.27643 66.64028 59.43825
#
# Poissons Ratio (x) = 0.33465 0.33876
# Poissons Ratio (y) = 0.29265 0.39336
# Poissons Ratio (z) = 0.33214 0.44103
#
# Static dielectric constant tensor:
#      x y z
#    x 3.480310 0.000000 0.000000 
#    y 0.000000 3.344140 0.000000 
#    z 0.000000 0.000000 3.524340 
# 
# 
# High freq. dielectric constant tensor:
#      x y z
#    x 1.734940 0.000000 0.000000 
#    y 0.000000 1.721410 0.000000 
#    z 0.000000 0.000000 1.733920 
# 
# From -- ./inp_files/13907.got.cif
#   From: 2010.03.12/outbox.cif.g09.slc.cpg/sg36_7_cif.got.tgz:13907.got - 2010.04.14 02:13:53.
