data_PCOD8175140
_publ_section_title
;
Structure prediction by ZEFSAII (Michael W. Deem and Ramdas Pophale) SiO2 
 PCOD8175140
Probable space group: C M C 21
;
_chemical_formula_sum "Si O2"
_cell_formula_units_Z 64
_cell_length_a 8.927335
_cell_length_b 20.654826
_cell_length_c 18.505152
_cell_angle_alpha 90.000000
_cell_angle_beta 90.000000
_cell_angle_gamma 90.000000
_cell_volume 3412.212185
_symmetry_space_group_name_H-M "C M C 21"
_symmetry_group_IT_number 36
_symmetry_cell_setting 'orthorhombic'
loop_
_space_group_symop_operation_xyz
x,y,z
-x,-y,1/2+z
x,-y,1/2+z
-x,y,z
1/2+x,1/2+y,z
1/2-x,1/2-y,1/2+z
1/2+x,1/2-y,1/2+z
1/2-x,1/2+y,z
loop_
_atom_site_type_symbol
_atom_site_label
_atom_site_fract_x
_atom_site_fract_y
_atom_site_fract_z
Si Si1 0.167907 0.607866 0.258250
Si Si2 0.823689 0.996559 0.178216
Si Si3 0.327498 0.387044 0.283032
Si Si4 0.328015 0.266433 0.930643
Si Si5 0.668915 0.754671 0.785962
Si Si6 0.322211 0.507074 0.016228
Si Si7 0.827490 0.394110 0.929293
Si Si8 0.324066 0.877654 0.437216
O O1 0.281934 0.564927 0.213425
O O2 0.189054 0.683290 0.233194
O O3 0.200683 0.603942 0.343638
O O4 0.000000 0.583704 0.241485
O O5 0.756977 0.937746 0.226138
O O6 0.000000 0.990768 0.176638
O O7 0.762468 0.991434 0.096786
O O8 0.500000 0.404126 0.299846
O O9 0.314235 0.315064 0.247076
O O10 0.239224 0.391697 0.357690
O O11 0.500000 0.285430 0.942737
O O12 0.296399 0.258519 0.845991
O O13 0.227678 0.325044 0.962201
O O14 0.291316 0.195889 0.964765
O O15 0.500000 0.759772 0.820740
O O16 0.500000 0.511877 0.012838
O O17 0.268258 0.451561 0.962648
O O18 0.254070 0.575935 0.994522
O O19 0.000000 0.403812 0.949649
O O20 0.500000 0.891781 0.434526
#
# Coordination Sequence:
#
# PCOD8175140 Si02
#       8
#     8   8   8   8   8   8   8   8
#     4   9  18  32  52  77 102 129 163 205 252 304
#     4  10  22  36  50  72 102 136 173 212 253 302
#     4   9  17  33  56  77 100 133 170 210 258 306
#     4   9  17  30  51  79 107 132 163 209 259 305
#     4   8  15  29  50  76 102 129 165 207 252 303
#     4  11  23  37  51  71 104 143 180 216 256 303
#     4  10  20  35  56  81 106 133 170 213 257 309
#     4  10  20  34  54  81 107 133 172 216 257 306
#
# _framework density 18.756160999999999
#
# number of rings (size 3 to 8) (size 9 to 14) (size 15 to 20)
#    0.000    2.500    0.000    3.000    0.000    7.500 
#    0.000    1.250    0.000    3.000    0.000    0.000 
#    0.000    0.000    0.000    0.000    0.000    0.000 
#
# Total GULP energy -396614.623961 kJ/mol
# GULP energy per Si atom -12394.206999 kJ/mol
# Density = 1.871347 g / cm^3
# Si number density = 18.756161 Si / 1000 Ang^3
#
#
#
# Elastic Constant Matrix: (Units=GPa)
#
#
# Indices 1 2 3 4 5 6 
#
# 1 53.1350 30.3496 19.3469 0.0000 0.0000 0.0000
# 2 30.3496 116.4366 25.6141 0.0000 0.0000 0.0000
# 3 19.3469 25.6141 48.3327 0.0000 0.0000 0.0000
# 4 0.0000 0.0000 0.0000 5.7858 0.0000 0.0000
# 5 0.0000 0.0000 0.0000 0.0000 16.9286 0.0000
# 6 0.0000 0.0000 0.0000 0.0000 0.0000 34.5292
#
#
#
# Elastic Compliance Matrix: (Units=1/GPa)
#
#
# Indices 1 2 3 4 5 6 
#
# 1 0.024117 -0.004712 -0.007157 0.000000 0.000000 0.000000
# 2 -0.004712 0.010642 -0.003754 0.000000 0.000000 0.000000
# 3 -0.007157 -0.003754 0.025544 0.000000 0.000000 0.000000
# 4 0.000000 0.000000 0.000000 0.172838 0.000000 0.000000
# 5 0.000000 0.000000 0.000000 0.000000 0.059071 0.000000
# 6 0.000000 0.000000 0.000000 0.000000 0.000000 0.028961
#
#
# Mechanical properties :
#
#
# Convention : Reuss Voigt Hill
#
# Bulk Modulus (GPa) = 34.41312 40.94727 37.68020
# Shear Modulus (GPa) = 13.80816 20.95497 17.38157
#
# Velocity S-wave (km/s) = 2.71623 3.34613 3.04750
# Velocity P-wave (km/s) = 5.31269 6.06692 5.70229
#
# Compressibility (1/GPa) = 0.02905868
#
# Stress axis : x y z
#
# Youngs Moduli (GPa) = 41.46431 93.96460 39.14809
#
# Poissons Ratio (x) = 0.44275 0.28017
# Poissons Ratio (y) = 0.19537 0.14696
# Poissons Ratio (z) = 0.29675 0.35273
#
# Static dielectric constant tensor:
#      x y z
#    x 3.417980 0.000000 0.000000 
#    y 0.000000 3.928170 0.000000 
#    z 0.000000 0.000000 3.146960 
# 
# 
# High freq. dielectric constant tensor:
#      x y z
#    x 1.729560 0.000000 0.000000 
#    y 0.000000 1.753470 0.000000 
#    z 0.000000 0.000000 1.679600 
# 
# From -- ./inp_files/13813.got.cif
#   From: 2010.03.12/outbox.cif.g09.slc.cpg/sg36_7_cif.got.tgz:13813.got - 2010.04.14 02:13:53.
