data_PCOD8175539
_publ_section_title
;
Structure prediction by ZEFSAII (Michael W. Deem and Ramdas Pophale) SiO2 
 PCOD8175539
Probable space group: C M C 21
;
_chemical_formula_sum "Si O2"
_cell_formula_units_Z 64
_cell_length_a 8.996396
_cell_length_b 24.041154
_cell_length_c 15.120143
_cell_angle_alpha 90.000000
_cell_angle_beta 90.000000
_cell_angle_gamma 90.000000
_cell_volume 3270.241103
_symmetry_space_group_name_H-M "C M C 21"
_symmetry_group_IT_number 36
_symmetry_cell_setting 'orthorhombic'
loop_
_space_group_symop_operation_xyz
x,y,z
-x,-y,1/2+z
x,-y,1/2+z
-x,y,z
1/2+x,1/2+y,z
1/2-x,1/2-y,1/2+z
1/2+x,1/2-y,1/2+z
1/2-x,1/2+y,z
loop_
_atom_site_type_symbol
_atom_site_label
_atom_site_fract_x
_atom_site_fract_y
_atom_site_fract_z
Si Si1 0.163757 0.625319 0.003260
Si Si2 0.824434 0.987055 0.776371
Si Si3 0.823789 0.497452 0.460617
Si Si4 0.325196 0.765369 0.781742
Si Si5 0.824127 0.692301 0.639655
Si Si6 0.165413 0.382169 0.709970
Si Si7 0.324711 0.936292 0.136022
Si Si8 0.174090 0.236315 0.975935
O O1 0.150476 0.626233 0.107183
O O2 0.000000 0.635241 0.961991
O O3 0.227263 0.566169 0.972281
O O4 0.271851 0.673268 0.971441
O O5 0.759527 0.980618 0.874545
O O6 0.782936 0.930277 0.727435
O O7 0.000000 0.994740 0.780276
O O8 0.755433 0.038482 0.722109
O O9 0.773037 0.532913 0.546219
O O10 0.000000 0.502941 0.447829
O O11 0.500000 0.757680 0.766591
O O12 0.244064 0.715986 0.729731
O O13 0.269826 0.825330 0.749548
O O14 0.279886 0.764354 0.884146
O O15 0.778324 0.628079 0.628187
O O16 0.758146 0.727346 0.556463
O O17 0.000000 0.698076 0.644971
O O18 0.000000 0.396134 0.748823
O O19 0.500000 0.944260 0.150225
O O20 0.000000 0.234536 0.988328
#
# Coordination Sequence:
#
# PCOD8175539 Si02
#       8
#     8   8   8   8   8   8   8   8
#     4  10  20  38  64  89 112 153 205 251 292 344
#     4  12  26  40  60  92 126 157 194 249 314 361
#     4  10  22  41  65  88 116 158 210 250 290 356
#     4  10  22  39  62  88 119 159 198 240 295 355
#     4  10  22  39  61  88 120 156 198 246 296 348
#     4  10  20  40  66  87 113 155 208 250 290 354
#     4  10  22  43  66  87 117 163 209 248 292 354
#     4  10  22  38  58  89 123 155 192 242 303 354
#
# _framework density 19.570422000000001
#
# number of rings (size 3 to 8) (size 9 to 14) (size 15 to 20)
#    0.000    1.750    2.500    1.125    3.500    3.000 
#    0.000    0.000    0.000    0.000    0.000    0.000 
#    0.000    0.000    0.000    0.000    0.000    0.000 
#
# Total GULP energy -396850.973398 kJ/mol
# GULP energy per Si atom -12401.592919 kJ/mol
# Density = 1.952588 g / cm^3
# Si number density = 19.570422 Si / 1000 Ang^3
#
#
#
# Elastic Constant Matrix: (Units=GPa)
#
#
# Indices 1 2 3 4 5 6 
#
# 1 40.2196 25.9697 34.1047 0.0000 0.0000 0.0000
# 2 25.9697 111.4014 22.5410 0.0000 0.0000 0.0000
# 3 34.1047 22.5410 85.1854 0.0000 0.0000 0.0000
# 4 0.0000 0.0000 0.0000 32.5571 0.0000 0.0000
# 5 0.0000 0.0000 0.0000 0.0000 49.7040 0.0000
# 6 0.0000 0.0000 0.0000 0.0000 0.0000 39.1043
#
#
#
# Elastic Compliance Matrix: (Units=1/GPa)
#
#
# Indices 1 2 3 4 5 6 
#
# 1 0.041943 -0.006741 -0.015008 0.000000 0.000000 0.000000
# 2 -0.006741 0.010568 -0.000098 0.000000 0.000000 0.000000
# 3 -0.015008 -0.000098 0.017774 0.000000 0.000000 0.000000
# 4 0.000000 0.000000 0.000000 0.030715 0.000000 0.000000
# 5 0.000000 0.000000 0.000000 0.000000 0.020119 0.000000
# 6 0.000000 0.000000 0.000000 0.000000 0.000000 0.025573
#
#
# Mechanical properties :
#
#
# Convention : Reuss Voigt Hill
#
# Bulk Modulus (GPa) = 37.60754 44.67078 41.13916
# Shear Modulus (GPa) = 25.09434 34.55248 29.82341
#
# Velocity S-wave (km/s) = 3.58475 4.20640 3.90795
# Velocity P-wave (km/s) = 6.03259 6.81667 6.43658
#
# Compressibility (1/GPa) = 0.02659042
#
# Stress axis : x y z
#
# Youngs Moduli (GPa) = 23.84209 94.62805 56.26296
#
# Poissons Ratio (x) = 0.63787 0.84442
# Poissons Ratio (y) = 0.16071 0.00549
# Poissons Ratio (z) = 0.35783 0.00924
#
# Static dielectric constant tensor:
#      x y z
#    x 0.880730 0.000000 0.000000 
#    y 0.000000 3.615370 0.000000 
#    z 0.000000 0.000000 3.683950 
# 
# 
# High freq. dielectric constant tensor:
#      x y z
#    x 1.742020 0.000000 0.000000 
#    y 0.000000 1.774030 0.000000 
#    z 0.000000 0.000000 1.771920 
# 
# From -- ./inp_files/10957.got.cif
#   From: 2010.03.12/outbox.cif.g09.slc.cpg/sg36_6_cif.got.tgz:10957.got - 2010.04.14 02:13:53.
