data_PCOD8175817
_publ_section_title
;
Structure prediction by ZEFSAII (Michael W. Deem and Ramdas Pophale) SiO2 
 PCOD8175817
Probable space group: C M C 21
;
_chemical_formula_sum "Si O2"
_cell_formula_units_Z 64
_cell_length_a 8.800277
_cell_length_b 15.381735
_cell_length_c 23.905763
_cell_angle_alpha 90.000000
_cell_angle_beta 90.000000
_cell_angle_gamma 90.000000
_cell_volume 3235.968437
_symmetry_space_group_name_H-M "C M C 21"
_symmetry_group_IT_number 36
_symmetry_cell_setting 'orthorhombic'
loop_
_space_group_symop_operation_xyz
x,y,z
-x,-y,1/2+z
x,-y,1/2+z
-x,y,z
1/2+x,1/2+y,z
1/2-x,1/2-y,1/2+z
1/2+x,1/2-y,1/2+z
1/2-x,1/2+y,z
loop_
_atom_site_type_symbol
_atom_site_label
_atom_site_fract_x
_atom_site_fract_y
_atom_site_fract_z
Si Si1 0.676233 0.413588 0.508750
Si Si2 0.680432 0.246946 0.442049
Si Si3 0.179402 0.589997 0.517288
Si Si4 0.824798 0.837121 0.628531
Si Si5 0.178775 0.847929 0.129151
Si Si6 0.324595 0.902305 0.243723
Si Si7 0.179561 0.244450 0.815681
Si Si8 0.825230 0.598308 0.236227
O O1 0.500000 0.430910 0.496257
O O2 0.739761 0.334700 0.471273
O O3 0.771577 0.498040 0.491339
O O4 0.703886 0.393930 0.573773
O O5 0.500000 0.244541 0.444018
O O6 0.744421 0.164939 0.476604
O O7 0.739688 0.242221 0.378632
O O8 0.249043 0.598852 0.578609
O O9 0.000000 0.596152 0.522497
O O10 0.720796 0.752694 0.625880
O O11 0.779159 0.894942 0.681545
O O12 0.000000 0.807956 0.632737
O O13 0.235801 0.888342 0.186578
O O14 0.000000 0.858950 0.126074
O O15 0.500000 0.878731 0.234044
O O16 0.258317 0.841399 0.291897
O O17 0.304155 0.002601 0.262747
O O18 0.227567 0.329841 0.781052
O O19 0.000000 0.229797 0.813900
O O20 0.000000 0.614127 0.218826
#
# Coordination Sequence:
#
# PCOD8175817 Si02
#       8
#     8   8   8   8   8   8   8   8
#     4  10  21  39  60  87 120 157 196 240 294 356
#     4   9  20  40  62  83 117 160 202 244 295 350
#     4  11  22  39  62  90 120 157 200 244 295 350
#     4  11  21  36  61  88 120 155 193 240 297 356
#     4  12  23  37  60  89 121 156 195 240 298 362
#     4  11  23  39  60  89 123 156 196 248 297 351
#     4  10  21  40  63  85 114 160 205 246 295 348
#     4  10  22  38  58  87 121 155 195 240 295 353
#
# _framework density 19.777694
#
# number of rings (size 3 to 8) (size 9 to 14) (size 15 to 20)
#    0.000    1.500    2.500    3.000    0.000    5.000 
#    0.000    3.125    0.000    0.000    0.000    0.000 
#    0.000    0.000    0.000    0.000    0.000    0.000 
#
# Total GULP energy -396944.627078 kJ/mol
# GULP energy per Si atom -12404.519596 kJ/mol
# Density = 1.973268 g / cm^3
# Si number density = 19.777694 Si / 1000 Ang^3
#
#
#
# Elastic Constant Matrix: (Units=GPa)
#
#
# Indices 1 2 3 4 5 6 
#
# 1 71.1697 40.8330 36.9263 0.0000 0.0000 0.0000
# 2 40.8330 143.3195 57.7233 0.0000 0.0000 0.0000
# 3 36.9263 57.7233 122.3968 0.0000 0.0000 0.0000
# 4 0.0000 0.0000 0.0000 15.0533 0.0000 0.0000
# 5 0.0000 0.0000 0.0000 0.0000 24.4958 0.0000
# 6 0.0000 0.0000 0.0000 0.0000 0.0000 30.3015
#
#
#
# Elastic Compliance Matrix: (Units=1/GPa)
#
#
# Indices 1 2 3 4 5 6 
#
# 1 0.018081 -0.003647 -0.003735 0.000000 0.000000 0.000000
# 2 -0.003647 0.009349 -0.003309 0.000000 0.000000 0.000000
# 3 -0.003735 -0.003309 0.010857 0.000000 0.000000 0.000000
# 4 0.000000 0.000000 0.000000 0.066431 0.000000 0.000000
# 5 0.000000 0.000000 0.000000 0.000000 0.040823 0.000000
# 6 0.000000 0.000000 0.000000 0.000000 0.000000 0.033002
#
#
# Mechanical properties :
#
#
# Convention : Reuss Voigt Hill
#
# Bulk Modulus (GPa) = 59.15073 67.53904 63.34488
# Shear Modulus (GPa) = 24.32370 27.39702 25.86036
#
# Velocity S-wave (km/s) = 3.51073 3.72593 3.61993
# Velocity P-wave (km/s) = 6.81222 7.26177 7.04059
#
# Compressibility (1/GPa) = 0.01690596
#
# Stress axis : x y z
#
# Youngs Moduli (GPa) = 55.30552 106.96093 92.10292
#
# Poissons Ratio (x) = 0.39011 0.34400
# Poissons Ratio (y) = 0.20171 0.30475
# Poissons Ratio (z) = 0.20656 0.35391
#
# Static dielectric constant tensor:
#      x y z
#    x 3.476580 0.000000 0.000000 
#    y 0.000000 3.812290 0.000000 
#    z 0.000000 0.000000 3.674210 
# 
# 
# High freq. dielectric constant tensor:
#      x y z
#    x 1.759520 0.000000 0.000000 
#    y 0.000000 1.786850 0.000000 
#    z 0.000000 0.000000 1.767160 
# 
# From -- ./inp_files/16607.got.cif
#   From: 2010.03.12/outbox.cif.g09.slc.cpg/sg36_9_cif.got.tgz:16607.got - 2010.04.14 02:13:53.
