data_PCOD8175969
_publ_section_title
;
Structure prediction by ZEFSAII (Michael W. Deem and Ramdas Pophale) SiO2 
 PCOD8175969
Probable space group: C M C 21
;
_chemical_formula_sum "Si O2"
_cell_formula_units_Z 32
_cell_length_a 21.759420
_cell_length_b 12.055072
_cell_length_c 5.108939
_cell_angle_alpha 90.000000
_cell_angle_beta 90.000000
_cell_angle_gamma 90.000000
_cell_volume 1340.132813
_symmetry_space_group_name_H-M "C M C 21"
_symmetry_group_IT_number 36
_symmetry_cell_setting 'orthorhombic'
loop_
_space_group_symop_operation_xyz
x,y,z
-x,-y,1/2+z
x,-y,1/2+z
-x,y,z
1/2+x,1/2+y,z
1/2-x,1/2-y,1/2+z
1/2+x,1/2-y,1/2+z
1/2-x,1/2+y,z
loop_
_atom_site_type_symbol
_atom_site_label
_atom_site_fract_x
_atom_site_fract_y
_atom_site_fract_z
Si Si1 0.000000 0.919775 0.776340
Si Si2 0.599123 0.749313 0.449701
Si Si3 0.500000 0.924518 0.546241
Si Si4 0.665586 0.564796 0.728418
Si Si5 0.725470 0.806260 0.260122
O O1 0.941242 0.837912 0.782814
O O2 0.000000 0.992759 0.514855
O O3 0.559403 0.846776 0.578624
O O4 0.632782 0.683179 0.683758
O O5 0.651470 0.808886 0.271478
O O6 0.500000 0.019524 0.762195
O O7 0.643437 0.478285 0.508492
O O8 0.739923 0.577959 0.690579
O O9 0.755862 0.782596 0.542645
#
# Coordination Sequence:
#
# PCOD8175969 Si02
#       5
#     4   8   4   8   8
#     4  11  24  41  66 100 132 173 220 275 336 394
#     4  10  24  44  68  95 136 175 218 276 332 389
#     4  11  28  47  68  94 126 177 236 277 318 382
#     4  11  22  38  64 100 132 165 208 262 329 400
#     4  10  22  39  61  92 131 175 212 257 320 390
#
# _framework density 23.878232000000001
#
# number of rings (size 3 to 8) (size 9 to 14) (size 15 to 20)
#    0.000    1.500    0.000    4.500    0.000   16.000 
#    0.000    0.000    0.000    0.000    0.000    0.000 
#    0.000    0.000    0.000    0.000    0.000    0.000 
#
# Total GULP energy -198281.762924 kJ/mol
# GULP energy per Si atom -12392.610183 kJ/mol
# Density = 2.382388 g / cm^3
# Si number density = 23.878232 Si / 1000 Ang^3
#
#
#
# Elastic Constant Matrix: (Units=GPa)
#
#
# Indices 1 2 3 4 5 6 
#
# 1 166.2160 50.1462 32.7913 0.0000 0.0000 0.0000
# 2 50.1462 95.7852 13.2486 0.0000 0.0000 0.0000
# 3 32.7913 13.2486 55.1988 0.0000 0.0000 0.0000
# 4 0.0000 0.0000 0.0000 24.3365 0.0000 0.0000
# 5 0.0000 0.0000 0.0000 0.0000 23.0020 0.0000
# 6 0.0000 0.0000 0.0000 0.0000 0.0000 54.3810
#
#
#
# Elastic Compliance Matrix: (Units=1/GPa)
#
#
# Indices 1 2 3 4 5 6 
#
# 1 0.007847 -0.003582 -0.003802 0.000000 0.000000 0.000000
# 2 -0.003582 0.012434 -0.000856 0.000000 0.000000 0.000000
# 3 -0.003802 -0.000856 0.020580 0.000000 0.000000 0.000000
# 4 0.000000 0.000000 0.000000 0.041091 0.000000 0.000000
# 5 0.000000 0.000000 0.000000 0.000000 0.043475 0.000000
# 6 0.000000 0.000000 0.000000 0.000000 0.000000 0.018389
#
#
# Mechanical properties :
#
#
# Convention : Reuss Voigt Hill
#
# Bulk Modulus (GPa) = 41.01622 56.61916 48.81769
# Shear Modulus (GPa) = 29.68722 35.07816 32.38269
#
# Velocity S-wave (km/s) = 3.52984 3.83697 3.68660
# Velocity P-wave (km/s) = 5.81614 6.58733 6.21371
#
# Compressibility (1/GPa) = 0.02438060
#
# Stress axis : x y z
#
# Youngs Moduli (GPa) = 127.43652 80.42535 48.59008
#
# Poissons Ratio (x) = 0.28811 0.18473
# Poissons Ratio (y) = 0.45652 0.04160
# Poissons Ratio (z) = 0.48449 0.06886
#
# Static dielectric constant tensor:
#      x y z
#    x 4.950990 0.000000 0.000000 
#    y 0.000000 4.328310 0.000000 
#    z 0.000000 0.000000 4.204830 
# 
# 
# High freq. dielectric constant tensor:
#      x y z
#    x 1.966840 0.000000 0.000000 
#    y 0.000000 1.934250 0.000000 
#    z 0.000000 0.000000 1.941850 
# 
# From -- ./inp_files/1265.got.cif
#   From: 2010.03.12/outbox.cif.g09.slc.cpg/sg36_1_cif.got.tgz:1265.got - 2010.04.14 02:13:53.
