data_PCOD8175619
_publ_section_title
;
Structure prediction by ZEFSAII (Michael W. Deem and Ramdas Pophale) SiO2 
 PCOD8175619
Probable space group: C M C 21
;
_chemical_formula_sum "Si O2"
_cell_formula_units_Z 64
_cell_length_a 9.790625
_cell_length_b 32.824851
_cell_length_c 10.216858
_cell_angle_alpha 90.000000
_cell_angle_beta 90.000000
_cell_angle_gamma 90.000000
_cell_volume 3283.450983
_symmetry_space_group_name_H-M "C M C 21"
_symmetry_group_IT_number 36
_symmetry_cell_setting 'orthorhombic'
loop_
_space_group_symop_operation_xyz
x,y,z
-x,-y,1/2+z
x,-y,1/2+z
-x,y,z
1/2+x,1/2+y,z
1/2-x,1/2-y,1/2+z
1/2+x,1/2-y,1/2+z
1/2-x,1/2+y,z
loop_
_atom_site_type_symbol
_atom_site_label
_atom_site_fract_x
_atom_site_fract_y
_atom_site_fract_z
Si Si1 0.157985 0.239131 0.548240
Si Si2 0.654569 0.603657 0.899618
Si Si3 0.352343 0.090488 0.553873
Si Si4 0.660990 0.286622 0.753456
Si Si5 0.848611 0.447367 0.780678
Si Si6 0.653748 0.376832 0.686883
Si Si7 0.845941 0.849930 0.141278
Si Si8 0.160001 0.538658 0.801424
O O1 0.254402 0.269776 0.628867
O O2 0.201365 0.233366 0.394631
O O3 0.177021 0.197709 0.628548
O O4 0.000000 0.253739 0.554248
O O5 0.500000 0.588078 0.876542
O O6 0.698812 0.635330 0.785827
O O7 0.752191 0.563532 0.909565
O O8 0.665200 0.630083 0.031238
O O9 0.500000 0.110139 0.585608
O O10 0.362436 0.061595 0.431910
O O11 0.245834 0.127098 0.533293
O O12 0.303760 0.061520 0.669039
O O13 0.500000 0.279940 0.725914
O O14 0.694789 0.334933 0.759842
O O15 0.751279 0.414387 0.716939
O O16 0.787374 0.492868 0.776130
O O17 0.000000 0.445670 0.714576
O O18 0.500000 0.389161 0.727160
O O19 0.000000 0.861920 0.107848
O O20 0.000000 0.539063 0.840505
#
# Coordination Sequence:
#
# PCOD8175619 Si02
#       8
#     8   8   8   8   8   8   8   8
#     4  10  22  39  62  91 119 153 198 241 293 358
#     4   9  19  35  56  83 112 145 187 231 281 340
#     4   9  18  33  51  76 106 137 180 225 271 333
#     4  10  23  41  61  89 123 157 198 245 298 358
#     4  10  21  34  54  79 107 146 187 228 280 338
#     4  10  22  39  58  82 115 151 190 238 291 344
#     4   9  18  35  59  82 107 142 184 229 281 339
#     4   9  19  34  53  78 109 145 182 227 279 332
#
# _framework density 19.491688
#
# number of rings (size 3 to 8) (size 9 to 14) (size 15 to 20)
#    0.000    2.500    0.000    0.750    3.500    4.000 
#    0.000    0.000    0.000    0.000    0.000    0.000 
#    0.000    0.000    0.000    0.000    0.000    0.000 
#
# Total GULP energy -396579.917832 kJ/mol
# GULP energy per Si atom -12393.122432 kJ/mol
# Density = 1.944732 g / cm^3
# Si number density = 19.491688 Si / 1000 Ang^3
#
#
#
# Elastic Constant Matrix: (Units=GPa)
#
#
# Indices 1 2 3 4 5 6 
#
# 1 72.7440 50.8958 32.3774 0.0000 0.0000 0.0000
# 2 50.8958 86.6746 30.1731 0.0000 0.0000 0.0000
# 3 32.3774 30.1731 72.4947 0.0000 0.0000 0.0000
# 4 0.0000 0.0000 0.0000 23.3924 0.0000 0.0000
# 5 0.0000 0.0000 0.0000 0.0000 28.6457 0.0000
# 6 0.0000 0.0000 0.0000 0.0000 0.0000 28.7371
#
#
#
# Elastic Compliance Matrix: (Units=1/GPa)
#
#
# Indices 1 2 3 4 5 6 
#
# 1 0.025387 -0.012817 -0.006003 0.000000 0.000000 0.000000
# 2 -0.012817 0.019963 -0.002585 0.000000 0.000000 0.000000
# 3 -0.006003 -0.002585 0.017551 0.000000 0.000000 0.000000
# 4 0.000000 0.000000 0.000000 0.042749 0.000000 0.000000
# 5 0.000000 0.000000 0.000000 0.000000 0.034909 0.000000
# 6 0.000000 0.000000 0.000000 0.000000 0.000000 0.034798
#
#
# Mechanical properties :
#
#
# Convention : Reuss Voigt Hill
#
# Bulk Modulus (GPa) = 49.77450 50.97844 50.37647
# Shear Modulus (GPa) = 22.23558 24.05284 23.14421
#
# Velocity S-wave (km/s) = 3.38120 3.51665 3.44959
# Velocity P-wave (km/s) = 6.39023 6.53451 6.46277
#
# Compressibility (1/GPa) = 0.02009061
#
# Stress axis : x y z
#
# Youngs Moduli (GPa) = 39.39100 50.09143 56.97656
#
# Poissons Ratio (x) = 0.64203 0.34205
# Poissons Ratio (y) = 0.50488 0.14726
# Poissons Ratio (z) = 0.23648 0.12947
#
# Static dielectric constant tensor:
#      x y z
#    x 3.728780 0.000000 0.000000 
#    y 0.000000 3.528910 0.000000 
#    z 0.000000 0.000000 3.622940 
# 
# 
# High freq. dielectric constant tensor:
#      x y z
#    x 1.755520 0.000000 0.000000 
#    y 0.000000 1.751660 0.000000 
#    z 0.000000 0.000000 1.762740 
# 
# From -- ./inp_files/7094.got.cif
#   From: 2010.03.12/outbox.cif.g09.slc.cpg/sg36_4_cif.got.tgz:7094.got - 2010.04.14 02:13:53.
