data_PCOD8175694
_publ_section_title
;
Structure prediction by ZEFSAII (Michael W. Deem and Ramdas Pophale) SiO2 
 PCOD8175694
Probable space group: C M C 21
;
_chemical_formula_sum "Si O2"
_cell_formula_units_Z 48
_cell_length_a 8.939221
_cell_length_b 30.217225
_cell_length_c 8.905891
_cell_angle_alpha 90.000000
_cell_angle_beta 90.000000
_cell_angle_gamma 90.000000
_cell_volume 2405.645493
_symmetry_space_group_name_H-M "C M C 21"
_symmetry_group_IT_number 36
_symmetry_cell_setting 'orthorhombic'
loop_
_space_group_symop_operation_xyz
x,y,z
-x,-y,1/2+z
x,-y,1/2+z
-x,y,z
1/2+x,1/2+y,z
1/2-x,1/2-y,1/2+z
1/2+x,1/2-y,1/2+z
1/2-x,1/2+y,z
loop_
_atom_site_type_symbol
_atom_site_label
_atom_site_fract_x
_atom_site_fract_y
_atom_site_fract_z
Si Si1 0.828684 0.554531 0.617010
Si Si2 0.826414 0.141400 0.678265
Si Si3 0.673893 0.620039 0.022313
Si Si4 0.171705 0.532902 0.959404
Si Si5 0.176458 0.699079 0.173312
Si Si6 0.823534 0.278939 0.012575
O O1 0.727886 0.597744 0.589684
O O2 0.773459 0.515953 0.505982
O O3 0.807270 0.535683 0.782737
O O4 0.000000 0.568111 0.586026
O O5 0.792323 0.136360 0.853958
O O6 0.736244 0.183590 0.623075
O O7 0.000000 0.148920 0.645210
O O8 0.500000 0.622786 0.061428
O O9 0.729179 0.569772 0.042814
O O10 0.765307 0.649966 0.138654
O O11 0.000000 0.539992 0.009049
O O12 0.223699 0.710906 0.342351
O O13 0.000000 0.701343 0.151026
O O14 0.252990 0.732233 0.056563
O O15 0.000000 0.275582 0.030286
#
# Coordination Sequence:
#
# PCOD8175694 Si02
#       6
#     8   8   8   8   8   8
#     4   9  18  33  53  77 107 144 184 226 272 321
#     4  10  21  37  57  82 112 146 185 227 272 324
#     4  10  21  37  57  82 112 146 185 227 272 324
#     4   9  18  33  53  77 107 144 184 226 272 321
#     4  11  24  40  59  84 112 143 181 224 271 325
#     4  11  24  40  59  84 112 143 181 224 271 325
#
# _framework density 19.953064000000001
#
# number of rings (size 3 to 8) (size 9 to 14) (size 15 to 20)
#    0.000    2.000    0.000    3.000    0.000   10.667 
#    0.000    3.333    0.000    0.000    0.000    0.000 
#    0.000    0.000    0.000    0.000    0.000    0.000 
#
# Total GULP energy -297726.214432 kJ/mol
# GULP energy per Si atom -12405.258935 kJ/mol
# Density = 1.990765 g / cm^3
# Si number density = 19.953064 Si / 1000 Ang^3
#
#
#
# Elastic Constant Matrix: (Units=GPa)
#
#
# Indices 1 2 3 4 5 6 
#
# 1 61.0298 8.1642 21.0439 0.0000 0.0000 0.0000
# 2 8.1642 54.2114 -4.8866 0.0000 0.0000 0.0000
# 3 21.0439 -4.8866 26.8369 0.0000 0.0000 0.0000
# 4 0.0000 0.0000 0.0000 39.1223 0.0000 0.0000
# 5 0.0000 0.0000 0.0000 0.0000 25.9453 0.0000
# 6 0.0000 0.0000 0.0000 0.0000 0.0000 41.3958
#
#
#
# Elastic Compliance Matrix: (Units=1/GPa)
#
#
# Indices 1 2 3 4 5 6 
#
# 1 0.023906 -0.005378 -0.019725 0.000000 0.000000 0.000000
# 2 -0.005378 0.019964 0.007852 0.000000 0.000000 0.000000
# 3 -0.019725 0.007852 0.054159 0.000000 0.000000 0.000000
# 4 0.000000 0.000000 0.000000 0.025561 0.000000 0.000000
# 5 0.000000 0.000000 0.000000 0.000000 0.038543 0.000000
# 6 0.000000 0.000000 0.000000 0.000000 0.000000 0.024157
#
#
# Mechanical properties :
#
#
# Convention : Reuss Voigt Hill
#
# Bulk Modulus (GPa) = 15.74120 21.19125 18.46623
# Shear Modulus (GPa) = 20.66385 29.14313 24.90349
#
# Velocity S-wave (km/s) = 3.22160 3.82591 3.53668
# Velocity P-wave (km/s) = 4.66310 5.49184 5.09435
#
# Compressibility (1/GPa) = 0.06352754
#
# Stress axis : x y z
#
# Youngs Moduli (GPa) = 41.82967 50.08995 18.46406
#
# Poissons Ratio (x) = 0.26940 0.36421
# Poissons Ratio (y) = 0.22497 -0.14499
# Poissons Ratio (z) = 0.82510 -0.39333
#
# Static dielectric constant tensor:
#      x y z
#    x 3.633640 0.000000 0.000000 
#    y 0.000000 3.783790 0.000000 
#    z 0.000000 0.000000 3.571220 
# 
# 
# High freq. dielectric constant tensor:
#      x y z
#    x 1.780060 0.000000 0.000000 
#    y 0.000000 1.791750 0.000000 
#    z 0.000000 0.000000 1.770620 
# 
# From -- ./inp_files/2663.got.cif
#   From: 2010.03.12/outbox.cif.g09.slc.cpg/sg36_2_cif.got.tgz:2663.got - 2010.04.14 02:13:53.
