data_PCOD8175607
_publ_section_title
;
Structure prediction by ZEFSAII (Michael W. Deem and Ramdas Pophale) SiO2 
 PCOD8175607
Probable space group: C M C 21
;
_chemical_formula_sum "Si O2"
_cell_formula_units_Z 48
_cell_length_a 15.638613
_cell_length_b 8.893366
_cell_length_c 15.559382
_cell_angle_alpha 90.000000
_cell_angle_beta 90.000000
_cell_angle_gamma 90.000000
_cell_volume 2163.997435
_symmetry_space_group_name_H-M "C M C 21"
_symmetry_group_IT_number 36
_symmetry_cell_setting 'orthorhombic'
loop_
_space_group_symop_operation_xyz
x,y,z
-x,-y,1/2+z
x,-y,1/2+z
-x,y,z
1/2+x,1/2+y,z
1/2-x,1/2-y,1/2+z
1/2+x,1/2-y,1/2+z
1/2-x,1/2+y,z
loop_
_atom_site_type_symbol
_atom_site_label
_atom_site_fract_x
_atom_site_fract_y
_atom_site_fract_z
Si Si1 0.334622 0.910609 0.014570
Si Si2 0.676142 0.603045 0.274557
Si Si3 0.000000 0.011759 0.325505
Si Si4 0.500000 0.234969 0.434216
Si Si5 0.318030 0.766877 0.457549
Si Si6 0.166624 0.584280 0.707522
Si Si7 0.500000 0.233255 0.947654
Si Si8 0.000000 0.499683 0.311273
O O1 0.347095 0.974447 0.110602
O O2 0.415434 0.812437 0.985560
O O3 0.253812 0.798858 0.019054
O O4 0.312217 0.051033 0.951753
O O5 0.589067 0.500827 0.272208
O O6 0.691250 0.690685 0.364502
O O7 0.751942 0.489098 0.253535
O O8 0.674301 0.734403 0.203327
O O9 0.000000 0.183647 0.356295
O O10 0.000000 0.913070 0.413573
O O11 0.500000 0.176183 0.334723
O O12 0.412579 0.732218 0.499270
O O13 0.083519 0.542278 0.760400
O O14 0.500000 0.062502 0.910946
#
# Coordination Sequence:
#
# PCOD8175607 Si02
#       8
#     8   8   4   4   8   8   4   4
#     4  12  26  42  65 102 140 170 219 285 342 392
#     4  11  23  44  68  95 128 181 229 274 324 413
#     4  10  24  40  67  95 124 161 234 276 321 380
#     4  12  25  42  68 100 124 174 234 273 321 412
#     4  11  22  43  67  95 128 176 226 274 323 410
#     4  12  25  43  67  98 139 177 215 282 349 386
#     4  10  20  42  66  90 121 172 219 274 319 382
#     4  12  21  44  69  91 127 181 225 269 323 404
#
# _framework density 22.181172
#
# number of rings (size 3 to 8) (size 9 to 14) (size 15 to 20)
#    0.000    0.667    5.000    3.500    9.333    0.000 
#    0.000    0.833    0.000    0.000    0.000    0.000 
#    0.000    0.000    0.000    0.000    0.000    0.000 
#
# Total GULP energy -297436.631194 kJ/mol
# GULP energy per Si atom -12393.192966 kJ/mol
# Density = 2.213069 g / cm^3
# Si number density = 22.181172 Si / 1000 Ang^3
#
#
#
# Elastic Constant Matrix: (Units=GPa)
#
#
# Indices 1 2 3 4 5 6 
#
# 1 224.1569 59.9568 48.7014 0.0000 0.0000 0.0000
# 2 59.9568 71.0979 31.1067 0.0000 0.0000 0.0000
# 3 48.7014 31.1067 75.8607 0.0000 0.0000 0.0000
# 4 0.0000 0.0000 0.0000 26.6451 0.0000 0.0000
# 5 0.0000 0.0000 0.0000 0.0000 0.4623 0.0000
# 6 0.0000 0.0000 0.0000 0.0000 0.0000 34.0211
#
#
#
# Elastic Compliance Matrix: (Units=1/GPa)
#
#
# Indices 1 2 3 4 5 6 
#
# 1 0.006043 -0.004142 -0.002181 0.000000 0.000000 0.000000
# 2 -0.004142 0.019979 -0.005533 0.000000 0.000000 0.000000
# 3 -0.002181 -0.005533 0.016851 0.000000 0.000000 0.000000
# 4 0.000000 0.000000 0.000000 0.037530 0.000000 0.000000
# 5 0.000000 0.000000 0.000000 0.000000 2.163018 0.000000
# 6 0.000000 0.000000 0.000000 0.000000 0.000000 0.029393
#
#
# Mechanical properties :
#
#
# Convention : Reuss Voigt Hill
#
# Bulk Modulus (GPa) = 52.19076 72.29394 62.24235
# Shear Modulus (GPa) = 2.17116 27.64908 14.91012
#
# Velocity S-wave (km/s) = 0.99043 3.53443 2.59549
# Velocity P-wave (km/s) = 4.98882 7.02278 6.09130
#
# Compressibility (1/GPa) = 0.01916048
#
# Stress axis : x y z
#
# Youngs Moduli (GPa) = 165.48525 50.05328 59.34263
#
# Poissons Ratio (x) = 0.20730 0.12943
# Poissons Ratio (y) = 0.68538 0.32837
# Poissons Ratio (z) = 0.36095 0.27697
#
# Static dielectric constant tensor:
#      x y z
#    x 4.601320 0.000000 0.000000 
#    y 0.000000 4.139340 0.000000 
#    z 0.000000 0.000000 3.717090 
# 
# 
# High freq. dielectric constant tensor:
#      x y z
#    x 1.900330 0.000000 0.000000 
#    y 0.000000 1.878940 0.000000 
#    z 0.000000 0.000000 1.837240 
# 
# From -- ./inp_files/14615.got.cif
#   From: 2010.03.12/outbox.cif.g09.slc.cpg/sg36_8_cif.got.tgz:14615.got - 2010.04.14 02:13:53.
