data_PCOD8175324
_publ_section_title
;
Structure prediction by ZEFSAII (Michael W. Deem and Ramdas Pophale) SiO2 
 PCOD8175324
Probable space group: C M C 21
;
_chemical_formula_sum "Si O2"
_cell_formula_units_Z 64
_cell_length_a 8.598269
_cell_length_b 30.587145
_cell_length_c 12.248932
_cell_angle_alpha 90.000000
_cell_angle_beta 90.000000
_cell_angle_gamma 90.000000
_cell_volume 3221.426253
_symmetry_space_group_name_H-M "C M C 21"
_symmetry_group_IT_number 36
_symmetry_cell_setting 'orthorhombic'
loop_
_space_group_symop_operation_xyz
x,y,z
-x,-y,1/2+z
x,-y,1/2+z
-x,y,z
1/2+x,1/2+y,z
1/2-x,1/2-y,1/2+z
1/2+x,1/2-y,1/2+z
1/2-x,1/2+y,z
loop_
_atom_site_type_symbol
_atom_site_label
_atom_site_fract_x
_atom_site_fract_y
_atom_site_fract_z
Si Si1 0.684740 0.053730 0.897810
Si Si2 0.174039 0.324407 0.164197
Si Si3 0.685432 0.208081 0.438637
Si Si4 0.183772 0.301300 0.396827
Si Si5 0.815106 0.455388 0.940579
Si Si6 0.183145 0.873392 0.551860
Si Si7 0.816032 0.624686 0.293559
Si Si8 0.174357 0.424454 0.164173
O O1 0.500000 0.060026 0.904819
O O2 0.756323 0.068972 0.781266
O O3 0.736547 0.003489 0.905650
O O4 0.756049 0.082883 0.993343
O O5 0.256621 0.317499 0.280947
O O6 0.172974 0.374439 0.129737
O O7 0.000000 0.306338 0.178482
O O8 0.250055 0.299455 0.061828
O O9 0.500000 0.214686 0.437144
O O10 0.774593 0.250680 0.399898
O O11 0.732739 0.167653 0.361520
O O12 0.258980 0.329210 0.493586
O O13 0.000000 0.309108 0.403919
O O14 0.753340 0.418808 0.855901
O O15 0.000000 0.450243 0.948243
O O16 0.743440 0.448770 0.062474
O O17 0.238253 0.873115 0.675976
O O18 0.000000 0.873674 0.548675
O O19 0.000000 0.622325 0.277940
O O20 0.000000 0.443078 0.178427
#
# Coordination Sequence:
#
# PCOD8175324 Si02
#       8
#     8   8   8   8   8   8   8   8
#     4  10  20  35  61  92 119 151 196 246 294 350
#     4   9  17  34  59  83 113 150 187 235 292 347
#     4  10  21  38  61  91 123 153 188 239 300 357
#     4  11  23  40  62  88 117 154 200 244 293 355
#     4   9  18  32  59  95 121 149 193 243 291 347
#     4  12  26  42  58  81 120 164 203 247 300 350
#     4  10  21  39  62  89 122 158 199 243 291 352
#     4   9  15  30  56  87 117 145 186 241 291 336
#
# _framework density 19.866978
#
# number of rings (size 3 to 8) (size 9 to 14) (size 15 to 20)
#    0.000    2.000    2.500    1.500    3.500    0.500 
#    0.000    1.250    0.000    0.750    0.000    0.000 
#    0.000    0.000    0.000    0.000    0.000    0.000 
#
# Total GULP energy -396643.108371 kJ/mol
# GULP energy per Si atom -12395.097137 kJ/mol
# Density = 1.982176 g / cm^3
# Si number density = 19.866978 Si / 1000 Ang^3
#
#
#
# Elastic Constant Matrix: (Units=GPa)
#
#
# Indices 1 2 3 4 5 6 
#
# 1 46.5857 31.7089 35.5908 0.0000 0.0000 0.0000
# 2 31.7089 131.9667 61.5117 0.0000 0.0000 0.0000
# 3 35.5908 61.5117 166.5948 0.0000 0.0000 0.0000
# 4 0.0000 0.0000 0.0000 34.3889 0.0000 0.0000
# 5 0.0000 0.0000 0.0000 0.0000 8.3722 0.0000
# 6 0.0000 0.0000 0.0000 0.0000 0.0000 20.1004
#
#
#
# Elastic Compliance Matrix: (Units=1/GPa)
#
#
# Indices 1 2 3 4 5 6 
#
# 1 0.027912 -0.004744 -0.004212 0.000000 0.000000 0.000000
# 2 -0.004744 0.009959 -0.002664 0.000000 0.000000 0.000000
# 3 -0.004212 -0.002664 0.007886 0.000000 0.000000 0.000000
# 4 0.000000 0.000000 0.000000 0.029079 0.000000 0.000000
# 5 0.000000 0.000000 0.000000 0.000000 0.119443 0.000000
# 6 0.000000 0.000000 0.000000 0.000000 0.000000 0.049750
#
#
# Mechanical properties :
#
#
# Convention : Reuss Voigt Hill
#
# Bulk Modulus (GPa) = 44.40662 66.97444 55.69053
# Shear Modulus (GPa) = 18.19675 26.99469 22.59572
#
# Velocity S-wave (km/s) = 3.02972 3.69015 3.37612
# Velocity P-wave (km/s) = 5.88553 7.20700 6.57953
#
# Compressibility (1/GPa) = 0.02251917
#
# Stress axis : x y z
#
# Youngs Moduli (GPa) = 35.82665 100.41074 126.80899
#
# Poissons Ratio (x) = 0.47631 0.53407
# Poissons Ratio (y) = 0.16995 0.33779
# Poissons Ratio (z) = 0.15089 0.26747
#
# Static dielectric constant tensor:
#      x y z
#    x 3.133110 0.000000 0.000000 
#    y 0.000000 3.632580 0.000000 
#    z 0.000000 0.000000 3.968820 
# 
# 
# High freq. dielectric constant tensor:
#      x y z
#    x 1.721060 0.000000 0.000000 
#    y 0.000000 1.783370 0.000000 
#    z 0.000000 0.000000 1.800080 
# 
# From -- ./inp_files/7104.got.cif
#   From: 2010.03.12/outbox.cif.g09.slc.cpg/sg36_4_cif.got.tgz:7104.got - 2010.04.14 02:13:53.
