data_PCOD8175489
_publ_section_title
;
Structure prediction by ZEFSAII (Michael W. Deem and Ramdas Pophale) SiO2 
 PCOD8175489
Probable space group: C M C 21
;
_chemical_formula_sum "Si O2"
_cell_formula_units_Z 52
_cell_length_a 7.782701
_cell_length_b 21.881316
_cell_length_c 14.487676
_cell_angle_alpha 90.000000
_cell_angle_beta 90.000000
_cell_angle_gamma 90.000000
_cell_volume 2467.189504
_symmetry_space_group_name_H-M "C M C 21"
_symmetry_group_IT_number 36
_symmetry_cell_setting 'orthorhombic'
loop_
_space_group_symop_operation_xyz
x,y,z
-x,-y,1/2+z
x,-y,1/2+z
-x,y,z
1/2+x,1/2+y,z
1/2-x,1/2-y,1/2+z
1/2+x,1/2-y,1/2+z
1/2-x,1/2+y,z
loop_
_atom_site_type_symbol
_atom_site_label
_atom_site_fract_x
_atom_site_fract_y
_atom_site_fract_z
Si Si1 0.200793 0.651077 0.705070
Si Si2 0.195162 0.561819 0.984006
Si Si3 0.188852 0.376691 0.672005
Si Si4 0.500000 0.441987 0.181045
Si Si5 0.500000 0.472976 0.969818
Si Si6 0.307062 0.258007 0.578437
Si Si7 0.500000 0.574614 0.277011
Si Si8 0.803339 0.690476 0.901320
O O1 0.325662 0.592943 0.710606
O O2 0.246712 0.690692 0.614144
O O3 0.236913 0.696273 0.792557
O O4 0.000000 0.629232 0.706217
O O5 0.326317 0.510487 0.952676
O O6 0.249366 0.622034 0.928814
O O7 0.000000 0.541928 0.959864
O O8 0.217088 0.572390 0.093153
O O9 0.191535 0.310088 0.624745
O O10 0.332656 0.386854 0.748515
O O11 0.000000 0.384627 0.716790
O O12 0.500000 0.507182 0.231750
O O13 0.500000 0.444299 0.070611
O O14 0.500000 0.423732 0.887880
O O15 0.500000 0.270849 0.611119
O O16 0.296594 0.260963 0.466298
O O17 0.000000 0.702687 0.923973
#
# Coordination Sequence:
#
# PCOD8175489 Si02
#       8
#     8   8   8   4   4   8   4   8
#     4  10  24  43  60  92 130 169 211 253 318 378
#     4   9  18  35  61  88 117 157 212 264 300 360
#     4  10  20  38  64  89 120 158 208 267 311 357
#     4  12  26  42  66  90 132 178 199 264 317 386
#     4  12  24  38  62  92 126 170 202 253 325 377
#     4  10  20  37  64  93 124 159 209 270 309 365
#     4  12  24  42  62  98 124 166 215 255 318 379
#     4   9  19  36  62  93 119 161 215 265 304 362
#
# _framework density 21.076615
#
# number of rings (size 3 to 8) (size 9 to 14) (size 15 to 20)
#    0.000    1.846    2.308    2.308    6.462    1.846 
#    2.769    0.000    0.000    0.000    0.000    0.000 
#    0.000    0.000    0.000    0.000    0.000    0.000 
#
# Total GULP energy -322328.156558 kJ/mol
# GULP energy per Si atom -12397.236791 kJ/mol
# Density = 2.102864 g / cm^3
# Si number density = 21.076615 Si / 1000 Ang^3
#
#
#
# Elastic Constant Matrix: (Units=GPa)
#
#
# Indices 1 2 3 4 5 6 
#
# 1 98.9637 18.9120 12.4604 0.0000 0.0000 0.0000
# 2 18.9120 31.5876 2.8985 0.0000 0.0000 0.0000
# 3 12.4604 2.8985 85.1749 0.0000 0.0000 0.0000
# 4 0.0000 0.0000 0.0000 26.3501 0.0000 0.0000
# 5 0.0000 0.0000 0.0000 0.0000 22.8339 0.0000
# 6 0.0000 0.0000 0.0000 0.0000 0.0000 17.2699
#
#
#
# Elastic Compliance Matrix: (Units=1/GPa)
#
#
# Indices 1 2 3 4 5 6 
#
# 1 0.011589 -0.006804 -0.001464 0.000000 0.000000 0.000000
# 2 -0.006804 0.035752 -0.000221 0.000000 0.000000 0.000000
# 3 -0.001464 -0.000221 0.011962 0.000000 0.000000 0.000000
# 4 0.000000 0.000000 0.000000 0.037951 0.000000 0.000000
# 5 0.000000 0.000000 0.000000 0.000000 0.043795 0.000000
# 6 0.000000 0.000000 0.000000 0.000000 0.000000 0.057904
#
#
# Mechanical properties :
#
#
# Convention : Reuss Voigt Hill
#
# Bulk Modulus (GPa) = 23.62683 31.58535 27.60609
# Shear Modulus (GPa) = 21.73531 25.38779 23.56155
#
# Velocity S-wave (km/s) = 3.21480 3.47442 3.34713
# Velocity P-wave (km/s) = 5.00142 5.57799 5.29756
#
# Compressibility (1/GPa) = 0.04232477
#
# Stress axis : x y z
#
# Youngs Moduli (GPa) = 86.28608 27.97032 83.59641
#
# Poissons Ratio (x) = 0.19032 0.12238
# Poissons Ratio (y) = 0.58713 0.01849
# Poissons Ratio (z) = 0.12631 0.00619
#
# Static dielectric constant tensor:
#      x y z
#    x 3.891570 0.000000 0.000000 
#    y 0.000000 3.455800 0.000000 
#    z 0.000000 0.000000 3.958960 
# 
# 
# High freq. dielectric constant tensor:
#      x y z
#    x 1.838390 0.000000 0.000000 
#    y 0.000000 1.790200 0.000000 
#    z 0.000000 0.000000 1.821100 
# 
# From -- ./inp_files/10618.got.cif
#   From: 2010.03.12/outbox.cif.g09.slc.cpg/sg36_6_cif.got.tgz:10618.got - 2010.04.14 02:13:53.
