data_PCOD8175405
_publ_section_title
;
Structure prediction by ZEFSAII (Michael W. Deem and Ramdas Pophale) SiO2 
 PCOD8175405
Probable space group: C M C 21
;
_chemical_formula_sum "Si O2"
_cell_formula_units_Z 56
_cell_length_a 18.234965
_cell_length_b 15.957052
_cell_length_c 9.012775
_cell_angle_alpha 90.000000
_cell_angle_beta 90.000000
_cell_angle_gamma 90.000000
_cell_volume 2622.503785
_symmetry_space_group_name_H-M "C M C 21"
_symmetry_group_IT_number 36
_symmetry_cell_setting 'orthorhombic'
loop_
_space_group_symop_operation_xyz
x,y,z
-x,-y,1/2+z
x,-y,1/2+z
-x,y,z
1/2+x,1/2+y,z
1/2-x,1/2-y,1/2+z
1/2+x,1/2-y,1/2+z
1/2-x,1/2+y,z
loop_
_atom_site_type_symbol
_atom_site_label
_atom_site_fract_x
_atom_site_fract_y
_atom_site_fract_z
Si Si1 0.417776 0.104457 0.351770
Si Si2 0.853379 0.502294 0.091070
Si Si3 0.634571 0.414812 0.326289
Si Si4 0.917447 0.234620 0.999784
Si Si5 0.297691 0.890247 0.343905
Si Si6 0.414765 0.426537 0.990940
Si Si7 0.086809 0.753106 0.831691
O O1 0.500000 0.121568 0.302516
O O2 0.379832 0.073468 0.202636
O O3 0.378249 0.190896 0.405624
O O4 0.416774 0.037236 0.486792
O O5 0.817081 0.428038 0.184034
O O6 0.795884 0.542362 0.976993
O O7 0.581307 0.353549 0.416138
O O8 0.712537 0.365377 0.330692
O O9 0.634780 0.505742 0.404249
O O10 0.605354 0.428202 0.162268
O O11 0.000000 0.266316 0.020546
O O12 0.886026 0.224921 0.165438
O O13 0.357579 0.819403 0.387485
O O14 0.500000 0.449645 0.967870
O O15 0.397956 0.334178 0.930450
O O16 0.000000 0.726317 0.842571
#
# Coordination Sequence:
#
# PCOD8175405 Si02
#       7
#     8   8   8   8   8   8   8
#     4  10  20  36  61  90 121 165 216 267 316 373
#     4  10  22  39  59  88 128 171 215 257 312 392
#     4  12  25  43  67  97 129 167 219 276 339 399
#     4  10  21  40  63  91 125 162 210 270 329 387
#     4  11  24  43  63  95 134 174 216 265 333 393
#     4  11  24  44  71  99 127 171 224 282 335 393
#     4  10  23  43  66  96 134 174 218 269 329 393
#
# _framework density 21.353639999999999
#
# number of rings (size 3 to 8) (size 9 to 14) (size 15 to 20)
#    0.000    1.429    1.429    3.429    2.000    5.143 
#    5.143    0.000    0.000    0.000    0.000    0.000 
#    0.000    0.000    0.000    0.000    0.000    0.000 
#
# Total GULP energy -347045.139127 kJ/mol
# GULP energy per Si atom -12394.469255 kJ/mol
# Density = 2.130504 g / cm^3
# Si number density = 21.353640 Si / 1000 Ang^3
#
#
#
# Elastic Constant Matrix: (Units=GPa)
#
#
# Indices 1 2 3 4 5 6 
#
# 1 76.3013 27.1527 11.4887 0.0000 0.0000 0.0000
# 2 27.1527 108.2288 34.0328 0.0000 0.0000 0.0000
# 3 11.4887 34.0328 111.9183 0.0000 0.0000 0.0000
# 4 0.0000 0.0000 0.0000 42.4271 0.0000 0.0000
# 5 0.0000 0.0000 0.0000 0.0000 14.4235 0.0000
# 6 0.0000 0.0000 0.0000 0.0000 0.0000 24.9643
#
#
#
# Elastic Compliance Matrix: (Units=1/GPa)
#
#
# Indices 1 2 3 4 5 6 
#
# 1 0.014409 -0.003483 -0.000420 0.000000 0.000000 0.000000
# 2 -0.003483 0.011058 -0.003005 0.000000 0.000000 0.000000
# 3 -0.000420 -0.003005 0.009892 0.000000 0.000000 0.000000
# 4 0.000000 0.000000 0.000000 0.023570 0.000000 0.000000
# 5 0.000000 0.000000 0.000000 0.000000 0.069331 0.000000
# 6 0.000000 0.000000 0.000000 0.000000 0.000000 0.040057
#
#
# Mechanical properties :
#
#
# Convention : Reuss Voigt Hill
#
# Bulk Modulus (GPa) = 46.41865 49.08854 47.75360
# Shear Modulus (GPa) = 26.41109 31.28125 28.84617
#
# Velocity S-wave (km/s) = 3.52069 3.83157 3.67942
# Velocity P-wave (km/s) = 6.18969 6.52785 6.36102
#
# Compressibility (1/GPa) = 0.02154306
#
# Stress axis : x y z
#
# Youngs Moduli (GPa) = 69.40310 90.42856 101.09127
#
# Poissons Ratio (x) = 0.31494 0.04246
# Poissons Ratio (y) = 0.24172 0.30380
# Poissons Ratio (z) = 0.02915 0.27176
#
# Static dielectric constant tensor:
#      x y z
#    x 3.671130 0.000000 0.000000 
#    y 0.000000 3.826940 0.000000 
#    z 0.000000 0.000000 3.958410 
# 
# 
# High freq. dielectric constant tensor:
#      x y z
#    x 1.816690 0.000000 0.000000 
#    y 0.000000 1.839540 0.000000 
#    z 0.000000 0.000000 1.855880 
# 
# From -- ./inp_files/5209.got.cif
#   From: 2010.03.12/outbox.cif.g09.slc.cpg/sg36_3_cif.got.tgz:5209.got - 2010.04.14 02:13:53.
