data_PCOD8175959
_publ_section_title
;
Structure prediction by ZEFSAII (Michael W. Deem and Ramdas Pophale) SiO2 
 PCOD8175959
Probable space group: C M C 21
;
_chemical_formula_sum "Si O2"
_cell_formula_units_Z 56
_cell_length_a 20.199086
_cell_length_b 13.142317
_cell_length_c 9.853743
_cell_angle_alpha 90.000000
_cell_angle_beta 90.000000
_cell_angle_gamma 90.000000
_cell_volume 2615.802122
_symmetry_space_group_name_H-M "C M C 21"
_symmetry_group_IT_number 36
_symmetry_cell_setting 'orthorhombic'
loop_
_space_group_symop_operation_xyz
x,y,z
-x,-y,1/2+z
x,-y,1/2+z
-x,y,z
1/2+x,1/2+y,z
1/2-x,1/2-y,1/2+z
1/2+x,1/2-y,1/2+z
1/2-x,1/2+y,z
loop_
_atom_site_type_symbol
_atom_site_label
_atom_site_fract_x
_atom_site_fract_y
_atom_site_fract_z
Si Si1 0.640731 0.094985 0.511820
Si Si2 0.131946 0.644658 0.987664
Si Si3 0.575065 0.413196 0.361343
Si Si4 0.000000 0.575289 0.573110
Si Si5 0.188083 0.727832 0.738183
Si Si6 0.164200 0.270282 0.762970
Si Si7 0.075688 0.892976 0.674277
Si Si8 0.500000 0.110614 0.879024
O O1 0.564926 0.135966 0.525826
O O2 0.678483 0.126656 0.647908
O O3 0.670291 0.146170 0.379521
O O4 0.645543 0.974764 0.496403
O O5 0.121760 0.689514 0.136536
O O6 0.188797 0.698240 0.898061
O O7 0.066797 0.674747 0.898625
O O8 0.500000 0.374470 0.330861
O O9 0.630136 0.331987 0.315921
O O10 0.583562 0.435469 0.521332
O O11 0.588934 0.516400 0.279721
O O12 0.000000 0.465903 0.505194
O O13 0.000000 0.554950 0.734375
O O14 0.261908 0.762575 0.704649
O O15 0.132183 0.809633 0.699205
O O16 0.000000 0.849219 0.694130
#
# Coordination Sequence:
#
# PCOD8175959 Si02
#       8
#     8   8   8   4   8   8   8   4
#     4  11  24  45  70  97 141 178 221 275 349 413
#     4  11  26  41  68 102 139 179 220 277 343 415
#     4  10  24  47  72 101 132 177 234 289 343 397
#     4  10  22  38  68  96 131 174 219 267 333 414
#     4  12  25  46  67 102 137 181 235 278 347 410
#     4  12  27  44  67 104 135 182 234 282 340 412
#     4  10  24  46  75  99 132 179 232 289 343 399
#     4  10  22  40  62 102 131 170 223 263 335 410
#
# _framework density 21.408346000000002
#
# number of rings (size 3 to 8) (size 9 to 14) (size 15 to 20)
#    0.000    1.143    2.857    1.714   12.000    2.286 
#    0.000    0.000    0.000    0.000    0.000    0.000 
#    0.000    0.000    0.000    0.000    0.000    0.000 
#
# Total GULP energy -347143.705324 kJ/mol
# GULP energy per Si atom -12397.989476 kJ/mol
# Density = 2.135962 g / cm^3
# Si number density = 21.408346 Si / 1000 Ang^3
#
#
#
# Elastic Constant Matrix: (Units=GPa)
#
#
# Indices 1 2 3 4 5 6 
#
# 1 111.4434 43.8791 31.2646 0.0000 0.0000 0.0000
# 2 43.8791 77.4169 40.0422 0.0000 0.0000 0.0000
# 3 31.2646 40.0422 97.5981 0.0000 0.0000 0.0000
# 4 0.0000 0.0000 0.0000 45.6286 0.0000 0.0000
# 5 0.0000 0.0000 0.0000 0.0000 28.5935 0.0000
# 6 0.0000 0.0000 0.0000 0.0000 0.0000 16.2015
#
#
#
# Elastic Compliance Matrix: (Units=1/GPa)
#
#
# Indices 1 2 3 4 5 6 
#
# 1 0.011680 -0.005947 -0.001302 0.000000 0.000000 0.000000
# 2 -0.005947 0.019424 -0.006064 0.000000 0.000000 0.000000
# 3 -0.001302 -0.006064 0.013151 0.000000 0.000000 0.000000
# 4 0.000000 0.000000 0.000000 0.021916 0.000000 0.000000
# 5 0.000000 0.000000 0.000000 0.000000 0.034973 0.000000
# 6 0.000000 0.000000 0.000000 0.000000 0.000000 0.061723
#
#
# Mechanical properties :
#
#
# Convention : Reuss Voigt Hill
#
# Bulk Modulus (GPa) = 56.72256 57.42557 57.07407
# Shear Modulus (GPa) = 25.59262 29.50289 27.54775
#
# Velocity S-wave (km/s) = 3.46128 3.71631 3.59106
# Velocity P-wave (km/s) = 6.52127 6.73029 6.62660
#
# Compressibility (1/GPa) = 0.01762967
#
# Stress axis : x y z
#
# Youngs Moduli (GPa) = 85.61821 51.48207 76.03894
#
# Poissons Ratio (x) = 0.30615 0.09898
# Poissons Ratio (y) = 0.50914 0.46113
# Poissons Ratio (z) = 0.11145 0.31221
#
# Static dielectric constant tensor:
#      x y z
#    x 4.290290 0.000000 0.000000 
#    y 0.000000 3.605750 0.000000 
#    z 0.000000 0.000000 4.066070 
# 
# 
# High freq. dielectric constant tensor:
#      x y z
#    x 1.845680 0.000000 0.000000 
#    y 0.000000 1.824620 0.000000 
#    z 0.000000 0.000000 1.863830 
# 
# From -- ./inp_files/5254.got.cif
#   From: 2010.03.12/outbox.cif.g09.slc.cpg/sg36_3_cif.got.tgz:5254.got - 2010.04.14 02:13:53.
