data_PCOD8175129
_publ_section_title
;
Structure prediction by ZEFSAII (Michael W. Deem and Ramdas Pophale) SiO2 
 PCOD8175129
Probable space group: C M C 21
;
_chemical_formula_sum "Si O2"
_cell_formula_units_Z 40
_cell_length_a 7.792207
_cell_length_b 28.519723
_cell_length_c 9.453183
_cell_angle_alpha 90.000000
_cell_angle_beta 90.000000
_cell_angle_gamma 90.000000
_cell_volume 2100.795843
_symmetry_space_group_name_H-M "C M C 21"
_symmetry_group_IT_number 36
_symmetry_cell_setting 'orthorhombic'
loop_
_space_group_symop_operation_xyz
x,y,z
-x,-y,1/2+z
x,-y,1/2+z
-x,y,z
1/2+x,1/2+y,z
1/2-x,1/2-y,1/2+z
1/2+x,1/2-y,1/2+z
1/2-x,1/2+y,z
loop_
_atom_site_type_symbol
_atom_site_label
_atom_site_fract_x
_atom_site_fract_y
_atom_site_fract_z
Si Si1 0.500000 0.535292 0.660610
Si Si2 0.800362 0.701353 0.763405
Si Si3 0.192359 0.622322 0.371690
Si Si4 0.189446 0.598669 0.700040
Si Si5 0.000000 0.942209 0.829755
Si Si6 0.196058 0.280708 0.958902
O O1 0.332062 0.559495 0.728866
O O2 0.500000 0.482166 0.711767
O O3 0.500000 0.537641 0.489940
O O4 0.765556 0.646036 0.787228
O O5 0.716453 0.718453 0.614303
O O6 0.712691 0.730048 0.889192
O O7 0.000000 0.713363 0.771081
O O8 0.186882 0.611805 0.536979
O O9 0.329521 0.588264 0.297867
O O10 0.260968 0.676362 0.358188
O O11 0.000000 0.614972 0.306167
O O12 0.000000 0.579866 0.745287
O O13 0.000000 0.293693 0.988280
#
# Coordination Sequence:
#
# PCOD8175129 Si02
#       6
#     4   8   8   8   4   8
#     4  10  20  34  54  76  96 128 168 208 255 298
#     4   9  18  31  48  73 101 131 168 206 244 293
#     4   8  16  32  51  71  98 131 168 203 240 298
#     4   8  16  32  51  71  98 131 168 203 240 298
#     4  10  20  34  54  76  96 128 168 208 255 298
#     4   9  18  31  48  73 101 131 168 206 244 293
#
# _framework density 19.040403999999999
#
# number of rings (size 3 to 8) (size 9 to 14) (size 15 to 20)
#    0.000    3.200    0.000    2.400    2.800    1.600 
#    0.000    2.000    0.000    2.400    0.000    0.000 
#    0.000    0.000    0.000    0.000    0.000    0.000 
#
# Total GULP energy -247818.786296 kJ/mol
# GULP energy per Si atom -12390.939315 kJ/mol
# Density = 1.899707 g / cm^3
# Si number density = 19.040404 Si / 1000 Ang^3
#
#
#
# Elastic Constant Matrix: (Units=GPa)
#
#
# Indices 1 2 3 4 5 6 
#
# 1 77.8883 15.2626 -1.5498 0.0000 0.0000 0.0000
# 2 15.2626 33.8610 -8.4757 0.0000 0.0000 0.0000
# 3 -1.5498 -8.4757 19.1418 0.0000 0.0000 0.0000
# 4 0.0000 0.0000 0.0000 33.2201 0.0000 0.0000
# 5 0.0000 0.0000 0.0000 0.0000 12.8191 0.0000
# 6 0.0000 0.0000 0.0000 0.0000 0.0000 33.9201
#
#
#
# Elastic Compliance Matrix: (Units=1/GPa)
#
#
# Indices 1 2 3 4 5 6 
#
# 1 0.014143 -0.006847 -0.001887 0.000000 0.000000 0.000000
# 2 -0.006847 0.036529 0.015620 0.000000 0.000000 0.000000
# 3 -0.001887 0.015620 0.059005 0.000000 0.000000 0.000000
# 4 0.000000 0.000000 0.000000 0.030102 0.000000 0.000000
# 5 0.000000 0.000000 0.000000 0.000000 0.078009 0.000000
# 6 0.000000 0.000000 0.000000 0.000000 0.000000 0.029481
#
#
# Mechanical properties :
#
#
# Convention : Reuss Voigt Hill
#
# Bulk Modulus (GPa) = 8.10050 15.70725 11.90387
# Shear Modulus (GPa) = 18.20520 24.36878 21.28699
#
# Velocity S-wave (km/s) = 3.09550 3.58137 3.34726
# Velocity P-wave (km/s) = 4.12792 5.03676 4.60482
#
# Compressibility (1/GPa) = 0.12344921
#
# Stress axis : x y z
#
# Youngs Moduli (GPa) = 70.70590 27.37580 16.94762
#
# Poissons Ratio (x) = 0.18745 0.03198
# Poissons Ratio (y) = 0.48413 -0.26472
# Poissons Ratio (z) = 0.13340 -0.42761
#
# Static dielectric constant tensor:
#      x y z
#    x 3.764070 0.000000 0.000000 
#    y 0.000000 3.476440 0.000000 
#    z 0.000000 0.000000 2.987950 
# 
# 
# High freq. dielectric constant tensor:
#      x y z
#    x 1.744480 0.000000 0.000000 
#    y 0.000000 1.735840 0.000000 
#    z 0.000000 0.000000 1.687920 
# 
# From -- ./inp_files/2446.got.cif
#   From: 2010.03.12/outbox.cif.g09.slc.cpg/sg36_2_cif.got.tgz:2446.got - 2010.04.14 02:13:53.
