data_PCOD8175059
_publ_section_title
;
Structure prediction by ZEFSAII (Michael W. Deem and Ramdas Pophale) SiO2 
 PCOD8175059
Probable space group: C M C 21
;
_chemical_formula_sum "Si O2"
_cell_formula_units_Z 64
_cell_length_a 9.263690
_cell_length_b 27.657120
_cell_length_c 14.109737
_cell_angle_alpha 90.000000
_cell_angle_beta 90.000000
_cell_angle_gamma 90.000000
_cell_volume 3615.013190
_symmetry_space_group_name_H-M "C M C 21"
_symmetry_group_IT_number 36
_symmetry_cell_setting 'orthorhombic'
loop_
_space_group_symop_operation_xyz
x,y,z
-x,-y,1/2+z
x,-y,1/2+z
-x,y,z
1/2+x,1/2+y,z
1/2-x,1/2-y,1/2+z
1/2+x,1/2-y,1/2+z
1/2-x,1/2+y,z
loop_
_atom_site_type_symbol
_atom_site_label
_atom_site_fract_x
_atom_site_fract_y
_atom_site_fract_z
Si Si1 0.168497 0.759919 0.569620
Si Si2 0.830464 0.324197 0.927670
Si Si3 0.333161 0.510891 0.068248
Si Si4 0.668911 0.260947 0.785605
Si Si5 0.666830 0.178180 0.928983
Si Si6 0.332736 0.496875 0.784132
Si Si7 0.330291 0.067619 0.914291
Si Si8 0.163939 0.920761 0.941597
O O1 0.209407 0.710624 0.515308
O O2 0.220574 0.754948 0.677664
O O3 0.246402 0.805462 0.521809
O O4 0.000000 0.770365 0.563682
O O5 0.754521 0.305421 0.832133
O O6 0.773655 0.376985 0.953783
O O7 0.000000 0.326615 0.909329
O O8 0.500000 0.525825 0.055164
O O9 0.284521 0.512608 0.176960
O O10 0.236192 0.549299 0.012832
O O11 0.307680 0.457131 0.028438
O O12 0.500000 0.272873 0.792286
O O13 0.707996 0.211216 0.838971
O O14 0.500000 0.183275 0.955075
O O15 0.707670 0.123775 0.902159
O O16 0.500000 0.512226 0.791151
O O17 0.238648 0.540589 0.824873
O O18 0.304427 0.448059 0.842903
O O19 0.500000 0.057735 0.915481
O O20 0.000000 0.901273 0.943565
#
# Coordination Sequence:
#
# PCOD8175059 Si02
#       8
#     8   8   8   8   8   8   8   8
#     4   9  19  34  52  73  96 128 169 206 241 288
#     4  10  20  33  50  75 103 128 161 205 248 290
#     4   9  19  36  55  74  99 133 172 210 246 291
#     4   9  18  35  54  70  96 133 167 200 243 293
#     4   9  19  34  51  73 102 132 161 200 249 297
#     4   9  19  36  55  74  99 133 172 210 246 291
#     4  10  20  33  51  77 105 132 164 204 254 304
#     4   9  18  33  52  74 100 131 166 201 245 298
#
# _framework density 17.703945999999998
#
# number of rings (size 3 to 8) (size 9 to 14) (size 15 to 20)
#    0.000    2.750    0.000    1.500    0.000    6.500 
#    0.000    5.000    0.000    0.000    0.000    0.000 
#    0.000    0.000    0.000    0.000    0.000    0.000 
#
# Total GULP energy -396884.294436 kJ/mol
# GULP energy per Si atom -12402.634201 kJ/mol
# Density = 1.766365 g / cm^3
# Si number density = 17.703946 Si / 1000 Ang^3
#
#
#
# Elastic Constant Matrix: (Units=GPa)
#
#
# Indices 1 2 3 4 5 6 
#
# 1 54.4505 28.4344 22.1640 0.0000 0.0000 0.0000
# 2 28.4344 58.2011 -0.1462 0.0000 0.0000 0.0000
# 3 22.1640 -0.1462 92.5938 0.0000 0.0000 0.0000
# 4 0.0000 0.0000 0.0000 12.4095 0.0000 0.0000
# 5 0.0000 0.0000 0.0000 0.0000 25.3447 0.0000
# 6 0.0000 0.0000 0.0000 0.0000 0.0000 33.1761
#
#
#
# Elastic Compliance Matrix: (Units=1/GPa)
#
#
# Indices 1 2 3 4 5 6 
#
# 1 0.028394 -0.013889 -0.006818 0.000000 0.000000 0.000000
# 2 -0.013889 0.023976 0.003362 0.000000 0.000000 0.000000
# 3 -0.006818 0.003362 0.012437 0.000000 0.000000 0.000000
# 4 0.000000 0.000000 0.000000 0.080583 0.000000 0.000000
# 5 0.000000 0.000000 0.000000 0.000000 0.039456 0.000000
# 6 0.000000 0.000000 0.000000 0.000000 0.000000 0.030142
#
#
# Mechanical properties :
#
#
# Convention : Reuss Voigt Hill
#
# Bulk Modulus (GPa) = 33.20416 34.01665 33.61040
# Shear Modulus (GPa) = 19.25173 24.50562 21.87868
#
# Velocity S-wave (km/s) = 3.30119 3.72451 3.51922
# Velocity P-wave (km/s) = 5.77291 6.14425 5.96147
#
# Compressibility (1/GPa) = 0.03011671
#
# Stress axis : x y z
#
# Youngs Moduli (GPa) = 35.21921 41.70882 80.40346
#
# Poissons Ratio (x) = 0.57929 0.54823
# Poissons Ratio (y) = 0.48916 -0.27035
# Poissons Ratio (z) = 0.24014 -0.14024
#
# Static dielectric constant tensor:
#      x y z
#    x 3.250060 0.000000 0.000000 
#    y 0.000000 3.203300 0.000000 
#    z 0.000000 0.000000 3.417030 
# 
# 
# High freq. dielectric constant tensor:
#      x y z
#    x 1.684060 0.000000 0.000000 
#    y 0.000000 1.681600 0.000000 
#    z 0.000000 0.000000 1.687240 
# 
# From -- ./inp_files/11203.got.cif
#   From: 2010.03.12/outbox.cif.g09.slc.cpg/sg36_6_cif.got.tgz:11203.got - 2010.04.14 02:13:53.
