data_PCOD8175287
_publ_section_title
;
Structure prediction by ZEFSAII (Michael W. Deem and Ramdas Pophale) SiO2 
 PCOD8175287
Probable space group: C M C 21
;
_chemical_formula_sum "Si O2"
_cell_formula_units_Z 48
_cell_length_a 8.889422
_cell_length_b 18.843734
_cell_length_c 15.211316
_cell_angle_alpha 90.000000
_cell_angle_beta 90.000000
_cell_angle_gamma 90.000000
_cell_volume 2548.046077
_symmetry_space_group_name_H-M "C M C 21"
_symmetry_group_IT_number 36
_symmetry_cell_setting 'orthorhombic'
loop_
_space_group_symop_operation_xyz
x,y,z
-x,-y,1/2+z
x,-y,1/2+z
-x,y,z
1/2+x,1/2+y,z
1/2-x,1/2-y,1/2+z
1/2+x,1/2-y,1/2+z
1/2-x,1/2+y,z
loop_
_atom_site_type_symbol
_atom_site_label
_atom_site_fract_x
_atom_site_fract_y
_atom_site_fract_z
Si Si1 0.325090 0.427070 0.920560
Si Si2 0.677890 0.832296 0.262004
Si Si3 0.176706 0.824291 0.571283
Si Si4 0.822968 0.577585 0.928916
Si Si5 0.675748 0.325813 0.770341
Si Si6 0.673798 0.324173 0.082271
O O1 0.500000 0.447094 0.906401
O O2 0.225815 0.496732 0.927164
O O3 0.255936 0.381975 0.839076
O O4 0.302123 0.383255 0.009031
O O5 0.500000 0.831641 0.245709
O O6 0.727160 0.886308 0.337663
O O7 0.736761 0.753699 0.288331
O O8 0.755696 0.855709 0.171405
O O9 0.242659 0.884211 0.509328
O O10 0.214447 0.848358 0.670887
O O11 0.247600 0.748005 0.550385
O O12 0.000000 0.817706 0.556504
O O13 0.000000 0.584195 0.942731
O O14 0.500000 0.324630 0.788745
O O15 0.500000 0.306874 0.097586
#
# Coordination Sequence:
#
# PCOD8175287 Si02
#       6
#     8   8   8   8   8   8
#     4  10  21  37  55  77 110 148 182 219 270 330
#     4   9  19  37  58  79 106 142 183 230 280 324
#     4  10  20  36  59  84 110 143 182 225 275 327
#     4  11  23  37  54  79 112 147 184 227 274 323
#     4   8  16  34  58  78 100 136 179 220 266 322
#     4  10  20  35  58  85 110 142 184 227 271 324
#
# _framework density 18.837963999999999
#
# number of rings (size 3 to 8) (size 9 to 14) (size 15 to 20)
#    0.000    2.333    0.000    3.500    0.000    6.667 
#    0.000    9.167    0.000    0.000    0.000    0.000 
#    0.000    0.000    0.000    0.000    0.000    0.000 
#
# Total GULP energy -297627.840703 kJ/mol
# GULP energy per Si atom -12401.160029 kJ/mol
# Density = 1.879509 g / cm^3
# Si number density = 18.837964 Si / 1000 Ang^3
#
#
#
# Elastic Constant Matrix: (Units=GPa)
#
#
# Indices 1 2 3 4 5 6 
#
# 1 68.8845 46.3301 54.0238 0.0000 0.0000 0.0000
# 2 46.3301 113.7041 72.3421 0.0000 0.0000 0.0000
# 3 54.0238 72.3421 122.9816 0.0000 0.0000 0.0000
# 4 0.0000 0.0000 0.0000 12.5985 0.0000 0.0000
# 5 0.0000 0.0000 0.0000 0.0000 28.8023 0.0000
# 6 0.0000 0.0000 0.0000 0.0000 0.0000 29.2074
#
#
#
# Elastic Compliance Matrix: (Units=1/GPa)
#
#
# Indices 1 2 3 4 5 6 
#
# 1 0.023710 -0.004849 -0.007563 0.000000 0.000000 0.000000
# 2 -0.004849 0.015047 -0.006721 0.000000 0.000000 0.000000
# 3 -0.007563 -0.006721 0.015407 0.000000 0.000000 0.000000
# 4 0.000000 0.000000 0.000000 0.079374 0.000000 0.000000
# 5 0.000000 0.000000 0.000000 0.000000 0.034720 0.000000
# 6 0.000000 0.000000 0.000000 0.000000 0.000000 0.034238
#
#
# Mechanical properties :
#
#
# Convention : Reuss Voigt Hill
#
# Bulk Modulus (GPa) = 62.90204 72.32913 67.61559
# Shear Modulus (GPa) = 20.32025 22.97991 21.65008
#
# Velocity S-wave (km/s) = 3.28790 3.49646 3.39378
# Velocity P-wave (km/s) = 6.91934 7.40129 7.16437
#
# Compressibility (1/GPa) = 0.01589773
#
# Stress axis : x y z
#
# Youngs Moduli (GPa) = 42.17666 66.46043 64.90566
#
# Poissons Ratio (x) = 0.32227 0.49088
# Poissons Ratio (y) = 0.20452 0.43622
# Poissons Ratio (z) = 0.31898 0.44667
#
# Static dielectric constant tensor:
#      x y z
#    x 3.358060 0.000000 0.000000 
#    y 0.000000 3.512070 0.000000 
#    z 0.000000 0.000000 3.640240 
# 
# 
# High freq. dielectric constant tensor:
#      x y z
#    x 1.721240 0.000000 0.000000 
#    y 0.000000 1.729560 0.000000 
#    z 0.000000 0.000000 1.745500 
# 
# From -- ./inp_files/10352.got.cif
#   From: 2010.03.12/outbox.cif.g09.slc.cpg/sg36_6_cif.got.tgz:10352.got - 2010.04.14 02:13:53.
