data_PCOD8175301
_publ_section_title
;
Structure prediction by ZEFSAII (Michael W. Deem and Ramdas Pophale) SiO2 
 PCOD8175301
Probable space group: C M C 21
;
_chemical_formula_sum "Si O2"
_cell_formula_units_Z 64
_cell_length_a 8.666924
_cell_length_b 19.811808
_cell_length_c 19.549343
_cell_angle_alpha 90.000000
_cell_angle_beta 90.000000
_cell_angle_gamma 90.000000
_cell_volume 3356.767528
_symmetry_space_group_name_H-M "C M C 21"
_symmetry_group_IT_number 36
_symmetry_cell_setting 'orthorhombic'
loop_
_space_group_symop_operation_xyz
x,y,z
-x,-y,1/2+z
x,-y,1/2+z
-x,y,z
1/2+x,1/2+y,z
1/2-x,1/2-y,1/2+z
1/2+x,1/2-y,1/2+z
1/2-x,1/2+y,z
loop_
_atom_site_type_symbol
_atom_site_label
_atom_site_fract_x
_atom_site_fract_y
_atom_site_fract_z
Si Si1 0.822025 0.911812 0.345050
Si Si2 0.178338 0.917345 0.953345
Si Si3 0.820860 0.281896 0.983004
Si Si4 0.321014 0.825955 0.582017
Si Si5 0.177327 0.062218 0.999019
Si Si6 0.179259 0.839882 0.726605
Si Si7 0.179667 0.453426 0.810948
Si Si8 0.677735 0.739710 0.830502
O O1 0.774927 0.910055 0.424577
O O2 0.792197 0.838715 0.312208
O O3 0.000000 0.933848 0.339533
O O4 0.721770 0.967498 0.305287
O O5 0.227136 0.851101 0.994972
O O6 0.278689 0.922758 0.884716
O O7 0.000000 0.914261 0.931228
O O8 0.207488 0.981851 0.002156
O O9 0.779716 0.251083 0.909388
O O10 0.000000 0.298407 0.989878
O O11 0.775337 0.228897 0.040462
O O12 0.500000 0.810836 0.572228
O O13 0.281887 0.901200 0.555412
O O14 0.277904 0.819586 0.660967
O O15 0.000000 0.079981 0.014880
O O16 0.228479 0.913763 0.752358
O O17 0.210680 0.784650 0.784915
O O18 0.000000 0.840486 0.707767
O O19 0.000000 0.442987 0.797995
O O20 0.500000 0.759442 0.816398
#
# Coordination Sequence:
#
# PCOD8175301 Si02
#       8
#     8   8   8   8   8   8   8   8
#     4   9  18  35  59  86 118 152 189 236 291 347
#     4  10  20  35  58  88 119 152 193 241 292 346
#     4  11  21  37  61  89 122 157 196 247 299 349
#     4  12  25  40  60  86 120 158 202 247 298 361
#     4   9  18  36  58  84 118 153 192 237 293 349
#     4  12  25  41  61  84 118 160 203 245 300 362
#     4  11  21  35  56  86 120 151 192 243 292 345
#     4  10  20  37  61  89 121 155 195 246 299 351
#
# _framework density 19.065961000000001
#
# number of rings (size 3 to 8) (size 9 to 14) (size 15 to 20)
#    0.000    1.500    2.500    4.875    0.000    3.500 
#    0.000    1.250    0.000    7.500    0.000    0.000 
#    0.000    0.000    0.000    0.000    0.000    0.000 
#
# Total GULP energy -396949.392298 kJ/mol
# GULP energy per Si atom -12404.668509 kJ/mol
# Density = 1.902257 g / cm^3
# Si number density = 19.065961 Si / 1000 Ang^3
#
#
#
# Elastic Constant Matrix: (Units=GPa)
#
#
# Indices 1 2 3 4 5 6 
#
# 1 67.8931 31.0472 13.8854 0.0000 0.0000 0.0000
# 2 31.0472 107.9017 21.3666 0.0000 0.0000 0.0000
# 3 13.8854 21.3666 57.0346 0.0000 0.0000 0.0000
# 4 0.0000 0.0000 0.0000 22.4454 0.0000 0.0000
# 5 0.0000 0.0000 0.0000 0.0000 28.2840 0.0000
# 6 0.0000 0.0000 0.0000 0.0000 0.0000 33.2758
#
#
#
# Elastic Compliance Matrix: (Units=1/GPa)
#
#
# Indices 1 2 3 4 5 6 
#
# 1 0.017293 -0.004474 -0.002534 0.000000 0.000000 0.000000
# 2 -0.004474 0.011168 -0.003094 0.000000 0.000000 0.000000
# 3 -0.002534 -0.003094 0.019309 0.000000 0.000000 0.000000
# 4 0.000000 0.000000 0.000000 0.044553 0.000000 0.000000
# 5 0.000000 0.000000 0.000000 0.000000 0.035356 0.000000
# 6 0.000000 0.000000 0.000000 0.000000 0.000000 0.030052
#
#
# Mechanical properties :
#
#
# Convention : Reuss Voigt Hill
#
# Bulk Modulus (GPa) = 36.27760 40.60310 38.44035
# Shear Modulus (GPa) = 26.72021 27.90307 27.31164
#
# Velocity S-wave (km/s) = 3.74767 3.82972 3.78892
# Velocity P-wave (km/s) = 6.14780 6.39516 6.27270
#
# Compressibility (1/GPa) = 0.02756522
#
# Stress axis : x y z
#
# Youngs Moduli (GPa) = 57.82591 89.54292 51.78822
#
# Poissons Ratio (x) = 0.40063 0.13123
# Poissons Ratio (y) = 0.25872 0.16026
# Poissons Ratio (z) = 0.14653 0.27709
#
# Static dielectric constant tensor:
#      x y z
#    x 3.437310 0.000000 0.000000 
#    y 0.000000 3.682720 0.000000 
#    z 0.000000 0.000000 3.203260 
# 
# 
# High freq. dielectric constant tensor:
#      x y z
#    x 1.744780 0.000000 0.000000 
#    y 0.000000 1.756350 0.000000 
#    z 0.000000 0.000000 1.708980 
# 
# From -- ./inp_files/13888.got.cif
#   From: 2010.03.12/outbox.cif.g09.slc.cpg/sg36_7_cif.got.tgz:13888.got - 2010.04.14 02:13:53.
