data_PCOD8175897
_publ_section_title
;
Structure prediction by ZEFSAII (Michael W. Deem and Ramdas Pophale) SiO2 
 PCOD8175897
Probable space group: C M C 21
;
_chemical_formula_sum "Si O2"
_cell_formula_units_Z 64
_cell_length_a 18.648253
_cell_length_b 9.237334
_cell_length_c 18.271345
_cell_angle_alpha 90.000000
_cell_angle_beta 90.000000
_cell_angle_gamma 90.000000
_cell_volume 3147.424475
_symmetry_space_group_name_H-M "C M C 21"
_symmetry_group_IT_number 36
_symmetry_cell_setting 'orthorhombic'
loop_
_space_group_symop_operation_xyz
x,y,z
-x,-y,1/2+z
x,-y,1/2+z
-x,y,z
1/2+x,1/2+y,z
1/2-x,1/2-y,1/2+z
1/2+x,1/2-y,1/2+z
1/2-x,1/2+y,z
loop_
_atom_site_type_symbol
_atom_site_label
_atom_site_fract_x
_atom_site_fract_y
_atom_site_fract_z
Si Si1 0.330100 0.637570 0.900240
Si Si2 0.702170 0.019435 0.689705
Si Si3 0.417885 0.846893 0.430900
Si Si4 0.918968 0.216090 0.039039
Si Si5 0.916654 0.088863 0.325746
Si Si6 0.338026 0.658192 0.177438
Si Si7 0.196105 0.540639 0.360184
Si Si8 0.080788 0.456030 0.582728
O O1 0.390888 0.572016 0.846632
O O2 0.263697 0.526690 0.902989
O O3 0.301365 0.787192 0.867883
O O4 0.362819 0.656626 0.980368
O O5 0.778441 0.962478 0.661597
O O6 0.636610 0.936845 0.648957
O O7 0.700801 0.187792 0.670902
O O8 0.696742 0.994746 0.775289
O O9 0.500000 0.886836 0.416304
O O10 0.398515 0.693356 0.394427
O O11 0.375935 0.978564 0.394324
O O12 0.402719 0.839270 0.518389
O O13 0.899766 0.143074 0.116693
O O14 0.912038 0.388337 0.044193
O O15 0.000000 0.170168 0.018031
O O16 0.873272 0.146094 0.256623
O O17 0.000000 0.086435 0.306145
O O18 0.000000 0.435575 0.614122
#
# Coordination Sequence:
#
# PCOD8175897 Si02
#       8
#     8   8   8   8   8   8   8   8
#     4  12  25  40  65  93 128 167 211 268 315 380
#     4  11  23  41  64  93 128 165 208 259 316 380
#     4  10  21  40  66  94 125 163 211 261 316 379
#     4  10  22  41  64  92 125 164 213 261 318 379
#     4  11  23  42  65  92 127 170 215 263 321 379
#     4  11  23  41  64  92 124 170 207 263 313 387
#     4  12  23  40  64  95 129 164 207 261 318 377
#     4   9  20  41  66  95 126 163 210 262 315 381
#
# _framework density 20.334087
#
# number of rings (size 3 to 8) (size 9 to 14) (size 15 to 20)
#    0.000    1.250    3.750    2.250    1.750    1.500 
#    2.250    0.000    0.000    0.000    0.000    0.000 
#    0.000    0.000    0.000    0.000    0.000    0.000 
#
# Total GULP energy -396897.118504 kJ/mol
# GULP energy per Si atom -12403.034953 kJ/mol
# Density = 2.028781 g / cm^3
# Si number density = 20.334087 Si / 1000 Ang^3
#
#
#
# Elastic Constant Matrix: (Units=GPa)
#
#
# Indices 1 2 3 4 5 6 
#
# 1 125.5084 44.4091 48.2258 0.0000 0.0000 0.0000
# 2 44.4091 75.8674 14.6665 0.0000 0.0000 0.0000
# 3 48.2258 14.6665 98.6210 0.0000 0.0000 0.0000
# 4 0.0000 0.0000 0.0000 14.6417 0.0000 0.0000
# 5 0.0000 0.0000 0.0000 0.0000 40.1130 0.0000
# 6 0.0000 0.0000 0.0000 0.0000 0.0000 34.1751
#
#
#
# Elastic Compliance Matrix: (Units=1/GPa)
#
#
# Indices 1 2 3 4 5 6 
#
# 1 0.012033 -0.006081 -0.004980 0.000000 0.000000 0.000000
# 2 -0.006081 0.016644 0.000498 0.000000 0.000000 0.000000
# 3 -0.004980 0.000498 0.012501 0.000000 0.000000 0.000000
# 4 0.000000 0.000000 0.000000 0.068298 0.000000 0.000000
# 5 0.000000 0.000000 0.000000 0.000000 0.024930 0.000000
# 6 0.000000 0.000000 0.000000 0.000000 0.000000 0.029261
#
#
# Mechanical properties :
#
#
# Convention : Reuss Voigt Hill
#
# Bulk Modulus (GPa) = 49.86755 57.17774 53.52264
# Shear Modulus (GPa) = 26.11318 30.63233 28.37276
#
# Velocity S-wave (km/s) = 3.58747 3.88551 3.73946
# Velocity P-wave (km/s) = 6.46044 6.95053 6.70996
#
# Compressibility (1/GPa) = 0.02005312
#
# Stress axis : x y z
#
# Youngs Moduli (GPa) = 83.10818 60.08220 79.99502
#
# Poissons Ratio (x) = 0.36534 0.39835
# Poissons Ratio (y) = 0.50535 -0.03985
# Poissons Ratio (z) = 0.41385 -0.02993
#
# Static dielectric constant tensor:
#      x y z
#    x 3.960000 0.000000 0.000000 
#    y 0.000000 3.707520 0.000000 
#    z 0.000000 0.000000 3.724320 
# 
# 
# High freq. dielectric constant tensor:
#      x y z
#    x 1.808810 0.000000 0.000000 
#    y 0.000000 1.784570 0.000000 
#    z 0.000000 0.000000 1.797080 
# 
# From -- ./inp_files/15054.got.cif
#   From: 2010.03.12/outbox.cif.g09.slc.cpg/sg36_8_cif.got.tgz:15054.got - 2010.04.14 02:13:53.
