data_PCOD8175838
_publ_section_title
;
Structure prediction by ZEFSAII (Michael W. Deem and Ramdas Pophale) SiO2 
 PCOD8175838
Probable space group: C M C 21
;
_chemical_formula_sum "Si O2"
_cell_formula_units_Z 64
_cell_length_a 8.520569
_cell_length_b 15.406968
_cell_length_c 23.960084
_cell_angle_alpha 90.000000
_cell_angle_beta 90.000000
_cell_angle_gamma 90.000000
_cell_volume 3145.387196
_symmetry_space_group_name_H-M "C M C 21"
_symmetry_group_IT_number 36
_symmetry_cell_setting 'orthorhombic'
loop_
_space_group_symop_operation_xyz
x,y,z
-x,-y,1/2+z
x,-y,1/2+z
-x,y,z
1/2+x,1/2+y,z
1/2-x,1/2-y,1/2+z
1/2+x,1/2-y,1/2+z
1/2-x,1/2+y,z
loop_
_atom_site_type_symbol
_atom_site_label
_atom_site_fract_x
_atom_site_fract_y
_atom_site_fract_z
Si Si1 0.684083 0.343686 0.565580
Si Si2 0.813469 0.000605 0.641845
Si Si3 0.185116 0.163080 0.570455
Si Si4 0.183357 0.153738 0.844331
Si Si5 0.818363 0.097912 0.449052
Si Si6 0.820797 0.651264 0.335212
Si Si7 0.318545 0.911179 0.454620
Si Si8 0.183618 0.000509 0.766111
O O1 0.500000 0.353966 0.553858
O O2 0.744760 0.414783 0.609806
O O3 0.724534 0.249230 0.590175
O O4 0.779696 0.354068 0.508486
O O5 0.741038 0.000122 0.704245
O O6 0.000000 0.000845 0.643573
O O7 0.752230 0.085284 0.609287
O O8 0.230437 0.142642 0.506736
O O9 0.000000 0.175917 0.577522
O O10 0.211121 0.248979 0.818208
O O11 0.281904 0.147387 0.900980
O O12 0.000000 0.138379 0.857538
O O13 0.250164 0.081870 0.801298
O O14 0.715132 0.139457 0.400440
O O15 0.000000 0.113217 0.435063
O O16 0.789904 0.995631 0.453723
O O17 0.715227 0.589872 0.297028
O O18 0.000000 0.625234 0.324562
O O19 0.500000 0.938357 0.454822
O O20 0.000000 0.012943 0.759903
#
# Coordination Sequence:
#
# PCOD8175838 Si02
#       8
#     8   8   8   8   8   8   8   8
#     4  11  22  39  61  88 122 157 195 242 295 353
#     4   9  20  40  62  84 115 158 204 244 292 350
#     4  10  21  39  62  89 120 155 197 242 292 353
#     4  10  22  39  60  87 120 157 195 238 296 353
#     4  11  21  37  61  87 119 158 192 234 297 358
#     4  11  23  38  58  90 123 153 193 245 294 346
#     4  12  23  36  60  91 121 153 194 242 295 354
#     4  10  21  40  64  84 112 161 206 243 293 351
#
# _framework density 20.347256000000002
#
# number of rings (size 3 to 8) (size 9 to 14) (size 15 to 20)
#    0.000    1.500    2.500    3.000    0.000    5.000 
#    0.000    3.125    0.000    0.000    0.000    0.000 
#    0.000    0.000    0.000    0.000    0.000    0.000 
#
# Total GULP energy -396950.310631 kJ/mol
# GULP energy per Si atom -12404.697207 kJ/mol
# Density = 2.030094 g / cm^3
# Si number density = 20.347256 Si / 1000 Ang^3
#
#
#
# Elastic Constant Matrix: (Units=GPa)
#
#
# Indices 1 2 3 4 5 6 
#
# 1 28.3080 14.8934 20.8660 0.0000 0.0000 0.0000
# 2 14.8934 151.8337 64.2752 0.0000 0.0000 0.0000
# 3 20.8660 64.2752 147.2213 0.0000 0.0000 0.0000
# 4 0.0000 0.0000 0.0000 13.3352 0.0000 0.0000
# 5 0.0000 0.0000 0.0000 0.0000 7.4904 0.0000
# 6 0.0000 0.0000 0.0000 0.0000 0.0000 31.3901
#
#
#
# Elastic Compliance Matrix: (Units=1/GPa)
#
#
# Indices 1 2 3 4 5 6 
#
# 1 0.039872 -0.001863 -0.004838 0.000000 0.000000 0.000000
# 2 -0.001863 0.008166 -0.003301 0.000000 0.000000 0.000000
# 3 -0.004838 -0.003301 0.008919 0.000000 0.000000 0.000000
# 4 0.000000 0.000000 0.000000 0.074990 0.000000 0.000000
# 5 0.000000 0.000000 0.000000 0.000000 0.133505 0.000000
# 6 0.000000 0.000000 0.000000 0.000000 0.000000 0.031857
#
#
# Mechanical properties :
#
#
# Convention : Reuss Voigt Hill
#
# Bulk Modulus (GPa) = 27.06102 58.60357 42.83230
# Shear Modulus (GPa) = 15.16846 25.59835 20.38341
#
# Velocity S-wave (km/s) = 2.73331 3.55078 3.16852
# Velocity P-wave (km/s) = 4.82595 6.75833 5.87217
#
# Compressibility (1/GPa) = 0.03695352
#
# Stress axis : x y z
#
# Youngs Moduli (GPa) = 25.08032 122.45236 112.11427
#
# Poissons Ratio (x) = 0.22814 0.54238
# Poissons Ratio (y) = 0.04673 0.37012
# Poissons Ratio (z) = 0.12133 0.40425
#
# Static dielectric constant tensor:
#      x y z
#    x 3.401480 0.000000 0.000000 
#    y 0.000000 3.789130 0.000000 
#    z 0.000000 0.000000 3.850460 
# 
# 
# High freq. dielectric constant tensor:
#      x y z
#    x 1.775690 0.000000 0.000000 
#    y 0.000000 1.809210 0.000000 
#    z 0.000000 0.000000 1.790960 
# 
# From -- ./inp_files/16550.got.cif
#   From: 2010.03.12/outbox.cif.g09.slc.cpg/sg36_9_cif.got.tgz:16550.got - 2010.04.14 02:13:53.
