data_PCOD8175120
_publ_section_title
;
Structure prediction by ZEFSAII (Michael W. Deem and Ramdas Pophale) SiO2 
 PCOD8175120
Probable space group: C M C 21
;
_chemical_formula_sum "Si O2"
_cell_formula_units_Z 48
_cell_length_a 8.852414
_cell_length_b 17.982374
_cell_length_c 16.414586
_cell_angle_alpha 90.000000
_cell_angle_beta 90.000000
_cell_angle_gamma 90.000000
_cell_volume 2612.995585
_symmetry_space_group_name_H-M "C M C 21"
_symmetry_group_IT_number 36
_symmetry_cell_setting 'orthorhombic'
loop_
_space_group_symop_operation_xyz
x,y,z
-x,-y,1/2+z
x,-y,1/2+z
-x,y,z
1/2+x,1/2+y,z
1/2-x,1/2-y,1/2+z
1/2+x,1/2-y,1/2+z
1/2-x,1/2+y,z
loop_
_atom_site_type_symbol
_atom_site_label
_atom_site_fract_x
_atom_site_fract_y
_atom_site_fract_z
Si Si1 0.833223 0.950948 0.792440
Si Si2 0.326823 0.172934 0.207053
Si Si3 0.321368 0.405641 0.380069
Si Si4 0.331544 0.451309 0.131799
Si Si5 0.322038 0.827944 0.228002
Si Si6 0.825183 0.578583 0.045587
O O1 0.716325 0.883477 0.780562
O O2 0.000000 0.918492 0.811994
O O3 0.779042 0.007593 0.862999
O O4 0.841954 0.999469 0.711663
O O5 0.500000 0.197205 0.218611
O O6 0.217567 0.242866 0.210962
O O7 0.299127 0.133565 0.120895
O O8 0.500000 0.393272 0.375589
O O9 0.246256 0.351338 0.314586
O O10 0.258862 0.384701 0.468752
O O11 0.500000 0.431991 0.099981
O O12 0.244200 0.375540 0.152914
O O13 0.243230 0.497000 0.062681
O O14 0.500000 0.839478 0.230719
O O15 0.000000 0.568606 0.025242
#
# Coordination Sequence:
#
# PCOD8175120 Si02
#       6
#     8   8   8   8   8   8
#     4   8  16  31  51  74  98 129 168 206 247 300
#     4  10  20  34  53  77 106 139 173 212 259 312
#     4  10  20  35  55  78 106 138 173 216 265 313
#     4   9  17  32  53  75 101 133 170 209 252 305
#     4  11  21  34  54  78 106 139 176 217 260 312
#     4  10  20  34  54  80 107 136 174 218 263 310
#
# _framework density 18.369720999999998
#
# number of rings (size 3 to 8) (size 9 to 14) (size 15 to 20)
#    0.000    2.333    0.000    4.500    0.000    6.667 
#    0.000    1.667    0.000   10.000    0.000    0.000 
#    0.000    0.000    0.000    0.000    0.000    0.000 
#
# Total GULP energy -297586.228386 kJ/mol
# GULP energy per Si atom -12399.426183 kJ/mol
# Density = 1.832791 g / cm^3
# Si number density = 18.369721 Si / 1000 Ang^3
#
#
#
# Elastic Constant Matrix: (Units=GPa)
#
#
# Indices 1 2 3 4 5 6 
#
# 1 131.3053 51.3084 35.6906 0.0000 0.0000 0.0000
# 2 51.3084 88.5572 23.5656 0.0000 0.0000 0.0000
# 3 35.6906 23.5656 61.2840 0.0000 0.0000 0.0000
# 4 0.0000 0.0000 0.0000 16.1281 0.0000 0.0000
# 5 0.0000 0.0000 0.0000 0.0000 29.1401 0.0000
# 6 0.0000 0.0000 0.0000 0.0000 0.0000 33.4465
#
#
#
# Elastic Compliance Matrix: (Units=1/GPa)
#
#
# Indices 1 2 3 4 5 6 
#
# 1 0.010782 -0.005097 -0.004319 0.000000 0.000000 0.000000
# 2 -0.005097 0.014989 -0.002795 0.000000 0.000000 0.000000
# 3 -0.004319 -0.002795 0.019908 0.000000 0.000000 0.000000
# 4 0.000000 0.000000 0.000000 0.062003 0.000000 0.000000
# 5 0.000000 0.000000 0.000000 0.000000 0.034317 0.000000
# 6 0.000000 0.000000 0.000000 0.000000 0.000000 0.029899
#
#
# Mechanical properties :
#
#
# Convention : Reuss Voigt Hill
#
# Bulk Modulus (GPa) = 47.04675 55.80840 51.42757
# Shear Modulus (GPa) = 24.58145 27.11509 25.84827
#
# Velocity S-wave (km/s) = 3.66204 3.84614 3.75522
# Velocity P-wave (km/s) = 6.59904 7.08310 6.84535
#
# Compressibility (1/GPa) = 0.02125546
#
# Stress axis : x y z
#
# Youngs Moduli (GPa) = 92.75058 66.71436 50.23216
#
# Poissons Ratio (x) = 0.34007 0.21695
# Poissons Ratio (y) = 0.47278 0.14041
# Poissons Ratio (z) = 0.40058 0.18648
#
# Static dielectric constant tensor:
#      x y z
#    x 3.533660 0.000000 0.000000 
#    y 0.000000 3.333750 0.000000 
#    z 0.000000 0.000000 3.325800 
# 
# 
# High freq. dielectric constant tensor:
#      x y z
#    x 1.727470 0.000000 0.000000 
#    y 0.000000 1.699610 0.000000 
#    z 0.000000 0.000000 1.691470 
# 
# From -- ./inp_files/10404.got.cif
#   From: 2010.03.12/outbox.cif.g09.slc.cpg/sg36_6_cif.got.tgz:10404.got - 2010.04.14 02:13:53.
