data_PCOD8175053
_publ_section_title
;
Structure prediction by ZEFSAII (Michael W. Deem and Ramdas Pophale) SiO2 
 PCOD8175053
Probable space group: C M C 21
;
_chemical_formula_sum "Si O2"
_cell_formula_units_Z 64
_cell_length_a 9.041106
_cell_length_b 28.274953
_cell_length_c 13.944402
_cell_angle_alpha 90.000000
_cell_angle_beta 90.000000
_cell_angle_gamma 90.000000
_cell_volume 3564.702964
_symmetry_space_group_name_H-M "C M C 21"
_symmetry_group_IT_number 36
_symmetry_cell_setting 'orthorhombic'
loop_
_space_group_symop_operation_xyz
x,y,z
-x,-y,1/2+z
x,-y,1/2+z
-x,y,z
1/2+x,1/2+y,z
1/2-x,1/2-y,1/2+z
1/2+x,1/2-y,1/2+z
1/2-x,1/2+y,z
loop_
_atom_site_type_symbol
_atom_site_label
_atom_site_fract_x
_atom_site_fract_y
_atom_site_fract_z
Si Si1 0.327038 0.993054 0.458040
Si Si2 0.325166 0.759694 0.458984
Si Si3 0.326607 0.930240 0.639409
Si Si4 0.824987 0.175792 0.588736
Si Si5 0.172962 0.006947 0.760396
Si Si6 0.826607 0.069760 0.579027
Si Si7 0.824987 0.675792 0.129699
Si Si8 0.325166 0.740306 0.759451
O O1 0.500000 0.000138 0.440133
O O2 0.250001 0.977942 0.359218
O O3 0.259937 0.042089 0.496288
O O4 0.294505 0.951922 0.534827
O O5 0.500000 0.762210 0.446816
O O6 0.277024 0.707979 0.498295
O O7 0.267295 0.799863 0.532168
O O8 0.250000 0.770191 0.359218
O O9 0.500000 0.932383 0.663808
O O10 0.240061 0.957911 0.722147
O O11 0.261723 0.877042 0.640207
O O12 0.761722 0.122958 0.578229
O O13 0.767295 0.200137 0.686268
O O14 0.000000 0.173401 0.594914
O O15 0.000000 0.999863 0.778304
O O16 0.205496 0.048078 0.683608
O O17 0.000000 0.067617 0.554628
O O18 0.777024 0.707979 0.220140
O O19 0.000000 0.673400 0.123520
O O20 0.500000 0.737789 0.771619
#
# Coordination Sequence:
#
# PCOD8175053 Si02
#       8
#     8   8   8   8   8   8   8   8
#     4  10  20  33  50  72  98 127 159 198 242 286
#     4   9  17  31  50  71  96 125 157 192 233 280
#     4   9  18  34  53  71  94 126 164 201 237 280
#     4   8  16  32  51  69  94 128 158 189 235 285
#     4  10  20  33  50  72  98 127 159 198 242 286
#     4   9  18  34  53  71  94 126 164 201 237 280
#     4   8  16  32  51  69  94 128 158 189 235 285
#     4   9  17  31  50  71  96 125 157 192 233 280
#
# _framework density 17.953811000000002
#
# number of rings (size 3 to 8) (size 9 to 14) (size 15 to 20)
#    0.000    3.000    0.000    2.250    0.000    3.000 
#    0.000    7.500    0.000    0.000    0.000    0.000 
#    0.000    0.000    0.000    0.000    0.000    0.000 
#
# Total GULP energy -396739.442684 kJ/mol
# GULP energy per Si atom -12398.107584 kJ/mol
# Density = 1.791295 g / cm^3
# Si number density = 17.953811 Si / 1000 Ang^3
#
#
#
# Elastic Constant Matrix: (Units=GPa)
#
#
# Indices 1 2 3 4 5 6 
#
# 1 43.1498 7.9848 17.3898 0.0000 0.0000 0.0000
# 2 7.9848 82.4803 -17.6554 0.0000 0.0000 0.0000
# 3 17.3898 -17.6554 55.8366 0.0000 0.0000 0.0000
# 4 0.0000 0.0000 0.0000 14.4826 0.0000 0.0000
# 5 0.0000 0.0000 0.0000 0.0000 36.0593 0.0000
# 6 0.0000 0.0000 0.0000 0.0000 0.0000 18.4547
#
#
#
# Elastic Compliance Matrix: (Units=1/GPa)
#
#
# Indices 1 2 3 4 5 6 
#
# 1 0.028273 -0.004957 -0.010373 0.000000 0.000000 0.000000
# 2 -0.004957 0.013874 0.005931 0.000000 0.000000 0.000000
# 3 -0.010373 0.005931 0.023015 0.000000 0.000000 0.000000
# 4 0.000000 0.000000 0.000000 0.069048 0.000000 0.000000
# 5 0.000000 0.000000 0.000000 0.000000 0.027732 0.000000
# 6 0.000000 0.000000 0.000000 0.000000 0.000000 0.054187
#
#
# Mechanical properties :
#
#
# Convention : Reuss Voigt Hill
#
# Bulk Modulus (GPa) = 21.56916 21.87834 21.72375
# Shear Modulus (GPa) = 19.96950 25.38248 22.67599
#
# Velocity S-wave (km/s) = 3.33869 3.76409 3.55775
# Velocity P-wave (km/s) = 5.18674 5.57705 5.38543
#
# Compressibility (1/GPa) = 0.04636249
#
# Stress axis : x y z
#
# Youngs Moduli (GPa) = 35.36969 72.07966 43.44949
#
# Poissons Ratio (x) = 0.35733 0.45070
# Poissons Ratio (y) = 0.17534 -0.25769
# Poissons Ratio (z) = 0.36688 -0.42748
#
# Static dielectric constant tensor:
#      x y z
#    x 3.043960 0.000000 0.000000 
#    y 0.000000 3.681540 0.000000 
#    z 0.000000 0.000000 3.346570 
# 
# 
# High freq. dielectric constant tensor:
#      x y z
#    x 1.669710 0.000000 0.000000 
#    y 0.000000 1.699070 0.000000 
#    z 0.000000 0.000000 1.697380 
# 
# From -- ./inp_files/7133.got.cif
#   From: 2010.03.12/outbox.cif.g09.slc.cpg/sg36_4_cif.got.tgz:7133.got - 2010.04.14 02:13:53.
