data_PCOD8175855
_publ_section_title
;
Structure prediction by ZEFSAII (Michael W. Deem and Ramdas Pophale) SiO2 
 PCOD8175855
Probable space group: C M C 21
;
_chemical_formula_sum "Si O2"
_cell_formula_units_Z 48
_cell_length_a 19.901693
_cell_length_b 9.918725
_cell_length_c 12.094149
_cell_angle_alpha 90.000000
_cell_angle_beta 90.000000
_cell_angle_gamma 90.000000
_cell_volume 2387.377997
_symmetry_space_group_name_H-M "C M C 21"
_symmetry_group_IT_number 36
_symmetry_cell_setting 'orthorhombic'
loop_
_space_group_symop_operation_xyz
x,y,z
-x,-y,1/2+z
x,-y,1/2+z
-x,y,z
1/2+x,1/2+y,z
1/2-x,1/2-y,1/2+z
1/2+x,1/2-y,1/2+z
1/2-x,1/2+y,z
loop_
_atom_site_type_symbol
_atom_site_label
_atom_site_fract_x
_atom_site_fract_y
_atom_site_fract_z
Si Si1 0.262821 0.647919 0.580520
Si Si2 0.574020 0.253373 0.394818
Si Si3 0.377063 0.182755 0.168910
Si Si4 0.311613 0.063753 0.777620
Si Si5 0.923791 0.549461 0.946230
Si Si6 0.292787 0.386226 0.452263
O O1 0.334902 0.692315 0.625032
O O2 0.202803 0.658730 0.671544
O O3 0.274637 0.492704 0.547249
O O4 0.240717 0.742147 0.479399
O O5 0.500000 0.302790 0.432002
O O6 0.571358 0.235965 0.261481
O O7 0.627644 0.365847 0.433242
O O8 0.591121 0.110184 0.452990
O O9 0.326498 0.084493 0.233100
O O10 0.414953 0.109246 0.068456
O O11 0.372513 0.116617 0.856834
O O12 0.240996 0.057514 0.841525
O O13 0.000000 0.576587 0.905499
#
# Coordination Sequence:
#
# PCOD8175855 Si02
#       6
#     8   8   8   8   8   8
#     4  12  23  38  62  96 124 161 210 261 308 370
#     4  10  22  40  63  89 127 171 207 255 316 378
#     4  11  20  39  62  96 125 164 208 261 308 376
#     4  11  21  38  61  94 126 158 211 256 318 361
#     4  10  21  39  64  95 128 164 210 261 312 375
#     4  12  24  40  64  92 127 164 210 260 313 372
#
# _framework density 20.105740000000001
#
# number of rings (size 3 to 8) (size 9 to 14) (size 15 to 20)
#    0.000    1.000    5.000    3.500    0.000    0.667 
#    0.000    2.500    0.000    0.000    0.000    0.000 
#    0.000    0.000    0.000    0.000    0.000    0.000 
#
# Total GULP energy -297516.289554 kJ/mol
# GULP energy per Si atom -12396.512065 kJ/mol
# Density = 2.005998 g / cm^3
# Si number density = 20.105740 Si / 1000 Ang^3
#
#
#
# Elastic Constant Matrix: (Units=GPa)
#
#
# Indices 1 2 3 4 5 6 
#
# 1 126.0157 43.1084 34.6247 0.0000 0.0000 0.0000
# 2 43.1084 61.3445 32.6888 0.0000 0.0000 0.0000
# 3 34.6247 32.6888 95.0671 0.0000 0.0000 0.0000
# 4 0.0000 0.0000 0.0000 19.4575 0.0000 0.0000
# 5 0.0000 0.0000 0.0000 0.0000 32.3753 0.0000
# 6 0.0000 0.0000 0.0000 0.0000 0.0000 26.3091
#
#
#
# Elastic Compliance Matrix: (Units=1/GPa)
#
#
# Indices 1 2 3 4 5 6 
#
# 1 0.010641 -0.006627 -0.001597 0.000000 0.000000 0.000000
# 2 -0.006627 0.024085 -0.005868 0.000000 0.000000 0.000000
# 3 -0.001597 -0.005868 0.013118 0.000000 0.000000 0.000000
# 4 0.000000 0.000000 0.000000 0.051394 0.000000 0.000000
# 5 0.000000 0.000000 0.000000 0.000000 0.030888 0.000000
# 6 0.000000 0.000000 0.000000 0.000000 0.000000 0.038010
#
#
# Mechanical properties :
#
#
# Convention : Reuss Voigt Hill
#
# Bulk Modulus (GPa) = 50.86278 55.91902 53.39090
# Shear Modulus (GPa) = 24.64585 27.09541 25.87063
#
# Velocity S-wave (km/s) = 3.50496 3.67501 3.59099
# Velocity P-wave (km/s) = 6.46005 6.77351 6.61863
#
# Compressibility (1/GPa) = 0.01966074
#
# Stress axis : x y z
#
# Youngs Moduli (GPa) = 93.97333 41.51923 76.22947
#
# Poissons Ratio (x) = 0.27514 0.12174
# Poissons Ratio (y) = 0.62275 0.44732
# Poissons Ratio (z) = 0.15008 0.24364
#
# Static dielectric constant tensor:
#      x y z
#    x 3.691300 0.000000 0.000000 
#    y 0.000000 3.415440 0.000000 
#    z 0.000000 0.000000 3.876640 
# 
# 
# High freq. dielectric constant tensor:
#      x y z
#    x 1.785680 0.000000 0.000000 
#    y 0.000000 1.753750 0.000000 
#    z 0.000000 0.000000 1.796420 
# 
# From -- ./inp_files/8854.got.cif
#   From: 2010.03.12/outbox.cif.g09.slc.cpg/sg36_5_cif.got.tgz:8854.got - 2010.04.14 02:13:53.
