data_PCOD8175867
_publ_section_title
;
Structure prediction by ZEFSAII (Michael W. Deem and Ramdas Pophale) SiO2 
 PCOD8175867
Probable space group: C M C 21
;
_chemical_formula_sum "Si O2"
_cell_formula_units_Z 64
_cell_length_a 9.022649
_cell_length_b 30.541425
_cell_length_c 11.948790
_cell_angle_alpha 90.000000
_cell_angle_beta 90.000000
_cell_angle_gamma 90.000000
_cell_volume 3292.663032
_symmetry_space_group_name_H-M "C M C 21"
_symmetry_group_IT_number 36
_symmetry_cell_setting 'orthorhombic'
loop_
_space_group_symop_operation_xyz
x,y,z
-x,-y,1/2+z
x,-y,1/2+z
-x,y,z
1/2+x,1/2+y,z
1/2-x,1/2-y,1/2+z
1/2+x,1/2-y,1/2+z
1/2-x,1/2+y,z
loop_
_atom_site_type_symbol
_atom_site_label
_atom_site_fract_x
_atom_site_fract_y
_atom_site_fract_z
Si Si1 0.672978 0.048811 0.481030
Si Si2 0.673996 0.876530 0.806691
Si Si3 0.175256 0.303441 0.975032
Si Si4 0.175206 0.206260 0.920254
Si Si5 0.167581 0.961528 0.429022
Si Si6 0.174060 0.124413 0.067778
Si Si7 0.668217 0.581431 0.700729
Si Si8 0.175646 0.668319 0.716326
O O1 0.500000 0.052036 0.510316
O O2 0.712336 0.079623 0.376052
O O3 0.764861 0.063717 0.587241
O O4 0.715922 0.999156 0.456133
O O5 0.500000 0.872405 0.786059
O O6 0.735769 0.834200 0.874761
O O7 0.751406 0.879313 0.687812
O O8 0.226066 0.253341 0.965718
O O9 0.000000 0.307348 0.975158
O O10 0.236304 0.321143 0.092585
O O11 0.256400 0.203030 0.801714
O O12 0.000000 0.203093 0.901222
O O13 0.229770 0.168467 0.005345
O O14 0.217182 0.917602 0.493549
O O15 0.173049 0.955606 0.295568
O O16 0.000000 0.974758 0.465214
O O17 0.000000 0.127133 0.086513
O O18 0.500000 0.597116 0.680255
O O19 0.764794 0.620901 0.749740
O O20 0.000000 0.669906 0.723664
#
# Coordination Sequence:
#
# PCOD8175867 Si02
#       8
#     8   8   8   8   8   8   8   8
#     4  11  24  41  62  90 122 155 197 247 302 355
#     4  10  22  41  59  84 121 158 194 241 298 354
#     4   9  20  39  61  84 120 159 191 241 302 353
#     4  10  21  40  62  86 119 160 199 243 301 356
#     4  10  23  42  61  86 119 156 199 244 295 350
#     4  10  22  40  60  85 119 157 198 243 290 351
#     4  11  22  41  66  89 118 158 202 248 298 358
#     4  11  21  38  63  90 120 155 200 253 302 351
#
# _framework density 19.437154
#
# number of rings (size 3 to 8) (size 9 to 14) (size 15 to 20)
#    0.000    1.750    2.500    1.125    3.500    3.000 
#    0.000    1.250    0.000    0.000    0.000    0.000 
#    0.000    0.000    0.000    0.000    0.000    0.000 
#
# Total GULP energy -396855.982192 kJ/mol
# GULP energy per Si atom -12401.749443 kJ/mol
# Density = 1.939291 g / cm^3
# Si number density = 19.437154 Si / 1000 Ang^3
#
#
#
# Elastic Constant Matrix: (Units=GPa)
#
#
# Indices 1 2 3 4 5 6 
#
# 1 40.8215 30.7586 42.8152 0.0000 0.0000 0.0000
# 2 30.7586 120.4689 39.1650 0.0000 0.0000 0.0000
# 3 42.8152 39.1650 127.3520 0.0000 0.0000 0.0000
# 4 0.0000 0.0000 0.0000 25.7306 0.0000 0.0000
# 5 0.0000 0.0000 0.0000 0.0000 36.7087 0.0000
# 6 0.0000 0.0000 0.0000 0.0000 0.0000 15.9393
#
#
#
# Elastic Compliance Matrix: (Units=1/GPa)
#
#
# Indices 1 2 3 4 5 6 
#
# 1 0.042421 -0.006883 -0.012145 0.000000 0.000000 0.000000
# 2 -0.006883 0.010340 -0.000866 0.000000 0.000000 0.000000
# 3 -0.012145 -0.000866 0.012202 0.000000 0.000000 0.000000
# 4 0.000000 0.000000 0.000000 0.038864 0.000000 0.000000
# 5 0.000000 0.000000 0.000000 0.000000 0.027242 0.000000
# 6 0.000000 0.000000 0.000000 0.000000 0.000000 0.062738
#
#
# Mechanical properties :
#
#
# Convention : Reuss Voigt Hill
#
# Bulk Modulus (GPa) = 39.72171 57.12442 48.42307
# Shear Modulus (GPa) = 20.66239 27.40263 24.03251
#
# Velocity S-wave (km/s) = 3.26396 3.75881 3.52009
# Velocity P-wave (km/s) = 5.88939 6.94920 6.44113
#
# Compressibility (1/GPa) = 0.02517515
#
# Stress axis : x y z
#
# Youngs Moduli (GPa) = 23.57312 96.71449 81.95593
#
# Poissons Ratio (x) = 0.66566 0.99537
# Poissons Ratio (y) = 0.16225 0.07096
# Poissons Ratio (z) = 0.28630 0.08374
#
# Static dielectric constant tensor:
#      x y z
#    x 3.399220 0.000000 0.000000 
#    y 0.000000 3.887030 0.000000 
#    z 0.000000 0.000000 3.698840 
# 
# 
# High freq. dielectric constant tensor:
#      x y z
#    x 1.743230 0.000000 0.000000 
#    y 0.000000 1.764640 0.000000 
#    z 0.000000 0.000000 1.768690 
# 
# From -- ./inp_files/7099.got.cif
#   From: 2010.03.12/outbox.cif.g09.slc.cpg/sg36_4_cif.got.tgz:7099.got - 2010.04.14 02:13:53.
