data_PCOD8175720
_publ_section_title
;
Structure prediction by ZEFSAII (Michael W. Deem and Ramdas Pophale) SiO2 
 PCOD8175720
Probable space group: C M C 21
;
_chemical_formula_sum "Si O2"
_cell_formula_units_Z 64
_cell_length_a 8.773814
_cell_length_b 30.750907
_cell_length_c 11.970248
_cell_angle_alpha 90.000000
_cell_angle_beta 90.000000
_cell_angle_gamma 90.000000
_cell_volume 3229.605689
_symmetry_space_group_name_H-M "C M C 21"
_symmetry_group_IT_number 36
_symmetry_cell_setting 'orthorhombic'
loop_
_space_group_symop_operation_xyz
x,y,z
-x,-y,1/2+z
x,-y,1/2+z
-x,y,z
1/2+x,1/2+y,z
1/2-x,1/2-y,1/2+z
1/2+x,1/2-y,1/2+z
1/2-x,1/2+y,z
loop_
_atom_site_type_symbol
_atom_site_label
_atom_site_fract_x
_atom_site_fract_y
_atom_site_fract_z
Si Si1 0.675445 0.947119 0.144780
Si Si2 0.322802 0.043957 0.070359
Si Si3 0.678297 0.207234 0.086549
Si Si4 0.681470 0.124392 0.219416
Si Si5 0.177126 0.081212 0.867844
Si Si6 0.175856 0.330537 0.354746
Si Si7 0.321582 0.873427 0.972227
Si Si8 0.179459 0.802567 0.128769
O O1 0.500000 0.939114 0.180219
O O2 0.787515 0.933309 0.242768
O O3 0.707473 0.997331 0.123545
O O4 0.716122 0.918280 0.036312
O O5 0.500000 0.050378 0.041252
O O6 0.262695 0.081061 0.155321
O O7 0.225517 0.044475 0.956329
O O8 0.500000 0.206562 0.110978
O O9 0.749904 0.167488 0.158406
O O10 0.748402 0.253708 0.121675
O O11 0.709873 0.202849 0.954437
O O12 0.500000 0.125159 0.218413
O O13 0.743314 0.122792 0.346382
O O14 0.279972 0.122400 0.901671
O O15 0.000000 0.092472 0.877475
O O16 0.281129 0.320999 0.249591
O O17 0.000000 0.329648 0.317429
O O18 0.500000 0.864452 0.969938
O O19 0.246750 0.832224 0.031662
O O20 0.000000 0.801832 0.112504
#
# Coordination Sequence:
#
# PCOD8175720 Si02
#       8
#     8   8   8   8   8   8   8   8
#     4  10  22  38  62  92 119 155 205 250 288 349
#     4  10  21  39  66  91 116 154 202 249 292 351
#     4   9  20  37  59  86 118 153 192 245 301 351
#     4   9  18  36  60  86 115 151 195 245 292 341
#     4  12  24  39  61  89 124 160 196 248 306 356
#     4  11  21  40  65  86 114 157 208 252 292 348
#     4  10  21  37  59  86 118 155 200 244 289 347
#     4  11  23  38  58  88 122 155 194 243 306 361
#
# _framework density 19.816659999999999
#
# number of rings (size 3 to 8) (size 9 to 14) (size 15 to 20)
#    0.000    1.750    2.500    1.875    3.500    0.500 
#    0.000    2.500    0.000    0.000    0.000    0.000 
#    0.000    0.000    0.000    0.000    0.000    0.000 
#
# Total GULP energy -396853.241697 kJ/mol
# GULP energy per Si atom -12401.663803 kJ/mol
# Density = 1.977156 g / cm^3
# Si number density = 19.816660 Si / 1000 Ang^3
#
#
#
# Elastic Constant Matrix: (Units=GPa)
#
#
# Indices 1 2 3 4 5 6 
#
# 1 38.3693 27.0656 35.1530 0.0000 0.0000 0.0000
# 2 27.0656 132.2295 44.8729 0.0000 0.0000 0.0000
# 3 35.1530 44.8729 110.9908 0.0000 0.0000 0.0000
# 4 0.0000 0.0000 0.0000 23.4438 0.0000 0.0000
# 5 0.0000 0.0000 0.0000 0.0000 17.3653 0.0000
# 6 0.0000 0.0000 0.0000 0.0000 0.0000 18.9280
#
#
#
# Elastic Compliance Matrix: (Units=1/GPa)
#
#
# Indices 1 2 3 4 5 6 
#
# 1 0.038778 -0.004369 -0.010516 0.000000 0.000000 0.000000
# 2 -0.004369 0.009257 -0.002359 0.000000 0.000000 0.000000
# 3 -0.010516 -0.002359 0.013294 0.000000 0.000000 0.000000
# 4 0.000000 0.000000 0.000000 0.042655 0.000000 0.000000
# 5 0.000000 0.000000 0.000000 0.000000 0.057586 0.000000
# 6 0.000000 0.000000 0.000000 0.000000 0.000000 0.052832
#
#
# Mechanical properties :
#
#
# Convention : Reuss Voigt Hill
#
# Bulk Modulus (GPa) = 37.25387 55.08586 46.16986
# Shear Modulus (GPa) = 19.39205 23.58062 21.48634
#
# Velocity S-wave (km/s) = 3.13161 3.45329 3.29638
# Velocity P-wave (km/s) = 5.64943 6.61501 6.15120
#
# Compressibility (1/GPa) = 0.02684285
#
# Stress axis : x y z
#
# Youngs Moduli (GPa) = 25.78755 108.02169 75.22205
#
# Poissons Ratio (x) = 0.47193 0.79100
# Poissons Ratio (y) = 0.11266 0.17745
# Poissons Ratio (z) = 0.27117 0.25482
#
# Static dielectric constant tensor:
#      x y z
#    x 3.245260 0.000000 0.000000 
#    y 0.000000 3.873350 0.000000 
#    z 0.000000 0.000000 3.664000 
# 
# 
# High freq. dielectric constant tensor:
#      x y z
#    x 1.739410 0.000000 0.000000 
#    y 0.000000 1.783510 0.000000 
#    z 0.000000 0.000000 1.783760 
# 
# From -- ./inp_files/7107.got.cif
#   From: 2010.03.12/outbox.cif.g09.slc.cpg/sg36_4_cif.got.tgz:7107.got - 2010.04.14 02:13:53.
