data_PCOD8175811
_publ_section_title
;
Structure prediction by ZEFSAII (Michael W. Deem and Ramdas Pophale) SiO2 
 PCOD8175811
Probable space group: C M C 21
;
_chemical_formula_sum "Si O2"
_cell_formula_units_Z 64
_cell_length_a 22.584312
_cell_length_b 9.679184
_cell_length_c 14.588468
_cell_angle_alpha 90.000000
_cell_angle_beta 90.000000
_cell_angle_gamma 90.000000
_cell_volume 3189.005717
_symmetry_space_group_name_H-M "C M C 21"
_symmetry_group_IT_number 36
_symmetry_cell_setting 'orthorhombic'
loop_
_space_group_symop_operation_xyz
x,y,z
-x,-y,1/2+z
x,-y,1/2+z
-x,y,z
1/2+x,1/2+y,z
1/2-x,1/2-y,1/2+z
1/2+x,1/2-y,1/2+z
1/2-x,1/2+y,z
loop_
_atom_site_type_symbol
_atom_site_label
_atom_site_fract_x
_atom_site_fract_y
_atom_site_fract_z
Si Si1 0.643348 0.608335 0.218350
Si Si2 0.614535 0.184660 0.952435
Si Si3 0.748905 0.817082 0.426057
Si Si4 0.131343 0.178727 0.020306
Si Si5 0.568016 0.954147 0.075354
Si Si6 0.761842 0.567111 0.302319
Si Si7 0.569154 0.530623 0.388575
Si Si8 0.874618 0.581894 0.759663
O O1 0.621713 0.591142 0.113769
O O2 0.707389 0.539514 0.233214
O O3 0.594569 0.542345 0.285590
O O4 0.653278 0.769026 0.240137
O O5 0.684015 0.220772 0.965110
O O6 0.579890 0.328940 0.945070
O O7 0.600409 0.088349 0.863319
O O8 0.591037 0.101525 0.039786
O O9 0.798466 0.801785 0.504230
O O10 0.764749 0.723251 0.338363
O O11 0.747276 0.974612 0.392789
O O12 0.104049 0.330995 0.027897
O O13 0.100665 0.097941 0.937569
O O14 0.500000 0.933039 0.050810
O O15 0.575039 0.954010 0.185843
O O16 0.822513 0.530837 0.250173
O O17 0.500000 0.499255 0.381947
#
# Coordination Sequence:
#
# PCOD8175811 Si02
#       8
#     8   8   8   8   8   8   8   8
#     4  10  21  39  58  90 120 163 202 247 316 364
#     4  10  21  41  61  89 118 165 200 252 311 360
#     4  11  20  37  64  88 127 151 201 253 306 367
#     4  11  23  38  62  94 120 162 206 262 313 362
#     4  11  24  41  61  89 123 161 211 250 299 372
#     4  11  18  39  60  88 123 155 198 246 308 369
#     4  11  22  41  63  85 121 166 207 250 305 372
#     4   9  21  38  61  87 116 161 203 248 302 362
#
# _framework density 20.068950000000001
#
# number of rings (size 3 to 8) (size 9 to 14) (size 15 to 20)
#    0.000    1.500    5.000    2.250    1.750    5.500 
#    4.500    0.000    0.000    3.000    0.000    0.000 
#    0.000    0.000    0.000    0.000    0.000    0.000 
#
# Total GULP energy -396834.298802 kJ/mol
# GULP energy per Si atom -12401.071838 kJ/mol
# Density = 2.002327 g / cm^3
# Si number density = 20.068950 Si / 1000 Ang^3
#
#
#
# Elastic Constant Matrix: (Units=GPa)
#
#
# Indices 1 2 3 4 5 6 
#
# 1 88.6586 17.9187 37.1529 0.0000 0.0000 0.0000
# 2 17.9187 42.7587 18.5140 0.0000 0.0000 0.0000
# 3 37.1529 18.5140 77.1271 0.0000 0.0000 0.0000
# 4 0.0000 0.0000 0.0000 26.4464 0.0000 0.0000
# 5 0.0000 0.0000 0.0000 0.0000 27.8883 0.0000
# 6 0.0000 0.0000 0.0000 0.0000 0.0000 26.9869
#
#
#
# Elastic Compliance Matrix: (Units=1/GPa)
#
#
# Indices 1 2 3 4 5 6 
#
# 1 0.014567 -0.003422 -0.006196 0.000000 0.000000 0.000000
# 2 -0.003422 0.026904 -0.004810 0.000000 0.000000 0.000000
# 3 -0.006196 -0.004810 0.017105 0.000000 0.000000 0.000000
# 4 0.000000 0.000000 0.000000 0.037812 0.000000 0.000000
# 5 0.000000 0.000000 0.000000 0.000000 0.035857 0.000000
# 6 0.000000 0.000000 0.000000 0.000000 0.000000 0.037055
#
#
# Mechanical properties :
#
#
# Convention : Reuss Voigt Hill
#
# Bulk Modulus (GPa) = 33.64655 39.52397 36.58526
# Shear Modulus (GPa) = 24.03132 25.26157 24.64644
#
# Velocity S-wave (km/s) = 3.46416 3.55172 3.50821
# Velocity P-wave (km/s) = 5.72733 6.04619 5.88892
#
# Compressibility (1/GPa) = 0.02972073
#
# Stress axis : x y z
#
# Youngs Moduli (GPa) = 68.64741 37.16978 58.46342
#
# Poissons Ratio (x) = 0.12719 0.36222
# Poissons Ratio (y) = 0.23491 0.28119
# Poissons Ratio (z) = 0.42532 0.17878
#
# Static dielectric constant tensor:
#      x y z
#    x 3.600970 0.000000 0.000000 
#    y 0.000000 3.526120 0.000000 
#    z 0.000000 0.000000 3.739350 
# 
# 
# High freq. dielectric constant tensor:
#      x y z
#    x 1.783650 0.000000 0.000000 
#    y 0.000000 1.777270 0.000000 
#    z 0.000000 0.000000 1.772290 
# 
# From -- ./inp_files/12987.got.cif
#   From: 2010.03.12/outbox.cif.g09.slc.cpg/sg36_7_cif.got.tgz:12987.got - 2010.04.14 02:13:53.
