data_PCOD8175764
_publ_section_title
;
Structure prediction by ZEFSAII (Michael W. Deem and Ramdas Pophale) SiO2 
 PCOD8175764
Probable space group: C M C 21
;
_chemical_formula_sum "Si O2"
_cell_formula_units_Z 48
_cell_length_a 8.833378
_cell_length_b 17.656847
_cell_length_c 15.376834
_cell_angle_alpha 90.000000
_cell_angle_beta 90.000000
_cell_angle_gamma 90.000000
_cell_volume 2398.318707
_symmetry_space_group_name_H-M "C M C 21"
_symmetry_group_IT_number 36
_symmetry_cell_setting 'orthorhombic'
loop_
_space_group_symop_operation_xyz
x,y,z
-x,-y,1/2+z
x,-y,1/2+z
-x,y,z
1/2+x,1/2+y,z
1/2-x,1/2-y,1/2+z
1/2+x,1/2-y,1/2+z
1/2-x,1/2+y,z
loop_
_atom_site_type_symbol
_atom_site_label
_atom_site_fract_x
_atom_site_fract_y
_atom_site_fract_z
Si Si1 0.821513 0.043477 0.169280
Si Si2 0.675452 0.212728 0.829868
Si Si3 0.821046 0.705847 0.172702
Si Si4 0.321359 0.537080 0.493014
Si Si5 0.820817 0.208498 0.504317
Si Si6 0.825273 0.463270 0.326983
O O1 0.752370 0.124828 0.188849
O O2 0.000000 0.048514 0.178251
O O3 0.762471 0.983638 0.239318
O O4 0.773019 0.015423 0.073710
O O5 0.500000 0.232143 0.811322
O O6 0.777060 0.237800 0.749605
O O7 0.699634 0.124487 0.847205
O O8 0.738048 0.256603 0.914201
O O9 0.755476 0.742144 0.083961
O O10 0.000000 0.696035 0.169434
O O11 0.500000 0.534122 0.475919
O O12 0.266126 0.622161 0.513503
O O13 0.237026 0.510502 0.407365
O O14 0.000000 0.212846 0.507715
O O15 0.000000 0.483683 0.313884
#
# Coordination Sequence:
#
# PCOD8175764 Si02
#       6
#     8   8   8   8   8   8
#     4  11  23  39  59  85 119 158 198 240 292 351
#     4  10  21  38  59  84 117 154 189 233 291 348
#     4  11  22  38  61  87 115 150 195 243 291 346
#     4  10  21  38  61  86 115 156 200 241 290 350
#     4   9  19  37  59  82 112 150 188 231 287 344
#     4  11  23  38  59  88 120 156 198 244 293 345
#
# _framework density 20.014019999999999
#
# number of rings (size 3 to 8) (size 9 to 14) (size 15 to 20)
#    0.000    1.667    0.000    4.500    0.000    6.667 
#    0.000    3.333    0.000    0.000    0.000    0.000 
#    0.000    0.000    0.000    0.000    0.000    0.000 
#
# Total GULP energy -297733.346256 kJ/mol
# GULP energy per Si atom -12405.556094 kJ/mol
# Density = 1.996847 g / cm^3
# Si number density = 20.014020 Si / 1000 Ang^3
#
#
#
# Elastic Constant Matrix: (Units=GPa)
#
#
# Indices 1 2 3 4 5 6 
#
# 1 61.4778 26.6292 35.9726 0.0000 0.0000 0.0000
# 2 26.6292 88.6032 23.4292 0.0000 0.0000 0.0000
# 3 35.9726 23.4292 120.3396 0.0000 0.0000 0.0000
# 4 0.0000 0.0000 0.0000 41.8648 0.0000 0.0000
# 5 0.0000 0.0000 0.0000 0.0000 27.3129 0.0000
# 6 0.0000 0.0000 0.0000 0.0000 0.0000 26.6347
#
#
#
# Elastic Compliance Matrix: (Units=1/GPa)
#
#
# Indices 1 2 3 4 5 6 
#
# 1 0.021672 -0.005061 -0.005493 0.000000 0.000000 0.000000
# 2 -0.005061 0.013081 -0.001034 0.000000 0.000000 0.000000
# 3 -0.005493 -0.001034 0.010153 0.000000 0.000000 0.000000
# 4 0.000000 0.000000 0.000000 0.023886 0.000000 0.000000
# 5 0.000000 0.000000 0.000000 0.000000 0.036613 0.000000
# 6 0.000000 0.000000 0.000000 0.000000 0.000000 0.037545
#
#
# Mechanical properties :
#
#
# Convention : Reuss Voigt Hill
#
# Bulk Modulus (GPa) = 46.01859 49.16473 47.59166
# Shear Modulus (GPa) = 28.84009 31.45511 30.14760
#
# Velocity S-wave (km/s) = 3.80016 3.96871 3.88535
# Velocity P-wave (km/s) = 6.50370 6.75421 6.63014
#
# Compressibility (1/GPa) = 0.02173035
#
# Stress axis : x y z
#
# Youngs Moduli (GPa) = 46.14165 76.44845 98.49183
#
# Poissons Ratio (x) = 0.38691 0.54102
# Poissons Ratio (y) = 0.23352 0.10183
# Poissons Ratio (z) = 0.25346 0.07904
#
# Static dielectric constant tensor:
#      x y z
#    x 3.525930 0.000000 0.000000 
#    y 0.000000 3.767550 0.000000 
#    z 0.000000 0.000000 3.802530 
# 
# 
# High freq. dielectric constant tensor:
#      x y z
#    x 1.765870 0.000000 0.000000 
#    y 0.000000 1.797660 0.000000 
#    z 0.000000 0.000000 1.797720 
# 
# From -- ./inp_files/10349.got.cif
#   From: 2010.03.12/outbox.cif.g09.slc.cpg/sg36_6_cif.got.tgz:10349.got - 2010.04.14 02:13:53.
