data_PCOD8175119
_publ_section_title
;
Structure prediction by ZEFSAII (Michael W. Deem and Ramdas Pophale) SiO2 
 PCOD8175119
Probable space group: C M C 21
;
_chemical_formula_sum "Si O2"
_cell_formula_units_Z 64
_cell_length_a 8.955975
_cell_length_b 18.719609
_cell_length_c 20.902286
_cell_angle_alpha 90.000000
_cell_angle_beta 90.000000
_cell_angle_gamma 90.000000
_cell_volume 3504.317373
_symmetry_space_group_name_H-M "C M C 21"
_symmetry_group_IT_number 36
_symmetry_cell_setting 'orthorhombic'
loop_
_space_group_symop_operation_xyz
x,y,z
-x,-y,1/2+z
x,-y,1/2+z
-x,y,z
1/2+x,1/2+y,z
1/2-x,1/2-y,1/2+z
1/2+x,1/2-y,1/2+z
1/2-x,1/2+y,z
loop_
_atom_site_type_symbol
_atom_site_label
_atom_site_fract_x
_atom_site_fract_y
_atom_site_fract_z
Si Si1 0.169224 0.935645 0.440840
Si Si2 0.828435 0.927569 0.580488
Si Si3 0.672264 0.576667 0.803335
Si Si4 0.671208 0.080388 0.436736
Si Si5 0.824636 0.420339 0.079169
Si Si6 0.176530 0.177031 0.191580
Si Si7 0.322267 0.329983 0.188193
Si Si8 0.324016 0.415295 0.811718
O O1 0.187744 0.894057 0.508302
O O2 0.195502 0.890019 0.375415
O O3 0.000000 0.968011 0.437200
O O4 0.290824 0.997192 0.440198
O O5 0.772444 0.867839 0.629537
O O6 0.000000 0.947782 0.595426
O O7 0.733004 0.999109 0.588415
O O8 0.500000 0.571466 0.785157
O O9 0.745123 0.627987 0.750137
O O10 0.738672 0.495985 0.800737
O O11 0.500000 0.090782 0.419135
O O12 0.706735 0.110568 0.507619
O O13 0.763823 0.116955 0.379096
O O14 0.736657 0.367701 0.124978
O O15 0.000000 0.419580 0.094568
O O16 0.263021 0.250415 0.190699
O O17 0.230502 0.134160 0.254023
O O18 0.000000 0.191049 0.191414
O O19 0.500000 0.328482 0.187289
O O20 0.500000 0.416525 0.815777
#
# Coordination Sequence:
#
# PCOD8175119 Si02
#       8
#     8   8   8   8   8   8   8   8
#     4   8  14  28  51  75  97 124 161 202 246 299
#     4   9  17  32  56  79  99 130 168 204 248 305
#     4   8  15  30  52  76  97 122 162 206 245 290
#     4   9  17  29  48  76 104 125 154 204 256 299
#     4  10  20  34  53  77 104 131 164 211 259 301
#     4  10  21  36  51  72 105 139 172 211 255 299
#     4  11  22  35  51  71 101 140 178 213 250 299
#     4   9  17  32  54  74  97 131 167 205 249 302
#
# _framework density 18.263185
#
# number of rings (size 3 to 8) (size 9 to 14) (size 15 to 20)
#    0.000    2.750    0.000    2.625    0.000    4.500 
#    0.000    8.750    0.000    3.000    0.000    0.000 
#    0.000    0.000    0.000    0.000    0.000    0.000 
#
# Total GULP energy -396492.263185 kJ/mol
# GULP energy per Si atom -12390.383225 kJ/mol
# Density = 1.822162 g / cm^3
# Si number density = 18.263185 Si / 1000 Ang^3
#
#
#
# Elastic Constant Matrix: (Units=GPa)
#
#
# Indices 1 2 3 4 5 6 
#
# 1 43.2403 36.8982 47.4307 0.0000 0.0000 0.0000
# 2 36.8982 95.6110 79.7505 0.0000 0.0000 0.0000
# 3 47.4307 79.7505 186.2083 0.0000 0.0000 0.0000
# 4 0.0000 0.0000 0.0000 4.8563 0.0000 0.0000
# 5 0.0000 0.0000 0.0000 0.0000 24.3558 0.0000
# 6 0.0000 0.0000 0.0000 0.0000 0.0000 23.9988
#
#
#
# Elastic Compliance Matrix: (Units=1/GPa)
#
#
# Indices 1 2 3 4 5 6 
#
# 1 0.037477 -0.010113 -0.005214 0.000000 0.000000 0.000000
# 2 -0.010113 0.019001 -0.005562 0.000000 0.000000 0.000000
# 3 -0.005214 -0.005562 0.009081 0.000000 0.000000 0.000000
# 4 0.000000 0.000000 0.000000 0.205918 0.000000 0.000000
# 5 0.000000 0.000000 0.000000 0.000000 0.041058 0.000000
# 6 0.000000 0.000000 0.000000 0.000000 0.000000 0.041669
#
#
# Mechanical properties :
#
#
# Convention : Reuss Voigt Hill
#
# Bulk Modulus (GPa) = 42.05439 72.57982 57.31711
# Shear Modulus (GPa) = 12.37901 21.37418 16.87660
#
# Velocity S-wave (km/s) = 2.60631 3.42474 3.04316
# Velocity P-wave (km/s) = 5.66868 7.44753 6.61815
#
# Compressibility (1/GPa) = 0.02377873
#
# Stress axis : x y z
#
# Youngs Moduli (GPa) = 26.68338 52.62794 110.12415
#
# Poissons Ratio (x) = 0.53225 0.57424
# Poissons Ratio (y) = 0.26986 0.61250
# Poissons Ratio (z) = 0.13914 0.29271
#
# Static dielectric constant tensor:
#      x y z
#    x 3.227180 0.000000 0.000000 
#    y 0.000000 3.052250 0.000000 
#    z 0.000000 0.000000 4.018190 
# 
# 
# High freq. dielectric constant tensor:
#      x y z
#    x 1.694200 0.000000 0.000000 
#    y 0.000000 1.661320 0.000000 
#    z 0.000000 0.000000 1.738140 
# 
# From -- ./inp_files/16746.got.cif
#   From: 2010.03.12/outbox.cif.g09.slc.cpg/sg36_9_cif.got.tgz:16746.got - 2010.04.14 02:13:53.
