data_PCOD8175616
_publ_section_title
;
Structure prediction by ZEFSAII (Michael W. Deem and Ramdas Pophale) SiO2 
 PCOD8175616
Probable space group: C M C 21
;
_chemical_formula_sum "Si O2"
_cell_formula_units_Z 32
_cell_length_a 17.693233
_cell_length_b 8.500144
_cell_length_c 7.883380
_cell_angle_alpha 90.000000
_cell_angle_beta 90.000000
_cell_angle_gamma 90.000000
_cell_volume 1185.621158
_symmetry_space_group_name_H-M "C M C 21"
_symmetry_group_IT_number 36
_symmetry_cell_setting 'orthorhombic'
loop_
_space_group_symop_operation_xyz
x,y,z
-x,-y,1/2+z
x,-y,1/2+z
-x,y,z
1/2+x,1/2+y,z
1/2-x,1/2-y,1/2+z
1/2+x,1/2-y,1/2+z
1/2-x,1/2+y,z
loop_
_atom_site_type_symbol
_atom_site_label
_atom_site_fract_x
_atom_site_fract_y
_atom_site_fract_z
Si Si1 0.585007 0.666088 0.947200
Si Si2 0.334695 0.279346 0.133622
Si Si3 0.415740 0.982106 0.782596
Si Si4 0.671581 0.294078 0.763813
O O1 0.500000 0.598796 0.928685
O O2 0.636468 0.604692 0.786800
O O3 0.586602 0.859364 0.943756
O O4 0.617806 0.616198 0.129921
O O5 0.393675 0.132053 0.122156
O O6 0.254470 0.206068 0.185411
O O7 0.332061 0.372569 0.953627
O O8 0.500000 0.051411 0.756854
O O9 0.353803 0.116200 0.801567
#
# Coordination Sequence:
#
# PCOD8175616 Si02
#       4
#     8   8   8   8
#     4   9  20  34  50  79 109 136 181 224 267 322
#     4  10  21  33  50  79 115 142 182 222 275 324
#     4   9  20  36  55  83 113 139 178 227 276 326
#     4  12  19  33  53  75 115 149 177 223 276 320
#
# _framework density 26.990072000000001
#
# number of rings (size 3 to 8) (size 9 to 14) (size 15 to 20)
#    1.500    0.500    2.500    2.250    0.000    6.000 
#    0.000    0.000    0.000    0.000    0.000    7.000 
#    0.000    0.000    0.000    0.000    0.000    0.000 
#
# Total GULP energy -198238.632773 kJ/mol
# GULP energy per Si atom -12389.914548 kJ/mol
# Density = 2.692864 g / cm^3
# Si number density = 26.990072 Si / 1000 Ang^3
#
#
#
# Elastic Constant Matrix: (Units=GPa)
#
#
# Indices 1 2 3 4 5 6 
#
# 1 157.1796 -21.1591 67.8022 0.0000 0.0000 0.0000
# 2 -21.1591 39.9765 7.6334 0.0000 0.0000 0.0000
# 3 67.8022 7.6334 239.8697 0.0000 0.0000 0.0000
# 4 0.0000 0.0000 0.0000 24.7827 0.0000 0.0000
# 5 0.0000 0.0000 0.0000 0.0000 47.7678 0.0000
# 6 0.0000 0.0000 0.0000 0.0000 0.0000 9.7402
#
#
#
# Elastic Compliance Matrix: (Units=1/GPa)
#
#
# Indices 1 2 3 4 5 6 
#
# 1 0.008043 0.004720 -0.002424 0.000000 0.000000 0.000000
# 2 0.004720 0.027937 -0.002223 0.000000 0.000000 0.000000
# 3 -0.002424 -0.002223 0.004925 0.000000 0.000000 0.000000
# 4 0.000000 0.000000 0.000000 0.040351 0.000000 0.000000
# 5 0.000000 0.000000 0.000000 0.000000 0.020935 0.000000
# 6 0.000000 0.000000 0.000000 0.000000 0.000000 0.102667
#
#
# Mechanical properties :
#
#
# Convention : Reuss Voigt Hill
#
# Bulk Modulus (GPa) = 24.35983 60.61986 42.48985
# Shear Modulus (GPa) = 22.89424 41.97476 32.43450
#
# Velocity S-wave (km/s) = 2.91563 3.94787 3.47034
# Velocity P-wave (km/s) = 4.51438 6.57949 5.64222
#
# Compressibility (1/GPa) = 0.04105119
#
# Stress axis : x y z
#
# Youngs Moduli (GPa) = 124.33153 35.79435 203.05576
#
# Poissons Ratio (x) = -0.16894 0.49214
# Poissons Ratio (y) = -0.58683 0.45143
# Poissons Ratio (z) = 0.30134 0.07958
#
# Static dielectric constant tensor:
#      x y z
#    x 4.549270 0.000000 0.000000 
#    y 0.000000 4.405910 0.000000 
#    z 0.000000 0.000000 5.022200 
# 
# 
# High freq. dielectric constant tensor:
#      x y z
#    x 2.073150 0.000000 0.000000 
#    y 0.000000 2.075630 0.000000 
#    z 0.000000 0.000000 2.106150 
# 
# From -- ./inp_files/3684.got.cif
#   From: 2010.03.12/outbox.cif.g09.slc.cpg/sg36_2_cif.got.tgz:3684.got - 2010.04.14 02:13:53.
