data_PCOD8175198
_publ_section_title
;
Structure prediction by ZEFSAII (Michael W. Deem and Ramdas Pophale) SiO2 
 PCOD8175198
Probable space group: C M C 21
;
_chemical_formula_sum "Si O2"
_cell_formula_units_Z 40
_cell_length_a 11.673435
_cell_length_b 19.305417
_cell_length_c 8.525088
_cell_angle_alpha 90.000000
_cell_angle_beta 90.000000
_cell_angle_gamma 90.000000
_cell_volume 1921.218354
_symmetry_space_group_name_H-M "C M C 21"
_symmetry_group_IT_number 36
_symmetry_cell_setting 'orthorhombic'
loop_
_space_group_symop_operation_xyz
x,y,z
-x,-y,1/2+z
x,-y,1/2+z
-x,y,z
1/2+x,1/2+y,z
1/2-x,1/2-y,1/2+z
1/2+x,1/2-y,1/2+z
1/2-x,1/2+y,z
loop_
_atom_site_type_symbol
_atom_site_label
_atom_site_fract_x
_atom_site_fract_y
_atom_site_fract_z
Si Si1 0.368372 0.048100 0.125000
Si Si2 0.787877 0.190377 0.673735
Si Si3 0.369921 0.809180 0.461728
Si Si4 0.253369 0.429034 0.944716
Si Si5 0.500000 0.396713 0.279119
Si Si6 0.500000 0.476513 0.967737
O O1 0.500000 0.023059 0.136407
O O2 0.328741 0.072411 0.295779
O O3 0.355942 0.110373 0.002618
O O4 0.287479 0.986631 0.068261
O O5 0.690320 0.206601 0.798249
O O6 0.823461 0.264214 0.605712
O O7 0.741335 0.144607 0.530012
O O8 0.889909 0.151664 0.764864
O O9 0.500000 0.787650 0.435023
O O10 0.385071 0.442826 0.893144
O O11 0.500000 0.439735 0.442701
O O12 0.500000 0.458840 0.151950
#
# Coordination Sequence:
#
# PCOD8175198 Si02
#       6
#     8   8   8   8   4   4
#     4  11  23  39  63  92 129 165 214 267 315 386
#     4  11  23  42  65  88 131 168 215 273 321 389
#     4  11  24  44  64  91 129 170 217 267 321 387
#     4  11  22  39  63  95 128 167 213 266 329 380
#     4  10  20  38  62  90 126 164 206 264 322 380
#     4  10  20  34  60  90 124 158 200 258 314 386
#
# _framework density 20.820121
#
# number of rings (size 3 to 8) (size 9 to 14) (size 15 to 20)
#    0.000    1.200    1.000    6.600    0.000    3.200 
#    1.800    0.000    0.000    0.000    0.000    0.000 
#    0.000    0.000    0.000    0.000    0.000    0.000 
#
# Total GULP energy -248100.070592 kJ/mol
# GULP energy per Si atom -12405.003530 kJ/mol
# Density = 2.077273 g / cm^3
# Si number density = 20.820121 Si / 1000 Ang^3
#
#
#
# Elastic Constant Matrix: (Units=GPa)
#
#
# Indices 1 2 3 4 5 6 
#
# 1 97.8743 11.2816 40.4822 0.0000 0.0000 0.0000
# 2 11.2816 45.2142 -2.6125 0.0000 0.0000 0.0000
# 3 40.4822 -2.6125 66.9839 0.0000 0.0000 0.0000
# 4 0.0000 0.0000 0.0000 46.0591 0.0000 0.0000
# 5 0.0000 0.0000 0.0000 0.0000 34.1795 0.0000
# 6 0.0000 0.0000 0.0000 0.0000 0.0000 27.2129
#
#
#
# Elastic Compliance Matrix: (Units=1/GPa)
#
#
# Indices 1 2 3 4 5 6 
#
# 1 0.014338 -0.004088 -0.008825 0.000000 0.000000 0.000000
# 2 -0.004088 0.023332 0.003380 0.000000 0.000000 0.000000
# 3 -0.008825 0.003380 0.020394 0.000000 0.000000 0.000000
# 4 0.000000 0.000000 0.000000 0.021711 0.000000 0.000000
# 5 0.000000 0.000000 0.000000 0.000000 0.029257 0.000000
# 6 0.000000 0.000000 0.000000 0.000000 0.000000 0.036747
#
#
# Mechanical properties :
#
#
# Convention : Reuss Voigt Hill
#
# Bulk Modulus (GPa) = 25.64069 34.26387 29.95228
# Shear Modulus (GPa) = 28.11433 32.21839 30.16636
#
# Velocity S-wave (km/s) = 3.67869 3.93805 3.81058
# Velocity P-wave (km/s) = 5.51233 6.09676 5.81189
#
# Compressibility (1/GPa) = 0.03900050
#
# Stress axis : x y z
#
# Youngs Moduli (GPa) = 69.74242 42.85928 49.03342
#
# Poissons Ratio (x) = 0.17519 0.43272
# Poissons Ratio (y) = 0.28508 -0.16575
# Poissons Ratio (z) = 0.61548 -0.14488
#
# Static dielectric constant tensor:
#      x y z
#    x 3.917300 0.000000 0.000000 
#    y 0.000000 3.735110 0.000000 
#    z 0.000000 0.000000 3.609860 
# 
# 
# High freq. dielectric constant tensor:
#      x y z
#    x 1.828900 0.000000 0.000000 
#    y 0.000000 1.815820 0.000000 
#    z 0.000000 0.000000 1.811970 
# 
# From -- ./inp_files/3077.got.cif
#   From: 2010.03.12/outbox.cif.g09.slc.cpg/sg36_2_cif.got.tgz:3077.got - 2010.04.14 02:13:53.
