data_PCOD8175022
_publ_section_title
;
Structure prediction by ZEFSAII (Michael W. Deem and Ramdas Pophale) SiO2 
 PCOD8175022
Probable space group: C M C 21
;
_chemical_formula_sum "Si O2"
_cell_formula_units_Z 64
_cell_length_a 8.751931
_cell_length_b 23.882534
_cell_length_c 15.170588
_cell_angle_alpha 90.000000
_cell_angle_beta 90.000000
_cell_angle_gamma 90.000000
_cell_volume 3170.930357
_symmetry_space_group_name_H-M "C M C 21"
_symmetry_group_IT_number 36
_symmetry_cell_setting 'orthorhombic'
loop_
_space_group_symop_operation_xyz
x,y,z
-x,-y,1/2+z
x,-y,1/2+z
-x,y,z
1/2+x,1/2+y,z
1/2-x,1/2-y,1/2+z
1/2+x,1/2-y,1/2+z
1/2-x,1/2+y,z
loop_
_atom_site_type_symbol
_atom_site_label
_atom_site_fract_x
_atom_site_fract_y
_atom_site_fract_z
Si Si1 0.681323 0.752590 0.462160
Si Si2 0.678879 0.053540 0.310201
Si Si3 0.823659 0.984862 0.465259
Si Si4 0.326976 0.124540 0.915856
Si Si5 0.178171 0.245524 0.661065
Si Si6 0.176179 0.518959 0.640868
Si Si7 0.818893 0.175657 0.303956
Si Si8 0.669391 0.136786 0.715986
O O1 0.500000 0.749794 0.459879
O O2 0.738666 0.813708 0.433123
O O3 0.742466 0.741871 0.560997
O O4 0.745459 0.707266 0.391745
O O5 0.500000 0.065953 0.312113
O O6 0.766224 0.111985 0.305173
O O7 0.722358 0.020905 0.398649
O O8 0.725399 0.015656 0.227054
O O9 0.781802 0.919476 0.463423
O O10 0.000000 0.993952 0.441898
O O11 0.791201 0.003563 0.564031
O O12 0.500000 0.118620 0.952643
O O13 0.322156 0.111116 0.812958
O O14 0.260045 0.294440 0.715395
O O15 0.206857 0.185200 0.704203
O O16 0.000000 0.259331 0.661516
O O17 0.201412 0.585171 0.652061
O O18 0.000000 0.505864 0.616649
O O19 0.000000 0.178078 0.302732
O O20 0.500000 0.162403 0.699815
#
# Coordination Sequence:
#
# PCOD8175022 Si02
#       8
#     8   8   8   8   8   8   8   8
#     4   9  21  40  63  87 121 165 204 244 305 370
#     4  11  24  45  67  91 123 168 214 257 312 376
#     4  12  26  41  62  96 130 162 203 258 320 372
#     4  10  19  41  68  87 116 164 213 254 306 371
#     4  11  23  39  61  94 126 163 208 254 309 373
#     4  10  23  43  66  90 123 167 214 255 307 377
#     4  11  23  43  64  90 127 166 206 258 316 370
#     4  10  20  40  67  91 116 159 210 262 311 357
#
# _framework density 20.183350000000001
#
# number of rings (size 3 to 8) (size 9 to 14) (size 15 to 20)
#    0.000    1.500    2.500    2.250    3.500    2.000 
#    0.000    2.500    0.000    0.000    0.000    0.000 
#    0.000    0.000    0.000    0.000    0.000    0.000 
#
# Total GULP energy -396891.140879 kJ/mol
# GULP energy per Si atom -12402.848152 kJ/mol
# Density = 2.013741 g / cm^3
# Si number density = 20.183350 Si / 1000 Ang^3
#
#
#
# Elastic Constant Matrix: (Units=GPa)
#
#
# Indices 1 2 3 4 5 6 
#
# 1 59.3243 20.8674 26.0941 0.0000 0.0000 0.0000
# 2 20.8674 99.0407 27.1878 0.0000 0.0000 0.0000
# 3 26.0941 27.1878 101.9109 0.0000 0.0000 0.0000
# 4 0.0000 0.0000 0.0000 29.9325 0.0000 0.0000
# 5 0.0000 0.0000 0.0000 0.0000 27.8406 0.0000
# 6 0.0000 0.0000 0.0000 0.0000 0.0000 36.4838
#
#
#
# Elastic Compliance Matrix: (Units=1/GPa)
#
#
# Indices 1 2 3 4 5 6 
#
# 1 0.019788 -0.002998 -0.004267 0.000000 0.000000 0.000000
# 2 -0.002998 0.011349 -0.002260 0.000000 0.000000 0.000000
# 3 -0.004267 -0.002260 0.011508 0.000000 0.000000 0.000000
# 4 0.000000 0.000000 0.000000 0.033408 0.000000 0.000000
# 5 0.000000 0.000000 0.000000 0.000000 0.035919 0.000000
# 6 0.000000 0.000000 0.000000 0.000000 0.000000 0.027409
#
#
# Mechanical properties :
#
#
# Convention : Reuss Voigt Hill
#
# Bulk Modulus (GPa) = 42.38176 45.39717 43.88946
# Shear Modulus (GPa) = 30.06687 31.25983 30.66335
#
# Velocity S-wave (km/s) = 3.86383 3.93974 3.90197
# Velocity P-wave (km/s) = 6.39919 6.57546 6.48792
#
# Compressibility (1/GPa) = 0.02359506
#
# Stress axis : x y z
#
# Youngs Moduli (GPa) = 50.53614 88.11418 86.89648
#
# Poissons Ratio (x) = 0.26416 0.37078
# Poissons Ratio (y) = 0.15150 0.19639
# Poissons Ratio (z) = 0.21563 0.19914
#
# Static dielectric constant tensor:
#      x y z
#    x 3.469470 0.000000 0.000000 
#    y 0.000000 3.693840 0.000000 
#    z 0.000000 0.000000 3.795890 
# 
# 
# High freq. dielectric constant tensor:
#      x y z
#    x 1.770630 0.000000 0.000000 
#    y 0.000000 1.800320 0.000000 
#    z 0.000000 0.000000 1.796210 
# 
# From -- ./inp_files/10991.got.cif
#   From: 2010.03.12/outbox.cif.g09.slc.cpg/sg36_6_cif.got.tgz:10991.got - 2010.04.14 02:13:53.
