data_PCOD8175800
_publ_section_title
;
Structure prediction by ZEFSAII (Michael W. Deem and Ramdas Pophale) SiO2 
 PCOD8175800
Probable space group: C M C 21
;
_chemical_formula_sum "Si O2"
_cell_formula_units_Z 56
_cell_length_a 18.954616
_cell_length_b 12.582565
_cell_length_c 12.556734
_cell_angle_alpha 90.000000
_cell_angle_beta 90.000000
_cell_angle_gamma 90.000000
_cell_volume 2994.752026
_symmetry_space_group_name_H-M "C M C 21"
_symmetry_group_IT_number 36
_symmetry_cell_setting 'orthorhombic'
loop_
_space_group_symop_operation_xyz
x,y,z
-x,-y,1/2+z
x,-y,1/2+z
-x,y,z
1/2+x,1/2+y,z
1/2-x,1/2-y,1/2+z
1/2+x,1/2-y,1/2+z
1/2-x,1/2+y,z
loop_
_atom_site_type_symbol
_atom_site_label
_atom_site_fract_x
_atom_site_fract_y
_atom_site_fract_z
Si Si1 0.678415 0.399878 0.787610
Si Si2 0.648070 0.620612 0.680317
Si Si3 0.418247 0.829333 0.746251
Si Si4 0.727364 0.250000 0.607322
Si Si5 0.178415 0.600122 0.427035
Si Si6 0.081753 0.829333 0.968393
Si Si7 0.148070 0.620612 0.034327
O O1 0.655444 0.514983 0.747295
O O2 0.681430 0.321471 0.686726
O O3 0.750000 0.402524 0.857322
O O4 0.612728 0.360771 0.855389
O O5 0.592186 0.702624 0.731549
O O6 0.725173 0.673642 0.680628
O O7 0.622655 0.601724 0.558674
O O8 0.500000 0.858078 0.742437
O O9 0.387272 0.860771 0.859256
O O10 0.377345 0.898276 0.655971
O O11 0.681430 0.178529 0.527919
O O12 0.774827 0.326358 0.534017
O O13 0.155444 0.485017 0.467349
O O14 0.000000 0.858078 0.972208
O O15 0.092186 0.702624 0.983096
#
# Coordination Sequence:
#
# PCOD8175800 Si02
#       7
#     8   8   8   8   8   8   8
#     4  12  23  37  66  95 120 156 206 254 307 354
#     4  10  21  38  63  85 122 159 202 249 293 371
#     4  10  23  42  60  87 124 165 201 243 306 368
#     4  10  22  40  56  96 120 152 196 264 296 350
#     4  12  23  37  66  95 120 156 206 254 307 354
#     4  10  23  42  60  87 124 165 201 243 306 368
#     4  10  21  38  63  85 122 159 202 249 293 371
#
# _framework density 18.699377999999999
#
# number of rings (size 3 to 8) (size 9 to 14) (size 15 to 20)
#    0.000    1.714    5.714    2.571    4.000    2.286 
#    0.000    0.714    0.000    0.000    0.000    0.000 
#    0.000    0.000    0.000    0.000    0.000    0.000 
#
# Total GULP energy -347147.104613 kJ/mol
# GULP energy per Si atom -12398.110879 kJ/mol
# Density = 1.865682 g / cm^3
# Si number density = 18.699378 Si / 1000 Ang^3
#
#
#
# Elastic Constant Matrix: (Units=GPa)
#
#
# Indices 1 2 3 4 5 6 
#
# 1 59.4498 33.2028 32.6754 0.0000 0.0000 0.0000
# 2 33.2028 75.5133 47.5726 0.0000 0.0000 0.0000
# 3 32.6754 47.5726 73.5116 0.0000 0.0000 0.0000
# 4 0.0000 0.0000 0.0000 34.4925 0.0000 0.0000
# 5 0.0000 0.0000 0.0000 0.0000 25.5707 0.0000
# 6 0.0000 0.0000 0.0000 0.0000 0.0000 9.1770
#
#
#
# Elastic Compliance Matrix: (Units=1/GPa)
#
#
# Indices 1 2 3 4 5 6 
#
# 1 0.023995 -0.006468 -0.006480 0.000000 0.000000 0.000000
# 2 -0.006468 0.024102 -0.012722 0.000000 0.000000 0.000000
# 3 -0.006480 -0.012722 0.024716 0.000000 0.000000 0.000000
# 4 0.000000 0.000000 0.000000 0.028992 0.000000 0.000000
# 5 0.000000 0.000000 0.000000 0.000000 0.039107 0.000000
# 6 0.000000 0.000000 0.000000 0.000000 0.000000 0.108968
#
#
# Mechanical properties :
#
#
# Convention : Reuss Voigt Hill
#
# Bulk Modulus (GPa) = 46.57037 48.37514 47.47275
# Shear Modulus (GPa) = 16.21392 20.18299 18.19846
#
# Velocity S-wave (km/s) = 2.94782 3.28890 3.12302
# Velocity P-wave (km/s) = 6.04525 6.35205 6.20055
#
# Compressibility (1/GPa) = 0.02147288
#
# Stress axis : x y z
#
# Youngs Moduli (GPa) = 41.67557 41.49114 40.45897
#
# Poissons Ratio (x) = 0.26838 0.26216
# Poissons Ratio (y) = 0.26957 0.51472
# Poissons Ratio (z) = 0.27004 0.52785
#
# Static dielectric constant tensor:
#      x y z
#    x 3.255070 0.000000 0.000000 
#    y 0.000000 3.403100 0.000000 
#    z 0.000000 0.000000 3.537130 
# 
# 
# High freq. dielectric constant tensor:
#      x y z
#    x 1.712530 0.000000 0.000000 
#    y 0.000000 1.719640 0.000000 
#    z 0.000000 0.000000 1.732810 
# 
# From -- ./inp_files/9239.got.cif
#   From: 2010.03.12/outbox.cif.g09.slc.cpg/sg36_5_cif.got.tgz:9239.got - 2010.04.14 02:13:53.
