data_PCOD8175449
_publ_section_title
;
Structure prediction by ZEFSAII (Michael W. Deem and Ramdas Pophale) SiO2 
 PCOD8175449
Probable space group: C M C 21
;
_chemical_formula_sum "Si O2"
_cell_formula_units_Z 64
_cell_length_a 9.340513
_cell_length_b 24.532396
_cell_length_c 13.708827
_cell_angle_alpha 90.000000
_cell_angle_beta 90.000000
_cell_angle_gamma 90.000000
_cell_volume 3141.311408
_symmetry_space_group_name_H-M "C M C 21"
_symmetry_group_IT_number 36
_symmetry_cell_setting 'orthorhombic'
loop_
_space_group_symop_operation_xyz
x,y,z
-x,-y,1/2+z
x,-y,1/2+z
-x,y,z
1/2+x,1/2+y,z
1/2-x,1/2-y,1/2+z
1/2+x,1/2-y,1/2+z
1/2-x,1/2+y,z
loop_
_atom_site_type_symbol
_atom_site_label
_atom_site_fract_x
_atom_site_fract_y
_atom_site_fract_z
Si Si1 0.335602 0.631487 0.365290
Si Si2 0.337140 0.430177 0.676790
Si Si3 0.341615 0.547190 0.681749
Si Si4 0.337939 0.075576 0.986033
Si Si5 0.159921 0.977755 0.955972
Si Si6 0.668212 0.157233 0.686522
Si Si7 0.829833 0.285412 0.985845
Si Si8 0.837999 0.307719 0.395581
O O1 0.500000 0.643769 0.396438
O O2 0.323717 0.620541 0.250502
O O3 0.273189 0.578545 0.419415
O O4 0.234111 0.680868 0.395424
O O5 0.500000 0.433403 0.636339
O O6 0.301869 0.488578 0.733267
O O7 0.229655 0.414783 0.591441
O O8 0.500000 0.567940 0.711478
O O9 0.339637 0.525299 0.571793
O O10 0.234978 0.597069 0.697773
O O11 0.500000 0.056137 0.001152
O O12 0.328166 0.129518 0.923059
O O13 0.254396 0.029573 0.923912
O O14 0.000000 0.984929 0.912612
O O15 0.500000 0.147171 0.680475
O O16 0.722012 0.189080 0.589365
O O17 0.706596 0.194580 0.780710
O O18 0.767124 0.225127 0.967763
O O19 0.000000 0.283195 0.980094
O O20 0.000000 0.285464 0.408681
#
# Coordination Sequence:
#
# PCOD8175449 Si02
#       8
#     8   8   8   8   8   8   8   8
#     4  10  20  37  60  85 118 161 197 234 289 350
#     4   9  20  36  56  86 123 162 200 236 287 354
#     4   9  17  32  55  85 117 150 194 238 280 338
#     4  10  21  37  57  84 119 155 195 245 296 343
#     4   9  18  33  56  84 117 155 193 233 285 349
#     4  10  22  40  60  84 114 149 190 240 294 349
#     4  11  24  41  62  89 117 148 197 252 296 344
#     4  10  24  44  62  83 115 158 200 238 295 359
#
# _framework density 20.373654999999999
#
# number of rings (size 3 to 8) (size 9 to 14) (size 15 to 20)
#    0.000    2.250    1.250    1.500    1.750    6.000 
#    0.000    3.750    0.000    0.000    0.000    0.000 
#    0.000    0.000    0.000    0.000    0.000    0.000 
#
# Total GULP energy -396667.837061 kJ/mol
# GULP energy per Si atom -12395.869908 kJ/mol
# Density = 2.032728 g / cm^3
# Si number density = 20.373655 Si / 1000 Ang^3
#
#
#
# Elastic Constant Matrix: (Units=GPa)
#
#
# Indices 1 2 3 4 5 6 
#
# 1 82.9618 34.1017 28.5691 0.0000 0.0000 0.0000
# 2 34.1017 65.6719 17.7759 0.0000 0.0000 0.0000
# 3 28.5691 17.7759 50.6305 0.0000 0.0000 0.0000
# 4 0.0000 0.0000 0.0000 25.9062 0.0000 0.0000
# 5 0.0000 0.0000 0.0000 0.0000 24.7548 0.0000
# 6 0.0000 0.0000 0.0000 0.0000 0.0000 40.4904
#
#
#
# Elastic Compliance Matrix: (Units=1/GPa)
#
#
# Indices 1 2 3 4 5 6 
#
# 1 0.017516 -0.007094 -0.007393 0.000000 0.000000 0.000000
# 2 -0.007094 0.019700 -0.002913 0.000000 0.000000 0.000000
# 3 -0.007393 -0.002913 0.024945 0.000000 0.000000 0.000000
# 4 0.000000 0.000000 0.000000 0.038601 0.000000 0.000000
# 5 0.000000 0.000000 0.000000 0.000000 0.040396 0.000000
# 6 0.000000 0.000000 0.000000 0.000000 0.000000 0.024697
#
#
# Mechanical properties :
#
#
# Convention : Reuss Voigt Hill
#
# Bulk Modulus (GPa) = 36.54992 40.01751 38.28372
# Shear Modulus (GPa) = 23.83499 26.15145 24.99322
#
# Velocity S-wave (km/s) = 3.42408 3.58661 3.50629
# Velocity P-wave (km/s) = 5.79751 6.06928 5.93495
#
# Compressibility (1/GPa) = 0.02735984
#
# Stress axis : x y z
#
# Youngs Moduli (GPa) = 57.09161 50.76219 40.08780
#
# Poissons Ratio (x) = 0.36013 0.29636
# Poissons Ratio (y) = 0.40503 0.11679
# Poissons Ratio (z) = 0.42206 0.14788
#
# Static dielectric constant tensor:
#      x y z
#    x 3.639900 0.000000 0.000000 
#    y 0.000000 3.643040 0.000000 
#    z 0.000000 0.000000 3.756280 
# 
# 
# High freq. dielectric constant tensor:
#      x y z
#    x 1.783010 0.000000 0.000000 
#    y 0.000000 1.795070 0.000000 
#    z 0.000000 0.000000 1.799420 
# 
# From -- ./inp_files/10933.got.cif
#   From: 2010.03.12/outbox.cif.g09.slc.cpg/sg36_6_cif.got.tgz:10933.got - 2010.04.14 02:13:53.
