data_PCOD8175250
_publ_section_title
;
Structure prediction by ZEFSAII (Michael W. Deem and Ramdas Pophale) SiO2 
 PCOD8175250
Probable space group: C M C 21
;
_chemical_formula_sum "Si O2"
_cell_formula_units_Z 64
_cell_length_a 8.845123
_cell_length_b 29.089969
_cell_length_c 12.346573
_cell_angle_alpha 90.000000
_cell_angle_beta 90.000000
_cell_angle_gamma 90.000000
_cell_volume 3176.826988
_symmetry_space_group_name_H-M "C M C 21"
_symmetry_group_IT_number 36
_symmetry_cell_setting 'orthorhombic'
loop_
_space_group_symop_operation_xyz
x,y,z
-x,-y,1/2+z
x,-y,1/2+z
-x,y,z
1/2+x,1/2+y,z
1/2-x,1/2-y,1/2+z
1/2+x,1/2-y,1/2+z
1/2-x,1/2+y,z
loop_
_atom_site_type_symbol
_atom_site_label
_atom_site_fract_x
_atom_site_fract_y
_atom_site_fract_z
Si Si1 0.179657 0.337274 0.071890
Si Si2 0.829698 0.067515 0.622137
Si Si3 0.674569 0.977141 0.554443
Si Si4 0.168822 0.931718 0.368045
Si Si5 0.324789 0.226150 0.765886
Si Si6 0.675284 0.116685 0.166636
Si Si7 0.673603 0.846169 0.437718
Si Si8 0.179332 0.823140 0.839587
O O1 0.223832 0.389371 0.098795
O O2 0.245913 0.303320 0.166261
O O3 0.000000 0.334670 0.065230
O O4 0.248931 0.322738 0.957893
O O5 0.825323 0.051859 0.745807
O O6 0.000000 0.079512 0.584235
O O7 0.772745 0.022640 0.561338
O O8 0.500000 0.989578 0.569214
O O9 0.705591 0.959769 0.433434
O O10 0.721689 0.935728 0.636261
O O11 0.213416 0.878373 0.371095
O O12 0.000000 0.938326 0.416571
O O13 0.500000 0.228963 0.739769
O O14 0.297994 0.203620 0.884952
O O15 0.260090 0.277855 0.775343
O O16 0.500000 0.119011 0.197962
O O17 0.770918 0.132327 0.270698
O O18 0.710994 0.151037 0.065744
O O19 0.500000 0.862212 0.419641
O O20 0.000000 0.822949 0.852682
#
# Coordination Sequence:
#
# PCOD8175250 Si02
#       8
#     8   8   8   8   8   8   8   8
#     4  11  23  42  65  89 122 162 209 252 300 369
#     4  11  23  39  61  91 124 157 198 252 313 364
#     4  10  22  39  62  88 118 162 210 251 300 366
#     4  10  20  35  56  86 120 152 193 249 307 360
#     4   9  20  38  61  88 118 157 201 250 304 362
#     4   9  20  38  60  87 119 159 207 251 300 364
#     4   9  17  35  61  84 111 151 199 251 298 355
#     4  11  24  40  60  89 128 166 203 254 316 364
#
# _framework density 20.145889
#
# number of rings (size 3 to 8) (size 9 to 14) (size 15 to 20)
#    0.000    2.000    1.250    2.625    1.750    5.000 
#    0.000    5.625    0.000    0.000    0.000    0.000 
#    0.000    0.000    0.000    0.000    0.000    0.000 
#
# Total GULP energy -396693.527666 kJ/mol
# GULP energy per Si atom -12396.672740 kJ/mol
# Density = 2.010004 g / cm^3
# Si number density = 20.145889 Si / 1000 Ang^3
#
#
#
# Elastic Constant Matrix: (Units=GPa)
#
#
# Indices 1 2 3 4 5 6 
#
# 1 63.7694 26.3269 32.6177 0.0000 0.0000 0.0000
# 2 26.3269 105.2374 43.7178 0.0000 0.0000 0.0000
# 3 32.6177 43.7178 94.6033 0.0000 0.0000 0.0000
# 4 0.0000 0.0000 0.0000 25.1839 0.0000 0.0000
# 5 0.0000 0.0000 0.0000 0.0000 30.1979 0.0000
# 6 0.0000 0.0000 0.0000 0.0000 0.0000 27.8593
#
#
#
# Elastic Compliance Matrix: (Units=1/GPa)
#
#
# Indices 1 2 3 4 5 6 
#
# 1 0.019595 -0.002593 -0.005558 0.000000 0.000000 0.000000
# 2 -0.002593 0.012103 -0.004699 0.000000 0.000000 0.000000
# 3 -0.005558 -0.004699 0.014658 0.000000 0.000000 0.000000
# 4 0.000000 0.000000 0.000000 0.039708 0.000000 0.000000
# 5 0.000000 0.000000 0.000000 0.000000 0.033115 0.000000
# 6 0.000000 0.000000 0.000000 0.000000 0.000000 0.035895
#
#
# Mechanical properties :
#
#
# Convention : Reuss Voigt Hill
#
# Bulk Modulus (GPa) = 48.41108 52.10390 50.25749
# Shear Modulus (GPa) = 26.64415 27.37806 27.01111
#
# Velocity S-wave (km/s) = 3.64065 3.69045 3.66563
# Velocity P-wave (km/s) = 6.46180 6.63917 6.55109
#
# Compressibility (1/GPa) = 0.02065643
#
# Stress axis : x y z
#
# Youngs Moduli (GPa) = 51.03401 82.62337 68.22171
#
# Poissons Ratio (x) = 0.21426 0.37915
# Poissons Ratio (y) = 0.13234 0.32057
# Poissons Ratio (z) = 0.28363 0.38824
#
# Static dielectric constant tensor:
#      x y z
#    x 3.625810 0.000000 0.000000 
#    y 0.000000 3.691980 0.000000 
#    z 0.000000 0.000000 3.657240 
# 
# 
# High freq. dielectric constant tensor:
#      x y z
#    x 1.778600 0.000000 0.000000 
#    y 0.000000 1.784660 0.000000 
#    z 0.000000 0.000000 1.786140 
# 
# From -- ./inp_files/7178.got.cif
#   From: 2010.03.12/outbox.cif.g09.slc.cpg/sg36_4_cif.got.tgz:7178.got - 2010.04.14 02:13:53.
