data_PCOD8175265
_publ_section_title
;
Structure prediction by ZEFSAII (Michael W. Deem and Ramdas Pophale) SiO2 
 PCOD8175265
Probable space group: C M C 21
;
_chemical_formula_sum "Si O2"
_cell_formula_units_Z 64
_cell_length_a 8.584420
_cell_length_b 20.808961
_cell_length_c 18.283582
_cell_angle_alpha 90.000000
_cell_angle_beta 90.000000
_cell_angle_gamma 90.000000
_cell_volume 3266.048562
_symmetry_space_group_name_H-M "C M C 21"
_symmetry_group_IT_number 36
_symmetry_cell_setting 'orthorhombic'
loop_
_space_group_symop_operation_xyz
x,y,z
-x,-y,1/2+z
x,-y,1/2+z
-x,y,z
1/2+x,1/2+y,z
1/2-x,1/2-y,1/2+z
1/2+x,1/2-y,1/2+z
1/2-x,1/2+y,z
loop_
_atom_site_type_symbol
_atom_site_label
_atom_site_fract_x
_atom_site_fract_y
_atom_site_fract_z
Si Si1 0.679483 0.750834 0.336380
Si Si2 0.321013 0.491142 0.588728
Si Si3 0.819904 0.871612 0.411503
Si Si4 0.319709 0.250667 0.182600
Si Si5 0.821523 0.502316 0.935634
Si Si6 0.321223 0.140706 0.430839
Si Si7 0.683791 0.646445 0.080771
Si Si8 0.684420 0.628732 0.589765
O O1 0.500000 0.767603 0.346284
O O2 0.777877 0.812753 0.359288
O O3 0.716036 0.734324 0.252449
O O4 0.716859 0.688317 0.383911
O O5 0.500000 0.487549 0.607784
O O6 0.299007 0.494617 0.501949
O O7 0.253651 0.422124 0.614971
O O8 0.255146 0.558693 0.620545
O O9 0.724833 0.935997 0.385870
O O10 0.778723 0.851541 0.494511
O O11 0.000000 0.887464 0.401718
O O12 0.500000 0.246404 0.204236
O O13 0.284254 0.201116 0.118110
O O14 0.275011 0.321005 0.152815
O O15 0.798968 0.431997 0.898778
O O16 0.000000 0.508874 0.962468
O O17 0.500000 0.162619 0.424015
O O18 0.274328 0.145988 0.515665
O O19 0.500000 0.656790 0.094581
O O20 0.500000 0.627155 0.572466
#
# Coordination Sequence:
#
# PCOD8175265 Si02
#       8
#     8   8   8   8   8   8   8   8
#     4  12  25  39  55  75 105 145 187 229 271 320
#     4   8  15  30  52  78 107 137 173 217 262 310
#     4  10  20  36  59  84 111 142 177 220 268 319
#     4  11  23  37  53  75 106 142 179 223 271 319
#     4   9  17  30  52  83 113 139 172 216 265 316
#     4  10  20  35  57  84 113 142 176 222 270 318
#     4   9  18  33  55  81 107 137 172 213 261 315
#     4   9  18  34  57  82 106 138 180 220 262 317
#
# _framework density 19.595544
#
# number of rings (size 3 to 8) (size 9 to 14) (size 15 to 20)
#    0.000    2.250    0.000    4.125    0.000    7.000 
#    0.000    1.250    0.000    4.500    0.000    0.000 
#    0.000    0.000    0.000    0.000    0.000    0.000 
#
# Total GULP energy -396551.181917 kJ/mol
# GULP energy per Si atom -12392.224435 kJ/mol
# Density = 1.955094 g / cm^3
# Si number density = 19.595544 Si / 1000 Ang^3
#
#
#
# Elastic Constant Matrix: (Units=GPa)
#
#
# Indices 1 2 3 4 5 6 
#
# 1 47.8707 23.8402 20.7485 0.0000 0.0000 0.0000
# 2 23.8402 105.9642 10.9220 0.0000 0.0000 0.0000
# 3 20.7485 10.9220 38.2263 0.0000 0.0000 0.0000
# 4 0.0000 0.0000 0.0000 5.6177 0.0000 0.0000
# 5 0.0000 0.0000 0.0000 0.0000 25.1907 0.0000
# 6 0.0000 0.0000 0.0000 0.0000 0.0000 30.4840
#
#
#
# Elastic Compliance Matrix: (Units=1/GPa)
#
#
# Indices 1 2 3 4 5 6 
#
# 1 0.029860 -0.005201 -0.014722 0.000000 0.000000 0.000000
# 2 -0.005201 0.010629 -0.000214 0.000000 0.000000 0.000000
# 3 -0.014722 -0.000214 0.034212 0.000000 0.000000 0.000000
# 4 0.000000 0.000000 0.000000 0.178009 0.000000 0.000000
# 5 0.000000 0.000000 0.000000 0.000000 0.039697 0.000000
# 6 0.000000 0.000000 0.000000 0.000000 0.000000 0.032804
#
#
# Mechanical properties :
#
#
# Convention : Reuss Voigt Hill
#
# Bulk Modulus (GPa) = 29.04575 33.67583 31.36079
# Shear Modulus (GPa) = 13.26396 21.36184 17.31290
#
# Velocity S-wave (km/s) = 2.60453 3.30531 2.97562
# Velocity P-wave (km/s) = 4.88872 5.63822 5.27679
#
# Compressibility (1/GPa) = 0.03442844
#
# Stress axis : x y z
#
# Youngs Moduli (GPa) = 33.48914 94.07964 29.22962
#
# Poissons Ratio (x) = 0.48928 0.43031
# Poissons Ratio (y) = 0.17417 0.00626
# Poissons Ratio (z) = 0.49302 0.02015
#
# Static dielectric constant tensor:
#      x y z
#    x 3.493940 0.000000 0.000000 
#    y 0.000000 4.195830 0.000000 
#    z 0.000000 0.000000 3.139510 
# 
# 
# High freq. dielectric constant tensor:
#      x y z
#    x 1.761950 0.000000 0.000000 
#    y 0.000000 1.793790 0.000000 
#    z 0.000000 0.000000 1.712530 
# 
# From -- ./inp_files/13908.got.cif
#   From: 2010.03.12/outbox.cif.g09.slc.cpg/sg36_7_cif.got.tgz:13908.got - 2010.04.14 02:13:53.
