data_PCOD8175974
_publ_section_title
;
Structure prediction by ZEFSAII (Michael W. Deem and Ramdas Pophale) SiO2 
 PCOD8175974
Probable space group: C M C 21
;
_chemical_formula_sum "Si O2"
_cell_formula_units_Z 56
_cell_length_a 9.035543
_cell_length_b 14.610731
_cell_length_c 20.149812
_cell_angle_alpha 90.000000
_cell_angle_beta 90.000000
_cell_angle_gamma 90.000000
_cell_volume 2660.095328
_symmetry_space_group_name_H-M "C M C 21"
_symmetry_group_IT_number 36
_symmetry_cell_setting 'orthorhombic'
loop_
_space_group_symop_operation_xyz
x,y,z
-x,-y,1/2+z
x,-y,1/2+z
-x,y,z
1/2+x,1/2+y,z
1/2-x,1/2-y,1/2+z
1/2+x,1/2-y,1/2+z
1/2-x,1/2+y,z
loop_
_atom_site_type_symbol
_atom_site_label
_atom_site_fract_x
_atom_site_fract_y
_atom_site_fract_z
Si Si1 0.326309 0.787030 0.259150
Si Si2 0.832721 0.369722 0.840055
Si Si3 0.335607 0.875850 0.466820
Si Si4 0.162918 0.005994 0.552095
Si Si5 0.675859 0.440175 0.338744
Si Si6 0.252993 0.677186 0.482711
Si Si7 0.838310 0.642227 0.621756
O O1 0.500000 0.776500 0.277294
O O2 0.233110 0.707129 0.292322
O O3 0.264750 0.884289 0.283414
O O4 0.296254 0.785845 0.179683
O O5 0.725149 0.455440 0.832700
O O6 0.841548 0.334235 0.915863
O O7 0.000000 0.392932 0.817803
O O8 0.500000 0.915021 0.450851
O O9 0.219283 0.898736 0.409732
O O10 0.353853 0.767182 0.476104
O O11 0.273639 0.924072 0.533065
O O12 0.153225 0.083306 0.493338
O O13 0.224723 0.056138 0.618500
O O14 0.000000 0.966219 0.565923
O O15 0.500000 0.431372 0.329034
O O16 0.154554 0.691805 0.549448
O O17 0.000000 0.602255 0.638465
#
# Coordination Sequence:
#
# PCOD8175974 Si02
#       7
#     8   8   8   8   8   8   8
#     4  11  24  44  67  92 129 172 213 264 323 385
#     4  12  24  41  69  98 129 168 211 267 323 381
#     4  12  23  38  63  94 128 165 207 258 319 381
#     4  10  22  39  62  91 124 161 205 260 311 369
#     4  12  25  40  63  93 127 165 212 265 318 381
#     4  10  23  39  67  92 125 164 209 263 313 377
#     4   9  21  43  67  90 124 169 211 261 319 378
#
# _framework density 21.051877999999999
#
# number of rings (size 3 to 8) (size 9 to 14) (size 15 to 20)
#    0.857    0.286    2.857    3.857    0.000    4.000 
#    2.571    0.000    0.000    0.000    0.000    0.000 
#    0.000    0.000    0.000    0.000    0.000    0.000 
#
# Total GULP energy -346984.516229 kJ/mol
# GULP energy per Si atom -12392.304151 kJ/mol
# Density = 2.100396 g / cm^3
# Si number density = 21.051878 Si / 1000 Ang^3
#
#
#
# Elastic Constant Matrix: (Units=GPa)
#
#
# Indices 1 2 3 4 5 6 
#
# 1 115.9214 7.4675 5.7554 0.0000 0.0000 0.0000
# 2 7.4675 85.8534 4.5588 0.0000 0.0000 0.0000
# 3 5.7554 4.5588 64.7330 0.0000 0.0000 0.0000
# 4 0.0000 0.0000 0.0000 27.4534 0.0000 0.0000
# 5 0.0000 0.0000 0.0000 0.0000 23.2997 0.0000
# 6 0.0000 0.0000 0.0000 0.0000 0.0000 29.8457
#
#
#
# Elastic Compliance Matrix: (Units=1/GPa)
#
#
# Indices 1 2 3 4 5 6 
#
# 1 0.008709 -0.000719 -0.000724 0.000000 0.000000 0.000000
# 2 -0.000719 0.011751 -0.000764 0.000000 0.000000 0.000000
# 3 -0.000724 -0.000764 0.015566 0.000000 0.000000 0.000000
# 4 0.000000 0.000000 0.000000 0.036425 0.000000 0.000000
# 5 0.000000 0.000000 0.000000 0.000000 0.042919 0.000000
# 6 0.000000 0.000000 0.000000 0.000000 0.000000 0.033506
#
#
# Mechanical properties :
#
#
# Convention : Reuss Voigt Hill
#
# Bulk Modulus (GPa) = 31.63241 33.56348 32.59795
# Shear Modulus (GPa) = 30.52014 32.70149 31.61081
#
# Velocity S-wave (km/s) = 3.81170 3.94557 3.87921
# Velocity P-wave (km/s) = 5.86776 6.06090 5.96511
#
# Compressibility (1/GPa) = 0.03161314
#
# Stress axis : x y z
#
# Youngs Moduli (GPa) = 114.82657 85.10020 64.24183
#
# Poissons Ratio (x) = 0.06119 0.04649
# Poissons Ratio (y) = 0.08257 0.04906
# Poissons Ratio (z) = 0.08310 0.06498
#
# Static dielectric constant tensor:
#      x y z
#    x 3.646940 0.000000 0.000000 
#    y 0.000000 3.773640 0.000000 
#    z 0.000000 0.000000 3.778470 
# 
# 
# High freq. dielectric constant tensor:
#      x y z
#    x 1.827830 0.000000 0.000000 
#    y 0.000000 1.818630 0.000000 
#    z 0.000000 0.000000 1.810730 
# 
# From -- ./inp_files/15477.got.cif
#   From: 2010.03.12/outbox.cif.g09.slc.cpg/sg36_8_cif.got.tgz:15477.got - 2010.04.14 02:13:53.
