data_PCOD8175188
_publ_section_title
;
Structure prediction by ZEFSAII (Michael W. Deem and Ramdas Pophale) SiO2 
 PCOD8175188
Probable space group: C M C 21
;
_chemical_formula_sum "Si O2"
_cell_formula_units_Z 48
_cell_length_a 7.727900
_cell_length_b 13.859282
_cell_length_c 22.951953
_cell_angle_alpha 90.000000
_cell_angle_beta 90.000000
_cell_angle_gamma 90.000000
_cell_volume 2458.226359
_symmetry_space_group_name_H-M "C M C 21"
_symmetry_group_IT_number 36
_symmetry_cell_setting 'orthorhombic'
loop_
_space_group_symop_operation_xyz
x,y,z
-x,-y,1/2+z
x,-y,1/2+z
-x,y,z
1/2+x,1/2+y,z
1/2-x,1/2-y,1/2+z
1/2+x,1/2-y,1/2+z
1/2-x,1/2+y,z
loop_
_atom_site_type_symbol
_atom_site_label
_atom_site_fract_x
_atom_site_fract_y
_atom_site_fract_z
Si Si1 0.500000 0.862629 0.832660
Si Si2 0.000000 0.131441 0.829857
Si Si3 0.310080 0.145171 0.619002
Si Si4 0.500000 0.866473 0.699473
Si Si5 0.500000 0.637198 0.696460
Si Si6 0.698900 0.485188 0.022487
Si Si7 0.694909 0.632122 0.119563
Si Si8 0.192808 0.977100 0.891230
O O1 0.500000 0.746467 0.839897
O O2 0.500000 0.898174 0.766233
O O3 0.326368 0.905441 0.860593
O O4 0.000000 0.100419 0.762317
O O5 0.171624 0.081625 0.858802
O O6 0.500000 0.130217 0.646922
O O7 0.169238 0.097423 0.662382
O O8 0.305061 0.097970 0.555213
O O9 0.269556 0.256346 0.609201
O O10 0.500000 0.751776 0.696825
O O11 0.670779 0.908635 0.667539
O O12 0.500000 0.454533 0.023466
O O13 0.729338 0.584852 0.056818
O O14 0.763638 0.496931 0.956367
O O15 0.500000 0.611527 0.142333
O O16 0.000000 0.928123 0.891995
#
# Coordination Sequence:
#
# PCOD8175188 Si02
#       8
#     4   4   8   4   4   8   8   8
#     4  11  22  43  67  85 121 168 197 253 308 342
#     4   9  22  45  63  85 125 164 199 253 302 346
#     4  10  20  34  57  88 114 150 190 230 298 358
#     4   9  20  35  58  87 115 146 200 233 287 366
#     4   9  18  39  56  81 123 150 182 249 289 344
#     4  10  20  38  57  82 121 147 188 247 286 344
#     4   9  20  36  55  84 120 151 182 236 298 349
#     4   9  23  43  58  89 123 154 214 251 284 370
#
# _framework density 19.526274999999998
#
# number of rings (size 3 to 8) (size 9 to 14) (size 15 to 20)
#    0.500    2.000    0.833    0.000    2.333    3.333 
#    3.000    1.667    0.000    0.000    0.000    0.000 
#    0.000    0.000    0.000    0.000    0.000    0.000 
#
# Total GULP energy -297456.060493 kJ/mol
# GULP energy per Si atom -12394.002521 kJ/mol
# Density = 1.948183 g / cm^3
# Si number density = 19.526275 Si / 1000 Ang^3
#
#
#
# Elastic Constant Matrix: (Units=GPa)
#
#
# Indices 1 2 3 4 5 6 
#
# 1 115.8188 52.4764 77.8526 0.0000 0.0000 0.0000
# 2 52.4764 75.6485 48.1738 0.0000 0.0000 0.0000
# 3 77.8526 48.1738 181.3773 0.0000 0.0000 0.0000
# 4 0.0000 0.0000 0.0000 30.7394 0.0000 0.0000
# 5 0.0000 0.0000 0.0000 0.0000 24.2391 0.0000
# 6 0.0000 0.0000 0.0000 0.0000 0.0000 28.0694
#
#
#
# Elastic Compliance Matrix: (Units=1/GPa)
#
#
# Indices 1 2 3 4 5 6 
#
# 1 0.015080 -0.007629 -0.004446 0.000000 0.000000 0.000000
# 2 -0.007629 0.019770 -0.001976 0.000000 0.000000 0.000000
# 3 -0.004446 -0.001976 0.007947 0.000000 0.000000 0.000000
# 4 0.000000 0.000000 0.000000 0.032532 0.000000 0.000000
# 5 0.000000 0.000000 0.000000 0.000000 0.041256 0.000000
# 6 0.000000 0.000000 0.000000 0.000000 0.000000 0.035626
#
#
# Mechanical properties :
#
#
# Convention : Reuss Voigt Hill
#
# Bulk Modulus (GPa) = 68.06041 81.09448 74.57745
# Shear Modulus (GPa) = 26.99634 29.56568 28.28101
#
# Velocity S-wave (km/s) = 3.72232 3.89543 3.80986
# Velocity P-wave (km/s) = 7.30792 7.86471 7.59142
#
# Compressibility (1/GPa) = 0.01469283
#
# Stress axis : x y z
#
# Youngs Moduli (GPa) = 66.31448 50.58249 125.83739
#
# Poissons Ratio (x) = 0.38590 0.55952
# Poissons Ratio (y) = 0.50592 0.24868
# Poissons Ratio (z) = 0.29486 0.09996
#
# Static dielectric constant tensor:
#      x y z
#    x 3.689960 0.000000 0.000000 
#    y 0.000000 3.395260 0.000000 
#    z 0.000000 0.000000 3.724750 
# 
# 
# High freq. dielectric constant tensor:
#      x y z
#    x 1.762970 0.000000 0.000000 
#    y 0.000000 1.752780 0.000000 
#    z 0.000000 0.000000 1.757280 
# 
# From -- ./inp_files/15359.got.cif
#   From: 2010.03.12/outbox.cif.g09.slc.cpg/sg36_8_cif.got.tgz:15359.got - 2010.04.14 02:13:53.
