data_PCOD8175352
_publ_section_title
;
Structure prediction by ZEFSAII (Michael W. Deem and Ramdas Pophale) SiO2 
 PCOD8175352
Probable space group: C M C 21
;
_chemical_formula_sum "Si O2"
_cell_formula_units_Z 64
_cell_length_a 8.785995
_cell_length_b 18.346667
_cell_length_c 20.240176
_cell_angle_alpha 90.000000
_cell_angle_beta 90.000000
_cell_angle_gamma 90.000000
_cell_volume 3262.589355
_symmetry_space_group_name_H-M "C M C 21"
_symmetry_group_IT_number 36
_symmetry_cell_setting 'orthorhombic'
loop_
_space_group_symop_operation_xyz
x,y,z
-x,-y,1/2+z
x,-y,1/2+z
-x,y,z
1/2+x,1/2+y,z
1/2-x,1/2-y,1/2+z
1/2+x,1/2-y,1/2+z
1/2-x,1/2+y,z
loop_
_atom_site_type_symbol
_atom_site_label
_atom_site_fract_x
_atom_site_fract_y
_atom_site_fract_z
Si Si1 0.823446 0.201128 0.403640
Si Si2 0.678959 0.444080 0.307965
Si Si3 0.679295 0.195353 0.649480
Si Si4 0.178741 0.781493 0.286915
Si Si5 0.322429 0.785871 0.534520
Si Si6 0.180525 0.959078 0.161489
Si Si7 0.179087 0.034699 0.430172
Si Si8 0.822322 0.546685 0.050468
O O1 0.727482 0.220275 0.338732
O O2 0.775637 0.253021 0.463900
O O3 0.000000 0.210262 0.386021
O O4 0.782891 0.119187 0.423002
O O5 0.500000 0.453412 0.310834
O O6 0.726482 0.359913 0.316946
O O7 0.736713 0.472374 0.236706
O O8 0.749212 0.492125 0.366898
O O9 0.500000 0.185200 0.653138
O O10 0.737795 0.231132 0.717471
O O11 0.721624 0.249416 0.590690
O O12 0.754883 0.117337 0.634859
O O13 0.000000 0.777580 0.273133
O O14 0.500000 0.771909 0.549660
O O15 0.281418 0.870897 0.531804
O O16 0.000000 0.954248 0.156817
O O17 0.241048 0.026490 0.119060
O O18 0.263571 0.007242 0.494609
O O19 0.000000 0.020598 0.438638
O O20 0.000000 0.535144 0.059850
#
# Coordination Sequence:
#
# PCOD8175352 Si02
#       8
#     8   8   8   8   8   8   8   8
#     4  10  21  36  56  82 112 148 188 234 286 339
#     4   8  17  34  56  81 106 138 182 226 272 333
#     4  11  22  37  60  87 114 147 191 236 279 338
#     4  10  20  36  58  82 113 150 185 229 285 339
#     4  10  22  39  56  80 118 156 189 233 289 340
#     4  10  20  37  59  82 113 150 186 230 287 342
#     4  10  20  36  58  82 110 146 189 236 286 339
#     4  11  23  37  55  82 114 149 192 236 278 334
#
# _framework density 19.616322
#
# number of rings (size 3 to 8) (size 9 to 14) (size 15 to 20)
#    0.000    2.000    0.000    4.500    0.000    4.000 
#    0.000    4.375    0.000    0.000    0.000    0.000 
#    0.000    0.000    0.000    0.000    0.000    0.000 
#
# Total GULP energy -396918.327491 kJ/mol
# GULP energy per Si atom -12403.697734 kJ/mol
# Density = 1.957167 g / cm^3
# Si number density = 19.616322 Si / 1000 Ang^3
#
#
#
# Elastic Constant Matrix: (Units=GPa)
#
#
# Indices 1 2 3 4 5 6 
#
# 1 71.9366 23.5169 17.9780 0.0000 0.0000 0.0000
# 2 23.5169 61.4962 17.5120 0.0000 0.0000 0.0000
# 3 17.9780 17.5120 71.2249 0.0000 0.0000 0.0000
# 4 0.0000 0.0000 0.0000 41.1869 0.0000 0.0000
# 5 0.0000 0.0000 0.0000 0.0000 29.8813 0.0000
# 6 0.0000 0.0000 0.0000 0.0000 0.0000 25.0905
#
#
#
# Elastic Compliance Matrix: (Units=1/GPa)
#
#
# Indices 1 2 3 4 5 6 
#
# 1 0.016387 -0.005472 -0.002791 0.000000 0.000000 0.000000
# 2 -0.005472 0.019313 -0.003367 0.000000 0.000000 0.000000
# 3 -0.002791 -0.003367 0.015572 0.000000 0.000000 0.000000
# 4 0.000000 0.000000 0.000000 0.024280 0.000000 0.000000
# 5 0.000000 0.000000 0.000000 0.000000 0.033466 0.000000
# 6 0.000000 0.000000 0.000000 0.000000 0.000000 0.039856
#
#
# Mechanical properties :
#
#
# Convention : Reuss Voigt Hill
#
# Bulk Modulus (GPa) = 35.69879 35.85237 35.77558
# Shear Modulus (GPa) = 27.55258 28.94180 28.24719
#
# Velocity S-wave (km/s) = 3.75183 3.84525 3.79883
# Velocity P-wave (km/s) = 6.08328 6.16694 6.12525
#
# Compressibility (1/GPa) = 0.02801215
#
# Stress axis : x y z
#
# Youngs Moduli (GPa) = 61.02216 51.77973 64.21619
#
# Poissons Ratio (x) = 0.28334 0.17923
# Poissons Ratio (y) = 0.33391 0.21623
# Poissons Ratio (z) = 0.17031 0.17435
#
# Static dielectric constant tensor:
#      x y z
#    x 3.426710 0.000000 0.000000 
#    y 0.000000 3.609860 0.000000 
#    z 0.000000 0.000000 3.798640 
# 
# 
# High freq. dielectric constant tensor:
#      x y z
#    x 1.753410 0.000000 0.000000 
#    y 0.000000 1.764750 0.000000 
#    z 0.000000 0.000000 1.777760 
# 
# From -- ./inp_files/15668.got.cif
#   From: 2010.03.12/outbox.cif.g09.slc.cpg/sg36_8_cif.got.tgz:15668.got - 2010.04.14 02:13:53.
