data_PCOD8175289
_publ_section_title
;
Structure prediction by ZEFSAII (Michael W. Deem and Ramdas Pophale) SiO2 
 PCOD8175289
Probable space group: C M C 21
;
_chemical_formula_sum "Si O2"
_cell_formula_units_Z 64
_cell_length_a 18.178132
_cell_length_b 8.721265
_cell_length_c 20.685490
_cell_angle_alpha 90.000000
_cell_angle_beta 90.000000
_cell_angle_gamma 90.000000
_cell_volume 3279.401180
_symmetry_space_group_name_H-M "C M C 21"
_symmetry_group_IT_number 36
_symmetry_cell_setting 'orthorhombic'
loop_
_space_group_symop_operation_xyz
x,y,z
-x,-y,1/2+z
x,-y,1/2+z
-x,y,z
1/2+x,1/2+y,z
1/2-x,1/2-y,1/2+z
1/2+x,1/2-y,1/2+z
1/2-x,1/2+y,z
loop_
_atom_site_type_symbol
_atom_site_label
_atom_site_fract_x
_atom_site_fract_y
_atom_site_fract_z
Si Si1 0.175936 0.072222 0.008690
Si Si2 0.663456 0.556649 0.778092
Si Si3 0.585136 0.575975 0.395951
Si Si4 0.585325 0.930221 0.394944
Si Si5 0.176297 0.586650 0.283317
Si Si6 0.162578 0.432082 0.014172
Si Si7 0.329459 0.930533 0.641072
Si Si8 0.670896 0.424372 0.135810
O O1 0.134688 0.005282 0.073004
O O2 0.176225 0.253275 0.012293
O O3 0.132667 0.021404 0.945630
O O4 0.259842 0.016764 0.003514
O O5 0.602819 0.480014 0.823661
O O6 0.739648 0.466647 0.785970
O O7 0.630904 0.544726 0.704614
O O8 0.676033 0.732802 0.797876
O O9 0.500000 0.546061 0.410349
O O10 0.606010 0.753185 0.403767
O O11 0.500000 0.953337 0.379811
O O12 0.629861 0.996635 0.335339
O O13 0.605048 0.020612 0.459726
O O14 0.137795 0.552711 0.213364
O O15 0.126826 0.481505 0.083762
O O16 0.250744 0.007165 0.644185
O O17 0.323294 0.754459 0.620557
#
# Coordination Sequence:
#
# PCOD8175289 Si02
#       8
#     8   8   8   8   8   8   8   8
#     4  11  21  35  58  84 111 142 179 223 268 320
#     4  10  20  35  58  85 112 142 178 221 267 319
#     4  11  24  40  56  76 107 145 184 227 272 319
#     4  11  24  40  56  76 107 145 184 227 272 319
#     4  10  20  35  58  85 112 142 178 221 267 319
#     4  11  21  35  58  84 111 142 179 223 268 320
#     4   9  17  31  53  82 112 140 174 219 268 316
#     4   9  17  31  53  82 112 140 174 219 268 316
#
# _framework density 19.515758999999999
#
# number of rings (size 3 to 8) (size 9 to 14) (size 15 to 20)
#    0.000    1.750    0.000    6.750    0.000    5.000 
#    0.000    1.250    0.000    1.500    0.000    0.000 
#    0.000    0.000    0.000    0.000    0.000    0.000 
#
# Total GULP energy -396681.874081 kJ/mol
# GULP energy per Si atom -12396.308565 kJ/mol
# Density = 1.947134 g / cm^3
# Si number density = 19.515759 Si / 1000 Ang^3
#
#
#
# Elastic Constant Matrix: (Units=GPa)
#
#
# Indices 1 2 3 4 5 6 
#
# 1 24.0942 9.8609 8.2535 0.0000 0.0000 0.0000
# 2 9.8609 113.9403 22.9125 0.0000 0.0000 0.0000
# 3 8.2535 22.9125 109.6412 0.0000 0.0000 0.0000
# 4 0.0000 0.0000 0.0000 39.2634 0.0000 0.0000
# 5 0.0000 0.0000 0.0000 0.0000 2.9989 0.0000
# 6 0.0000 0.0000 0.0000 0.0000 0.0000 24.3586
#
#
#
# Elastic Compliance Matrix: (Units=1/GPa)
#
#
# Indices 1 2 3 4 5 6 
#
# 1 0.043732 -0.003260 -0.002611 0.000000 0.000000 0.000000
# 2 -0.003260 0.009405 -0.001720 0.000000 0.000000 0.000000
# 3 -0.002611 -0.001720 0.009677 0.000000 0.000000 0.000000
# 4 0.000000 0.000000 0.000000 0.025469 0.000000 0.000000
# 5 0.000000 0.000000 0.000000 0.000000 0.333453 0.000000
# 6 0.000000 0.000000 0.000000 0.000000 0.000000 0.041053
#
#
# Mechanical properties :
#
#
# Convention : Reuss Voigt Hill
#
# Bulk Modulus (GPa) = 20.99415 36.63662 28.81539
# Shear Modulus (GPa) = 10.12460 27.10078 18.61269
#
# Velocity S-wave (km/s) = 2.28017 3.73052 3.09160
# Velocity P-wave (km/s) = 4.20870 6.11304 5.24797
#
# Compressibility (1/GPa) = 0.04763232
#
# Stress axis : x y z
#
# Youngs Moduli (GPa) = 22.86641 106.33200 103.34189
#
# Poissons Ratio (x) = 0.34662 0.26981
# Poissons Ratio (y) = 0.07454 0.17774
# Poissons Ratio (z) = 0.05970 0.18288
#
# Static dielectric constant tensor:
#      x y z
#    x 3.116040 0.000000 0.000000 
#    y 0.000000 3.808520 0.000000 
#    z 0.000000 0.000000 4.484270 
# 
# 
# High freq. dielectric constant tensor:
#      x y z
#    x 1.709420 0.000000 0.000000 
#    y 0.000000 1.781910 0.000000 
#    z 0.000000 0.000000 1.788980 
# 
# From -- ./inp_files/16240.got.cif
#   From: 2010.03.12/outbox.cif.g09.slc.cpg/sg36_9_cif.got.tgz:16240.got - 2010.04.14 02:13:53.
