data_PCOD8175545
_publ_section_title
;
Structure prediction by ZEFSAII (Michael W. Deem and Ramdas Pophale) SiO2 
 PCOD8175545
Probable space group: C M C 21
;
_chemical_formula_sum "Si O2"
_cell_formula_units_Z 64
_cell_length_a 12.720015
_cell_length_b 21.993082
_cell_length_c 10.326171
_cell_angle_alpha 90.000000
_cell_angle_beta 90.000000
_cell_angle_gamma 90.000000
_cell_volume 2888.770428
_symmetry_space_group_name_H-M "C M C 21"
_symmetry_group_IT_number 36
_symmetry_cell_setting 'orthorhombic'
loop_
_space_group_symop_operation_xyz
x,y,z
-x,-y,1/2+z
x,-y,1/2+z
-x,y,z
1/2+x,1/2+y,z
1/2-x,1/2-y,1/2+z
1/2+x,1/2-y,1/2+z
1/2-x,1/2+y,z
loop_
_atom_site_type_symbol
_atom_site_label
_atom_site_fract_x
_atom_site_fract_y
_atom_site_fract_z
Si Si1 0.379482 0.989768 0.094350
Si Si2 0.115801 0.294347 0.916283
Si Si3 0.696520 0.663928 0.300153
Si Si4 0.882986 0.715795 0.900595
Si Si5 0.811314 0.639585 0.662042
Si Si6 0.378500 0.415800 0.297035
Si Si7 0.245363 0.530551 0.330215
Si Si8 0.175785 0.170260 0.010886
O O1 0.500000 0.009069 0.069654
O O2 0.376302 0.922870 0.157297
O O3 0.328748 0.035121 0.201801
O O4 0.318675 0.992038 0.956795
O O5 0.185742 0.327724 0.024717
O O6 0.106864 0.223155 0.944813
O O7 0.000000 0.322938 0.903945
O O8 0.184087 0.308245 0.788110
O O9 0.630443 0.711020 0.388638
O O10 0.701925 0.595905 0.359199
O O11 0.644726 0.662176 0.159297
O O12 0.867176 0.685350 0.760506
O O13 0.000000 0.702204 0.952534
O O14 0.799804 0.685454 0.998170
O O15 0.690048 0.625805 0.699105
O O16 0.500000 0.412783 0.255064
O O17 0.340115 0.485104 0.296527
O O18 0.358457 0.391720 0.441982
#
# Coordination Sequence:
#
# PCOD8175545 Si02
#       8
#     8   8   8   8   8   8   8   8
#     4  11  22  40  66  94 128 168 211 271 336 385
#     4  11  21  37  64  92 124 165 201 255 331 387
#     4  11  23  38  61  91 130 161 211 267 305 385
#     4  10  21  38  62  90 127 166 202 256 325 379
#     4  10  20  38  64  93 119 156 213 262 308 394
#     4  10  23  44  65  86 123 175 215 261 320 373
#     4  11  24  41  63  94 128 170 226 271 311 392
#     4  10  22  40  61  94 127 161 213 265 312 387
#
# _framework density 22.154754000000001
#
# number of rings (size 3 to 8) (size 9 to 14) (size 15 to 20)
#    0.000    1.500    2.500    2.625    0.000    2.000 
#    0.000   11.875    0.000    0.000    0.000    0.000 
#    0.000    0.000    0.000    0.000    0.000    0.000 
#
# Total GULP energy -396718.780353 kJ/mol
# GULP energy per Si atom -12397.461886 kJ/mol
# Density = 2.210433 g / cm^3
# Si number density = 22.154754 Si / 1000 Ang^3
#
#
#
# Elastic Constant Matrix: (Units=GPa)
#
#
# Indices 1 2 3 4 5 6 
#
# 1 143.4295 18.8890 5.2037 0.0000 0.0000 0.0000
# 2 18.8890 81.9317 -8.6878 0.0000 0.0000 0.0000
# 3 5.2037 -8.6878 55.9804 0.0000 0.0000 0.0000
# 4 0.0000 0.0000 0.0000 25.2854 0.0000 0.0000
# 5 0.0000 0.0000 0.0000 0.0000 9.1156 0.0000
# 6 0.0000 0.0000 0.0000 0.0000 0.0000 19.4667
#
#
#
# Elastic Compliance Matrix: (Units=1/GPa)
#
#
# Indices 1 2 3 4 5 6 
#
# 1 0.007239 -0.001770 -0.000948 0.000000 0.000000 0.000000
# 2 -0.001770 0.012842 0.002157 0.000000 0.000000 0.000000
# 3 -0.000948 0.002157 0.018286 0.000000 0.000000 0.000000
# 4 0.000000 0.000000 0.000000 0.039548 0.000000 0.000000
# 5 0.000000 0.000000 0.000000 0.000000 0.109702 0.000000
# 6 0.000000 0.000000 0.000000 0.000000 0.000000 0.051370
#
#
# Mechanical properties :
#
#
# Convention : Reuss Voigt Hill
#
# Bulk Modulus (GPa) = 26.84664 34.68349 30.76506
# Shear Modulus (GPa) = 19.80013 28.50265 24.15139
#
# Velocity S-wave (km/s) = 2.99276 3.59071 3.30528
# Velocity P-wave (km/s) = 4.90777 5.73411 5.33696
#
# Compressibility (1/GPa) = 0.03724861
#
# Stress axis : x y z
#
# Youngs Moduli (GPa) = 138.13143 77.86937 54.68575
#
# Poissons Ratio (x) = 0.13779 0.05182
# Poissons Ratio (y) = 0.24443 -0.11798
# Poissons Ratio (z) = 0.13089 -0.16800
#
# Static dielectric constant tensor:
#      x y z
#    x 3.835590 0.000000 0.000000 
#    y 0.000000 4.061150 0.000000 
#    z 0.000000 0.000000 3.873740 
# 
# 
# High freq. dielectric constant tensor:
#      x y z
#    x 1.860630 0.000000 0.000000 
#    y 0.000000 1.876010 0.000000 
#    z 0.000000 0.000000 1.861220 
# 
# From -- ./inp_files/8015.got.cif
#   From: 2010.03.12/outbox.cif.g09.slc.cpg/sg36_5_cif.got.tgz:8015.got - 2010.04.14 02:13:53.
