data_PCOD8175052
_publ_section_title
;
Structure prediction by ZEFSAII (Michael W. Deem and Ramdas Pophale) SiO2 
 PCOD8175052
Probable space group: C M C 21
;
_chemical_formula_sum "Si O2"
_cell_formula_units_Z 64
_cell_length_a 9.421289
_cell_length_b 14.051811
_cell_length_c 27.868085
_cell_angle_alpha 90.000000
_cell_angle_beta 90.000000
_cell_angle_gamma 90.000000
_cell_volume 3689.349105
_symmetry_space_group_name_H-M "C M C 21"
_symmetry_group_IT_number 36
_symmetry_cell_setting 'orthorhombic'
loop_
_space_group_symop_operation_xyz
x,y,z
-x,-y,1/2+z
x,-y,1/2+z
-x,y,z
1/2+x,1/2+y,z
1/2-x,1/2-y,1/2+z
1/2+x,1/2-y,1/2+z
1/2-x,1/2+y,z
loop_
_atom_site_type_symbol
_atom_site_label
_atom_site_fract_x
_atom_site_fract_y
_atom_site_fract_z
Si Si1 0.164025 0.641059 0.718780
Si Si2 0.331258 0.987102 0.645151
Si Si3 0.336012 0.355681 0.973324
Si Si4 0.660353 0.013640 0.297751
Si Si5 0.665375 0.494098 0.391858
Si Si6 0.334599 0.990001 0.037475
Si Si7 0.664978 0.859649 0.456899
Si Si8 0.163658 0.332274 0.717554
O O1 0.222568 0.580763 0.673340
O O2 0.186856 0.581262 0.767160
O O3 0.249592 0.737048 0.723401
O O4 0.000000 0.666613 0.711480
O O5 0.500000 0.985869 0.648398
O O6 0.275894 0.988488 0.590676
O O7 0.276838 0.891733 0.671818
O O8 0.500000 0.359381 0.988425
O O9 0.307102 0.414322 0.924999
O O10 0.285229 0.248176 0.964826
O O11 0.246616 0.398589 0.017077
O O12 0.500000 0.013320 0.318402
O O13 0.773022 0.018405 0.340181
O O14 0.684367 0.106058 0.265317
O O15 0.500000 0.469961 0.387355
O O16 0.743901 0.402149 0.413447
O O17 0.500000 0.964353 0.038538
O O18 0.303896 0.083011 0.005708
O O19 0.500000 0.865375 0.442468
O O20 0.000000 0.305510 0.709931
#
# Coordination Sequence:
#
# PCOD8175052 Si02
#       8
#     8   8   8   8   8   8   8   8
#     4   9  18  33  51  70  96 128 158 194 240 283
#     4   8  16  32  50  70  99 131 160 192 236 286
#     4   9  19  34  49  70 100 127 155 198 248 287
#     4   9  19  35  51  68  96 131 160 191 238 291
#     4  10  20  33  50  72  97 124 158 202 242 280
#     4   9  17  31  52  73  94 127 167 198 228 280
#     4   9  18  33  51  70  96 130 162 193 238 292
#     4   9  18  33  52  73  98 128 162 198 234 281
#
# _framework density 17.347232999999999
#
# number of rings (size 3 to 8) (size 9 to 14) (size 15 to 20)
#    0.000    3.000    0.000    1.875    0.000    4.000 
#    0.000    8.125    0.000    0.000    0.000    0.000 
#    0.000    0.000    0.000    0.000    0.000    0.000 
#
# Total GULP energy -396804.306041 kJ/mol
# GULP energy per Si atom -12400.134564 kJ/mol
# Density = 1.730775 g / cm^3
# Si number density = 17.347233 Si / 1000 Ang^3
#
#
#
# Elastic Constant Matrix: (Units=GPa)
#
#
# Indices 1 2 3 4 5 6 
#
# 1 63.9451 51.6985 44.8380 0.0000 0.0000 0.0000
# 2 51.6985 136.8931 39.1183 0.0000 0.0000 0.0000
# 3 44.8380 39.1183 103.4459 0.0000 0.0000 0.0000
# 4 0.0000 0.0000 0.0000 11.2723 0.0000 0.0000
# 5 0.0000 0.0000 0.0000 0.0000 25.4741 0.0000
# 6 0.0000 0.0000 0.0000 0.0000 0.0000 30.2638
#
#
#
# Elastic Compliance Matrix: (Units=1/GPa)
#
#
# Indices 1 2 3 4 5 6 
#
# 1 0.028881 -0.008218 -0.009411 0.000000 0.000000 0.000000
# 2 -0.008218 0.010528 -0.000419 0.000000 0.000000 0.000000
# 3 -0.009411 -0.000419 0.013904 0.000000 0.000000 0.000000
# 4 0.000000 0.000000 0.000000 0.088713 0.000000 0.000000
# 5 0.000000 0.000000 0.000000 0.000000 0.039256 0.000000
# 6 0.000000 0.000000 0.000000 0.000000 0.000000 0.033043
#
#
# Mechanical properties :
#
#
# Convention : Reuss Voigt Hill
#
# Bulk Modulus (GPa) = 58.07857 63.95483 61.01670
# Shear Modulus (GPa) = 19.51896 24.64398 22.08147
#
# Velocity S-wave (km/s) = 3.35803 3.77321 3.57166
# Velocity P-wave (km/s) = 6.97050 7.47866 7.22904
#
# Compressibility (1/GPa) = 0.01721805
#
# Stress axis : x y z
#
# Youngs Moduli (GPa) = 34.62445 94.98154 71.91923
#
# Poissons Ratio (x) = 0.78056 0.67682
# Poissons Ratio (y) = 0.28454 0.03015
# Poissons Ratio (z) = 0.32584 0.03982
#
# Static dielectric constant tensor:
#      x y z
#    x 3.081730 0.000000 0.000000 
#    y 0.000000 3.213440 0.000000 
#    z 0.000000 0.000000 3.305590 
# 
# 
# High freq. dielectric constant tensor:
#      x y z
#    x 1.656050 0.000000 0.000000 
#    y 0.000000 1.672280 0.000000 
#    z 0.000000 0.000000 1.671820 
# 
# From -- ./inp_files/16872.got.cif
#   From: 2010.03.12/outbox.cif.g09.slc.cpg/sg36_9_cif.got.tgz:16872.got - 2010.04.14 02:13:53.
