data_PCOD8175618
_publ_section_title
;
Structure prediction by ZEFSAII (Michael W. Deem and Ramdas Pophale) SiO2 
 PCOD8175618
Probable space group: C M C 21
;
_chemical_formula_sum "Si O2"
_cell_formula_units_Z 64
_cell_length_a 12.665445
_cell_length_b 25.479347
_cell_length_c 10.800859
_cell_angle_alpha 90.000000
_cell_angle_beta 90.000000
_cell_angle_gamma 90.000000
_cell_volume 3485.515701
_symmetry_space_group_name_H-M "C M C 21"
_symmetry_group_IT_number 36
_symmetry_cell_setting 'orthorhombic'
loop_
_space_group_symop_operation_xyz
x,y,z
-x,-y,1/2+z
x,-y,1/2+z
-x,y,z
1/2+x,1/2+y,z
1/2-x,1/2-y,1/2+z
1/2+x,1/2-y,1/2+z
1/2-x,1/2+y,z
loop_
_atom_site_type_symbol
_atom_site_label
_atom_site_fract_x
_atom_site_fract_y
_atom_site_fract_z
Si Si1 0.614881 0.687414 0.993270
Si Si2 0.617263 0.588142 0.824635
Si Si3 0.122620 0.835586 0.122958
Si Si4 0.377791 0.600598 0.391318
Si Si5 0.268610 0.004563 0.401314
Si Si6 0.374545 0.960224 0.645019
Si Si7 0.121822 0.260921 0.768971
Si Si8 0.242119 0.644096 0.186784
O O1 0.500000 0.698849 0.055419
O O2 0.607576 0.631283 0.929716
O O3 0.642138 0.734316 0.900619
O O4 0.710728 0.684442 0.087941
O O5 0.500000 0.564216 0.797617
O O6 0.668322 0.615610 0.702951
O O7 0.694917 0.543911 0.871022
O O8 0.169423 0.778808 0.162848
O O9 0.000000 0.833400 0.161753
O O10 0.139934 0.848666 0.979329
O O11 0.500000 0.583369 0.388381
O O12 0.306371 0.552866 0.438482
O O13 0.340612 0.617170 0.255591
O O14 0.337466 0.016499 0.278031
O O15 0.337758 0.993459 0.524522
O O16 0.500000 0.959497 0.645082
O O17 0.331736 0.900910 0.628906
O O18 0.175048 0.317939 0.775078
O O19 0.000000 0.271517 0.741808
#
# Coordination Sequence:
#
# PCOD8175618 Si02
#       8
#     8   8   8   8   8   8   8   8
#     4   9  18  34  54  81 111 139 176 226 277 330
#     4   9  16  31  56  83 108 138 178 225 272 339
#     4   8  16  32  51  74 108 142 175 218 272 326
#     4  10  21  34  51  85 120 141 171 227 284 342
#     4  11  21  37  58  84 108 152 189 226 288 339
#     4  11  24  40  57  80 113 148 196 239 274 328
#     4   9  19  34  55  77 103 145 190 226 267 323
#     4  11  21  34  57  82 109 149 184 227 281 333
#
# _framework density 18.361699999999999
#
# number of rings (size 3 to 8) (size 9 to 14) (size 15 to 20)
#    0.000    2.250    1.250    3.750    1.750    0.000 
#    0.000    1.250    0.000    0.000    0.000    0.000 
#    0.000    0.000    0.000    0.000    0.000    0.000 
#
# Total GULP energy -396551.540079 kJ/mol
# GULP energy per Si atom -12392.235627 kJ/mol
# Density = 1.831991 g / cm^3
# Si number density = 18.361700 Si / 1000 Ang^3
#
#
#
# Elastic Constant Matrix: (Units=GPa)
#
#
# Indices 1 2 3 4 5 6 
#
# 1 103.2317 41.6108 48.8382 0.0000 0.0000 0.0000
# 2 41.6108 81.3879 33.8745 0.0000 0.0000 0.0000
# 3 48.8382 33.8745 82.9133 0.0000 0.0000 0.0000
# 4 0.0000 0.0000 0.0000 21.7045 0.0000 0.0000
# 5 0.0000 0.0000 0.0000 0.0000 25.9439 0.0000
# 6 0.0000 0.0000 0.0000 0.0000 0.0000 -244.2422
#
#
#
# Elastic Compliance Matrix: (Units=1/GPa)
#
#
# Indices 1 2 3 4 5 6 
#
# 1 0.014810 -0.004749 -0.006784 0.000000 0.000000 0.000000
# 2 -0.004749 0.016327 -0.003873 0.000000 0.000000 0.000000
# 3 -0.006784 -0.003873 0.017639 0.000000 0.000000 0.000000
# 4 0.000000 0.000000 0.000000 0.046073 0.000000 0.000000
# 5 0.000000 0.000000 0.000000 0.000000 0.038545 0.000000
# 6 0.000000 0.000000 0.000000 0.000000 0.000000 -0.004094
#
#
# Mechanical properties :
#
#
# Convention : Reuss Voigt Hill
#
# Bulk Modulus (GPa) = 55.66375 57.35332 56.50854
# Shear Modulus (GPa) = 30.10249 -29.77148 0.16551
#
# Velocity S-wave (km/s) = 4.05336 -4.03102 0.30055
# Velocity P-wave (km/s) = 7.23100 3.10445 5.56439
#
# Compressibility (1/GPa) = 0.01796501
#
# Stress axis : x y z
#
# Youngs Moduli (GPa) = 67.52065 61.24920 56.69267
#
# Poissons Ratio (x) = 0.29085 0.38458
# Poissons Ratio (y) = 0.32063 0.21959
# Poissons Ratio (z) = 0.45803 0.23724
#
# Static dielectric constant tensor:
#      x y z
#    x 3.337650 0.000000 0.000000 
#    y 0.000000 3.384130 0.000000 
#    z 0.000000 0.000000 3.357750 
# 
# 
# High freq. dielectric constant tensor:
#      x y z
#    x 1.698730 0.000000 0.000000 
#    y 0.000000 1.713600 0.000000 
#    z 0.000000 0.000000 1.709140 
# 
# From -- ./inp_files/8029.got.cif
#   From: 2010.03.12/outbox.cif.g09.slc.cpg/sg36_5_cif.got.tgz:8029.got - 2010.04.14 02:13:53.
