data_PCOD8175152
_publ_section_title
;
Structure prediction by ZEFSAII (Michael W. Deem and Ramdas Pophale) SiO2 
 PCOD8175152
Probable space group: C M C 21
;
_chemical_formula_sum "Si O2"
_cell_formula_units_Z 56
_cell_length_a 22.705906
_cell_length_b 24.719299
_cell_length_c 4.947885
_cell_angle_alpha 90.000000
_cell_angle_beta 90.000000
_cell_angle_gamma 90.000000
_cell_volume 2777.119599
_symmetry_space_group_name_H-M "C M C 21"
_symmetry_group_IT_number 36
_symmetry_cell_setting 'orthorhombic'
loop_
_space_group_symop_operation_xyz
x,y,z
-x,-y,1/2+z
x,-y,1/2+z
-x,y,z
1/2+x,1/2+y,z
1/2-x,1/2-y,1/2+z
1/2+x,1/2-y,1/2+z
1/2-x,1/2+y,z
loop_
_atom_site_type_symbol
_atom_site_label
_atom_site_fract_x
_atom_site_fract_y
_atom_site_fract_z
Si Si1 0.932315 0.644863 0.734850
Si Si2 0.601987 0.793303 0.723613
Si Si3 0.565228 0.688156 0.454459
Si Si4 0.626601 0.646476 0.953887
Si Si5 0.067694 0.037007 0.082148
Si Si6 0.715620 0.265686 0.421675
Si Si7 0.569971 0.032032 0.531454
O O1 0.928439 0.690321 0.503674
O O2 0.903884 0.590067 0.613823
O O3 0.000000 0.637103 0.823307
O O4 0.895439 0.658032 0.006039
O O5 0.562674 0.748171 0.574228
O O6 0.666615 0.771252 0.780261
O O7 0.500000 0.664033 0.433744
O O8 0.592726 0.687738 0.154589
O O9 0.601813 0.648797 0.650607
O O10 0.616181 0.585049 0.053174
O O11 0.693442 0.671277 0.949962
O O12 0.000000 0.058926 0.055745
O O13 0.079146 0.010904 0.372041
O O14 0.729639 0.239617 0.714343
O O15 0.500000 0.036623 0.540121
O O16 0.592126 0.014543 0.237007
#
# Coordination Sequence:
#
# PCOD8175152 Si02
#       7
#     8   8   8   8   8   8   8
#     4  11  20  32  51  78 113 142 170 212 264 330
#     4  11  22  34  51  79 106 138 177 215 275 335
#     4  11  20  32  51  78 117 150 174 208 255 330
#     4  11  22  36  56  83 110 150 194 225 273 329
#     4  10  20  34  54  84 122 155 184 222 271 337
#     4  11  23  41  59  78 104 137 188 245 285 324
#     4   9  17  29  45  68  99 138 177 205 236 289
#
# _framework density 20.164777999999998
#
# number of rings (size 3 to 8) (size 9 to 14) (size 15 to 20)
#    0.000    1.429    0.000    8.571    0.000    3.429 
#    0.000    0.000    0.000    0.000    0.000   20.000 
#    0.000    0.000    0.000    0.000    0.000    0.000 
#
# Total GULP energy -347103.405513 kJ/mol
# GULP energy per Si atom -12396.550197 kJ/mol
# Density = 2.011888 g / cm^3
# Si number density = 20.164778 Si / 1000 Ang^3
#
#
#
# Elastic Constant Matrix: (Units=GPa)
#
#
# Indices 1 2 3 4 5 6 
#
# 1 50.8385 25.3827 10.7407 0.0000 0.0000 0.0000
# 2 25.3827 84.4495 -3.3718 0.0000 0.0000 0.0000
# 3 10.7407 -3.3718 75.3657 0.0000 0.0000 0.0000
# 4 0.0000 0.0000 0.0000 34.1401 0.0000 0.0000
# 5 0.0000 0.0000 0.0000 0.0000 33.0054 0.0000
# 6 0.0000 0.0000 0.0000 0.0000 0.0000 24.7688
#
#
#
# Elastic Compliance Matrix: (Units=1/GPa)
#
#
# Indices 1 2 3 4 5 6 
#
# 1 0.024170 -0.007416 -0.003776 0.000000 0.000000 0.000000
# 2 -0.007416 0.014138 0.001689 0.000000 0.000000 0.000000
# 3 -0.003776 0.001689 0.013882 0.000000 0.000000 0.000000
# 4 0.000000 0.000000 0.000000 0.029291 0.000000 0.000000
# 5 0.000000 0.000000 0.000000 0.000000 0.030298 0.000000
# 6 0.000000 0.000000 0.000000 0.000000 0.000000 0.040373
#
#
# Mechanical properties :
#
#
# Convention : Reuss Voigt Hill
#
# Bulk Modulus (GPa) = 30.13390 30.68412 30.40901
# Shear Modulus (GPa) = 27.43933 30.24300 28.84116
#
# Velocity S-wave (km/s) = 3.69284 3.87692 3.78600
# Velocity P-wave (km/s) = 5.75839 5.94057 5.85019
#
# Compressibility (1/GPa) = 0.03318521
#
# Stress axis : x y z
#
# Youngs Moduli (GPa) = 41.37285 70.73267 72.03363
#
# Poissons Ratio (x) = 0.52453 0.27203
# Poissons Ratio (y) = 0.30681 -0.12169
# Poissons Ratio (z) = 0.15624 -0.11949
#
# Static dielectric constant tensor:
#      x y z
#    x 3.255390 0.000000 0.000000 
#    y 0.000000 3.672740 0.000000 
#    z 0.000000 0.000000 3.928650 
# 
# 
# High freq. dielectric constant tensor:
#      x y z
#    x 1.727510 0.000000 0.000000 
#    y 0.000000 1.781810 0.000000 
#    z 0.000000 0.000000 1.817760 
# 
# From -- ./inp_files/1407.got.cif
#   From: 2010.03.12/outbox.cif.g09.slc.cpg/sg36_1_cif.got.tgz:1407.got - 2010.04.14 02:13:53.
