data_PCOD8175234
_publ_section_title
;
Structure prediction by ZEFSAII (Michael W. Deem and Ramdas Pophale) SiO2 
 PCOD8175234
Probable space group: C M C 21
;
_chemical_formula_sum "Si O2"
_cell_formula_units_Z 64
_cell_length_a 9.386971
_cell_length_b 15.385685
_cell_length_c 23.891807
_cell_angle_alpha 90.000000
_cell_angle_beta 90.000000
_cell_angle_gamma 90.000000
_cell_volume 3450.573722
_symmetry_space_group_name_H-M "C M C 21"
_symmetry_group_IT_number 36
_symmetry_cell_setting 'orthorhombic'
loop_
_space_group_symop_operation_xyz
x,y,z
-x,-y,1/2+z
x,-y,1/2+z
-x,y,z
1/2+x,1/2+y,z
1/2-x,1/2-y,1/2+z
1/2+x,1/2-y,1/2+z
1/2-x,1/2+y,z
loop_
_atom_site_type_symbol
_atom_site_label
_atom_site_fract_x
_atom_site_fract_y
_atom_site_fract_z
Si Si1 0.167629 0.777894 0.224030
Si Si2 0.167747 0.622026 0.419465
Si Si3 0.330180 0.519797 0.850013
Si Si4 0.663963 0.536501 0.108790
Si Si5 0.668092 0.716632 0.848655
Si Si6 0.664062 0.272244 0.621972
Si Si7 0.832694 0.972860 0.226331
Si Si8 0.166793 0.389262 0.048703
O O1 0.215367 0.751931 0.286763
O O2 0.248979 0.718963 0.179395
O O3 0.220776 0.875962 0.213104
O O4 0.000000 0.765884 0.214925
O O5 0.250826 0.541195 0.393624
O O6 0.224709 0.712536 0.392904
O O7 0.205046 0.626915 0.484514
O O8 0.000000 0.609600 0.408540
O O9 0.500000 0.509399 0.857365
O O10 0.278633 0.618993 0.862384
O O11 0.276950 0.494101 0.786933
O O12 0.500000 0.506112 0.104376
O O13 0.682870 0.636227 0.089260
O O14 0.715172 0.531624 0.173929
O O15 0.756116 0.476100 0.068936
O O16 0.500000 0.711832 0.849978
O O17 0.500000 0.257179 0.637589
O O18 0.722018 0.194799 0.582824
O O19 0.000000 0.968375 0.233565
O O20 0.000000 0.403069 0.057575
#
# Coordination Sequence:
#
# PCOD8175234 Si02
#       8
#     8   8   8   8   8   8   8   8
#     4   9  16  31  55  79 107 141 174 210 260 322
#     4  10  21  37  55  75 106 144 179 220 265 312
#     4   9  18  34  56  81 107 138 179 218 259 317
#     4  10  20  35  56  80 106 139 179 220 265 317
#     4   8  17  34  55  78 106 142 176 209 262 325
#     4  10  21  34  52  80 108 138 176 220 268 312
#     4   8  15  30  52  78 109 138 165 213 268 310
#     4  10  22  39  53  73 109 144 178 222 267 311
#
# _framework density 18.547639
#
# number of rings (size 3 to 8) (size 9 to 14) (size 15 to 20)
#    0.000    2.750    1.250    1.500    1.750    2.000 
#    0.000    6.250    0.000    0.000    0.000    0.000 
#    0.000    0.000    0.000    0.000    0.000    0.000 
#
# Total GULP energy -396640.334001 kJ/mol
# GULP energy per Si atom -12395.010438 kJ/mol
# Density = 1.850542 g / cm^3
# Si number density = 18.547639 Si / 1000 Ang^3
#
#
#
# Elastic Constant Matrix: (Units=GPa)
#
#
# Indices 1 2 3 4 5 6 
#
# 1 35.7333 33.0268 41.4107 0.0000 0.0000 0.0000
# 2 33.0268 107.5352 62.6619 0.0000 0.0000 0.0000
# 3 41.4107 62.6619 120.5784 0.0000 0.0000 0.0000
# 4 0.0000 0.0000 0.0000 25.7344 0.0000 0.0000
# 5 0.0000 0.0000 0.0000 0.0000 27.7521 0.0000
# 6 0.0000 0.0000 0.0000 0.0000 0.0000 26.5010
#
#
#
# Elastic Compliance Matrix: (Units=1/GPa)
#
#
# Indices 1 2 3 4 5 6 
#
# 1 0.050645 -0.007773 -0.013354 0.000000 0.000000 0.000000
# 2 -0.007773 0.014531 -0.004882 0.000000 0.000000 0.000000
# 3 -0.013354 -0.004882 0.015417 0.000000 0.000000 0.000000
# 4 0.000000 0.000000 0.000000 0.038859 0.000000 0.000000
# 5 0.000000 0.000000 0.000000 0.000000 0.036033 0.000000
# 6 0.000000 0.000000 0.000000 0.000000 0.000000 0.037734
#
#
# Mechanical properties :
#
#
# Convention : Reuss Voigt Hill
#
# Bulk Modulus (GPa) = 34.99543 59.78285 47.38914
# Shear Modulus (GPa) = 19.62619 24.44732 22.03676
#
# Velocity S-wave (km/s) = 3.25645 3.63448 3.45065
# Velocity P-wave (km/s) = 5.74875 7.06503 6.44060
#
# Compressibility (1/GPa) = 0.02857516
#
# Stress axis : x y z
#
# Youngs Moduli (GPa) = 19.74542 68.81625 64.86505
#
# Poissons Ratio (x) = 0.53490 0.86619
# Poissons Ratio (y) = 0.15348 0.31668
# Poissons Ratio (z) = 0.26367 0.33597
#
# Static dielectric constant tensor:
#      x y z
#    x 3.046520 0.000000 0.000000 
#    y 0.000000 3.565130 0.000000 
#    z 0.000000 0.000000 3.595760 
# 
# 
# High freq. dielectric constant tensor:
#      x y z
#    x 1.684980 0.000000 0.000000 
#    y 0.000000 1.724900 0.000000 
#    z 0.000000 0.000000 1.720250 
# 
# From -- ./inp_files/16680.got.cif
#   From: 2010.03.12/outbox.cif.g09.slc.cpg/sg36_9_cif.got.tgz:16680.got - 2010.04.14 02:13:53.
