data_PCOD8175028
_publ_section_title
;
Structure prediction by ZEFSAII (Michael W. Deem and Ramdas Pophale) SiO2 
 PCOD8175028
Probable space group: C M C 21
;
_chemical_formula_sum "Si O2"
_cell_formula_units_Z 56
_cell_length_a 23.249994
_cell_length_b 23.141043
_cell_length_c 4.934768
_cell_angle_alpha 90.000000
_cell_angle_beta 90.000000
_cell_angle_gamma 90.000000
_cell_volume 2655.048840
_symmetry_space_group_name_H-M "C M C 21"
_symmetry_group_IT_number 36
_symmetry_cell_setting 'orthorhombic'
loop_
_space_group_symop_operation_xyz
x,y,z
-x,-y,1/2+z
x,-y,1/2+z
-x,y,z
1/2+x,1/2+y,z
1/2-x,1/2-y,1/2+z
1/2+x,1/2-y,1/2+z
1/2-x,1/2+y,z
loop_
_atom_site_type_symbol
_atom_site_label
_atom_site_fract_x
_atom_site_fract_y
_atom_site_fract_z
Si Si1 0.566100 0.648591 0.244210
Si Si2 0.871744 0.806931 0.263032
Si Si3 0.061316 0.461553 0.343102
Si Si4 0.271124 0.616321 0.006726
Si Si5 0.278706 0.223606 0.274932
Si Si6 0.317243 0.039608 0.725082
Si Si7 0.637372 0.461085 0.750804
O O1 0.500000 0.651507 0.332119
O O2 0.607403 0.676539 0.466496
O O3 0.584159 0.582120 0.196028
O O4 0.575489 0.685882 0.971475
O O5 0.819965 0.848797 0.349691
O O6 0.846413 0.741534 0.260245
O O7 0.062544 0.518966 0.155231
O O8 0.120666 0.427795 0.273581
O O9 0.000000 0.427780 0.290521
O O10 0.230578 0.657456 0.189136
O O11 0.232866 0.585015 0.781066
O O12 0.301386 0.569891 0.203880
O O13 0.256232 0.232423 0.579676
O O14 0.312161 0.983262 0.919267
O O15 0.632950 0.517002 0.558250
#
# Coordination Sequence:
#
# PCOD8175028 Si02
#       7
#     8   8   8   8   8   8   8
#     4  11  23  40  61  82 109 152 201 242 289 346
#     4  10  21  38  58  84 109 139 188 243 291 338
#     4   8  14  26  43  62  87 123 165 202 232 274
#     4  10  21  35  55  81 112 146 177 222 285 343
#     4  10  20  35  57  82 107 136 175 222 277 342
#     4  10  20  31  47  75 107 140 176 211 258 325
#     4  11  22  35  52  78 115 152 188 234 280 330
#
# _framework density 21.091892000000001
#
# number of rings (size 3 to 8) (size 9 to 14) (size 15 to 20)
#    0.000    2.000    0.000    5.571    0.000    6.286 
#    0.000    0.000    0.000    1.714    0.000    8.000 
#    0.000    0.000    0.000    0.000    0.000    0.000 
#
# Total GULP energy -347084.660586 kJ/mol
# GULP energy per Si atom -12395.880735 kJ/mol
# Density = 2.104389 g / cm^3
# Si number density = 21.091892 Si / 1000 Ang^3
#
#
#
# Elastic Constant Matrix: (Units=GPa)
#
#
# Indices 1 2 3 4 5 6 
#
# 1 108.4512 22.2553 -1.9410 0.0000 0.0000 0.0000
# 2 22.2553 53.6921 4.4028 0.0000 0.0000 0.0000
# 3 -1.9410 4.4028 66.9726 0.0000 0.0000 0.0000
# 4 0.0000 0.0000 0.0000 15.1213 0.0000 0.0000
# 5 0.0000 0.0000 0.0000 0.0000 27.0999 0.0000
# 6 0.0000 0.0000 0.0000 0.0000 0.0000 18.1336
#
#
#
# Elastic Compliance Matrix: (Units=1/GPa)
#
#
# Indices 1 2 3 4 5 6 
#
# 1 0.010100 -0.004233 0.000571 0.000000 0.000000 0.000000
# 2 -0.004233 0.020500 -0.001470 0.000000 0.000000 0.000000
# 3 0.000571 -0.001470 0.015045 0.000000 0.000000 0.000000
# 4 0.000000 0.000000 0.000000 0.066132 0.000000 0.000000
# 5 0.000000 0.000000 0.000000 0.000000 0.036900 0.000000
# 6 0.000000 0.000000 0.000000 0.000000 0.000000 0.055146
#
#
# Mechanical properties :
#
#
# Convention : Reuss Voigt Hill
#
# Bulk Modulus (GPa) = 28.26511 30.95000 29.60755
# Shear Modulus (GPa) = 22.13555 25.69755 23.91655
#
# Velocity S-wave (km/s) = 3.24308 3.49429 3.37103
# Velocity P-wave (km/s) = 5.23961 5.56649 5.40552
#
# Compressibility (1/GPa) = 0.03537931
#
# Stress axis : x y z
#
# Youngs Moduli (GPa) = 99.01343 48.78067 66.46869
#
# Poissons Ratio (x) = 0.20649 -0.03795
# Poissons Ratio (y) = 0.41914 0.09773
# Poissons Ratio (z) = -0.05654 0.07172
#
# Static dielectric constant tensor:
#      x y z
#    x 4.056270 0.000000 0.000000 
#    y 0.000000 3.591010 0.000000 
#    z 0.000000 0.000000 3.836310 
# 
# 
# High freq. dielectric constant tensor:
#      x y z
#    x 1.827790 0.000000 0.000000 
#    y 0.000000 1.776150 0.000000 
#    z 0.000000 0.000000 1.845690 
# 
# From -- ./inp_files/1652.got.cif
#   From: 2010.03.12/outbox.cif.g09.slc.cpg/sg36_1_cif.got.tgz:1652.got - 2010.04.14 02:13:53.
