data_PCOD8175910
_publ_section_title
;
Structure prediction by ZEFSAII (Michael W. Deem and Ramdas Pophale) SiO2 
 PCOD8175910
Probable space group: C M C 21
;
_chemical_formula_sum "Si O2"
_cell_formula_units_Z 64
_cell_length_a 8.841850
_cell_length_b 30.509050
_cell_length_c 11.888829
_cell_angle_alpha 90.000000
_cell_angle_beta 90.000000
_cell_angle_gamma 90.000000
_cell_volume 3207.088231
_symmetry_space_group_name_H-M "C M C 21"
_symmetry_group_IT_number 36
_symmetry_cell_setting 'orthorhombic'
loop_
_space_group_symop_operation_xyz
x,y,z
-x,-y,1/2+z
x,-y,1/2+z
-x,y,z
1/2+x,1/2+y,z
1/2-x,1/2-y,1/2+z
1/2+x,1/2-y,1/2+z
1/2-x,1/2+y,z
loop_
_atom_site_type_symbol
_atom_site_label
_atom_site_fract_x
_atom_site_fract_y
_atom_site_fract_z
Si Si1 0.176737 0.833687 0.961690
Si Si2 0.326954 0.961028 0.176274
Si Si3 0.176839 0.948386 0.717727
Si Si4 0.175021 0.805212 0.712405
Si Si5 0.320979 0.876601 0.561975
Si Si6 0.820701 0.624969 0.806644
Si Si7 0.822725 0.706737 0.661112
Si Si8 0.671690 0.078953 0.442824
O O1 0.219564 0.821959 0.834943
O O2 0.274818 0.875651 0.997886
O O3 0.000000 0.842812 0.976006
O O4 0.230286 0.795241 0.044557
O O5 0.500000 0.970280 0.213250
O O6 0.263326 0.917991 0.239746
O O7 0.223007 0.001266 0.210372
O O8 0.317414 0.956670 0.041548
O O9 0.258338 0.919478 0.623735
O O10 0.216881 0.932033 0.841781
O O11 0.000000 0.942955 0.699415
O O12 0.270824 0.831662 0.621019
O O13 0.214417 0.754007 0.712189
O O14 0.000000 0.813876 0.685834
O O15 0.500000 0.879373 0.564354
O O16 0.259047 0.876391 0.434198
O O17 0.761832 0.669346 0.746579
O O18 0.000000 0.625632 0.806096
O O19 0.000000 0.700875 0.636894
O O20 0.500000 0.082530 0.397957
#
# Coordination Sequence:
#
# PCOD8175910 Si02
#       8
#     8   8   8   8   8   8   8   8
#     4  11  22  38  62  92 125 159 202 260 316 361
#     4  10  22  42  66  91 119 156 209 256 302 364
#     4  12  26  42  61  91 130 162 199 251 314 368
#     4  10  23  40  61  89 126 164 201 256 315 360
#     4  11  23  40  65  90 120 163 212 253 300 367
#     4   9  20  40  64  89 117 157 206 256 299 353
#     4  10  21  41  64  88 122 165 208 252 309 368
#     4  11  22  41  69  92 117 160 211 256 301 365
#
# _framework density 19.955795999999999
#
# number of rings (size 3 to 8) (size 9 to 14) (size 15 to 20)
#    0.000    1.500    2.500    2.250    3.500    2.000 
#    0.000    1.875    0.000    0.000    0.000    0.000 
#    0.000    0.000    0.000    0.000    0.000    0.000 
#
# Total GULP energy -396922.833205 kJ/mol
# GULP energy per Si atom -12403.838538 kJ/mol
# Density = 1.991038 g / cm^3
# Si number density = 19.955796 Si / 1000 Ang^3
#
#
#
# Elastic Constant Matrix: (Units=GPa)
#
#
# Indices 1 2 3 4 5 6 
#
# 1 68.4215 35.9821 38.0203 0.0000 0.0000 0.0000
# 2 35.9821 126.3359 43.1984 0.0000 0.0000 0.0000
# 3 38.0203 43.1984 118.2141 0.0000 0.0000 0.0000
# 4 0.0000 0.0000 0.0000 19.5966 0.0000 0.0000
# 5 0.0000 0.0000 0.0000 0.0000 19.4022 0.0000
# 6 0.0000 0.0000 0.0000 0.0000 0.0000 30.2073
#
#
#
# Elastic Compliance Matrix: (Units=1/GPa)
#
#
# Indices 1 2 3 4 5 6 
#
# 1 0.019313 -0.003859 -0.004801 0.000000 0.000000 0.000000
# 2 -0.003859 0.009817 -0.002346 0.000000 0.000000 0.000000
# 3 -0.004801 -0.002346 0.010861 0.000000 0.000000 0.000000
# 4 0.000000 0.000000 0.000000 0.051029 0.000000 0.000000
# 5 0.000000 0.000000 0.000000 0.000000 0.051541 0.000000
# 6 0.000000 0.000000 0.000000 0.000000 0.000000 0.033105
#
#
# Mechanical properties :
#
#
# Convention : Reuss Voigt Hill
#
# Bulk Modulus (GPa) = 55.62491 60.81925 58.22208
# Shear Modulus (GPa) = 24.54959 26.89259 25.72109
#
# Velocity S-wave (km/s) = 3.51122 3.67496 3.59402
# Velocity P-wave (km/s) = 6.66129 6.96780 6.81627
#
# Compressibility (1/GPa) = 0.01797756
#
# Stress axis : x y z
#
# Youngs Moduli (GPa) = 51.77990 101.86758 92.07445
#
# Poissons Ratio (x) = 0.39308 0.44207
# Poissons Ratio (y) = 0.19981 0.21602
# Poissons Ratio (z) = 0.24861 0.23900
#
# Static dielectric constant tensor:
#      x y z
#    x 3.439120 0.000000 0.000000 
#    y 0.000000 3.718640 0.000000 
#    z 0.000000 0.000000 3.735840 
# 
# 
# High freq. dielectric constant tensor:
#      x y z
#    x 1.764620 0.000000 0.000000 
#    y 0.000000 1.787190 0.000000 
#    z 0.000000 0.000000 1.789360 
# 
# From -- ./inp_files/7063.got.cif
#   From: 2010.03.12/outbox.cif.g09.slc.cpg/sg36_4_cif.got.tgz:7063.got - 2010.04.14 02:13:53.
