data_PCOD8175776
_publ_section_title
;
Structure prediction by ZEFSAII (Michael W. Deem and Ramdas Pophale) SiO2 
 PCOD8175776
Probable space group: C M C 21
;
_chemical_formula_sum "Si O2"
_cell_formula_units_Z 48
_cell_length_a 16.917501
_cell_length_b 9.779416
_cell_length_c 13.138064
_cell_angle_alpha 90.000000
_cell_angle_beta 90.000000
_cell_angle_gamma 90.000000
_cell_volume 2173.604400
_symmetry_space_group_name_H-M "C M C 21"
_symmetry_group_IT_number 36
_symmetry_cell_setting 'orthorhombic'
loop_
_space_group_symop_operation_xyz
x,y,z
-x,-y,1/2+z
x,-y,1/2+z
-x,y,z
1/2+x,1/2+y,z
1/2-x,1/2-y,1/2+z
1/2+x,1/2-y,1/2+z
1/2-x,1/2+y,z
loop_
_atom_site_type_symbol
_atom_site_label
_atom_site_fract_x
_atom_site_fract_y
_atom_site_fract_z
Si Si1 0.204150 0.942840 0.424940
Si Si2 0.145651 0.436287 0.309838
Si Si3 0.654841 0.700962 0.659339
Si Si4 0.410059 0.308608 0.940188
Si Si5 0.911399 0.727145 0.365407
Si Si6 0.771096 0.529557 0.134460
O O1 0.259215 0.927820 0.326495
O O2 0.151368 0.805269 0.438795
O O3 0.146791 0.069257 0.408864
O O4 0.270993 0.961577 0.512073
O O5 0.099906 0.306276 0.352861
O O6 0.106399 0.566651 0.363452
O O7 0.151085 0.453008 0.185196
O O8 0.610662 0.741788 0.554026
O O9 0.593749 0.708370 0.752253
O O10 0.688189 0.547070 0.656394
O O11 0.725369 0.813547 0.676012
O O12 0.500000 0.359622 0.937257
O O13 0.000000 0.750086 0.406853
#
# Coordination Sequence:
#
# PCOD8175776 Si02
#       6
#     8   8   8   8   8   8
#     4  11  22  40  63  90 120 163 210 255 307 370
#     4  11  22  40  63  90 120 163 210 255 307 370
#     4  10  21  38  60  88 121 158 206 254 315 370
#     4  11  23  39  61  90 125 161 202 259 319 373
#     4  11  23  39  61  90 125 161 202 259 319 373
#     4  10  22  36  62  92 118 158 212 262 300 364
#
# _framework density 22.083134999999999
#
# number of rings (size 3 to 8) (size 9 to 14) (size 15 to 20)
#    0.000    1.333    3.333    2.500    4.667    0.000 
#    0.000    0.000    0.000    2.000    0.000    0.000 
#    0.000    0.000    0.000    0.000    0.000    0.000 
#
# Total GULP energy -297336.417839 kJ/mol
# GULP energy per Si atom -12389.017410 kJ/mol
# Density = 2.203287 g / cm^3
# Si number density = 22.083135 Si / 1000 Ang^3
#
#
#
# Elastic Constant Matrix: (Units=GPa)
#
#
# Indices 1 2 3 4 5 6 
#
# 1 101.6999 22.3170 13.9260 0.0000 0.0000 0.0000
# 2 22.3170 87.6751 13.0528 0.0000 0.0000 0.0000
# 3 13.9260 13.0528 80.7747 0.0000 0.0000 0.0000
# 4 0.0000 0.0000 0.0000 29.6746 0.0000 0.0000
# 5 0.0000 0.0000 0.0000 0.0000 21.0096 0.0000
# 6 0.0000 0.0000 0.0000 0.0000 0.0000 28.4632
#
#
#
# Elastic Compliance Matrix: (Units=1/GPa)
#
#
# Indices 1 2 3 4 5 6 
#
# 1 0.010572 -0.002479 -0.001422 0.000000 0.000000 0.000000
# 2 -0.002479 0.012268 -0.001555 0.000000 0.000000 0.000000
# 3 -0.001422 -0.001555 0.012877 0.000000 0.000000 0.000000
# 4 0.000000 0.000000 0.000000 0.033699 0.000000 0.000000
# 5 0.000000 0.000000 0.000000 0.000000 0.047597 0.000000
# 6 0.000000 0.000000 0.000000 0.000000 0.000000 0.035133
#
#
# Mechanical properties :
#
#
# Convention : Reuss Voigt Hill
#
# Bulk Modulus (GPa) = 40.31614 40.97127 40.64371
# Shear Modulus (GPa) = 29.18406 30.55305 29.86856
#
# Velocity S-wave (km/s) = 3.63926 3.72364 3.68169
# Velocity P-wave (km/s) = 5.99626 6.08940 6.04301
#
# Compressibility (1/GPa) = 0.02480396
#
# Stress axis : x y z
#
# Youngs Moduli (GPa) = 94.59295 81.51074 77.66050
#
# Poissons Ratio (x) = 0.20208 0.11043
# Poissons Ratio (y) = 0.23452 0.12077
# Poissons Ratio (z) = 0.13451 0.12675
#
# Static dielectric constant tensor:
#      x y z
#    x 3.706440 0.000000 0.000000 
#    y 0.000000 4.024610 0.000000 
#    z 0.000000 0.000000 4.182790 
# 
# 
# High freq. dielectric constant tensor:
#      x y z
#    x 1.842330 0.000000 0.000000 
#    y 0.000000 1.873570 0.000000 
#    z 0.000000 0.000000 1.870070 
# 
# From -- ./inp_files/12488.got.cif
#   From: 2010.03.12/outbox.cif.g09.slc.cpg/sg36_7_cif.got.tgz:12488.got - 2010.04.14 02:13:53.
