data_PCOD8175144
_publ_section_title
;
Structure prediction by ZEFSAII (Michael W. Deem and Ramdas Pophale) SiO2 
 PCOD8175144
Probable space group: C M C 21
;
_chemical_formula_sum "Si O2"
_cell_formula_units_Z 64
_cell_length_a 8.839944
_cell_length_b 20.003369
_cell_length_c 19.788573
_cell_angle_alpha 90.000000
_cell_angle_beta 90.000000
_cell_angle_gamma 90.000000
_cell_volume 3499.186882
_symmetry_space_group_name_H-M "C M C 21"
_symmetry_group_IT_number 36
_symmetry_cell_setting 'orthorhombic'
loop_
_space_group_symop_operation_xyz
x,y,z
-x,-y,1/2+z
x,-y,1/2+z
-x,y,z
1/2+x,1/2+y,z
1/2-x,1/2-y,1/2+z
1/2+x,1/2-y,1/2+z
1/2-x,1/2+y,z
loop_
_atom_site_type_symbol
_atom_site_label
_atom_site_fract_x
_atom_site_fract_y
_atom_site_fract_z
Si Si1 0.321551 0.414086 0.498210
Si Si2 0.179269 0.975689 0.243139
Si Si3 0.176691 0.017920 0.388935
Si Si4 0.674709 0.335127 0.866641
Si Si5 0.176102 0.338560 0.257782
Si Si6 0.323638 0.079940 0.142934
Si Si7 0.675146 0.204492 0.231795
Si Si8 0.673585 0.806796 0.412206
O O1 0.500000 0.419259 0.510633
O O2 0.256625 0.471687 0.448200
O O3 0.234636 0.423919 0.567274
O O4 0.282634 0.342351 0.465632
O O5 0.245974 0.998278 0.316052
O O6 0.237449 0.025025 0.186167
O O7 0.000000 0.977457 0.242300
O O8 0.235623 0.901209 0.226840
O O9 0.211489 0.095723 0.405350
O O10 0.000000 0.003596 0.385622
O O11 0.500000 0.333052 0.842057
O O12 0.777972 0.332042 0.800735
O O13 0.705707 0.272893 0.916590
O O14 0.230617 0.271991 0.219201
O O15 0.213468 0.331717 0.337078
O O16 0.000000 0.348178 0.244422
O O17 0.500000 0.063280 0.145733
O O18 0.290355 0.154200 0.170553
O O19 0.500000 0.223634 0.236181
O O20 0.500000 0.822910 0.430445
#
# Coordination Sequence:
#
# PCOD8175144 Si02
#       8
#     8   8   8   8   8   8   8   8
#     4  11  22  37  57  81 111 152 194 236 287 345
#     4  11  20  35  60  87 116 150 191 238 285 339
#     4   9  18  33  56  85 113 144 188 235 280 334
#     4   9  17  33  56  82 111 142 180 228 284 333
#     4  10  20  34  56  85 116 146 183 231 286 337
#     4  11  24  40  56  81 116 154 195 239 290 348
#     4  10  20  34  54  81 111 144 188 235 280 333
#     4   9  18  32  53  80 110 144 179 226 282 337
#
# _framework density 18.289963
#
# number of rings (size 3 to 8) (size 9 to 14) (size 15 to 20)
#    0.000    2.000    2.500    2.625    0.000    3.500 
#    0.000    2.500    0.000    6.000    0.000    0.000 
#    0.000    0.000    0.000    0.000    0.000    0.000 
#
# Total GULP energy -396845.243077 kJ/mol
# GULP energy per Si atom -12401.413846 kJ/mol
# Density = 1.824833 g / cm^3
# Si number density = 18.289963 Si / 1000 Ang^3
#
#
#
# Elastic Constant Matrix: (Units=GPa)
#
#
# Indices 1 2 3 4 5 6 
#
# 1 65.7330 47.6759 36.7272 0.0000 0.0000 0.0000
# 2 47.6759 142.2728 61.8146 0.0000 0.0000 0.0000
# 3 36.7272 61.8146 95.3185 0.0000 0.0000 0.0000
# 4 0.0000 0.0000 0.0000 24.1637 0.0000 0.0000
# 5 0.0000 0.0000 0.0000 0.0000 27.7126 0.0000
# 6 0.0000 0.0000 0.0000 0.0000 0.0000 31.2660
#
#
#
# Elastic Compliance Matrix: (Units=1/GPa)
#
#
# Indices 1 2 3 4 5 6 
#
# 1 0.021734 -0.005074 -0.005084 0.000000 0.000000 0.000000
# 2 -0.005074 0.010971 -0.005159 0.000000 0.000000 0.000000
# 3 -0.005084 -0.005159 0.015796 0.000000 0.000000 0.000000
# 4 0.000000 0.000000 0.000000 0.041384 0.000000 0.000000
# 5 0.000000 0.000000 0.000000 0.000000 0.036085 0.000000
# 6 0.000000 0.000000 0.000000 0.000000 0.000000 0.031984
#
#
# Mechanical properties :
#
#
# Convention : Reuss Voigt Hill
#
# Bulk Modulus (GPa) = 55.97285 66.19554 61.08419
# Shear Modulus (GPa) = 25.70124 27.10222 26.40173
#
# Velocity S-wave (km/s) = 3.75268 3.85360 3.80348
# Velocity P-wave (km/s) = 7.03181 7.48807 7.26352
#
# Compressibility (1/GPa) = 0.01786580
#
# Stress axis : x y z
#
# Youngs Moduli (GPa) = 46.01127 91.15056 63.30792
#
# Poissons Ratio (x) = 0.46253 0.32183
# Poissons Ratio (y) = 0.23348 0.32663
# Poissons Ratio (z) = 0.23390 0.47029
#
# Static dielectric constant tensor:
#      x y z
#    x 3.308840 0.000000 0.000000 
#    y 0.000000 3.593460 0.000000 
#    z 0.000000 0.000000 3.161920 
# 
# 
# High freq. dielectric constant tensor:
#      x y z
#    x 1.706860 0.000000 0.000000 
#    y 0.000000 1.725260 0.000000 
#    z 0.000000 0.000000 1.678470 
# 
# From -- ./inp_files/13962.got.cif
#   From: 2010.03.12/outbox.cif.g09.slc.cpg/sg36_7_cif.got.tgz:13962.got - 2010.04.14 02:13:53.
