data_PCOD8175510
_publ_section_title
;
Structure prediction by ZEFSAII (Michael W. Deem and Ramdas Pophale) SiO2 
 PCOD8175510
Probable space group: C M C 21
;
_chemical_formula_sum "Si O2"
_cell_formula_units_Z 48
_cell_length_a 8.344203
_cell_length_b 15.128259
_cell_length_c 18.677858
_cell_angle_alpha 90.000000
_cell_angle_beta 90.000000
_cell_angle_gamma 90.000000
_cell_volume 2357.766982
_symmetry_space_group_name_H-M "C M C 21"
_symmetry_group_IT_number 36
_symmetry_cell_setting 'orthorhombic'
loop_
_space_group_symop_operation_xyz
x,y,z
-x,-y,1/2+z
x,-y,1/2+z
-x,y,z
1/2+x,1/2+y,z
1/2-x,1/2-y,1/2+z
1/2+x,1/2-y,1/2+z
1/2-x,1/2+y,z
loop_
_atom_site_type_symbol
_atom_site_label
_atom_site_fract_x
_atom_site_fract_y
_atom_site_fract_z
Si Si1 0.186907 0.648617 0.244750
Si Si2 0.186601 0.003501 0.836528
Si Si3 0.183873 0.498349 0.992324
Si Si4 0.814157 0.146731 0.089915
Si Si5 0.810204 0.834851 0.070843
Si Si6 0.810861 0.153275 0.731226
O O1 0.290655 0.590775 0.298983
O O2 0.222736 0.622526 0.162942
O O3 0.239410 0.749847 0.258858
O O4 0.000000 0.633605 0.260053
O O5 0.258618 0.078995 0.784004
O O6 0.000000 0.018416 0.853410
O O7 0.286919 0.009360 0.908513
O O8 0.000000 0.518858 0.009624
O O9 0.294739 0.566014 0.035486
O O10 0.226597 0.398291 0.013742
O O11 0.741230 0.234563 0.053785
O O12 0.000000 0.160844 0.107088
O O13 0.747906 0.861246 0.150330
O O14 0.000000 0.843319 0.063711
O O15 0.000000 0.145281 0.728706
#
# Coordination Sequence:
#
# PCOD8175510 Si02
#       6
#     8   8   8   8   8   8
#     4  10  20  38  61  87 116 150 193 244 292 345
#     4  11  22  38  58  84 117 156 196 241 294 350
#     4  12  25  40  57  84 120 160 200 244 295 351
#     4  11  22  39  62  89 118 154 197 244 293 349
#     4  10  20  39  64  90 116 149 194 247 298 351
#     4   8  18  36  60  84 111 145 186 234 288 342
#
# _framework density 20.358246000000001
#
# number of rings (size 3 to 8) (size 9 to 14) (size 15 to 20)
#    0.000    1.667    0.000    6.500    0.000    2.667 
#    0.000   14.167    0.000    0.000    0.000    0.000 
#    0.000    0.000    0.000    0.000    0.000    0.000 
#
# Total GULP energy -297716.537856 kJ/mol
# GULP energy per Si atom -12404.855744 kJ/mol
# Density = 2.031191 g / cm^3
# Si number density = 20.358246 Si / 1000 Ang^3
#
#
#
# Elastic Constant Matrix: (Units=GPa)
#
#
# Indices 1 2 3 4 5 6 
#
# 1 66.5354 22.0462 12.4306 0.0000 0.0000 0.0000
# 2 22.0462 80.5575 34.4113 0.0000 0.0000 0.0000
# 3 12.4306 34.4113 60.1015 0.0000 0.0000 0.0000
# 4 0.0000 0.0000 0.0000 19.6017 0.0000 0.0000
# 5 0.0000 0.0000 0.0000 0.0000 24.6896 0.0000
# 6 0.0000 0.0000 0.0000 0.0000 0.0000 32.2579
#
#
#
# Elastic Compliance Matrix: (Units=1/GPa)
#
#
# Indices 1 2 3 4 5 6 
#
# 1 0.016583 -0.004068 -0.001101 0.000000 0.000000 0.000000
# 2 -0.004068 0.017430 -0.009138 0.000000 0.000000 0.000000
# 3 -0.001101 -0.009138 0.022098 0.000000 0.000000 0.000000
# 4 0.000000 0.000000 0.000000 0.051016 0.000000 0.000000
# 5 0.000000 0.000000 0.000000 0.000000 0.040503 0.000000
# 6 0.000000 0.000000 0.000000 0.000000 0.000000 0.031000
#
#
# Mechanical properties :
#
#
# Convention : Reuss Voigt Hill
#
# Bulk Modulus (GPa) = 36.36683 38.33006 37.34844
# Shear Modulus (GPa) = 23.10414 24.53026 23.81720
#
# Velocity S-wave (km/s) = 3.37245 3.47498 3.42410
# Velocity P-wave (km/s) = 5.75037 5.91348 5.83250
#
# Compressibility (1/GPa) = 0.02749759
#
# Stress axis : x y z
#
# Youngs Moduli (GPa) = 60.30204 57.37076 45.25206
#
# Poissons Ratio (x) = 0.23340 0.04980
# Poissons Ratio (y) = 0.24532 0.41354
# Poissons Ratio (z) = 0.06637 0.52428
#
# Static dielectric constant tensor:
#      x y z
#    x 3.520200 0.000000 0.000000 
#    y 0.000000 3.848290 0.000000 
#    z 0.000000 0.000000 3.681070 
# 
# 
# High freq. dielectric constant tensor:
#      x y z
#    x 1.791720 0.000000 0.000000 
#    y 0.000000 1.806110 0.000000 
#    z 0.000000 0.000000 1.787520 
# 
# From -- ./inp_files/13483.got.cif
#   From: 2010.03.12/outbox.cif.g09.slc.cpg/sg36_7_cif.got.tgz:13483.got - 2010.04.14 02:13:53.
