data_PCOD8175684
_publ_section_title
;
Structure prediction by ZEFSAII (Michael W. Deem and Ramdas Pophale) SiO2 
 PCOD8175684
Probable space group: C M C 21
;
_chemical_formula_sum "Si O2"
_cell_formula_units_Z 56
_cell_length_a 14.007190
_cell_length_b 36.408254
_cell_length_c 5.166578
_cell_angle_alpha 90.000000
_cell_angle_beta 90.000000
_cell_angle_gamma 90.000000
_cell_volume 2634.837661
_symmetry_space_group_name_H-M "C M C 21"
_symmetry_group_IT_number 36
_symmetry_cell_setting 'orthorhombic'
loop_
_space_group_symop_operation_xyz
x,y,z
-x,-y,1/2+z
x,-y,1/2+z
-x,y,z
1/2+x,1/2+y,z
1/2-x,1/2-y,1/2+z
1/2+x,1/2-y,1/2+z
1/2-x,1/2+y,z
loop_
_atom_site_type_symbol
_atom_site_label
_atom_site_fract_x
_atom_site_fract_y
_atom_site_fract_z
Si Si1 0.611828 0.522805 0.877930
Si Si2 0.107758 0.753121 0.775619
Si Si3 0.729347 0.632026 0.251932
Si Si4 0.248092 0.413805 0.264931
Si Si5 0.753802 0.301582 0.054157
Si Si6 0.103941 0.823413 0.439731
Si Si7 0.887541 0.521985 0.671050
O O1 0.643784 0.497065 0.640897
O O2 0.500000 0.530837 0.872555
O O3 0.663224 0.561771 0.858679
O O4 0.148889 0.714337 0.673574
O O5 0.103454 0.782045 0.544264
O O6 0.000000 0.747180 0.888339
O O7 0.182305 0.767825 0.988657
O O8 0.721383 0.606423 0.501948
O O9 0.784297 0.670725 0.321590
O O10 0.623516 0.646113 0.163416
O O11 0.780271 0.612336 0.007321
O O12 0.155687 0.437730 0.198117
O O13 0.691523 0.327855 0.241714
O O14 0.000000 0.831660 0.314522
O O15 0.851802 0.503476 0.406355
O O16 0.000000 0.527013 0.675529
#
# Coordination Sequence:
#
# PCOD8175684 Si02
#       7
#     8   8   8   8   8   8   8
#     4  10  21  37  58  86 118 152 198 251 299 351
#     4  10  21  36  65  95 117 162 212 266 334 377
#     4  11  25  39  59  87 130 168 207 247 309 381
#     4  12  22  40  62  88 123 170 203 247 312 376
#     4  11  20  41  62  90 131 161 209 279 314 383
#     4  10  21  40  63  91 123 162 209 261 316 373
#     4  10  21  39  66  97 122 155 211 269 313 363
#
# _framework density 21.253682000000001
#
# number of rings (size 3 to 8) (size 9 to 14) (size 15 to 20)
#    0.000    1.429    2.857    3.000    0.000    1.714 
#    0.000    1.429    0.000    0.857    0.000    0.000 
#    0.000    0.000    0.000    0.000    0.000    0.000 
#
# Total GULP energy -347058.923206 kJ/mol
# GULP energy per Si atom -12394.961543 kJ/mol
# Density = 2.120531 g / cm^3
# Si number density = 21.253682 Si / 1000 Ang^3
#
#
#
# Elastic Constant Matrix: (Units=GPa)
#
#
# Indices 1 2 3 4 5 6 
#
# 1 68.7133 40.7008 27.2808 0.0000 0.0000 0.0000
# 2 40.7008 112.2155 49.8814 0.0000 0.0000 0.0000
# 3 27.2808 49.8814 122.4171 0.0000 0.0000 0.0000
# 4 0.0000 0.0000 0.0000 44.8544 0.0000 0.0000
# 5 0.0000 0.0000 0.0000 0.0000 21.3156 0.0000
# 6 0.0000 0.0000 0.0000 0.0000 0.0000 15.9450
#
#
#
# Elastic Compliance Matrix: (Units=1/GPa)
#
#
# Indices 1 2 3 4 5 6 
#
# 1 0.018829 -0.006062 -0.001726 0.000000 0.000000 0.000000
# 2 -0.006062 0.012834 -0.003879 0.000000 0.000000 0.000000
# 3 -0.001726 -0.003879 0.010134 0.000000 0.000000 0.000000
# 4 0.000000 0.000000 0.000000 0.022294 0.000000 0.000000
# 5 0.000000 0.000000 0.000000 0.000000 0.046914 0.000000
# 6 0.000000 0.000000 0.000000 0.000000 0.000000 0.062715
#
#
# Mechanical properties :
#
#
# Convention : Reuss Voigt Hill
#
# Bulk Modulus (GPa) = 54.15988 59.89687 57.02838
# Shear Modulus (GPa) = 24.60517 28.78855 26.69686
#
# Velocity S-wave (km/s) = 3.40618 3.68437 3.54800
# Velocity P-wave (km/s) = 6.40369 6.80754 6.60870
#
# Compressibility (1/GPa) = 0.01846385
#
# Stress axis : x y z
#
# Youngs Moduli (GPa) = 53.10876 77.91611 98.67914
#
# Poissons Ratio (x) = 0.47234 0.17032
# Poissons Ratio (y) = 0.32196 0.38274
# Poissons Ratio (z) = 0.09166 0.30221
#
# Static dielectric constant tensor:
#      x y z
#    x 3.750310 0.000000 0.000000 
#    y 0.000000 3.867750 0.000000 
#    z 0.000000 0.000000 4.070990 
# 
# 
# High freq. dielectric constant tensor:
#      x y z
#    x 1.810910 0.000000 0.000000 
#    y 0.000000 1.834670 0.000000 
#    z 0.000000 0.000000 1.844970 
# 
# From -- ./inp_files/931.got.cif
#   From: 2010.03.12/outbox.cif.g09.slc.cpg/sg36_1_cif.got.tgz:931.got - 2010.04.14 02:13:53.
