data_PCOD8175278
_publ_section_title
;
Structure prediction by ZEFSAII (Michael W. Deem and Ramdas Pophale) SiO2 
 PCOD8175278
Probable space group: C M C 21
;
_chemical_formula_sum "Si O2"
_cell_formula_units_Z 40
_cell_length_a 7.756515
_cell_length_b 27.844966
_cell_length_c 8.614418
_cell_angle_alpha 90.000000
_cell_angle_beta 90.000000
_cell_angle_gamma 90.000000
_cell_volume 1860.541108
_symmetry_space_group_name_H-M "C M C 21"
_symmetry_group_IT_number 36
_symmetry_cell_setting 'orthorhombic'
loop_
_space_group_symop_operation_xyz
x,y,z
-x,-y,1/2+z
x,-y,1/2+z
-x,y,z
1/2+x,1/2+y,z
1/2-x,1/2-y,1/2+z
1/2+x,1/2-y,1/2+z
1/2-x,1/2+y,z
loop_
_atom_site_type_symbol
_atom_site_label
_atom_site_fract_x
_atom_site_fract_y
_atom_site_fract_z
Si Si1 0.000000 0.033550 0.648270
Si Si2 0.192743 0.589885 0.498815
Si Si3 0.196823 0.187797 0.580359
Si Si4 0.805147 0.620852 0.149673
Si Si5 0.500000 0.566261 0.003288
Si Si6 0.200554 0.779587 0.744269
O O1 0.172872 0.052040 0.565586
O O2 0.000000 0.046265 0.829137
O O3 0.000000 0.976380 0.628925
O O4 0.195086 0.638885 0.600795
O O5 0.244110 0.602744 0.322216
O O6 0.000000 0.567875 0.508199
O O7 0.249573 0.213791 0.422377
O O8 0.232305 0.226080 0.713671
O O9 0.000000 0.170875 0.581035
O O10 0.793067 0.678898 0.143383
O O11 0.000000 0.605635 0.104675
O O12 0.671839 0.598006 0.027777
O O13 0.000000 0.783834 0.710313
#
# Coordination Sequence:
#
# PCOD8175278 Si02
#       6
#     4   8   8   8   4   8
#     4  12  26  44  68  94 126 164 208 264 317 380
#     4  10  21  41  67  92 125 166 209 260 316 374
#     4  10  20  35  57  86 124 166 208 253 303 364
#     4  10  21  41  67  92 125 166 209 260 316 374
#     4  12  26  44  68  94 126 164 208 264 317 380
#     4  10  20  35  57  86 124 166 208 253 303 364
#
# _framework density 21.499120000000001
#
# number of rings (size 3 to 8) (size 9 to 14) (size 15 to 20)
#    0.000    1.600    2.000    3.000    0.000    5.600 
#    0.000    0.000    0.000    0.000    0.000    0.000 
#    0.000    0.000    0.000    0.000    0.000    0.000 
#
# Total GULP energy -248032.226143 kJ/mol
# GULP energy per Si atom -12401.611307 kJ/mol
# Density = 2.145019 g / cm^3
# Si number density = 21.499120 Si / 1000 Ang^3
#
#
#
# Elastic Constant Matrix: (Units=GPa)
#
#
# Indices 1 2 3 4 5 6 
#
# 1 95.1801 23.6768 9.9670 0.0000 0.0000 0.0000
# 2 23.6768 42.7648 -10.2325 0.0000 0.0000 0.0000
# 3 9.9670 -10.2325 27.6629 0.0000 0.0000 0.0000
# 4 0.0000 0.0000 0.0000 36.3358 0.0000 0.0000
# 5 0.0000 0.0000 0.0000 0.0000 23.8293 0.0000
# 6 0.0000 0.0000 0.0000 0.0000 0.0000 18.5579
#
#
#
# Elastic Compliance Matrix: (Units=1/GPa)
#
#
# Indices 1 2 3 4 5 6 
#
# 1 0.013816 -0.009699 -0.008565 0.000000 0.000000 0.000000
# 2 -0.009699 0.032463 0.015502 0.000000 0.000000 0.000000
# 3 -0.008565 0.015502 0.044970 0.000000 0.000000 0.000000
# 4 0.000000 0.000000 0.000000 0.027521 0.000000 0.000000
# 5 0.000000 0.000000 0.000000 0.000000 0.041965 0.000000
# 6 0.000000 0.000000 0.000000 0.000000 0.000000 0.053885
#
#
# Mechanical properties :
#
#
# Convention : Reuss Voigt Hill
#
# Bulk Modulus (GPa) = 11.66517 23.60335 17.63426
# Shear Modulus (GPa) = 20.10302 25.22438 22.66370
#
# Velocity S-wave (km/s) = 3.06120 3.42903 3.25032
# Velocity P-wave (km/s) = 4.23465 5.16529 4.72295
#
# Compressibility (1/GPa) = 0.08572525
#
# Stress axis : x y z
#
# Youngs Moduli (GPa) = 72.37998 30.80458 22.23703
#
# Poissons Ratio (x) = 0.29876 0.19047
# Poissons Ratio (y) = 0.70199 -0.34473
# Poissons Ratio (z) = 0.61997 -0.47755
#
# Static dielectric constant tensor:
#      x y z
#    x 3.926290 0.000000 0.000000 
#    y 0.000000 3.869890 0.000000 
#    z 0.000000 0.000000 3.733270 
# 
# 
# High freq. dielectric constant tensor:
#      x y z
#    x 1.855050 0.000000 0.000000 
#    y 0.000000 1.841260 0.000000 
#    z 0.000000 0.000000 1.822840 
# 
# From -- ./inp_files/2538.got.cif
#   From: 2010.03.12/outbox.cif.g09.slc.cpg/sg36_2_cif.got.tgz:2538.got - 2010.04.14 02:13:53.
