data_PCOD8175740
_publ_section_title
;
Structure prediction by ZEFSAII (Michael W. Deem and Ramdas Pophale) SiO2 
 PCOD8175740
Probable space group: C M C 21
;
_chemical_formula_sum "Si O2"
_cell_formula_units_Z 56
_cell_length_a 30.223801
_cell_length_b 4.964322
_cell_length_c 17.319735
_cell_angle_alpha 90.000000
_cell_angle_beta 90.000000
_cell_angle_gamma 90.000000
_cell_volume 2598.664821
_symmetry_space_group_name_H-M "C M C 21"
_symmetry_group_IT_number 36
_symmetry_cell_setting 'orthorhombic'
loop_
_space_group_symop_operation_xyz
x,y,z
-x,-y,1/2+z
x,-y,1/2+z
-x,y,z
1/2+x,1/2+y,z
1/2-x,1/2-y,1/2+z
1/2+x,1/2-y,1/2+z
1/2-x,1/2+y,z
loop_
_atom_site_type_symbol
_atom_site_label
_atom_site_fract_x
_atom_site_fract_y
_atom_site_fract_z
Si Si1 0.376461 0.402327 0.743230
Si Si2 0.093895 0.929607 0.073917
Si Si3 0.276992 0.265778 0.525679
Si Si4 0.408329 0.091370 0.329687
Si Si5 0.500000 0.122148 0.402584
Si Si6 0.000000 0.120821 0.510922
Si Si7 0.130086 0.566880 0.490751
Si Si8 0.221512 0.761798 0.706621
O O1 0.393426 0.504122 0.661009
O O2 0.404989 0.139653 0.764909
O O3 0.324924 0.321719 0.747107
O O4 0.383182 0.639266 0.804390
O O5 0.042948 0.836330 0.065302
O O6 0.126705 0.689817 0.047397
O O7 0.099587 0.191666 0.021112
O O8 0.263309 0.567519 0.502719
O O9 0.320178 0.171633 0.480907
O O10 0.288059 0.258750 0.615866
O O11 0.458980 0.163889 0.345487
O O12 0.386433 0.974325 0.407283
O O13 0.500000 0.326460 0.473831
O O14 0.500000 0.826606 0.439760
O O15 0.240969 0.474743 0.731808
#
# Coordination Sequence:
#
# PCOD8175740 Si02
#       8
#     8   8   8   8   4   4   8   8
#     4  12  26  44  65 106 137 176 222 279 343 398
#     4  12  24  41  72  97 134 169 230 287 320 391
#     4  10  21  37  65  99 129 168 225 284 323 380
#     4  12  26  44  69  96 142 181 214 274 347 410
#     4  12  24  46  70  98 132 178 230 262 344 420
#     4  12  22  44  70 104 126 172 236 280 324 394
#     4  12  23  44  67 100 129 181 224 276 331 402
#     4  10  21  39  66  95 130 176 222 273 330 398
#
# _framework density 21.549527000000001
#
# number of rings (size 3 to 8) (size 9 to 14) (size 15 to 20)
#    0.000    0.571    4.286    4.286    4.000    1.143 
#    0.000    4.286    0.000    0.000    0.000    0.000 
#    0.000    0.000    0.000    0.000    0.000    0.000 
#
# Total GULP energy -347372.222637 kJ/mol
# GULP energy per Si atom -12406.150808 kJ/mol
# Density = 2.150048 g / cm^3
# Si number density = 21.549527 Si / 1000 Ang^3
#
#
#
# Elastic Constant Matrix: (Units=GPa)
#
#
# Indices 1 2 3 4 5 6 
#
# 1 117.1455 16.2531 53.5787 0.0000 0.0000 0.0000
# 2 16.2531 104.3003 23.7060 0.0000 0.0000 0.0000
# 3 53.5787 23.7060 68.3654 0.0000 0.0000 0.0000
# 4 0.0000 0.0000 0.0000 39.6609 0.0000 0.0000
# 5 0.0000 0.0000 0.0000 0.0000 30.4030 0.0000
# 6 0.0000 0.0000 0.0000 0.0000 0.0000 33.2353
#
#
#
# Elastic Compliance Matrix: (Units=1/GPa)
#
#
# Indices 1 2 3 4 5 6 
#
# 1 0.013316 0.000322 -0.010547 0.000000 0.000000 0.000000
# 2 0.000322 0.010416 -0.003864 0.000000 0.000000 0.000000
# 3 -0.010547 -0.003864 0.024233 0.000000 0.000000 0.000000
# 4 0.000000 0.000000 0.000000 0.025214 0.000000 0.000000
# 5 0.000000 0.000000 0.000000 0.000000 0.032891 0.000000
# 6 0.000000 0.000000 0.000000 0.000000 0.000000 0.030089
#
#
# Mechanical properties :
#
#
# Convention : Reuss Voigt Hill
#
# Bulk Modulus (GPa) = 50.54075 52.98741 51.76408
# Shear Modulus (GPa) = 29.25125 33.74473 31.49799
#
# Velocity S-wave (km/s) = 3.68828 3.96146 3.82731
# Velocity P-wave (km/s) = 6.45307 6.75028 6.60335
#
# Compressibility (1/GPa) = 0.01978601
#
# Stress axis : x y z
#
# Youngs Moduli (GPa) = 75.09904 96.00820 41.26540
#
# Poissons Ratio (x) = -0.03094 0.43524
# Poissons Ratio (y) = -0.02420 0.15946
# Poissons Ratio (z) = 0.79210 0.37100
#
# Static dielectric constant tensor:
#      x y z
#    x 3.994920 0.000000 0.000000 
#    y 0.000000 4.077590 0.000000 
#    z 0.000000 0.000000 3.646960 
# 
# 
# High freq. dielectric constant tensor:
#      x y z
#    x 1.857950 0.000000 0.000000 
#    y 0.000000 1.865380 0.000000 
#    z 0.000000 0.000000 1.823880 
# 
# From -- ./inp_files/13203.got.cif
#   From: 2010.03.12/outbox.cif.g09.slc.cpg/sg36_7_cif.got.tgz:13203.got - 2010.04.14 02:13:53.
