data_PCOD8175484
_publ_section_title
;
Structure prediction by ZEFSAII (Michael W. Deem and Ramdas Pophale) SiO2 
 PCOD8175484
Probable space group: C M C 21
;
_chemical_formula_sum "Si O2"
_cell_formula_units_Z 40
_cell_length_a 10.445494
_cell_length_b 18.939628
_cell_length_c 8.761858
_cell_angle_alpha 90.000000
_cell_angle_beta 90.000000
_cell_angle_gamma 90.000000
_cell_volume 1733.391406
_symmetry_space_group_name_H-M "C M C 21"
_symmetry_group_IT_number 36
_symmetry_cell_setting 'orthorhombic'
loop_
_space_group_symop_operation_xyz
x,y,z
-x,-y,1/2+z
x,-y,1/2+z
-x,y,z
1/2+x,1/2+y,z
1/2-x,1/2-y,1/2+z
1/2+x,1/2-y,1/2+z
1/2-x,1/2+y,z
loop_
_atom_site_type_symbol
_atom_site_label
_atom_site_fract_x
_atom_site_fract_y
_atom_site_fract_z
Si Si1 0.358132 0.225411 0.373700
Si Si2 0.275605 0.948152 0.365565
Si Si3 0.500000 0.593298 0.232807
Si Si4 0.780875 0.595132 0.205572
Si Si5 0.500000 0.530738 0.922925
Si Si6 0.644186 0.185685 0.715655
O O1 0.500000 0.260976 0.375426
O O2 0.370054 0.158732 0.259514
O O3 0.319104 0.198493 0.540973
O O4 0.248690 0.279930 0.326880
O O5 0.321399 0.932154 0.538722
O O6 0.124416 0.931079 0.353444
O O7 0.351472 0.898246 0.248607
O O8 0.297525 0.029989 0.322551
O O9 0.636551 0.632512 0.210748
O O10 0.500000 0.553322 0.393677
O O11 0.500000 0.531342 0.105644
O O12 0.500000 0.213808 0.750695
#
# Coordination Sequence:
#
# PCOD8175484 Si02
#       6
#     8   8   4   8   4   8
#     4  11  26  46  67  94 129 170 217 267 323 388
#     4  10  20  37  63  95 131 169 214 265 319 379
#     4   8  16  30  52  86 124 160 199 248 303 362
#     4  10  20  37  63  95 131 169 214 265 319 379
#     4   8  16  30  52  86 124 160 199 248 303 362
#     4  11  26  46  67  94 129 170 217 267 323 388
#
# _framework density 23.076150999999999
#
# number of rings (size 3 to 8) (size 9 to 14) (size 15 to 20)
#    0.000    2.000    0.000    2.400    2.800    5.600 
#    0.000    0.000    0.000    0.000    0.000    0.000 
#    0.000    0.000    0.000    0.000    0.000    0.000 
#
# Total GULP energy -247852.621877 kJ/mol
# GULP energy per Si atom -12392.631094 kJ/mol
# Density = 2.302363 g / cm^3
# Si number density = 23.076151 Si / 1000 Ang^3
#
#
#
# Elastic Constant Matrix: (Units=GPa)
#
#
# Indices 1 2 3 4 5 6 
#
# 1 91.0516 22.7622 17.7087 0.0000 0.0000 0.0000
# 2 22.7622 53.0099 1.7233 0.0000 0.0000 0.0000
# 3 17.7087 1.7233 71.1684 0.0000 0.0000 0.0000
# 4 0.0000 0.0000 0.0000 39.0963 0.0000 0.0000
# 5 0.0000 0.0000 0.0000 0.0000 29.0751 0.0000
# 6 0.0000 0.0000 0.0000 0.0000 0.0000 30.6721
#
#
#
# Elastic Compliance Matrix: (Units=1/GPa)
#
#
# Indices 1 2 3 4 5 6 
#
# 1 0.012949 -0.005460 -0.003090 0.000000 0.000000 0.000000
# 2 -0.005460 0.021181 0.000846 0.000000 0.000000 0.000000
# 3 -0.003090 0.000846 0.014800 0.000000 0.000000 0.000000
# 4 0.000000 0.000000 0.000000 0.025578 0.000000 0.000000
# 5 0.000000 0.000000 0.000000 0.000000 0.034394 0.000000
# 6 0.000000 0.000000 0.000000 0.000000 0.000000 0.032603
#
#
# Mechanical properties :
#
#
# Convention : Reuss Voigt Hill
#
# Bulk Modulus (GPa) = 29.83132 33.29092 31.56112
# Shear Modulus (GPa) = 29.74681 31.30443 30.52562
#
# Velocity S-wave (km/s) = 3.59426 3.68716 3.64101
# Velocity P-wave (km/s) = 5.49366 5.70830 5.60201
#
# Compressibility (1/GPa) = 0.03352182
#
# Stress axis : x y z
#
# Youngs Moduli (GPa) = 77.22856 47.21154 67.56976
#
# Poissons Ratio (x) = 0.25776 0.20877
# Poissons Ratio (y) = 0.42164 -0.05714
# Poissons Ratio (z) = 0.23862 -0.03992
#
# Static dielectric constant tensor:
#      x y z
#    x 4.301920 0.000000 0.000000 
#    y 0.000000 3.825600 0.000000 
#    z 0.000000 0.000000 4.117500 
# 
# 
# High freq. dielectric constant tensor:
#      x y z
#    x 1.915430 0.000000 0.000000 
#    y 0.000000 1.891440 0.000000 
#    z 0.000000 0.000000 1.913220 
# 
# From -- ./inp_files/3105.got.cif
#   From: 2010.03.12/outbox.cif.g09.slc.cpg/sg36_2_cif.got.tgz:3105.got - 2010.04.14 02:13:53.
