data_PCOD8175112
_publ_section_title
;
Structure prediction by ZEFSAII (Michael W. Deem and Ramdas Pophale) SiO2 
 PCOD8175112
Probable space group: C M C 21
;
_chemical_formula_sum "Si O2"
_cell_formula_units_Z 64
_cell_length_a 8.837731
_cell_length_b 20.283783
_cell_length_c 19.799363
_cell_angle_alpha 90.000000
_cell_angle_beta 90.000000
_cell_angle_gamma 90.000000
_cell_volume 3549.285642
_symmetry_space_group_name_H-M "C M C 21"
_symmetry_group_IT_number 36
_symmetry_cell_setting 'orthorhombic'
loop_
_space_group_symop_operation_xyz
x,y,z
-x,-y,1/2+z
x,-y,1/2+z
-x,y,z
1/2+x,1/2+y,z
1/2-x,1/2-y,1/2+z
1/2+x,1/2-y,1/2+z
1/2-x,1/2+y,z
loop_
_atom_site_type_symbol
_atom_site_label
_atom_site_fract_x
_atom_site_fract_y
_atom_site_fract_z
Si Si1 0.176972 0.315523 0.507980
Si Si2 0.680099 0.076085 0.112803
Si Si3 0.677087 0.929688 0.105997
Si Si4 0.177754 0.322351 0.851827
Si Si5 0.177601 0.314544 0.353663
Si Si6 0.321064 0.427537 0.754800
Si Si7 0.177805 0.320036 0.007308
Si Si8 0.177303 0.433156 0.258533
O O1 0.237076 0.374524 0.554936
O O2 0.218998 0.332195 0.430790
O O3 0.253994 0.248589 0.532628
O O4 0.000000 0.306323 0.517111
O O5 0.500000 0.076669 0.121718
O O6 0.751894 0.096546 0.183966
O O7 0.738995 0.003308 0.092032
O O8 0.500000 0.929785 0.092892
O O9 0.715054 0.908995 0.182740
O O10 0.750385 0.877813 0.053689
O O11 0.231616 0.249741 0.829311
O O12 0.268592 0.376950 0.811494
O O13 0.220296 0.334113 0.929956
O O14 0.000000 0.329331 0.838146
O O15 0.231713 0.376063 0.308888
O O16 0.000000 0.300630 0.344422
O O17 0.500000 0.427425 0.749457
O O18 0.265462 0.500120 0.775928
O O19 0.000000 0.314978 0.017449
O O20 0.000000 0.448385 0.266787
#
# Coordination Sequence:
#
# PCOD8175112 Si02
#       8
#     8   8   8   8   8   8   8   8
#     4   9  18  32  51  75 103 133 165 205 249 295
#     4   9  18  34  53  72  97 131 169 208 252 301
#     4   8  15  30  51  73  96 125 165 205 239 285
#     4  10  20  34  52  74 103 138 173 210 253 301
#     4   9  18  33  53  78 106 136 171 208 249 299
#     4  11  22  35  52  74 101 132 169 215 259 303
#     4   9  18  32  51  74 101 134 169 205 245 295
#     4   9  18  34  55  76 101 133 167 206 252 303
#
# _framework density 18.031797999999998
#
# number of rings (size 3 to 8) (size 9 to 14) (size 15 to 20)
#    0.000    2.750    0.000    2.250    0.000    3.500 
#    0.000    7.500    0.000    3.000    0.000    0.000 
#    0.000    0.000    0.000    0.000    0.000    0.000 
#
# Total GULP energy -396797.409785 kJ/mol
# GULP energy per Si atom -12399.919056 kJ/mol
# Density = 1.799076 g / cm^3
# Si number density = 18.031798 Si / 1000 Ang^3
#
#
#
# Elastic Constant Matrix: (Units=GPa)
#
#
# Indices 1 2 3 4 5 6 
#
# 1 44.3747 39.3419 31.3747 0.0000 0.0000 0.0000
# 2 39.3419 139.4592 92.6273 0.0000 0.0000 0.0000
# 3 31.3747 92.6273 104.0026 0.0000 0.0000 0.0000
# 4 0.0000 0.0000 0.0000 42.4126 0.0000 0.0000
# 5 0.0000 0.0000 0.0000 0.0000 18.8889 0.0000
# 6 0.0000 0.0000 0.0000 0.0000 0.0000 31.3196
#
#
#
# Elastic Compliance Matrix: (Units=1/GPa)
#
#
# Indices 1 2 3 4 5 6 
#
# 1 0.030648 -0.006133 -0.003783 0.000000 0.000000 0.000000
# 2 -0.006133 0.018783 -0.014878 0.000000 0.000000 0.000000
# 3 -0.003783 -0.014878 0.024007 0.000000 0.000000 0.000000
# 4 0.000000 0.000000 0.000000 0.023578 0.000000 0.000000
# 5 0.000000 0.000000 0.000000 0.000000 0.052941 0.000000
# 6 0.000000 0.000000 0.000000 0.000000 0.000000 0.031929
#
#
# Mechanical properties :
#
#
# Convention : Reuss Voigt Hill
#
# Bulk Modulus (GPa) = 41.93098 68.28047 55.10573
# Shear Modulus (GPa) = 20.88347 26.82373 23.85360
#
# Velocity S-wave (km/s) = 3.40685 3.86110 3.64106
# Velocity P-wave (km/s) = 6.22735 7.60436 6.95004
#
# Compressibility (1/GPa) = 0.02384871
#
# Stress axis : x y z
#
# Youngs Moduli (GPa) = 32.62885 53.24104 41.65405
#
# Poissons Ratio (x) = 0.32652 0.15760
# Poissons Ratio (y) = 0.20011 0.61973
# Poissons Ratio (z) = 0.12345 0.79212
#
# Static dielectric constant tensor:
#      x y z
#    x 3.134940 0.000000 0.000000 
#    y 0.000000 3.574860 0.000000 
#    z 0.000000 0.000000 3.470060 
# 
# 
# High freq. dielectric constant tensor:
#      x y z
#    x 1.679640 0.000000 0.000000 
#    y 0.000000 1.705180 0.000000 
#    z 0.000000 0.000000 1.699380 
# 
# From -- ./inp_files/15730.got.cif
#   From: 2010.03.12/outbox.cif.g09.slc.cpg/sg36_8_cif.got.tgz:15730.got - 2010.04.14 02:13:53.
