data_PCOD8175931
_publ_section_title
;
Structure prediction by ZEFSAII (Michael W. Deem and Ramdas Pophale) SiO2 
 PCOD8175931
Probable space group: C M C 21
;
_chemical_formula_sum "Si O2"
_cell_formula_units_Z 48
_cell_length_a 13.663939
_cell_length_b 12.489744
_cell_length_c 13.632837
_cell_angle_alpha 90.000000
_cell_angle_beta 90.000000
_cell_angle_gamma 90.000000
_cell_volume 2326.567695
_symmetry_space_group_name_H-M "C M C 21"
_symmetry_group_IT_number 36
_symmetry_cell_setting 'orthorhombic'
loop_
_space_group_symop_operation_xyz
x,y,z
-x,-y,1/2+z
x,-y,1/2+z
-x,y,z
1/2+x,1/2+y,z
1/2-x,1/2-y,1/2+z
1/2+x,1/2-y,1/2+z
1/2-x,1/2+y,z
loop_
_atom_site_type_symbol
_atom_site_label
_atom_site_fract_x
_atom_site_fract_y
_atom_site_fract_z
Si Si1 0.000000 0.823182 0.372771
Si Si2 0.676666 0.465331 0.428158
Si Si3 0.715491 0.022901 0.239349
Si Si4 0.706439 0.315782 0.600117
Si Si5 0.500000 0.237460 0.583292
Si Si6 0.000000 0.734077 0.163963
Si Si7 0.500000 0.007619 0.676509
Si Si8 0.173415 0.123823 0.589874
O O1 0.093192 0.901610 0.370484
O O2 0.000000 0.745813 0.465930
O O3 0.000000 0.741544 0.282090
O O4 0.754847 0.513692 0.352544
O O5 0.731296 0.390108 0.506824
O O6 0.634023 0.562983 0.493325
O O7 0.731773 0.143277 0.195795
O O8 0.601935 0.986049 0.237176
O O9 0.793059 0.955614 0.175540
O O10 0.591328 0.305338 0.626559
O O11 0.733070 0.196407 0.565811
O O12 0.500000 0.110368 0.605339
O O13 0.000000 0.610443 0.126155
O O14 0.092784 0.794010 0.123499
#
# Coordination Sequence:
#
# PCOD8175931 Si02
#       8
#     4   8   8   8   4   4   4   8
#     4  10  21  42  68  99 123 172 228 274 321 388
#     4  10  23  40  67  96 125 172 227 267 323 390
#     4  11  23  42  65  93 133 169 224 265 330 397
#     4  10  22  41  66  94 129 177 209 272 328 388
#     4  10  22  42  68  93 135 169 223 263 331 390
#     4  12  23  41  71  98 132 171 223 267 335 384
#     4  12  24  41  65 100 130 178 210 270 337 402
#     4  11  22  41  66  92 134 170 212 277 323 395
#
# _framework density 20.631250999999999
#
# number of rings (size 3 to 8) (size 9 to 14) (size 15 to 20)
#    0.000    1.333    5.000    0.500    0.000    6.667 
#    0.000    0.833    0.000    0.000    0.000    0.000 
#    0.000    0.000    0.000    0.000    0.000    0.000 
#
# Total GULP energy -297417.775964 kJ/mol
# GULP energy per Si atom -12392.407332 kJ/mol
# Density = 2.058429 g / cm^3
# Si number density = 20.631251 Si / 1000 Ang^3
#
#
#
# Elastic Constant Matrix: (Units=GPa)
#
#
# Indices 1 2 3 4 5 6 
#
# 1 93.6033 20.7967 37.1050 0.0000 0.0000 0.0000
# 2 20.7967 113.9809 45.4983 0.0000 0.0000 0.0000
# 3 37.1050 45.4983 102.4569 0.0000 0.0000 0.0000
# 4 0.0000 0.0000 0.0000 23.2915 0.0000 0.0000
# 5 0.0000 0.0000 0.0000 0.0000 25.5486 0.0000
# 6 0.0000 0.0000 0.0000 0.0000 0.0000 -14.2615
#
#
#
# Elastic Compliance Matrix: (Units=1/GPa)
#
#
# Indices 1 2 3 4 5 6 
#
# 1 0.012505 -0.000576 -0.004273 0.000000 0.000000 0.000000
# 2 -0.000576 0.010690 -0.004539 0.000000 0.000000 0.000000
# 3 -0.004273 -0.004539 0.013323 0.000000 0.000000 0.000000
# 4 0.000000 0.000000 0.000000 0.042934 0.000000 0.000000
# 5 0.000000 0.000000 0.000000 0.000000 0.039141 0.000000
# 6 0.000000 0.000000 0.000000 0.000000 0.000000 -0.070119
#
#
# Mechanical properties :
#
#
# Convention : Reuss Voigt Hill
#
# Bulk Modulus (GPa) = 56.35928 57.42680 56.89304
# Shear Modulus (GPa) = 68.33923 20.69180 44.51552
#
# Velocity S-wave (km/s) = 5.76160 3.17035 4.65012
# Velocity P-wave (km/s) = 8.46393 6.42626 7.51448
#
# Compressibility (1/GPa) = 0.01774331
#
# Stress axis : x y z
#
# Youngs Moduli (GPa) = 79.96669 93.54364 75.05724
#
# Poissons Ratio (x) = 0.05388 0.32072
# Poissons Ratio (y) = 0.04606 0.34066
# Poissons Ratio (z) = 0.34170 0.42456
#
# Static dielectric constant tensor:
#      x y z
#    x 12.702600 0.000000 0.000000 
#    y 0.000000 3.976180 0.000000 
#    z 0.000000 0.000000 3.528140 
# 
# 
# High freq. dielectric constant tensor:
#      x y z
#    x 1.816990 0.000000 0.000000 
#    y 0.000000 1.820770 0.000000 
#    z 0.000000 0.000000 1.782130 
# 
# From -- ./inp_files/12117.got.cif
#   From: 2010.03.12/outbox.cif.g09.slc.cpg/sg36_7_cif.got.tgz:12117.got - 2010.04.14 02:13:53.
