data_PCOD8175611
_publ_section_title
;
Structure prediction by ZEFSAII (Michael W. Deem and Ramdas Pophale) SiO2 
 PCOD8175611
Probable space group: C M C 21
;
_chemical_formula_sum "Si O2"
_cell_formula_units_Z 48
_cell_length_a 22.455242
_cell_length_b 8.201678
_cell_length_c 11.346552
_cell_angle_alpha 90.000000
_cell_angle_beta 90.000000
_cell_angle_gamma 90.000000
_cell_volume 2089.702019
_symmetry_space_group_name_H-M "C M C 21"
_symmetry_group_IT_number 36
_symmetry_cell_setting 'orthorhombic'
loop_
_space_group_symop_operation_xyz
x,y,z
-x,-y,1/2+z
x,-y,1/2+z
-x,y,z
1/2+x,1/2+y,z
1/2-x,1/2-y,1/2+z
1/2+x,1/2-y,1/2+z
1/2-x,1/2+y,z
loop_
_atom_site_type_symbol
_atom_site_label
_atom_site_fract_x
_atom_site_fract_y
_atom_site_fract_z
Si Si1 0.355327 0.132237 0.851720
Si Si2 0.157480 0.703165 0.233231
Si Si3 0.435191 0.091832 0.065074
Si Si4 0.338591 0.660000 0.978526
Si Si5 0.226222 0.173183 0.524176
Si Si6 0.066671 0.236557 0.160923
O O1 0.390750 0.270578 0.776027
O O2 0.330439 0.983554 0.772705
O O3 0.402557 0.055873 0.942574
O O4 0.301174 0.216759 0.919590
O O5 0.100513 0.718976 0.146809
O O6 0.145393 0.827160 0.340607
O O7 0.213489 0.760763 0.155691
O O8 0.500000 0.168100 0.039316
O O9 0.442048 0.925260 0.134315
O O10 0.298285 0.820094 0.010779
O O11 0.296304 0.509006 0.008169
O O12 0.399399 0.647616 0.052954
O O13 0.000000 0.159789 0.179414
#
# Coordination Sequence:
#
# PCOD8175611 Si02
#       6
#     8   8   8   8   8   8
#     4  10  20  42  69  98 137 173 227 281 338 413
#     4  10  23  42  65  99 135 176 225 281 347 401
#     4   9  18  37  68 102 130 172 227 274 329 407
#     4  12  26  44  67  99 138 181 229 289 349 414
#     4  11  28  42  69  99 134 181 230 284 353 414
#     4  10  22  39  66  99 135 179 222 275 340 405
#
# _framework density 22.969781000000001
#
# number of rings (size 3 to 8) (size 9 to 14) (size 15 to 20)
#    0.000    1.667    1.667    1.500    9.333    1.333 
#    0.000    4.167    0.000    0.000    0.000    0.000 
#    0.000    0.000    0.000    0.000    0.000    0.000 
#
# Total GULP energy -297594.416811 kJ/mol
# GULP energy per Si atom -12399.767367 kJ/mol
# Density = 2.291750 g / cm^3
# Si number density = 22.969781 Si / 1000 Ang^3
#
#
#
# Elastic Constant Matrix: (Units=GPa)
#
#
# Indices 1 2 3 4 5 6 
#
# 1 90.8312 7.5376 22.5335 0.0000 0.0000 0.0000
# 2 7.5376 51.2618 14.2257 0.0000 0.0000 0.0000
# 3 22.5335 14.2257 128.9443 0.0000 0.0000 0.0000
# 4 0.0000 0.0000 0.0000 32.1362 0.0000 0.0000
# 5 0.0000 0.0000 0.0000 0.0000 22.1702 0.0000
# 6 0.0000 0.0000 0.0000 0.0000 0.0000 21.0317
#
#
#
# Elastic Compliance Matrix: (Units=1/GPa)
#
#
# Indices 1 2 3 4 5 6 
#
# 1 0.011577 -0.001177 -0.001893 0.000000 0.000000 0.000000
# 2 -0.001177 0.020243 -0.002028 0.000000 0.000000 0.000000
# 3 -0.001893 -0.002028 0.008310 0.000000 0.000000 0.000000
# 4 0.000000 0.000000 0.000000 0.031118 0.000000 0.000000
# 5 0.000000 0.000000 0.000000 0.000000 0.045106 0.000000
# 6 0.000000 0.000000 0.000000 0.000000 0.000000 0.047547
#
#
# Mechanical properties :
#
#
# Convention : Reuss Voigt Hill
#
# Bulk Modulus (GPa) = 33.40630 39.95900 36.68265
# Shear Modulus (GPa) = 27.16297 30.18367 28.67332
#
# Velocity S-wave (km/s) = 3.44256 3.62893 3.53697
# Velocity P-wave (km/s) = 5.51151 5.91548 5.71707
#
# Compressibility (1/GPa) = 0.02993448
#
# Stress axis : x y z
#
# Youngs Moduli (GPa) = 86.37989 49.39863 120.33923
#
# Poissons Ratio (x) = 0.05814 0.22783
# Poissons Ratio (y) = 0.10166 0.24401
# Poissons Ratio (z) = 0.16354 0.10017
#
# Static dielectric constant tensor:
#      x y z
#    x 4.430690 0.000000 0.000000 
#    y 0.000000 3.728690 0.000000 
#    z 0.000000 0.000000 4.308500 
# 
# 
# High freq. dielectric constant tensor:
#      x y z
#    x 1.909640 0.000000 0.000000 
#    y 0.000000 1.874640 0.000000 
#    z 0.000000 0.000000 1.920770 
# 
# From -- ./inp_files/9420.got.cif
#   From: 2010.03.12/outbox.cif.g09.slc.cpg/sg36_5_cif.got.tgz:9420.got - 2010.04.14 02:13:53.
