data_PCOD8175018
_publ_section_title
;
Structure prediction by ZEFSAII (Michael W. Deem and Ramdas Pophale) SiO2 
 PCOD8175018
Probable space group: C M C 21
;
_chemical_formula_sum "Si O2"
_cell_formula_units_Z 44
_cell_length_a 14.043178
_cell_length_b 11.075384
_cell_length_c 14.330110
_cell_angle_alpha 90.000000
_cell_angle_beta 90.000000
_cell_angle_gamma 90.000000
_cell_volume 2228.813438
_symmetry_space_group_name_H-M "C M C 21"
_symmetry_group_IT_number 36
_symmetry_cell_setting 'orthorhombic'
loop_
_space_group_symop_operation_xyz
x,y,z
-x,-y,1/2+z
x,-y,1/2+z
-x,y,z
1/2+x,1/2+y,z
1/2-x,1/2-y,1/2+z
1/2+x,1/2-y,1/2+z
1/2-x,1/2+y,z
loop_
_atom_site_type_symbol
_atom_site_label
_atom_site_fract_x
_atom_site_fract_y
_atom_site_fract_z
Si Si1 0.180643 0.465887 0.598790
Si Si2 0.893352 0.360947 0.949785
Si Si3 0.500000 0.174616 0.057716
Si Si4 0.185948 0.533304 0.804255
Si Si5 0.500000 0.596064 0.450113
Si Si6 0.500000 0.167175 0.850335
Si Si7 0.333472 0.404660 0.450311
O O1 0.145177 0.586467 0.547256
O O2 0.218893 0.499518 0.700707
O O3 0.266193 0.407352 0.540803
O O4 0.094840 0.368961 0.610959
O O5 0.832977 0.411542 0.862992
O O6 0.892340 0.217442 0.955028
O O7 0.000000 0.403773 0.932965
O O8 0.500000 0.320566 0.044299
O O9 0.500000 0.111550 0.955211
O O10 0.094118 0.621068 0.797609
O O11 0.272002 0.601427 0.855567
O O12 0.500000 0.685861 0.359536
O O13 0.404799 0.517381 0.449091
#
# Coordination Sequence:
#
# PCOD8175018 Si02
#       7
#     8   8   4   8   4   4   8
#     4  11  23  40  65  92 118 158 206 250 296 357
#     4  11  21  41  63  87 123 160 202 248 299 357
#     4  10  19  40  63  88 118 160 194 253 299 352
#     4  11  23  40  65  92 118 158 206 250 296 357
#     4  10  22  42  62  82 130 162 194 246 310 350
#     4  10  19  40  63  88 118 160 194 253 299 352
#     4  11  24  41  59  90 126 162 197 247 306 356
#
# _framework density 19.741444999999999
#
# number of rings (size 3 to 8) (size 9 to 14) (size 15 to 20)
#    0.545    0.727    6.364    0.545   10.182    1.455 
#    0.000    0.909    0.000    0.000    0.000    0.000 
#    0.000    0.000    0.000    0.000    0.000    0.000 
#
# Total GULP energy -272792.049223 kJ/mol
# GULP energy per Si atom -12399.638601 kJ/mol
# Density = 1.969651 g / cm^3
# Si number density = 19.741445 Si / 1000 Ang^3
#
#
#
# Elastic Constant Matrix: (Units=GPa)
#
#
# Indices 1 2 3 4 5 6 
#
# 1 94.5594 27.0401 20.0995 0.0000 0.0000 0.0000
# 2 27.0401 123.5451 13.4613 0.0000 0.0000 0.0000
# 3 20.0995 13.4613 106.6142 0.0000 0.0000 0.0000
# 4 0.0000 0.0000 0.0000 10.2462 0.0000 0.0000
# 5 0.0000 0.0000 0.0000 0.0000 4.8570 0.0000
# 6 0.0000 0.0000 0.0000 0.0000 0.0000 27.9173
#
#
#
# Elastic Compliance Matrix: (Units=1/GPa)
#
#
# Indices 1 2 3 4 5 6 
#
# 1 0.011649 -0.002343 -0.001900 0.000000 0.000000 0.000000
# 2 -0.002343 0.008678 -0.000654 0.000000 0.000000 0.000000
# 3 -0.001900 -0.000654 0.009820 0.000000 0.000000 0.000000
# 4 0.000000 0.000000 0.000000 0.097597 0.000000 0.000000
# 5 0.000000 0.000000 0.000000 0.000000 0.205887 0.000000
# 6 0.000000 0.000000 0.000000 0.000000 0.000000 0.035820
#
#
# Mechanical properties :
#
#
# Convention : Reuss Voigt Hill
#
# Bulk Modulus (GPa) = 49.13102 49.54673 49.33887
# Shear Modulus (GPa) = 12.95234 26.21196 19.58215
#
# Velocity S-wave (km/s) = 2.56422 3.64780 3.15291
# Velocity P-wave (km/s) = 5.80588 6.54937 6.18880
#
# Compressibility (1/GPa) = 0.02035374
#
# Stress axis : x y z
#
# Youngs Moduli (GPa) = 85.84293 115.23135 101.82809
#
# Poissons Ratio (x) = 0.26994 0.19351
# Poissons Ratio (y) = 0.20109 0.06661
# Poissons Ratio (z) = 0.16314 0.07537
#
# Static dielectric constant tensor:
#      x y z
#    x 3.533080 0.000000 0.000000 
#    y 0.000000 3.457730 0.000000 
#    z 0.000000 0.000000 3.386220 
# 
# 
# High freq. dielectric constant tensor:
#      x y z
#    x 1.773290 0.000000 0.000000 
#    y 0.000000 1.772220 0.000000 
#    z 0.000000 0.000000 1.744630 
# 
# From -- ./inp_files/12061.got.cif
#   From: 2010.03.12/outbox.cif.g09.slc.cpg/sg36_7_cif.got.tgz:12061.got - 2010.04.14 02:13:53.
