data_PCOD8175101
_publ_section_title
;
Structure prediction by ZEFSAII (Michael W. Deem and Ramdas Pophale) SiO2 
 PCOD8175101
Probable space group: C M C 21
;
_chemical_formula_sum "Si O2"
_cell_formula_units_Z 32
_cell_length_a 7.637343
_cell_length_b 17.282604
_cell_length_c 14.531113
_cell_angle_alpha 90.000000
_cell_angle_beta 90.000000
_cell_angle_gamma 90.000000
_cell_volume 1918.007737
_symmetry_space_group_name_H-M "C M C 21"
_symmetry_group_IT_number 36
_symmetry_cell_setting 'orthorhombic'
loop_
_space_group_symop_operation_xyz
x,y,z
-x,-y,1/2+z
x,-y,1/2+z
-x,y,z
1/2+x,1/2+y,z
1/2-x,1/2-y,1/2+z
1/2+x,1/2-y,1/2+z
1/2-x,1/2+y,z
loop_
_atom_site_type_symbol
_atom_site_label
_atom_site_fract_x
_atom_site_fract_y
_atom_site_fract_z
Si Si1 0.691824 0.351984 0.651420
Si Si2 0.000000 0.589154 0.814354
Si Si3 0.307761 0.178185 0.954518
Si Si4 0.000000 0.703693 0.650176
Si Si5 0.000000 0.590830 0.277963
Si Si6 0.500000 0.205598 0.442120
O O1 0.500000 0.391379 0.666024
O O2 0.750168 0.367005 0.546464
O O3 0.671647 0.258611 0.665934
O O4 0.827329 0.387441 0.722049
O O5 0.172947 0.614740 0.872356
O O6 0.000000 0.630598 0.715718
O O7 0.000000 0.499105 0.797336
O O8 0.500000 0.217406 0.970167
O O9 0.171291 0.242961 0.923462
O O10 0.000000 0.672608 0.545656
O O11 0.000000 0.633150 0.375174
#
# Coordination Sequence:
#
# PCOD8175101 Si02
#       6
#     8   4   8   4   4   4
#     4   9  19  36  58  78 102 143 189 222 257 317
#     4  10  21  33  54  82 115 139 166 223 280 325
#     4   9  18  36  57  80 102 143 181 223 265 312
#     4   8  18  37  53  76 106 137 186 227 250 309
#     4  12  21  33  54  84 113 145 170 217 288 317
#     4  10  20  33  59  78 104 143 190 219 258 319
#
# _framework density 16.683978
#
# number of rings (size 3 to 8) (size 9 to 14) (size 15 to 20)
#    1.500    1.000    2.500    1.500    0.000    2.000 
#    2.250    0.000    0.000    3.000    0.000    0.000 
#    0.000    0.000    0.000    0.000    0.000    0.000 
#
# Total GULP energy -198221.307106 kJ/mol
# GULP energy per Si atom -12388.831694 kJ/mol
# Density = 1.664600 g / cm^3
# Si number density = 16.683978 Si / 1000 Ang^3
#
#
#
# Elastic Constant Matrix: (Units=GPa)
#
#
# Indices 1 2 3 4 5 6 
#
# 1 131.6891 50.1333 56.4627 0.0000 0.0000 0.0000
# 2 50.1333 118.0538 88.1713 0.0000 0.0000 0.0000
# 3 56.4627 88.1713 145.6277 0.0000 0.0000 0.0000
# 4 0.0000 0.0000 0.0000 10.5096 0.0000 0.0000
# 5 0.0000 0.0000 0.0000 0.0000 69.6413 0.0000
# 6 0.0000 0.0000 0.0000 0.0000 0.0000 -5.7958
#
#
#
# Elastic Compliance Matrix: (Units=1/GPa)
#
#
# Indices 1 2 3 4 5 6 
#
# 1 0.009446 -0.002329 -0.002252 0.000000 0.000000 0.000000
# 2 -0.002329 0.016038 -0.008807 0.000000 0.000000 0.000000
# 3 -0.002252 -0.008807 0.013072 0.000000 0.000000 0.000000
# 4 0.000000 0.000000 0.000000 0.095151 0.000000 0.000000
# 5 0.000000 0.000000 0.000000 0.000000 0.014359 0.000000
# 6 0.000000 0.000000 0.000000 0.000000 0.000000 -0.172538
#
#
# Mechanical properties :
#
#
# Convention : Reuss Voigt Hill
#
# Bulk Modulus (GPa) = 84.89634 87.21170 86.05402
# Shear Modulus (GPa) = 802.43719 28.24457 415.34088
#
# Velocity S-wave (km/s) = 21.95465 4.11897 15.79514
# Velocity P-wave (km/s) = 26.33764 8.66068 19.60457
#
# Compressibility (1/GPa) = 0.01177907
#
# Stress axis : x y z
#
# Youngs Moduli (GPa) = 105.86474 62.35353 76.49814
#
# Poissons Ratio (x) = 0.14525 0.17228
# Poissons Ratio (y) = 0.24660 0.67371
# Poissons Ratio (z) = 0.23841 0.54914
#
# Static dielectric constant tensor:
#      x y z
#    x 3.081620 0.000000 0.000000 
#    y 0.000000 2.698020 0.000000 
#    z 0.000000 0.000000 3.182720 
# 
# 
# High freq. dielectric constant tensor:
#      x y z
#    x 1.644630 0.000000 0.000000 
#    y 0.000000 1.600290 0.000000 
#    z 0.000000 0.000000 1.658350 
# 
# From -- ./inp_files/10177.got.cif
#   From: 2010.03.12/outbox.cif.g09.slc.cpg/sg36_6_cif.got.tgz:10177.got - 2010.04.14 02:13:53.
