data_PCOD8175980
_publ_section_title
;
Structure prediction by ZEFSAII (Michael W. Deem and Ramdas Pophale) SiO2 
 PCOD8175980
Probable space group: C M C 21
;
_chemical_formula_sum "Si O2"
_cell_formula_units_Z 36
_cell_length_a 10.734989
_cell_length_b 25.260177
_cell_length_c 4.903587
_cell_angle_alpha 90.000000
_cell_angle_beta 90.000000
_cell_angle_gamma 90.000000
_cell_volume 1329.694518
_symmetry_space_group_name_H-M "C M C 21"
_symmetry_group_IT_number 36
_symmetry_cell_setting 'orthorhombic'
loop_
_space_group_symop_operation_xyz
x,y,z
-x,-y,1/2+z
x,-y,1/2+z
-x,y,z
1/2+x,1/2+y,z
1/2-x,1/2-y,1/2+z
1/2+x,1/2-y,1/2+z
1/2-x,1/2+y,z
loop_
_atom_site_type_symbol
_atom_site_label
_atom_site_fract_x
_atom_site_fract_y
_atom_site_fract_z
Si Si1 0.000000 0.867141 0.801141
Si Si2 0.759543 0.604134 0.123108
Si Si3 0.644727 0.535653 0.703852
Si Si4 0.787055 0.727639 0.108753
Si Si5 0.500000 0.962268 0.714593
Si Si6 0.500000 0.706738 0.800134
O O1 0.869235 0.901653 0.812030
O O2 0.000000 0.840811 0.507905
O O3 0.000000 0.821817 0.015151
O O4 0.729535 0.584013 0.814835
O O5 0.798947 0.664932 0.088766
O O6 0.876166 0.573512 0.255992
O O7 0.677711 0.486354 0.905852
O O8 0.500000 0.553425 0.725667
O O9 0.675364 0.744729 0.318655
O O10 0.882746 0.754720 0.331588
O O11 0.500000 0.988370 0.417735
#
# Coordination Sequence:
#
# PCOD8175980 Si02
#       6
#     4   8   8   8   4   4
#     4  12  26  42  81 105 146 186 254 318 354 442
#     4  12  25  50  73 114 143 202 247 312 387 447
#     4  10  22  39  64  97 132 171 229 299 362 423
#     4  12  25  42  70 106 152 199 243 309 381 462
#     4  12  31  54  79 110 160 205 256 315 390 482
#     4  12  23  48  64 107 150 193 248 303 370 434
#
# _framework density 27.073889999999999
#
# number of rings (size 3 to 8) (size 9 to 14) (size 15 to 20)
#    0.000    0.444    5.556    2.000    0.000    7.111 
#    0.000    2.222    0.000    0.000    0.000    0.000 
#    0.000    0.000    0.000    0.000    0.000    0.000 
#
# Total GULP energy -222995.808384 kJ/mol
# GULP energy per Si atom -12388.656021 kJ/mol
# Density = 2.701227 g / cm^3
# Si number density = 27.073890 Si / 1000 Ang^3
#
#
#
# Elastic Constant Matrix: (Units=GPa)
#
#
# Indices 1 2 3 4 5 6 
#
# 1 163.9582 55.4711 18.3625 0.0000 0.0000 0.0000
# 2 55.4711 180.5804 12.6729 0.0000 0.0000 0.0000
# 3 18.3625 12.6729 63.6095 0.0000 0.0000 0.0000
# 4 0.0000 0.0000 0.0000 5.3699 0.0000 0.0000
# 5 0.0000 0.0000 0.0000 0.0000 -105.0189 0.0000
# 6 0.0000 0.0000 0.0000 0.0000 0.0000 63.8335
#
#
#
# Elastic Compliance Matrix: (Units=1/GPa)
#
#
# Indices 1 2 3 4 5 6 
#
# 1 0.006965 -0.002027 -0.001607 0.000000 0.000000 0.000000
# 2 -0.002027 0.006206 -0.000651 0.000000 0.000000 0.000000
# 3 -0.001607 -0.000651 0.016315 0.000000 0.000000 0.000000
# 4 0.000000 0.000000 0.000000 0.186223 0.000000 0.000000
# 5 0.000000 0.000000 0.000000 0.000000 -0.009522 0.000000
# 6 0.000000 0.000000 0.000000 0.000000 0.000000 0.015666
#
#
# Mechanical properties :
#
#
# Convention : Reuss Voigt Hill
#
# Bulk Modulus (GPa) = 47.81119 64.57346 56.19232
# Shear Modulus (GPa) = 21.06207 14.27968 17.67087
#
# Velocity S-wave (km/s) = 2.79220 2.29908 2.55755
# Velocity P-wave (km/s) = 5.30028 5.56330 5.43338
#
# Compressibility (1/GPa) = 0.02091561
#
# Stress axis : x y z
#
# Youngs Moduli (GPa) = 143.58035 161.13504 61.29507
#
# Poissons Ratio (x) = 0.32657 0.09849
# Poissons Ratio (y) = 0.29099 0.03993
# Poissons Ratio (z) = 0.23070 0.10496
#
# Static dielectric constant tensor:
#      x y z
#    x 6.253820 0.000000 0.000000 
#    y 0.000000 4.976320 0.000000 
#    z 0.000000 0.000000 5.179160 
# 
# 
# High freq. dielectric constant tensor:
#      x y z
#    x 2.086140 0.000000 0.000000 
#    y 0.000000 2.117540 0.000000 
#    z 0.000000 0.000000 2.114910 
# 
# From -- ./inp_files/472.got.cif
#   From: 2010.03.12/outbox.cif.g09.slc.cpg/sg36_1_cif.got.tgz:472.got - 2010.04.14 02:13:53.
