data_PCOD8175757
_publ_section_title
;
Structure prediction by ZEFSAII (Michael W. Deem and Ramdas Pophale) SiO2 
 PCOD8175757
Probable space group: C M C 21
;
_chemical_formula_sum "Si O2"
_cell_formula_units_Z 64
_cell_length_a 8.503723
_cell_length_b 19.765546
_cell_length_c 18.893947
_cell_angle_alpha 90.000000
_cell_angle_beta 90.000000
_cell_angle_gamma 90.000000
_cell_volume 3175.708369
_symmetry_space_group_name_H-M "C M C 21"
_symmetry_group_IT_number 36
_symmetry_cell_setting 'orthorhombic'
loop_
_space_group_symop_operation_xyz
x,y,z
-x,-y,1/2+z
x,-y,1/2+z
-x,y,z
1/2+x,1/2+y,z
1/2-x,1/2-y,1/2+z
1/2+x,1/2-y,1/2+z
1/2-x,1/2+y,z
loop_
_atom_site_type_symbol
_atom_site_label
_atom_site_fract_x
_atom_site_fract_y
_atom_site_fract_z
Si Si1 0.818487 0.575503 0.701650
Si Si2 0.683791 0.625484 0.559250
Si Si3 0.184096 0.801860 0.738049
Si Si4 0.814406 0.771322 0.580986
Si Si5 0.186704 0.871409 0.462871
Si Si6 0.813042 0.978314 0.942583
Si Si7 0.316575 0.679043 0.810829
Si Si8 0.183734 0.046802 0.283533
O O1 0.714182 0.587355 0.632527
O O2 0.783451 0.633204 0.758315
O O3 0.779476 0.502476 0.732797
O O4 0.000000 0.579748 0.679946
O O5 0.500000 0.638504 0.550298
O O6 0.769739 0.697066 0.554814
O O7 0.751201 0.578632 0.496040
O O8 0.250003 0.785520 0.659684
O O9 0.279753 0.757014 0.794184
O O10 0.220387 0.878735 0.756406
O O11 0.000000 0.785357 0.744366
O O12 0.742680 0.827554 0.527651
O O13 0.000000 0.778128 0.581383
O O14 0.240170 0.836303 0.390082
O O15 0.000000 0.872664 0.467395
O O16 0.252711 0.948072 0.465903
O O17 0.754506 0.961317 0.863622
O O18 0.000000 0.979117 0.944904
O O19 0.500000 0.662470 0.800956
O O20 0.000000 0.028516 0.278670
#
# Coordination Sequence:
#
# PCOD8175757 Si02
#       8
#     8   8   8   8   8   8   8   8
#     4  12  24  40  61  87 120 157 200 254 304 351
#     4  11  23  38  62  89 117 159 203 247 297 359
#     4  10  22  37  60  89 121 157 197 248 302 354
#     4  10  21  38  58  85 122 159 194 238 298 361
#     4   9  19  36  60  87 116 153 194 240 294 355
#     4   9  19  37  61  88 117 151 200 247 290 353
#     4  11  21  38  64  87 115 157 203 247 294 355
#     4  10  21  40  64  90 120 157 201 247 299 364
#
# _framework density 20.152985999999999
#
# number of rings (size 3 to 8) (size 9 to 14) (size 15 to 20)
#    0.000    1.750    2.500    1.875    3.500    0.500 
#    0.000    1.875    0.000    0.000    0.000    0.000 
#    0.000    0.000    0.000    0.000    0.000    0.000 
#
# Total GULP energy -396904.816540 kJ/mol
# GULP energy per Si atom -12403.275517 kJ/mol
# Density = 2.010712 g / cm^3
# Si number density = 20.152986 Si / 1000 Ang^3
#
#
#
# Elastic Constant Matrix: (Units=GPa)
#
#
# Indices 1 2 3 4 5 6 
#
# 1 18.6302 7.6268 2.3642 0.0000 0.0000 0.0000
# 2 7.6268 142.8558 69.3961 0.0000 0.0000 0.0000
# 3 2.3642 69.3961 114.0136 0.0000 0.0000 0.0000
# 4 0.0000 0.0000 0.0000 47.8642 0.0000 0.0000
# 5 0.0000 0.0000 0.0000 0.0000 16.6843 0.0000
# 6 0.0000 0.0000 0.0000 0.0000 0.0000 28.7823
#
#
#
# Elastic Compliance Matrix: (Units=1/GPa)
#
#
# Indices 1 2 3 4 5 6 
#
# 1 0.054943 -0.003379 0.000917 0.000000 0.000000 0.000000
# 2 -0.003379 0.010146 -0.006106 0.000000 0.000000 0.000000
# 3 0.000917 -0.006106 0.012468 0.000000 0.000000 0.000000
# 4 0.000000 0.000000 0.000000 0.020892 0.000000 0.000000
# 5 0.000000 0.000000 0.000000 0.000000 0.059937 0.000000
# 6 0.000000 0.000000 0.000000 0.000000 0.000000 0.034744
#
#
# Mechanical properties :
#
#
# Convention : Reuss Voigt Hill
#
# Bulk Modulus (GPa) = 16.54995 48.25265 32.40130
# Shear Modulus (GPa) = 21.70080 31.74031 26.72056
#
# Velocity S-wave (km/s) = 3.28503 3.97289 3.64522
# Velocity P-wave (km/s) = 4.75589 6.71121 5.81631
#
# Compressibility (1/GPa) = 0.06042313
#
# Stress axis : x y z
#
# Youngs Moduli (GPa) = 18.20064 98.55623 80.20397
#
# Poissons Ratio (x) = 0.33302 -0.07357
# Poissons Ratio (y) = 0.06150 0.48971
# Poissons Ratio (z) = -0.01670 0.60176
#
# Static dielectric constant tensor:
#      x y z
#    x 3.324300 0.000000 0.000000 
#    y 0.000000 3.853300 0.000000 
#    z 0.000000 0.000000 3.936920 
# 
# 
# High freq. dielectric constant tensor:
#      x y z
#    x 1.753660 0.000000 0.000000 
#    y 0.000000 1.802340 0.000000 
#    z 0.000000 0.000000 1.797370 
# 
# From -- ./inp_files/13878.got.cif
#   From: 2010.03.12/outbox.cif.g09.slc.cpg/sg36_7_cif.got.tgz:13878.got - 2010.04.14 02:13:53.
