data_PCOD8175325
_publ_section_title
;
Structure prediction by ZEFSAII (Michael W. Deem and Ramdas Pophale) SiO2 
 PCOD8175325
Probable space group: C M C 21
;
_chemical_formula_sum "Si O2"
_cell_formula_units_Z 64
_cell_length_a 8.571267
_cell_length_b 15.344492
_cell_length_c 23.528244
_cell_angle_alpha 90.000000
_cell_angle_beta 90.000000
_cell_angle_gamma 90.000000
_cell_volume 3094.475541
_symmetry_space_group_name_H-M "C M C 21"
_symmetry_group_IT_number 36
_symmetry_cell_setting 'orthorhombic'
loop_
_space_group_symop_operation_xyz
x,y,z
-x,-y,1/2+z
x,-y,1/2+z
-x,y,z
1/2+x,1/2+y,z
1/2-x,1/2-y,1/2+z
1/2+x,1/2-y,1/2+z
1/2-x,1/2+y,z
loop_
_atom_site_type_symbol
_atom_site_label
_atom_site_fract_x
_atom_site_fract_y
_atom_site_fract_z
Si Si1 0.679928 0.618687 0.980910
Si Si2 0.677256 0.524034 0.673076
Si Si3 0.320356 0.276461 0.915801
Si Si4 0.679636 0.971602 0.784368
Si Si5 0.678656 0.710121 0.286999
Si Si6 0.818976 0.625831 0.102837
Si Si7 0.318009 0.963232 0.912006
Si Si8 0.679488 0.283395 0.182267
O O1 0.500000 0.596919 0.970675
O O2 0.718770 0.711500 0.953357
O O3 0.781542 0.540920 0.954808
O O4 0.713410 0.623135 0.047414
O O5 0.500000 0.493130 0.662919
O O6 0.714019 0.524457 0.740404
O O7 0.793598 0.461442 0.639351
O O8 0.702034 0.623122 0.651855
O O9 0.500000 0.263589 0.932552
O O10 0.290424 0.252261 0.849862
O O11 0.274226 0.376051 0.929239
O O12 0.500000 0.994850 0.773257
O O13 0.705638 0.869228 0.773867
O O14 0.730596 0.994652 0.848732
O O15 0.500000 0.678545 0.282126
O O16 0.716818 0.782463 0.239707
O O17 0.763525 0.709306 0.138868
O O18 0.000000 0.632812 0.085943
O O19 0.500000 0.940490 0.913776
O O20 0.500000 0.268818 0.199304
#
# Coordination Sequence:
#
# PCOD8175325 Si02
#       8
#     8   8   8   8   8   8   8   8
#     4  12  26  43  66  93 125 170 217 264 317 378
#     4  11  23  39  61  93 126 163 209 256 312 376
#     4  10  22  41  63  94 130 167 210 261 318 376
#     4  10  20  36  60  90 128 166 203 253 315 372
#     4  10  20  35  61  92 127 164 204 256 311 370
#     4  11  24  45  66  87 123 169 213 264 318 372
#     4  10  22  41  64  93 128 167 212 263 317 377
#     4  10  23  40  61  90 125 164 204 253 314 373
#
# _framework density 20.682016999999998
#
# number of rings (size 3 to 8) (size 9 to 14) (size 15 to 20)
#    0.000    1.500    1.250    3.375    1.750    5.500 
#    0.000    3.750    0.000    0.000    0.000    0.000 
#    0.000    0.000    0.000    0.000    0.000    0.000 
#
# Total GULP energy -396953.448862 kJ/mol
# GULP energy per Si atom -12404.795277 kJ/mol
# Density = 2.063494 g / cm^3
# Si number density = 20.682017 Si / 1000 Ang^3
#
#
#
# Elastic Constant Matrix: (Units=GPa)
#
#
# Indices 1 2 3 4 5 6 
#
# 1 58.3376 17.5478 22.2297 0.0000 0.0000 0.0000
# 2 17.5478 104.5000 49.6396 0.0000 0.0000 0.0000
# 3 22.2297 49.6396 104.1478 0.0000 0.0000 0.0000
# 4 0.0000 0.0000 0.0000 16.2615 0.0000 0.0000
# 5 0.0000 0.0000 0.0000 0.0000 32.8537 0.0000
# 6 0.0000 0.0000 0.0000 0.0000 0.0000 30.1494
#
#
#
# Elastic Compliance Matrix: (Units=1/GPa)
#
#
# Indices 1 2 3 4 5 6 
#
# 1 0.018870 -0.001623 -0.003254 0.000000 0.000000 0.000000
# 2 -0.001623 0.012510 -0.005616 0.000000 0.000000 0.000000
# 3 -0.003254 -0.005616 0.012973 0.000000 0.000000 0.000000
# 4 0.000000 0.000000 0.000000 0.061495 0.000000 0.000000
# 5 0.000000 0.000000 0.000000 0.000000 0.030438 0.000000
# 6 0.000000 0.000000 0.000000 0.000000 0.000000 0.033168
#
#
# Mechanical properties :
#
#
# Convention : Reuss Voigt Hill
#
# Bulk Modulus (GPa) = 42.79650 49.53550 46.16600
# Shear Modulus (GPa) = 25.22341 27.69078 26.45710
#
# Velocity S-wave (km/s) = 3.49604 3.66304 3.58052
# Velocity P-wave (km/s) = 6.08555 6.47252 6.28202
#
# Compressibility (1/GPa) = 0.02336640
#
# Stress axis : x y z
#
# Youngs Moduli (GPa) = 52.99487 79.93848 77.08273
#
# Poissons Ratio (x) = 0.12973 0.25084
# Poissons Ratio (y) = 0.08600 0.43290
# Poissons Ratio (z) = 0.17245 0.44894
#
# Static dielectric constant tensor:
#      x y z
#    x 3.679540 0.000000 0.000000 
#    y 0.000000 3.634120 0.000000 
#    z 0.000000 0.000000 3.726080 
# 
# 
# High freq. dielectric constant tensor:
#      x y z
#    x 1.814090 0.000000 0.000000 
#    y 0.000000 1.809120 0.000000 
#    z 0.000000 0.000000 1.804340 
# 
# From -- ./inp_files/16623.got.cif
#   From: 2010.03.12/outbox.cif.g09.slc.cpg/sg36_9_cif.got.tgz:16623.got - 2010.04.14 02:13:53.
