data_PCOD8175876
_publ_section_title
;
Structure prediction by ZEFSAII (Michael W. Deem and Ramdas Pophale) SiO2 
 PCOD8175876
Probable space group: C M C 21
;
_chemical_formula_sum "Si O2"
_cell_formula_units_Z 64
_cell_length_a 8.497089
_cell_length_b 24.065216
_cell_length_c 15.296150
_cell_angle_alpha 90.000000
_cell_angle_beta 90.000000
_cell_angle_gamma 90.000000
_cell_volume 3127.822253
_symmetry_space_group_name_H-M "C M C 21"
_symmetry_group_IT_number 36
_symmetry_cell_setting 'orthorhombic'
loop_
_space_group_symop_operation_xyz
x,y,z
-x,-y,1/2+z
x,-y,1/2+z
-x,y,z
1/2+x,1/2+y,z
1/2-x,1/2-y,1/2+z
1/2+x,1/2-y,1/2+z
1/2-x,1/2+y,z
loop_
_atom_site_type_symbol
_atom_site_label
_atom_site_fract_x
_atom_site_fract_y
_atom_site_fract_z
Si Si1 0.186192 0.745663 0.501460
Si Si2 0.313894 0.744842 0.805300
Si Si3 0.680966 0.017496 0.818151
Si Si4 0.185117 0.949410 0.657956
Si Si5 0.181797 0.374129 0.066181
Si Si6 0.813813 0.821987 0.657854
Si Si7 0.818418 0.876091 0.247613
Si Si8 0.180789 0.022537 0.492599
O O1 0.253928 0.755567 0.404170
O O2 0.238806 0.684046 0.527404
O O3 0.255364 0.789270 0.572802
O O4 0.000000 0.751799 0.498771
O O5 0.500000 0.752753 0.805401
O O6 0.242194 0.794507 0.748284
O O7 0.261730 0.686595 0.763590
O O8 0.500000 0.007782 0.842710
O O9 0.710632 0.082645 0.802935
O O10 0.723056 0.981276 0.733664
O O11 0.793382 0.002163 0.897541
O O12 0.243900 0.885612 0.654732
O O13 0.000000 0.952957 0.677476
O O14 0.229001 0.977270 0.565546
O O15 0.293347 0.390136 0.146534
O O16 0.000000 0.371423 0.095106
O O17 0.209677 0.422836 0.996581
O O18 0.000000 0.818788 0.655018
O O19 0.000000 0.884947 0.273474
O O20 0.000000 0.039859 0.503500
#
# Coordination Sequence:
#
# PCOD8175876 Si02
#       8
#     8   8   8   8   8   8   8   8
#     4   9  20  38  61  88 121 159 199 245 302 362
#     4  10  22  39  62  90 121 162 205 248 302 364
#     4  12  26  42  64  91 125 163 207 259 315 371
#     4  10  23  42  65  91 123 164 207 254 310 371
#     4  11  21  38  64  91 122 159 206 257 313 368
#     4  10  21  40  63  88 121 160 201 248 303 362
#     4  11  22  39  64  90 121 160 209 259 310 367
#     4  11  24  42  65  91 124 163 210 256 309 373
#
# _framework density 20.461521000000001
#
# number of rings (size 3 to 8) (size 9 to 14) (size 15 to 20)
#    0.000    1.500    2.500    2.250    3.500    1.500 
#    0.000    1.250    0.000    0.000    0.000    0.000 
#    0.000    0.000    0.000    0.000    0.000    0.000 
#
# Total GULP energy -396896.664008 kJ/mol
# GULP energy per Si atom -12403.020750 kJ/mol
# Density = 2.041495 g / cm^3
# Si number density = 20.461521 Si / 1000 Ang^3
#
#
#
# Elastic Constant Matrix: (Units=GPa)
#
#
# Indices 1 2 3 4 5 6 
#
# 1 41.4113 31.0927 16.9739 0.0000 0.0000 0.0000
# 2 31.0927 124.1854 18.6211 0.0000 0.0000 0.0000
# 3 16.9739 18.6211 98.9612 0.0000 0.0000 0.0000
# 4 0.0000 0.0000 0.0000 31.7702 0.0000 0.0000
# 5 0.0000 0.0000 0.0000 0.0000 26.9741 0.0000
# 6 0.0000 0.0000 0.0000 0.0000 0.0000 22.3169
#
#
#
# Elastic Compliance Matrix: (Units=1/GPa)
#
#
# Indices 1 2 3 4 5 6 
#
# 1 0.031201 -0.007213 -0.003994 0.000000 0.000000 0.000000
# 2 -0.007213 0.009954 -0.000636 0.000000 0.000000 0.000000
# 3 -0.003994 -0.000636 0.010910 0.000000 0.000000 0.000000
# 4 0.000000 0.000000 0.000000 0.031476 0.000000 0.000000
# 5 0.000000 0.000000 0.000000 0.000000 0.037073 0.000000
# 6 0.000000 0.000000 0.000000 0.000000 0.000000 0.044809
#
#
# Mechanical properties :
#
#
# Convention : Reuss Voigt Hill
#
# Bulk Modulus (GPa) = 35.23835 44.21480 39.72658
# Shear Modulus (GPa) = 25.18034 29.40359 27.29196
#
# Velocity S-wave (km/s) = 3.51182 3.79492 3.65611
# Velocity P-wave (km/s) = 5.80543 6.39199 6.10576
#
# Compressibility (1/GPa) = 0.02837817
#
# Stress axis : x y z
#
# Youngs Moduli (GPa) = 32.05037 100.46472 91.66142
#
# Poissons Ratio (x) = 0.72465 0.36613
# Poissons Ratio (y) = 0.23118 0.05828
# Poissons Ratio (z) = 0.12802 0.06387
#
# Static dielectric constant tensor:
#      x y z
#    x 3.410430 0.000000 0.000000 
#    y 0.000000 3.912090 0.000000 
#    z 0.000000 0.000000 3.807910 
# 
# 
# High freq. dielectric constant tensor:
#      x y z
#    x 1.779890 0.000000 0.000000 
#    y 0.000000 1.814210 0.000000 
#    z 0.000000 0.000000 1.806890 
# 
# From -- ./inp_files/11097.got.cif
#   From: 2010.03.12/outbox.cif.g09.slc.cpg/sg36_6_cif.got.tgz:11097.got - 2010.04.14 02:13:53.
