data_PCOD8175322
_publ_section_title
;
Structure prediction by ZEFSAII (Michael W. Deem and Ramdas Pophale) SiO2 
 PCOD8175322
Probable space group: C M C 21
;
_chemical_formula_sum "Si O2"
_cell_formula_units_Z 64
_cell_length_a 8.921163
_cell_length_b 15.170834
_cell_length_c 23.666938
_cell_angle_alpha 90.000000
_cell_angle_beta 90.000000
_cell_angle_gamma 90.000000
_cell_volume 3203.118486
_symmetry_space_group_name_H-M "C M C 21"
_symmetry_group_IT_number 36
_symmetry_cell_setting 'orthorhombic'
loop_
_space_group_symop_operation_xyz
x,y,z
-x,-y,1/2+z
x,-y,1/2+z
-x,y,z
1/2+x,1/2+y,z
1/2-x,1/2-y,1/2+z
1/2+x,1/2-y,1/2+z
1/2-x,1/2+y,z
loop_
_atom_site_type_symbol
_atom_site_label
_atom_site_fract_x
_atom_site_fract_y
_atom_site_fract_z
Si Si1 0.171960 0.265532 0.867230
Si Si2 0.823993 0.027254 0.766153
Si Si3 0.325291 0.800044 0.256129
Si Si4 0.174861 0.757743 0.982352
Si Si5 0.824374 0.397369 0.566477
Si Si6 0.176148 0.040813 0.493251
Si Si7 0.172007 0.471926 0.877361
Si Si8 0.825692 0.869959 0.684438
O O1 0.271424 0.224517 0.818424
O O2 0.231844 0.230680 0.927119
O O3 0.191114 0.369784 0.863758
O O4 0.000000 0.236351 0.859750
O O5 0.763566 0.114038 0.734260
O O6 0.748429 0.026480 0.827573
O O7 0.000000 0.031852 0.774725
O O8 0.776787 0.943143 0.729683
O O9 0.500000 0.820904 0.258904
O O10 0.289341 0.723985 0.211575
O O11 0.000000 0.753016 0.967070
O O12 0.217837 0.856400 0.002878
O O13 0.220428 0.689188 0.030886
O O14 0.740858 0.484743 0.544988
O O15 0.776693 0.379989 0.630173
O O16 0.000000 0.415496 0.563508
O O17 0.248011 0.003726 0.435819
O O18 0.000000 0.026957 0.489821
O O19 0.000000 0.500578 0.882496
O O20 0.000000 0.879763 0.668107
#
# Coordination Sequence:
#
# PCOD8175322 Si02
#       8
#     8   8   8   8   8   8   8   8
#     4  10  20  35  60  92 125 160 201 250 303 363
#     4  11  23  40  62  90 121 160 206 251 307 369
#     4  11  23  40  62  90 123 161 203 253 308 365
#     4   9  21  40  60  86 121 162 201 245 304 363
#     4  11  24  41  64  90 120 160 207 256 305 361
#     4  10  21  39  62  88 122 162 204 248 303 366
#     4  10  20  36  60  91 127 161 200 252 307 362
#     4  10  24  45  64  85 121 164 206 251 305 367
#
# _framework density 19.980528
#
# number of rings (size 3 to 8) (size 9 to 14) (size 15 to 20)
#    0.000    1.750    1.250    2.250    1.750    5.500 
#    0.000    3.750    0.000    0.000    0.000    0.000 
#    0.000    0.000    0.000    0.000    0.000    0.000 
#
# Total GULP energy -396979.478964 kJ/mol
# GULP energy per Si atom -12405.608718 kJ/mol
# Density = 1.993505 g / cm^3
# Si number density = 19.980528 Si / 1000 Ang^3
#
#
#
# Elastic Constant Matrix: (Units=GPa)
#
#
# Indices 1 2 3 4 5 6 
#
# 1 81.6759 25.0219 38.6856 0.0000 0.0000 0.0000
# 2 25.0219 43.8310 6.0024 0.0000 0.0000 0.0000
# 3 38.6856 6.0024 71.4041 0.0000 0.0000 0.0000
# 4 0.0000 0.0000 0.0000 15.6858 0.0000 0.0000
# 5 0.0000 0.0000 0.0000 0.0000 38.9532 0.0000
# 6 0.0000 0.0000 0.0000 0.0000 0.0000 33.6576
#
#
#
# Elastic Compliance Matrix: (Units=1/GPa)
#
#
# Indices 1 2 3 4 5 6 
#
# 1 0.020089 -0.010094 -0.010035 0.000000 0.000000 0.000000
# 2 -0.010094 0.028153 0.003102 0.000000 0.000000 0.000000
# 3 -0.010035 0.003102 0.019181 0.000000 0.000000 0.000000
# 4 0.000000 0.000000 0.000000 0.063752 0.000000 0.000000
# 5 0.000000 0.000000 0.000000 0.000000 0.025672 0.000000
# 6 0.000000 0.000000 0.000000 0.000000 0.000000 0.029711
#
#
# Mechanical properties :
#
#
# Convention : Reuss Voigt Hill
#
# Bulk Modulus (GPa) = 29.96867 37.37010 33.66939
# Shear Modulus (GPa) = 21.57637 26.13937 23.85787
#
# Velocity S-wave (km/s) = 3.28970 3.62089 3.45926
# Velocity P-wave (km/s) = 5.42780 6.01872 5.73088
#
# Compressibility (1/GPa) = 0.03336818
#
# Stress axis : x y z
#
# Youngs Moduli (GPa) = 49.77810 35.52079 52.13472
#
# Poissons Ratio (x) = 0.35855 0.52320
# Poissons Ratio (y) = 0.50246 -0.16173
# Poissons Ratio (z) = 0.49955 -0.11019
#
# Static dielectric constant tensor:
#      x y z
#    x 3.663890 0.000000 0.000000 
#    y 0.000000 3.887980 0.000000 
#    z 0.000000 0.000000 3.500220 
# 
# 
# High freq. dielectric constant tensor:
#      x y z
#    x 1.787690 0.000000 0.000000 
#    y 0.000000 1.791890 0.000000 
#    z 0.000000 0.000000 1.771930 
# 
# From -- ./inp_files/16558.got.cif
#   From: 2010.03.12/outbox.cif.g09.slc.cpg/sg36_9_cif.got.tgz:16558.got - 2010.04.14 02:13:53.
