data_PCOD8175000
_publ_section_title
;
Structure prediction by ZEFSAII (Michael W. Deem and Ramdas Pophale) SiO2 
 PCOD8175000
Probable space group: C M C 21
;
_chemical_formula_sum "Si O2"
_cell_formula_units_Z 64
_cell_length_a 9.318758
_cell_length_b 19.657275
_cell_length_c 18.560455
_cell_angle_alpha 90.000000
_cell_angle_beta 90.000000
_cell_angle_gamma 90.000000
_cell_volume 3399.929921
_symmetry_space_group_name_H-M "C M C 21"
_symmetry_group_IT_number 36
_symmetry_cell_setting 'orthorhombic'
loop_
_space_group_symop_operation_xyz
x,y,z
-x,-y,1/2+z
x,-y,1/2+z
-x,y,z
1/2+x,1/2+y,z
1/2-x,1/2-y,1/2+z
1/2+x,1/2-y,1/2+z
1/2-x,1/2+y,z
loop_
_atom_site_type_symbol
_atom_site_label
_atom_site_fract_x
_atom_site_fract_y
_atom_site_fract_z
Si Si1 0.834233 0.579220 0.701650
Si Si2 0.667784 0.620346 0.563425
Si Si3 0.333086 0.809528 0.738049
Si Si4 0.669582 0.775149 0.580137
Si Si5 0.165686 0.869094 0.471127
Si Si6 0.834792 0.979701 0.937214
Si Si7 0.333832 0.672189 0.811250
Si Si8 0.334589 0.049808 0.294806
O O1 0.756688 0.583395 0.625341
O O2 0.763840 0.630102 0.757804
O O3 0.816147 0.502639 0.729578
O O4 0.000000 0.599280 0.692616
O O5 0.500000 0.613603 0.582599
O O6 0.713422 0.699067 0.556130
O O7 0.705783 0.582973 0.488848
O O8 0.500000 0.822617 0.725997
O O9 0.269133 0.787595 0.660648
O O10 0.304404 0.751559 0.797058
O O11 0.264187 0.879239 0.767977
O O12 0.500000 0.784506 0.576072
O O13 0.739262 0.830371 0.528658
O O14 0.211876 0.843676 0.392275
O O15 0.000000 0.852036 0.485895
O O16 0.196872 0.949449 0.478127
O O17 0.744356 0.977225 0.864966
O O18 0.000000 0.976857 0.913879
O O19 0.500000 0.653270 0.796641
O O20 0.500000 0.059241 0.316477
#
# Coordination Sequence:
#
# PCOD8175000 Si02
#       8
#     8   8   8   8   8   8   8   8
#     4  11  22  36  58  87 113 143 187 238 282 331
#     4  10  22  40  60  82 113 155 193 228 282 344
#     4   9  19  37  59  82 109 148 191 229 281 341
#     4  10  21  38  60  82 112 152 190 230 279 340
#     4  10  22  37  57  85 115 149 189 234 283 336
#     4  10  22  40  59  83 115 151 192 232 278 341
#     4  10  19  38  63  80 108 153 191 227 281 342
#     4  10  22  38  58  85 115 145 187 238 286 335
#
# _framework density 18.823917999999999
#
# number of rings (size 3 to 8) (size 9 to 14) (size 15 to 20)
#    0.000    2.000    2.500    0.375    3.500    2.500 
#    0.000    1.250    0.000    0.000    0.000    0.000 
#    0.000    0.000    0.000    0.000    0.000    0.000 
#
# Total GULP energy -396883.738208 kJ/mol
# GULP energy per Si atom -12402.616819 kJ/mol
# Density = 1.878107 g / cm^3
# Si number density = 18.823918 Si / 1000 Ang^3
#
#
#
# Elastic Constant Matrix: (Units=GPa)
#
#
# Indices 1 2 3 4 5 6 
#
# 1 48.4851 28.1222 30.4433 0.0000 0.0000 0.0000
# 2 28.1222 107.0733 29.8162 0.0000 0.0000 0.0000
# 3 30.4433 29.8162 74.9743 0.0000 0.0000 0.0000
# 4 0.0000 0.0000 0.0000 34.9602 0.0000 0.0000
# 5 0.0000 0.0000 0.0000 0.0000 29.1365 0.0000
# 6 0.0000 0.0000 0.0000 0.0000 0.0000 22.8670
#
#
#
# Elastic Compliance Matrix: (Units=1/GPa)
#
#
# Indices 1 2 3 4 5 6 
#
# 1 0.029913 -0.005031 -0.010145 0.000000 0.000000 0.000000
# 2 -0.005031 0.011349 -0.002470 0.000000 0.000000 0.000000
# 3 -0.010145 -0.002470 0.018440 0.000000 0.000000 0.000000
# 4 0.000000 0.000000 0.000000 0.028604 0.000000 0.000000
# 5 0.000000 0.000000 0.000000 0.000000 0.034321 0.000000
# 6 0.000000 0.000000 0.000000 0.000000 0.000000 0.043731
#
#
# Mechanical properties :
#
#
# Convention : Reuss Voigt Hill
#
# Bulk Modulus (GPa) = 40.97046 45.25513 43.11280
# Shear Modulus (GPa) = 23.83354 26.86948 25.35151
#
# Velocity S-wave (km/s) = 3.56213 3.78221 3.67382
# Velocity P-wave (km/s) = 6.22340 6.57016 6.39913
#
# Compressibility (1/GPa) = 0.02440783
#
# Stress axis : x y z
#
# Youngs Moduli (GPa) = 33.42982 88.11546 54.23046
#
# Poissons Ratio (x) = 0.44335 0.55019
# Poissons Ratio (y) = 0.16820 0.13396
# Poissons Ratio (z) = 0.33916 0.21766
#
# Static dielectric constant tensor:
#      x y z
#    x 3.350730 0.000000 0.000000 
#    y 0.000000 3.705670 0.000000 
#    z 0.000000 0.000000 3.525870 
# 
# 
# High freq. dielectric constant tensor:
#      x y z
#    x 1.712300 0.000000 0.000000 
#    y 0.000000 1.747350 0.000000 
#    z 0.000000 0.000000 1.733880 
# 
# From -- ./inp_files/13864.got.cif
#   From: 2010.03.12/outbox.cif.g09.slc.cpg/sg36_7_cif.got.tgz:13864.got - 2010.04.14 02:13:53.
