data_PCOD8175594
_publ_section_title
;
Structure prediction by ZEFSAII (Michael W. Deem and Ramdas Pophale) SiO2 
 PCOD8175594
Probable space group: C M C 21
;
_chemical_formula_sum "Si O2"
_cell_formula_units_Z 64
_cell_length_a 8.658867
_cell_length_b 24.022767
_cell_length_c 15.276237
_cell_angle_alpha 90.000000
_cell_angle_beta 90.000000
_cell_angle_gamma 90.000000
_cell_volume 3177.609209
_symmetry_space_group_name_H-M "C M C 21"
_symmetry_group_IT_number 36
_symmetry_cell_setting 'orthorhombic'
loop_
_space_group_symop_operation_xyz
x,y,z
-x,-y,1/2+z
x,-y,1/2+z
-x,y,z
1/2+x,1/2+y,z
1/2-x,1/2-y,1/2+z
1/2+x,1/2-y,1/2+z
1/2-x,1/2+y,z
loop_
_atom_site_type_symbol
_atom_site_label
_atom_site_fract_x
_atom_site_fract_y
_atom_site_fract_z
Si Si1 0.176207 0.736047 0.490440
Si Si2 0.180007 0.728048 0.817705
Si Si3 0.681098 0.005586 0.811698
Si Si4 0.182885 0.929921 0.662691
Si Si5 0.175082 0.377234 0.081807
Si Si6 0.816953 0.803682 0.659508
Si Si7 0.177925 0.880390 0.258618
Si Si8 0.318254 0.003573 0.510260
O O1 0.292006 0.743879 0.410612
O O2 0.186271 0.670817 0.510454
O O3 0.237339 0.773511 0.570807
O O4 0.000000 0.752488 0.466290
O O5 0.246601 0.768636 0.742184
O O6 0.271939 0.669949 0.820876
O O7 0.000000 0.715941 0.802654
O O8 0.500000 0.994137 0.808098
O O9 0.717202 0.066167 0.775073
O O10 0.760220 0.959459 0.750956
O O11 0.743425 0.003066 0.911195
O O12 0.247287 0.866689 0.662452
O O13 0.000000 0.930998 0.662502
O O14 0.239196 0.959444 0.574223
O O15 0.290987 0.361371 0.159483
O O16 0.228427 0.434693 0.038918
O O17 0.000000 0.381344 0.118314
O O18 0.000000 0.804139 0.664472
O O19 0.000000 0.895404 0.274302
O O20 0.500000 0.993295 0.515044
#
# Coordination Sequence:
#
# PCOD8175594 Si02
#       8
#     8   8   8   8   8   8   8   8
#     4  10  21  40  64  91 122 161 204 252 309 366
#     4  11  23  42  64  90 124 166 206 252 308 366
#     4  11  24  42  63  90 125 165 208 254 311 372
#     4  11  23  40  62  91 125 164 206 253 306 364
#     4  10  20  40  67  89 121 160 201 257 316 366
#     4   9  21  41  61  85 125 166 198 244 310 364
#     4  12  24  40  64  93 121 158 209 262 313 367
#     4  10  23  41  63  91 121 162 208 254 309 369
#
# _framework density 20.140930000000001
#
# number of rings (size 3 to 8) (size 9 to 14) (size 15 to 20)
#    0.000    1.500    2.500    2.250    3.500    1.500 
#    0.000    2.500    0.000    0.000    0.000    0.000 
#    0.000    0.000    0.000    0.000    0.000    0.000 
#
# Total GULP energy -396911.576606 kJ/mol
# GULP energy per Si atom -12403.486769 kJ/mol
# Density = 2.009509 g / cm^3
# Si number density = 20.140930 Si / 1000 Ang^3
#
#
#
# Elastic Constant Matrix: (Units=GPa)
#
#
# Indices 1 2 3 4 5 6 
#
# 1 45.2779 19.5317 26.2221 0.0000 0.0000 0.0000
# 2 19.5317 134.7371 38.5381 0.0000 0.0000 0.0000
# 3 26.2221 38.5381 124.0032 0.0000 0.0000 0.0000
# 4 0.0000 0.0000 0.0000 28.7724 0.0000 0.0000
# 5 0.0000 0.0000 0.0000 0.0000 33.0753 0.0000
# 6 0.0000 0.0000 0.0000 0.0000 0.0000 25.1086
#
#
#
# Elastic Compliance Matrix: (Units=1/GPa)
#
#
# Indices 1 2 3 4 5 6 
#
# 1 0.025855 -0.002397 -0.004722 0.000000 0.000000 0.000000
# 2 -0.002397 0.008368 -0.002094 0.000000 0.000000 0.000000
# 3 -0.004722 -0.002094 0.009714 0.000000 0.000000 0.000000
# 4 0.000000 0.000000 0.000000 0.034756 0.000000 0.000000
# 5 0.000000 0.000000 0.000000 0.000000 0.030234 0.000000
# 6 0.000000 0.000000 0.000000 0.000000 0.000000 0.039827
#
#
# Mechanical properties :
#
#
# Convention : Reuss Voigt Hill
#
# Bulk Modulus (GPa) = 39.20037 52.51133 45.85585
# Shear Modulus (GPa) = 28.46032 32.03969 30.25000
#
# Velocity S-wave (km/s) = 3.76315 3.99278 3.87966
# Velocity P-wave (km/s) = 6.19572 6.88367 6.54874
#
# Compressibility (1/GPa) = 0.02550996
#
# Stress axis : x y z
#
# Youngs Moduli (GPa) = 38.67753 119.49939 102.94827
#
# Poissons Ratio (x) = 0.28647 0.48615
# Poissons Ratio (y) = 0.09272 0.21555
# Poissons Ratio (z) = 0.18265 0.25020
#
# Static dielectric constant tensor:
#      x y z
#    x 3.442400 0.000000 0.000000 
#    y 0.000000 3.834850 0.000000 
#    z 0.000000 0.000000 3.747830 
# 
# 
# High freq. dielectric constant tensor:
#      x y z
#    x 1.769190 0.000000 0.000000 
#    y 0.000000 1.800910 0.000000 
#    z 0.000000 0.000000 1.793500 
# 
# From -- ./inp_files/11096.got.cif
#   From: 2010.03.12/outbox.cif.g09.slc.cpg/sg36_6_cif.got.tgz:11096.got - 2010.04.14 02:13:53.
