data_PCOD8175588
_publ_section_title
;
Structure prediction by ZEFSAII (Michael W. Deem and Ramdas Pophale) SiO2 
 PCOD8175588
Probable space group: C M C 21
;
_chemical_formula_sum "Si O2"
_cell_formula_units_Z 64
_cell_length_a 9.139065
_cell_length_b 30.596758
_cell_length_c 12.006380
_cell_angle_alpha 90.000000
_cell_angle_beta 90.000000
_cell_angle_gamma 90.000000
_cell_volume 3357.293134
_symmetry_space_group_name_H-M "C M C 21"
_symmetry_group_IT_number 36
_symmetry_cell_setting 'orthorhombic'
loop_
_space_group_symop_operation_xyz
x,y,z
-x,-y,1/2+z
x,-y,1/2+z
-x,y,z
1/2+x,1/2+y,z
1/2-x,1/2-y,1/2+z
1/2+x,1/2-y,1/2+z
1/2-x,1/2+y,z
loop_
_atom_site_type_symbol
_atom_site_label
_atom_site_fract_x
_atom_site_fract_y
_atom_site_fract_z
Si Si1 0.669596 0.955318 0.144780
Si Si2 0.331280 0.052680 0.069879
Si Si3 0.672860 0.200635 0.085009
Si Si4 0.672870 0.124511 0.244095
Si Si5 0.173062 0.077670 0.847517
Si Si6 0.166826 0.335691 0.348550
Si Si7 0.325940 0.875452 0.994117
Si Si8 0.333351 0.789916 0.124114
O O1 0.500000 0.947334 0.174455
O O2 0.761394 0.956373 0.258743
O O3 0.693534 0.001684 0.087364
O O4 0.730188 0.917888 0.061612
O O5 0.500000 0.063171 0.040166
O O6 0.284019 0.080166 0.179076
O O7 0.229214 0.067362 0.970069
O O8 0.500000 0.204597 0.092109
O O9 0.733596 0.167031 0.178277
O O10 0.737201 0.248242 0.099148
O O11 0.722818 0.183147 0.965091
O O12 0.500000 0.128492 0.252875
O O13 0.739710 0.123108 0.368717
O O14 0.228624 0.125237 0.810689
O O15 0.000000 0.075336 0.845317
O O16 0.178102 0.298397 0.255704
O O17 0.000000 0.353083 0.357732
O O18 0.500000 0.876902 0.991708
O O19 0.271951 0.831293 0.054594
O O20 0.500000 0.780396 0.088757
#
# Coordination Sequence:
#
# PCOD8175588 Si02
#       8
#     8   8   8   8   8   8   8   8
#     4  10  21  38  64  90 115 152 200 244 285 349
#     4  10  21  38  64  90 115 152 200 244 285 349
#     4  10  21  36  57  82 114 149 189 241 290 346
#     4   9  18  34  56  85 116 145 184 239 290 333
#     4  12  24  38  60  87 122 157 193 247 302 354
#     4  10  20  40  62  81 110 155 205 247 288 342
#     4   9  18  34  56  85 116 145 184 239 290 333
#     4  10  21  36  57  82 114 149 189 241 290 346
#
# _framework density 19.062975999999999
#
# number of rings (size 3 to 8) (size 9 to 14) (size 15 to 20)
#    0.000    2.000    2.500    1.125    3.500    1.500 
#    0.000    0.000    0.000    1.500    0.000    0.000 
#    0.000    0.000    0.000    0.000    0.000    0.000 
#
# Total GULP energy -396841.052731 kJ/mol
# GULP energy per Si atom -12401.282898 kJ/mol
# Density = 1.901959 g / cm^3
# Si number density = 19.062976 Si / 1000 Ang^3
#
#
#
# Elastic Constant Matrix: (Units=GPa)
#
#
# Indices 1 2 3 4 5 6 
#
# 1 52.3090 23.6670 22.1092 0.0000 0.0000 0.0000
# 2 23.6670 118.7534 37.4545 0.0000 0.0000 0.0000
# 3 22.1092 37.4545 124.7130 0.0000 0.0000 0.0000
# 4 0.0000 0.0000 0.0000 25.2564 0.0000 0.0000
# 5 0.0000 0.0000 0.0000 0.0000 15.2746 0.0000
# 6 0.0000 0.0000 0.0000 0.0000 0.0000 26.1286
#
#
#
# Elastic Compliance Matrix: (Units=1/GPa)
#
#
# Indices 1 2 3 4 5 6 
#
# 1 0.021885 -0.003466 -0.002839 0.000000 0.000000 0.000000
# 2 -0.003466 0.009851 -0.002344 0.000000 0.000000 0.000000
# 3 -0.002839 -0.002344 0.009226 0.000000 0.000000 0.000000
# 4 0.000000 0.000000 0.000000 0.039594 0.000000 0.000000
# 5 0.000000 0.000000 0.000000 0.000000 0.065468 0.000000
# 6 0.000000 0.000000 0.000000 0.000000 0.000000 0.038272
#
#
# Mechanical properties :
#
#
# Convention : Reuss Voigt Hill
#
# Bulk Modulus (GPa) = 42.25879 51.35962 46.80921
# Shear Modulus (GPa) = 23.86838 27.50157 25.68498
#
# Velocity S-wave (km/s) = 3.54231 3.80237 3.67464
# Velocity P-wave (km/s) = 6.24073 6.80279 6.52781
#
# Compressibility (1/GPa) = 0.02366372
#
# Stress axis : x y z
#
# Youngs Moduli (GPa) = 45.69261 101.51342 108.39362
#
# Poissons Ratio (x) = 0.35188 0.30771
# Poissons Ratio (y) = 0.15838 0.25407
# Poissons Ratio (z) = 0.12971 0.23794
#
# Static dielectric constant tensor:
#      x y z
#    x 3.128580 0.000000 0.000000 
#    y 0.000000 3.541820 0.000000 
#    z 0.000000 0.000000 3.823600 
# 
# 
# High freq. dielectric constant tensor:
#      x y z
#    x 1.696940 0.000000 0.000000 
#    y 0.000000 1.748370 0.000000 
#    z 0.000000 0.000000 1.757070 
# 
# From -- ./inp_files/7108.got.cif
#   From: 2010.03.12/outbox.cif.g09.slc.cpg/sg36_4_cif.got.tgz:7108.got - 2010.04.14 02:13:53.
