data_PCOD8175874
_publ_section_title
;
Structure prediction by ZEFSAII (Michael W. Deem and Ramdas Pophale) SiO2 
 PCOD8175874
Probable space group: C M C 21
;
_chemical_formula_sum "Si O2"
_cell_formula_units_Z 48
_cell_length_a 8.972390
_cell_length_b 19.744305
_cell_length_c 13.843713
_cell_angle_alpha 90.000000
_cell_angle_beta 90.000000
_cell_angle_gamma 90.000000
_cell_volume 2452.463661
_symmetry_space_group_name_H-M "C M C 21"
_symmetry_group_IT_number 36
_symmetry_cell_setting 'orthorhombic'
loop_
_space_group_symop_operation_xyz
x,y,z
-x,-y,1/2+z
x,-y,1/2+z
-x,y,z
1/2+x,1/2+y,z
1/2-x,1/2-y,1/2+z
1/2+x,1/2-y,1/2+z
1/2-x,1/2+y,z
loop_
_atom_site_type_symbol
_atom_site_label
_atom_site_fract_x
_atom_site_fract_y
_atom_site_fract_z
Si Si1 0.825870 0.304941 0.285430
Si Si2 0.674921 0.490154 0.573145
Si Si3 0.825958 0.455144 0.755140
Si Si4 0.324812 0.429711 0.368141
Si Si5 0.327422 0.865942 0.080324
Si Si6 0.672336 0.821920 0.870105
O O1 0.735064 0.353772 0.357023
O O2 0.788331 0.319941 0.173139
O O3 0.775876 0.229505 0.311940
O O4 0.000000 0.313362 0.305772
O O5 0.500000 0.488410 0.590744
O O6 0.754381 0.441040 0.650659
O O7 0.720529 0.458486 0.471494
O O8 0.728637 0.567158 0.580579
O O9 0.755178 0.525678 0.787764
O O10 0.786994 0.396007 0.829695
O O11 0.000000 0.466184 0.743696
O O12 0.500000 0.431422 0.350419
O O13 0.500000 0.888367 0.080167
O O14 0.292130 0.821731 0.984492
O O15 0.500000 0.804115 0.850054
#
# Coordination Sequence:
#
# PCOD8175874 Si02
#       6
#     8   8   8   8   8   8
#     4  11  24  40  63  92 123 163 206 255 310 370
#     4  11  23  37  61  94 126 162 204 257 308 362
#     4  11  22  38  63  92 122 160 206 254 305 363
#     4  11  23  39  61  91 124 160 205 254 305 362
#     4  10  21  40  63  87 119 162 207 252 310 371
#     4  10  23  42  63  88 124 165 204 256 310 364
#
# _framework density 19.572154999999999
#
# number of rings (size 3 to 8) (size 9 to 14) (size 15 to 20)
#    0.000    1.333    3.333    2.000    0.000    6.000 
#    0.000    5.000    0.000    0.000    0.000    0.000 
#    0.000    0.000    0.000    0.000    0.000    0.000 
#
# Total GULP energy -297717.263846 kJ/mol
# GULP energy per Si atom -12404.885994 kJ/mol
# Density = 1.952761 g / cm^3
# Si number density = 19.572155 Si / 1000 Ang^3
#
#
#
# Elastic Constant Matrix: (Units=GPa)
#
#
# Indices 1 2 3 4 5 6 
#
# 1 72.4662 26.2201 49.3939 0.0000 0.0000 0.0000
# 2 26.2201 63.1709 32.8643 0.0000 0.0000 0.0000
# 3 49.3939 32.8643 116.4559 0.0000 0.0000 0.0000
# 4 0.0000 0.0000 0.0000 47.2107 0.0000 0.0000
# 5 0.0000 0.0000 0.0000 0.0000 33.6452 0.0000
# 6 0.0000 0.0000 0.0000 0.0000 0.0000 36.7281
#
#
#
# Elastic Compliance Matrix: (Units=1/GPa)
#
#
# Indices 1 2 3 4 5 6 
#
# 1 0.020526 -0.004677 -0.007386 0.000000 0.000000 0.000000
# 2 -0.004677 0.019620 -0.003553 0.000000 0.000000 0.000000
# 3 -0.007386 -0.003553 0.012722 0.000000 0.000000 0.000000
# 4 0.000000 0.000000 0.000000 0.021182 0.000000 0.000000
# 5 0.000000 0.000000 0.000000 0.000000 0.029722 0.000000
# 6 0.000000 0.000000 0.000000 0.000000 0.000000 0.027227
#
#
# Mechanical properties :
#
#
# Convention : Reuss Voigt Hill
#
# Bulk Modulus (GPa) = 46.21951 52.11661 49.16806
# Shear Modulus (GPa) = 29.50827 33.09112 31.29969
#
# Velocity S-wave (km/s) = 3.88708 4.11630 4.00333
# Velocity P-wave (km/s) = 6.61907 7.01981 6.82238
#
# Compressibility (1/GPa) = 0.02163589
#
# Stress axis : x y z
#
# Youngs Moduli (GPa) = 48.71777 50.96887 78.60141
#
# Poissons Ratio (x) = 0.23839 0.58057
# Poissons Ratio (y) = 0.22786 0.27927
# Poissons Ratio (z) = 0.35984 0.18109
#
# Static dielectric constant tensor:
#      x y z
#    x 3.562310 0.000000 0.000000 
#    y 0.000000 3.368190 0.000000 
#    z 0.000000 0.000000 3.849200 
# 
# 
# High freq. dielectric constant tensor:
#      x y z
#    x 1.768860 0.000000 0.000000 
#    y 0.000000 1.751510 0.000000 
#    z 0.000000 0.000000 1.780120 
# 
# From -- ./inp_files/10338.got.cif
#   From: 2010.03.12/outbox.cif.g09.slc.cpg/sg36_6_cif.got.tgz:10338.got - 2010.04.14 02:13:53.
