data_PCOD8175199
_publ_section_title
;
Structure prediction by ZEFSAII (Michael W. Deem and Ramdas Pophale) SiO2 
 PCOD8175199
Probable space group: C M C 21
;
_chemical_formula_sum "Si O2"
_cell_formula_units_Z 40
_cell_length_a 9.676213
_cell_length_b 20.705836
_cell_length_c 10.101895
_cell_angle_alpha 90.000000
_cell_angle_beta 90.000000
_cell_angle_gamma 90.000000
_cell_volume 2023.955874
_symmetry_space_group_name_H-M "C M C 21"
_symmetry_group_IT_number 36
_symmetry_cell_setting 'orthorhombic'
loop_
_space_group_symop_operation_xyz
x,y,z
-x,-y,1/2+z
x,-y,1/2+z
-x,y,z
1/2+x,1/2+y,z
1/2-x,1/2-y,1/2+z
1/2+x,1/2-y,1/2+z
1/2-x,1/2+y,z
loop_
_atom_site_type_symbol
_atom_site_label
_atom_site_fract_x
_atom_site_fract_y
_atom_site_fract_z
Si Si1 0.500000 0.290595 0.628660
Si Si2 0.000000 0.090955 0.966425
Si Si3 0.000000 0.948764 0.064357
Si Si4 0.271814 0.594478 0.761927
Si Si5 0.000000 0.414909 0.960565
Si Si6 0.500000 0.021654 0.746317
Si Si7 0.287976 0.811030 0.053057
Si Si8 0.500000 0.318526 0.929354
O O1 0.500000 0.366483 0.597637
O O2 0.631232 0.255854 0.563187
O O3 0.500000 0.288830 0.785069
O O4 0.138315 0.109686 0.889443
O O5 0.000000 0.016037 0.992659
O O6 0.862903 0.943486 0.152876
O O7 0.000000 0.896237 0.945940
O O8 0.138113 0.553798 0.804228
O O9 0.225127 0.662953 0.702803
O O10 0.000000 0.449998 0.815386
O O11 0.133981 0.367758 0.969360
O O12 0.000000 0.467851 0.084127
O O13 0.138559 0.792211 0.997485
#
# Coordination Sequence:
#
# PCOD8175199 Si02
#       8
#     4   4   4   8   4   4   8   4
#     4  11  25  39  64  93 123 154 214 257 291 372
#     4  11  24  36  61  95 123 152 207 253 296 363
#     4   9  21  40  61  91 120 162 199 243 315 367
#     4   9  21  39  62  82 125 162 196 248 309 366
#     4   9  20  38  60  88 128 165 200 254 308 377
#     4  10  20  34  60  91 118 169 202 246 312 368
#     4   9  21  44  61  85 121 168 201 246 317 359
#     4  10  22  41  68  88 120 166 202 255 304 363
#
# _framework density 19.763276999999999
#
# number of rings (size 3 to 8) (size 9 to 14) (size 15 to 20)
#    0.000    2.400    0.000    1.200   14.000    0.000 
#    0.000    0.000    0.000    0.000    0.000    0.000 
#    0.000    0.000    0.000    0.000    0.000    0.000 
#
# Total GULP energy -247842.456328 kJ/mol
# GULP energy per Si atom -12392.122816 kJ/mol
# Density = 1.971830 g / cm^3
# Si number density = 19.763277 Si / 1000 Ang^3
#
#
#
# Elastic Constant Matrix: (Units=GPa)
#
#
# Indices 1 2 3 4 5 6 
#
# 1 155.7809 34.6222 28.1079 0.0000 0.0000 0.0000
# 2 34.6222 81.7443 31.5877 0.0000 0.0000 0.0000
# 3 28.1079 31.5877 61.6943 0.0000 0.0000 0.0000
# 4 0.0000 0.0000 0.0000 30.8111 0.0000 0.0000
# 5 0.0000 0.0000 0.0000 0.0000 138.9182 0.0000
# 6 0.0000 0.0000 0.0000 0.0000 0.0000 2.8415
#
#
#
# Elastic Compliance Matrix: (Units=1/GPa)
#
#
# Indices 1 2 3 4 5 6 
#
# 1 0.007314 -0.002256 -0.002177 0.000000 0.000000 0.000000
# 2 -0.002256 0.015947 -0.007137 0.000000 0.000000 0.000000
# 3 -0.002177 -0.007137 0.020855 0.000000 0.000000 0.000000
# 4 0.000000 0.000000 0.000000 0.032456 0.000000 0.000000
# 5 0.000000 0.000000 0.000000 0.000000 0.007198 0.000000
# 6 0.000000 0.000000 0.000000 0.000000 0.000000 0.351921
#
#
# Mechanical properties :
#
#
# Convention : Reuss Voigt Hill
#
# Bulk Modulus (GPa) = 47.67553 54.20612 50.94083
# Shear Modulus (GPa) = 10.73372 48.17430 29.45401
#
# Velocity S-wave (km/s) = 2.33301 4.94253 3.86468
# Velocity P-wave (km/s) = 5.60651 7.74975 6.76356
#
# Compressibility (1/GPa) = 0.02097512
#
# Stress axis : x y z
#
# Youngs Moduli (GPa) = 136.73306 62.70865 47.95082
#
# Poissons Ratio (x) = 0.14150 0.10438
# Poissons Ratio (y) = 0.30853 0.34221
# Poissons Ratio (z) = 0.29763 0.44754
#
# Static dielectric constant tensor:
#      x y z
#    x 3.463010 0.000000 0.000000 
#    y 0.000000 3.351600 0.000000 
#    z 0.000000 0.000000 3.342570 
# 
# 
# High freq. dielectric constant tensor:
#      x y z
#    x 1.794110 0.000000 0.000000 
#    y 0.000000 1.752760 0.000000 
#    z 0.000000 0.000000 1.750200 
# 
# From -- ./inp_files/3229.got.cif
#   From: 2010.03.12/outbox.cif.g09.slc.cpg/sg36_2_cif.got.tgz:3229.got - 2010.04.14 02:13:53.
