data_PCOD8175612
_publ_section_title
;
Structure prediction by ZEFSAII (Michael W. Deem and Ramdas Pophale) SiO2 
 PCOD8175612
Probable space group: C M C 21
;
_chemical_formula_sum "Si O2"
_cell_formula_units_Z 64
_cell_length_a 17.307120
_cell_length_b 14.591046
_cell_length_c 12.103284
_cell_angle_alpha 90.000000
_cell_angle_beta 90.000000
_cell_angle_gamma 90.000000
_cell_volume 3056.430012
_symmetry_space_group_name_H-M "C M C 21"
_symmetry_group_IT_number 36
_symmetry_cell_setting 'orthorhombic'
loop_
_space_group_symop_operation_xyz
x,y,z
-x,-y,1/2+z
x,-y,1/2+z
-x,y,z
1/2+x,1/2+y,z
1/2-x,1/2-y,1/2+z
1/2+x,1/2-y,1/2+z
1/2-x,1/2+y,z
loop_
_atom_site_type_symbol
_atom_site_label
_atom_site_fract_x
_atom_site_fract_y
_atom_site_fract_z
Si Si1 0.640466 0.639506 0.482360
Si Si2 0.089787 0.313620 0.375582
Si Si3 0.586074 0.636281 0.716971
Si Si4 0.088686 0.941377 0.761022
Si Si5 0.665882 0.821798 0.748854
Si Si6 0.089822 0.451422 0.563347
Si Si7 0.335507 0.266492 0.674668
Si Si8 0.816375 0.375415 0.995535
O O1 0.644433 0.743751 0.441737
O O2 0.583735 0.640601 0.585213
O O3 0.601406 0.579355 0.388550
O O4 0.725775 0.603535 0.512339
O O5 0.096963 0.409404 0.439689
O O6 0.125905 0.312552 0.252593
O O7 0.000000 0.281475 0.370205
O O8 0.500000 0.636878 0.765187
O O9 0.629768 0.540302 0.744384
O O10 0.626271 0.724275 0.768751
O O11 0.117581 0.861650 0.678721
O O12 0.000000 0.953813 0.731146
O O13 0.623651 0.884184 0.657318
O O14 0.751413 0.797219 0.712717
O O15 0.663490 0.874082 0.865881
O O16 0.135910 0.546295 0.559215
O O17 0.000000 0.469620 0.592339
O O18 0.335270 0.222817 0.552547
#
# Coordination Sequence:
#
# PCOD8175612 Si02
#       8
#     8   8   8   8   8   8   8   8
#     4  11  20  41  64  96 127 170 223 272 329 403
#     4  10  20  42  72  93 128 184 233 277 334 413
#     4  11  23  41  68  96 129 174 220 275 337 404
#     4  10  23  41  66  98 133 175 220 269 338 413
#     4  12  25  45  69  99 137 176 228 288 344 409
#     4  11  27  46  68  97 135 188 239 283 342 413
#     4  11  23  42  66 101 137 173 225 285 342 402
#     4  12  27  42  69 104 138 178 224 287 348 401
#
# _framework density 20.939461999999999
#
# number of rings (size 3 to 8) (size 9 to 14) (size 15 to 20)
#    0.000    1.000    5.000    2.625    3.500    4.000 
#    0.000    1.250    0.000    0.000    0.000    0.000 
#    0.000    0.000    0.000    0.000    0.000    0.000 
#
# Total GULP energy -396634.932244 kJ/mol
# GULP energy per Si atom -12394.841633 kJ/mol
# Density = 2.089180 g / cm^3
# Si number density = 20.939462 Si / 1000 Ang^3
#
#
#
# Elastic Constant Matrix: (Units=GPa)
#
#
# Indices 1 2 3 4 5 6 
#
# 1 113.0411 43.7247 17.2793 0.0000 0.0000 0.0000
# 2 43.7247 104.1365 23.5713 0.0000 0.0000 0.0000
# 3 17.2793 23.5713 64.4674 0.0000 0.0000 0.0000
# 4 0.0000 0.0000 0.0000 17.8590 0.0000 0.0000
# 5 0.0000 0.0000 0.0000 0.0000 27.4031 0.0000
# 6 0.0000 0.0000 0.0000 0.0000 0.0000 26.7873
#
#
#
# Elastic Compliance Matrix: (Units=1/GPa)
#
#
# Indices 1 2 3 4 5 6 
#
# 1 0.010665 -0.004177 -0.001332 0.000000 0.000000 0.000000
# 2 -0.004177 0.012105 -0.003306 0.000000 0.000000 0.000000
# 3 -0.001332 -0.003306 0.017078 0.000000 0.000000 0.000000
# 4 0.000000 0.000000 0.000000 0.055994 0.000000 0.000000
# 5 0.000000 0.000000 0.000000 0.000000 0.036492 0.000000
# 6 0.000000 0.000000 0.000000 0.000000 0.000000 0.037331
#
#
# Mechanical properties :
#
#
# Convention : Reuss Voigt Hill
#
# Bulk Modulus (GPa) = 45.00763 50.08839 47.54801
# Shear Modulus (GPa) = 25.68040 27.54788 26.61414
#
# Velocity S-wave (km/s) = 3.50582 3.63105 3.56898
# Velocity P-wave (km/s) = 6.15861 6.44607 6.30398
#
# Compressibility (1/GPa) = 0.02221845
#
# Stress axis : x y z
#
# Youngs Moduli (GPa) = 93.76044 82.61084 58.55648
#
# Poissons Ratio (x) = 0.34505 0.07797
# Poissons Ratio (y) = 0.39162 0.19361
# Poissons Ratio (z) = 0.12484 0.27315
#
# Static dielectric constant tensor:
#      x y z
#    x 4.137180 0.000000 0.000000 
#    y 0.000000 4.133240 0.000000 
#    z 0.000000 0.000000 4.234430 
# 
# 
# High freq. dielectric constant tensor:
#      x y z
#    x 1.826510 0.000000 0.000000 
#    y 0.000000 1.822450 0.000000 
#    z 0.000000 0.000000 1.816720 
# 
# From -- ./inp_files/9009.got.cif
#   From: 2010.03.12/outbox.cif.g09.slc.cpg/sg36_5_cif.got.tgz:9009.got - 2010.04.14 02:13:53.
