data_PCOD8175516
_publ_section_title
;
Structure prediction by ZEFSAII (Michael W. Deem and Ramdas Pophale) SiO2 
 PCOD8175516
Probable space group: C M C 21
;
_chemical_formula_sum "Si O2"
_cell_formula_units_Z 56
_cell_length_a 34.275149
_cell_length_b 4.940908
_cell_length_c 15.868315
_cell_angle_alpha 90.000000
_cell_angle_beta 90.000000
_cell_angle_gamma 90.000000
_cell_volume 2687.304824
_symmetry_space_group_name_H-M "C M C 21"
_symmetry_group_IT_number 36
_symmetry_cell_setting 'orthorhombic'
loop_
_space_group_symop_operation_xyz
x,y,z
-x,-y,1/2+z
x,-y,1/2+z
-x,y,z
1/2+x,1/2+y,z
1/2-x,1/2-y,1/2+z
1/2+x,1/2-y,1/2+z
1/2-x,1/2+y,z
loop_
_atom_site_type_symbol
_atom_site_label
_atom_site_fract_x
_atom_site_fract_y
_atom_site_fract_z
Si Si1 0.000000 0.600320 0.736011
Si Si2 0.915559 0.961152 0.122767
Si Si3 0.915558 0.535907 0.740443
Si Si4 0.147664 0.144206 0.485725
Si Si5 0.147398 0.644008 0.374776
Si Si6 0.274713 0.254255 0.082496
Si Si7 0.225227 0.263529 0.778562
Si Si8 0.000000 0.904499 0.128562
O O1 0.040903 0.537558 0.783695
O O2 0.000000 0.413805 0.651190
O O3 0.000000 0.918771 0.714758
O O4 0.912921 0.670236 0.164269
O O5 0.885137 0.968409 0.047698
O O6 0.959487 0.990444 0.082239
O O7 0.905860 0.178281 0.195944
O O8 0.885882 0.450947 0.811785
O O9 0.143016 0.453385 0.456467
O O10 0.189204 0.129471 0.530841
O O11 0.144106 0.954566 0.403586
O O12 0.188963 0.620727 0.329917
O O13 0.238405 0.450766 0.059644
O O14 0.286245 0.245714 0.180502
O O15 0.261430 0.460663 0.801535
#
# Coordination Sequence:
#
# PCOD8175516 Si02
#       8
#     4   8   8   8   8   8   8   4
#     4   8  16  32  58  86 106 140 194 240 274 322
#     4  10  20  38  62  84 112 151 195 236 278 335
#     4  10  20  38  62  84 112 151 195 236 278 335
#     4  12  25  38  56  87 122 152 186 232 293 349
#     4  12  25  38  56  87 122 152 186 232 293 349
#     4  10  22  40  61  82 107 146 195 238 279 333
#     4  10  22  40  61  82 107 146 195 238 279 333
#     4   8  16  32  58  86 106 140 194 240 274 322
#
# _framework density 20.838723000000002
#
# number of rings (size 3 to 8) (size 9 to 14) (size 15 to 20)
#    0.000    1.714    0.000    4.286    0.000    6.857 
#    0.000    1.429    0.000    0.000    0.000    0.000 
#    0.000    0.000    0.000    0.000    0.000    0.000 
#
# Total GULP energy -346982.357698 kJ/mol
# GULP energy per Si atom -12392.227061 kJ/mol
# Density = 2.079129 g / cm^3
# Si number density = 20.838723 Si / 1000 Ang^3
#
#
#
# Elastic Constant Matrix: (Units=GPa)
#
#
# Indices 1 2 3 4 5 6 
#
# 1 134.2688 8.9401 57.6311 0.0000 0.0000 0.0000
# 2 8.9401 77.5235 12.1005 0.0000 0.0000 0.0000
# 3 57.6311 12.1005 63.3145 0.0000 0.0000 0.0000
# 4 0.0000 0.0000 0.0000 33.4993 0.0000 0.0000
# 5 0.0000 0.0000 0.0000 0.0000 -53.9150 0.0000
# 6 0.0000 0.0000 0.0000 0.0000 0.0000 23.9371
#
#
#
# Elastic Compliance Matrix: (Units=1/GPa)
#
#
# Indices 1 2 3 4 5 6 
#
# 1 0.012232 0.000337 -0.011198 0.000000 0.000000 0.000000
# 2 0.000337 0.013305 -0.002850 0.000000 0.000000 0.000000
# 3 -0.011198 -0.002850 0.026532 0.000000 0.000000 0.000000
# 4 0.000000 0.000000 0.000000 0.029851 0.000000 0.000000
# 5 0.000000 0.000000 0.000000 0.000000 -0.018548 0.000000
# 6 0.000000 0.000000 0.000000 0.000000 0.000000 0.041776
#
#
# Mechanical properties :
#
#
# Convention : Reuss Voigt Hill
#
# Bulk Modulus (GPa) = 40.57255 48.05002 44.31129
# Shear Modulus (GPa) = 35.51478 13.79995 24.65736
#
# Velocity S-wave (km/s) = 4.13276 2.57617 3.44357
# Velocity P-wave (km/s) = 6.50269 5.65305 6.09270
#
# Compressibility (1/GPa) = 0.02464721
#
# Stress axis : x y z
#
# Youngs Moduli (GPa) = 81.75374 75.15833 37.69042
#
# Poissons Ratio (x) = -0.02535 0.42207
# Poissons Ratio (y) = -0.02758 0.10742
# Poissons Ratio (z) = 0.91551 0.21420
#
# Static dielectric constant tensor:
#      x y z
#    x 4.050900 0.000000 0.000000 
#    y 0.000000 4.055920 0.000000 
#    z 0.000000 0.000000 3.455710 
# 
# 
# High freq. dielectric constant tensor:
#      x y z
#    x 1.830550 0.000000 0.000000 
#    y 0.000000 1.838640 0.000000 
#    z 0.000000 0.000000 1.775900 
# 
# From -- ./inp_files/13183.got.cif
#   From: 2010.03.12/outbox.cif.g09.slc.cpg/sg36_7_cif.got.tgz:13183.got - 2010.04.14 02:13:53.
