data_PCOD8175387
_publ_section_title
;
Structure prediction by ZEFSAII (Michael W. Deem and Ramdas Pophale) SiO2 
 PCOD8175387
Probable space group: C M C 21
;
_chemical_formula_sum "Si O2"
_cell_formula_units_Z 64
_cell_length_a 8.950050
_cell_length_b 29.161596
_cell_length_c 12.242600
_cell_angle_alpha 90.000000
_cell_angle_beta 90.000000
_cell_angle_gamma 90.000000
_cell_volume 3195.290960
_symmetry_space_group_name_H-M "C M C 21"
_symmetry_group_IT_number 36
_symmetry_cell_setting 'orthorhombic'
loop_
_space_group_symop_operation_xyz
x,y,z
-x,-y,1/2+z
x,-y,1/2+z
-x,y,z
1/2+x,1/2+y,z
1/2-x,1/2-y,1/2+z
1/2+x,1/2-y,1/2+z
1/2-x,1/2+y,z
loop_
_atom_site_type_symbol
_atom_site_label
_atom_site_fract_x
_atom_site_fract_y
_atom_site_fract_z
Si Si1 0.671668 0.470860 0.796650
Si Si2 0.322581 0.837160 0.297933
Si Si3 0.172535 0.313956 0.055923
Si Si4 0.326249 0.061872 0.853844
Si Si5 0.830343 0.834730 0.674089
Si Si6 0.827621 0.383649 0.871524
Si Si7 0.335860 0.428652 0.563991
Si Si8 0.322954 0.224101 0.001002
O O1 0.500000 0.471392 0.833631
O O2 0.738872 0.521374 0.795287
O O3 0.755975 0.434473 0.874833
O O4 0.693577 0.455408 0.673907
O O5 0.500000 0.838633 0.301625
O O6 0.266879 0.819656 0.179791
O O7 0.262602 0.889006 0.314295
O O8 0.263340 0.803968 0.394847
O O9 0.000000 0.298309 0.056380
O O10 0.190629 0.362048 0.991952
O O11 0.269402 0.276429 0.990691
O O12 0.500000 0.056348 0.829550
O O13 0.295157 0.057051 0.982601
O O14 0.751379 0.849992 0.785343
O O15 0.828158 0.874816 0.585386
O O16 0.744357 0.793261 0.616043
O O17 0.000000 0.819869 0.702580
O O18 0.000000 0.388261 0.837547
O O19 0.500000 0.441276 0.516175
O O20 0.500000 0.221035 0.007434
#
# Coordination Sequence:
#
# PCOD8175387 Si02
#       8
#     8   8   8   8   8   8   8   8
#     4  10  22  39  59  87 123 162 205 249 305 367
#     4   9  21  41  61  86 122 159 197 249 308 361
#     4  10  23  42  61  87 125 164 200 248 308 366
#     4  11  21  36  61  89 118 157 202 251 305 361
#     4  10  20  36  60  85 115 154 196 250 309 356
#     4  10  21  38  61  89 121 158 207 255 301 361
#     4   9  19  36  56  81 113 152 195 247 303 356
#     4  11  22  38  61  90 119 154 204 251 299 364
#
# _framework density 20.029475000000001
#
# number of rings (size 3 to 8) (size 9 to 14) (size 15 to 20)
#    0.000    2.000    1.250    2.625    1.750    4.500 
#    0.000    3.125    0.000    0.000    0.000    0.000 
#    0.000    0.000    0.000    0.000    0.000    0.000 
#
# Total GULP energy -396797.978755 kJ/mol
# GULP energy per Si atom -12399.936836 kJ/mol
# Density = 1.998389 g / cm^3
# Si number density = 20.029475 Si / 1000 Ang^3
#
#
#
# Elastic Constant Matrix: (Units=GPa)
#
#
# Indices 1 2 3 4 5 6 
#
# 1 96.7423 45.7424 36.6198 0.0000 0.0000 0.0000
# 2 45.7424 127.9669 40.3194 0.0000 0.0000 0.0000
# 3 36.6198 40.3194 75.7310 0.0000 0.0000 0.0000
# 4 0.0000 0.0000 0.0000 23.6949 0.0000 0.0000
# 5 0.0000 0.0000 0.0000 0.0000 23.9953 0.0000
# 6 0.0000 0.0000 0.0000 0.0000 0.0000 35.9801
#
#
#
# Elastic Compliance Matrix: (Units=1/GPa)
#
#
# Indices 1 2 3 4 5 6 
#
# 1 0.013780 -0.003396 -0.004855 0.000000 0.000000 0.000000
# 2 -0.003396 0.010227 -0.003802 0.000000 0.000000 0.000000
# 3 -0.004855 -0.003802 0.017577 0.000000 0.000000 0.000000
# 4 0.000000 0.000000 0.000000 0.042203 0.000000 0.000000
# 5 0.000000 0.000000 0.000000 0.000000 0.041675 0.000000
# 6 0.000000 0.000000 0.000000 0.000000 0.000000 0.027793
#
#
# Mechanical properties :
#
#
# Convention : Reuss Voigt Hill
#
# Bulk Modulus (GPa) = 57.22158 60.64482 58.93320
# Shear Modulus (GPa) = 27.29431 28.58463 27.93947
#
# Velocity S-wave (km/s) = 3.69549 3.78183 3.73891
# Velocity P-wave (km/s) = 6.84394 7.02945 6.93732
#
# Compressibility (1/GPa) = 0.01747593
#
# Stress axis : x y z
#
# Youngs Moduli (GPa) = 72.56680 97.78493 56.89272
#
# Poissons Ratio (x) = 0.33208 0.27624
# Poissons Ratio (y) = 0.24644 0.21633
# Poissons Ratio (z) = 0.35235 0.37183
#
# Static dielectric constant tensor:
#      x y z
#    x 3.594190 0.000000 0.000000 
#    y 0.000000 3.723180 0.000000 
#    z 0.000000 0.000000 3.559910 
# 
# 
# High freq. dielectric constant tensor:
#      x y z
#    x 1.774870 0.000000 0.000000 
#    y 0.000000 1.785860 0.000000 
#    z 0.000000 0.000000 1.777020 
# 
# From -- ./inp_files/7215.got.cif
#   From: 2010.03.12/outbox.cif.g09.slc.cpg/sg36_4_cif.got.tgz:7215.got - 2010.04.14 02:13:53.
