data_PCOD8175087
_publ_section_title
;
Structure prediction by ZEFSAII (Michael W. Deem and Ramdas Pophale) SiO2 
 PCOD8175087
Probable space group: C M C 21
;
_chemical_formula_sum "Si O2"
_cell_formula_units_Z 64
_cell_length_a 9.471827
_cell_length_b 24.659085
_cell_length_c 13.820054
_cell_angle_alpha 90.000000
_cell_angle_beta 90.000000
_cell_angle_gamma 90.000000
_cell_volume 3227.902846
_symmetry_space_group_name_H-M "C M C 21"
_symmetry_group_IT_number 36
_symmetry_cell_setting 'orthorhombic'
loop_
_space_group_symop_operation_xyz
x,y,z
-x,-y,1/2+z
x,-y,1/2+z
-x,y,z
1/2+x,1/2+y,z
1/2-x,1/2-y,1/2+z
1/2+x,1/2-y,1/2+z
1/2-x,1/2+y,z
loop_
_atom_site_type_symbol
_atom_site_label
_atom_site_fract_x
_atom_site_fract_y
_atom_site_fract_z
Si Si1 0.658240 0.952851 0.545410
Si Si2 0.837104 0.812847 0.334190
Si Si3 0.663457 0.428529 0.254837
Si Si4 0.339899 0.448278 0.036134
Si Si5 0.838221 0.780240 0.740213
Si Si6 0.655587 0.973167 0.768232
Si Si7 0.342069 0.615848 0.353347
Si Si8 0.334929 0.657356 0.046149
O O1 0.500000 0.945371 0.501777
O O2 0.744133 0.897175 0.538002
O O3 0.742175 0.002783 0.494678
O O4 0.645552 0.973755 0.653833
O O5 0.789738 0.872928 0.304025
O O6 0.751460 0.772046 0.266894
O O7 0.808690 0.806761 0.449354
O O8 0.000000 0.802946 0.309500
O O9 0.500000 0.441403 0.274067
O O10 0.754290 0.475607 0.306160
O O11 0.700115 0.426174 0.141453
O O12 0.500000 0.470480 0.035455
O O13 0.322006 0.395999 0.966914
O O14 0.816798 0.821251 0.830031
O O15 0.786803 0.807549 0.639306
O O16 0.000000 0.762158 0.729319
O O17 0.500000 0.975848 0.815328
O O18 0.729594 0.917202 0.792879
O O19 0.500000 0.599315 0.318874
O O20 0.500000 0.641051 0.055004
#
# Coordination Sequence:
#
# PCOD8175087 Si02
#       8
#     8   8   8   8   8   8   8   8
#     4  10  20  34  54  84 118 152 190 234 289 342
#     4  10  23  40  61  87 114 150 197 244 292 343
#     4   9  19  37  56  79 113 151 190 235 286 344
#     4   9  19  34  55  81 114 155 195 235 283 343
#     4  10  22  40  61  84 115 154 197 242 290 344
#     4  10  20  33  53  83 117 149 184 234 288 338
#     4  10  20  35  56  82 111 153 197 232 280 345
#     4  10  21  39  60  84 114 152 194 238 288 347
#
# _framework density 19.827114000000002
#
# number of rings (size 3 to 8) (size 9 to 14) (size 15 to 20)
#    0.000    2.250    1.250    0.750    1.750    4.500 
#    0.000    1.250    0.000    0.000    0.000    0.000 
#    0.000    0.000    0.000    0.000    0.000    0.000 
#
# Total GULP energy -396734.538823 kJ/mol
# GULP energy per Si atom -12397.954338 kJ/mol
# Density = 1.978199 g / cm^3
# Si number density = 19.827114 Si / 1000 Ang^3
#
#
#
# Elastic Constant Matrix: (Units=GPa)
#
#
# Indices 1 2 3 4 5 6 
#
# 1 93.1995 49.1468 23.9595 0.0000 0.0000 0.0000
# 2 49.1468 85.4341 20.1094 0.0000 0.0000 0.0000
# 3 23.9595 20.1094 62.1431 0.0000 0.0000 0.0000
# 4 0.0000 0.0000 0.0000 28.0295 0.0000 0.0000
# 5 0.0000 0.0000 0.0000 0.0000 20.4686 0.0000
# 6 0.0000 0.0000 0.0000 0.0000 0.0000 35.5135
#
#
#
# Elastic Compliance Matrix: (Units=1/GPa)
#
#
# Indices 1 2 3 4 5 6 
#
# 1 0.016064 -0.008425 -0.003467 0.000000 0.000000 0.000000
# 2 -0.008425 0.017088 -0.002282 0.000000 0.000000 0.000000
# 3 -0.003467 -0.002282 0.018167 0.000000 0.000000 0.000000
# 4 0.000000 0.000000 0.000000 0.035677 0.000000 0.000000
# 5 0.000000 0.000000 0.000000 0.000000 0.048855 0.000000
# 6 0.000000 0.000000 0.000000 0.000000 0.000000 0.028158
#
#
# Mechanical properties :
#
#
# Convention : Reuss Voigt Hill
#
# Bulk Modulus (GPa) = 43.53111 47.46757 45.49934
# Shear Modulus (GPa) = 24.99833 26.63971 25.81902
#
# Velocity S-wave (km/s) = 3.55465 3.66949 3.61253
# Velocity P-wave (km/s) = 6.23301 6.47659 6.35597
#
# Compressibility (1/GPa) = 0.02297207
#
# Stress axis : x y z
#
# Youngs Moduli (GPa) = 62.25275 58.51953 55.04486
#
# Poissons Ratio (x) = 0.49300 0.19085
# Poissons Ratio (y) = 0.52446 0.12559
# Poissons Ratio (z) = 0.21584 0.13352
#
# Static dielectric constant tensor:
#      x y z
#    x 3.794130 0.000000 0.000000 
#    y 0.000000 3.378950 0.000000 
#    z 0.000000 0.000000 3.719100 
# 
# 
# High freq. dielectric constant tensor:
#      x y z
#    x 1.770970 0.000000 0.000000 
#    y 0.000000 1.755550 0.000000 
#    z 0.000000 0.000000 1.780910 
# 
# From -- ./inp_files/11003.got.cif
#   From: 2010.03.12/outbox.cif.g09.slc.cpg/sg36_6_cif.got.tgz:11003.got - 2010.04.14 02:13:53.
