data_PCOD8175726
_publ_section_title
;
Structure prediction by ZEFSAII (Michael W. Deem and Ramdas Pophale) SiO2 
 PCOD8175726
Probable space group: C M C 21
;
_chemical_formula_sum "Si O2"
_cell_formula_units_Z 48
_cell_length_a 17.276461
_cell_length_b 13.844750
_cell_length_c 9.454057
_cell_angle_alpha 90.000000
_cell_angle_beta 90.000000
_cell_angle_gamma 90.000000
_cell_volume 2261.299665
_symmetry_space_group_name_H-M "C M C 21"
_symmetry_group_IT_number 36
_symmetry_cell_setting 'orthorhombic'
loop_
_space_group_symop_operation_xyz
x,y,z
-x,-y,1/2+z
x,-y,1/2+z
-x,y,z
1/2+x,1/2+y,z
1/2-x,1/2-y,1/2+z
1/2+x,1/2-y,1/2+z
1/2-x,1/2+y,z
loop_
_atom_site_type_symbol
_atom_site_label
_atom_site_fract_x
_atom_site_fract_y
_atom_site_fract_z
Si Si1 0.409593 0.384584 0.346760
Si Si2 0.305444 0.215619 0.241277
Si Si3 0.335358 0.715997 0.442810
Si Si4 0.329509 0.012736 0.134575
Si Si5 0.349579 0.479048 0.073283
Si Si6 0.411093 0.905543 0.369122
O O1 0.500000 0.362818 0.345672
O O2 0.366583 0.283167 0.322161
O O3 0.388331 0.462515 0.225720
O O4 0.384165 0.425674 0.499623
O O5 0.222849 0.215619 0.313697
O O6 0.337319 0.106829 0.234619
O O7 0.289263 0.253465 0.083667
O O8 0.370957 0.610297 0.469408
O O9 0.403006 0.792772 0.410338
O O10 0.242049 0.989348 0.091416
O O11 0.364202 0.924379 0.224326
O O12 0.378104 0.026285 0.992230
O O13 0.500000 0.931115 0.344979
#
# Coordination Sequence:
#
# PCOD8175726 Si02
#       6
#     8   8   8   8   8   8
#     4  11  23  38  59  89 123 157 195 247 309 362
#     4  10  21  37  60  85 114 152 199 248 296 355
#     4  10  21  37  60  85 114 152 199 248 296 355
#     4  11  22  40  64  87 116 158 206 248 293 356
#     4  11  22  40  64  87 116 158 206 248 293 356
#     4  11  23  38  59  89 123 157 195 247 309 362
#
# _framework density 21.226731000000001
#
# number of rings (size 3 to 8) (size 9 to 14) (size 15 to 20)
#    0.000    1.333    0.000    8.000    0.000    7.333 
#    0.000    0.000    0.000   11.000    0.000    0.000 
#    0.000    0.000    0.000    0.000    0.000    0.000 
#
# Total GULP energy -297670.694209 kJ/mol
# GULP energy per Si atom -12402.945592 kJ/mol
# Density = 2.117842 g / cm^3
# Si number density = 21.226731 Si / 1000 Ang^3
#
#
#
# Elastic Constant Matrix: (Units=GPa)
#
#
# Indices 1 2 3 4 5 6 
#
# 1 61.7037 -7.3323 11.9345 0.0000 0.0000 0.0000
# 2 -7.3323 75.1667 9.8105 0.0000 0.0000 0.0000
# 3 11.9345 9.8105 52.2000 0.0000 0.0000 0.0000
# 4 0.0000 0.0000 0.0000 30.9045 0.0000 0.0000
# 5 0.0000 0.0000 0.0000 0.0000 33.7866 0.0000
# 6 0.0000 0.0000 0.0000 0.0000 0.0000 19.5021
#
#
#
# Elastic Compliance Matrix: (Units=1/GPa)
#
#
# Indices 1 2 3 4 5 6 
#
# 1 0.017324 0.002262 -0.004386 0.000000 0.000000 0.000000
# 2 0.002262 0.013934 -0.003136 0.000000 0.000000 0.000000
# 3 -0.004386 -0.003136 0.020749 0.000000 0.000000 0.000000
# 4 0.000000 0.000000 0.000000 0.032358 0.000000 0.000000
# 5 0.000000 0.000000 0.000000 0.000000 0.029598 0.000000
# 6 0.000000 0.000000 0.000000 0.000000 0.000000 0.051277
#
#
# Mechanical properties :
#
#
# Convention : Reuss Voigt Hill
#
# Bulk Modulus (GPa) = 24.10362 24.21063 24.15712
# Shear Modulus (GPa) = 26.37318 28.48250 27.42784
#
# Velocity S-wave (km/s) = 3.52867 3.66706 3.59853
# Velocity P-wave (km/s) = 5.28980 5.41851 5.35454
#
# Compressibility (1/GPa) = 0.04148754
#
# Stress axis : x y z
#
# Youngs Moduli (GPa) = 57.72464 71.76825 48.19466
#
# Poissons Ratio (x) = -0.16236 0.21138
# Poissons Ratio (y) = -0.13059 0.15114
# Poissons Ratio (z) = 0.25317 0.22506
#
# Static dielectric constant tensor:
#      x y z
#    x 3.531370 0.000000 0.000000 
#    y 0.000000 4.117120 0.000000 
#    z 0.000000 0.000000 3.946260 
# 
# 
# High freq. dielectric constant tensor:
#      x y z
#    x 1.816280 0.000000 0.000000 
#    y 0.000000 1.839140 0.000000 
#    z 0.000000 0.000000 1.842660 
# 
# From -- ./inp_files/4640.got.cif
#   From: 2010.03.12/outbox.cif.g09.slc.cpg/sg36_3_cif.got.tgz:4640.got - 2010.04.14 02:13:53.
