data_PCOD8175687
_publ_section_title
;
Structure prediction by ZEFSAII (Michael W. Deem and Ramdas Pophale) SiO2 
 PCOD8175687
Probable space group: C M C 21
;
_chemical_formula_sum "Si O2"
_cell_formula_units_Z 64
_cell_length_a 9.519122
_cell_length_b 25.082936
_cell_length_c 14.174299
_cell_angle_alpha 90.000000
_cell_angle_beta 90.000000
_cell_angle_gamma 90.000000
_cell_volume 3384.362332
_symmetry_space_group_name_H-M "C M C 21"
_symmetry_group_IT_number 36
_symmetry_cell_setting 'orthorhombic'
loop_
_space_group_symop_operation_xyz
x,y,z
-x,-y,1/2+z
x,-y,1/2+z
-x,y,z
1/2+x,1/2+y,z
1/2-x,1/2-y,1/2+z
1/2+x,1/2-y,1/2+z
1/2-x,1/2+y,z
loop_
_atom_site_type_symbol
_atom_site_label
_atom_site_fract_x
_atom_site_fract_y
_atom_site_fract_z
Si Si1 0.846148 0.922694 0.642310
Si Si2 0.660789 0.766321 0.647354
Si Si3 0.660839 0.137516 0.275696
Si Si4 0.833839 0.994556 0.472237
Si Si5 0.337452 0.355277 0.151365
Si Si6 0.344253 0.322020 0.506868
Si Si7 0.165989 0.896320 0.350066
Si Si8 0.835566 0.398626 0.978937
O O1 0.742285 0.912504 0.729325
O O2 0.853522 0.870887 0.578146
O O3 0.000000 0.934827 0.685270
O O4 0.799181 0.972198 0.576935
O O5 0.500000 0.777235 0.621423
O O6 0.709688 0.805630 0.732146
O O7 0.684389 0.706052 0.680966
O O8 0.747154 0.776221 0.551141
O O9 0.500000 0.126533 0.251534
O O10 0.686266 0.139026 0.387712
O O11 0.740394 0.046124 0.456987
O O12 0.000000 0.007171 0.463059
O O13 0.782308 0.952607 0.392238
O O14 0.500000 0.366496 0.123875
O O15 0.291074 0.391093 0.240857
O O16 0.236493 0.369315 0.065951
O O17 0.500000 0.297570 0.490400
O O18 0.276486 0.345450 0.410084
O O19 0.000000 0.893527 0.364026
O O20 0.000000 0.408114 0.000128
#
# Coordination Sequence:
#
# PCOD8175687 Si02
#       8
#     8   8   8   8   8   8   8   8
#     4   8  15  29  52  80 103 127 167 215 256 298
#     4   9  18  33  53  77 105 137 172 211 257 306
#     4   9  19  35  53  75 105 140 175 211 255 308
#     4   9  18  35  57  79 104 135 173 216 260 304
#     4  10  21  37  55  76 104 138 175 213 254 303
#     4   8  14  28  52  79 103 128 165 212 257 302
#     4   8  16  33  57  80 100 132 179 220 254 301
#     4  11  24  38  51  74 108 141 172 208 257 312
#
# _framework density 18.910505000000001
#
# number of rings (size 3 to 8) (size 9 to 14) (size 15 to 20)
#    0.000    3.000    0.000    1.875    0.000    4.000 
#    0.000    9.375    0.000    0.000    0.000    0.000 
#    0.000    0.000    0.000    0.000    0.000    0.000 
#
# Total GULP energy -396640.691835 kJ/mol
# GULP energy per Si atom -12395.021620 kJ/mol
# Density = 1.886746 g / cm^3
# Si number density = 18.910505 Si / 1000 Ang^3
#
#
#
# Elastic Constant Matrix: (Units=GPa)
#
#
# Indices 1 2 3 4 5 6 
#
# 1 76.5299 43.4703 56.4747 0.0000 0.0000 0.0000
# 2 43.4703 85.8003 47.3467 0.0000 0.0000 0.0000
# 3 56.4747 47.3467 122.4405 0.0000 0.0000 0.0000
# 4 0.0000 0.0000 0.0000 25.9753 0.0000 0.0000
# 5 0.0000 0.0000 0.0000 0.0000 26.4241 0.0000
# 6 0.0000 0.0000 0.0000 0.0000 0.0000 26.0469
#
#
#
# Elastic Compliance Matrix: (Units=1/GPa)
#
#
# Indices 1 2 3 4 5 6 
#
# 1 0.022963 -0.007360 -0.007746 0.000000 0.000000 0.000000
# 2 -0.007360 0.017176 -0.003247 0.000000 0.000000 0.000000
# 3 -0.007746 -0.003247 0.012995 0.000000 0.000000 0.000000
# 4 0.000000 0.000000 0.000000 0.038498 0.000000 0.000000
# 5 0.000000 0.000000 0.000000 0.000000 0.037844 0.000000
# 6 0.000000 0.000000 0.000000 0.000000 0.000000 0.038392
#
#
# Mechanical properties :
#
#
# Convention : Reuss Voigt Hill
#
# Bulk Modulus (GPa) = 60.86715 64.37269 62.61992
# Shear Modulus (GPa) = 23.80385 24.85452 24.32918
#
# Velocity S-wave (km/s) = 3.55175 3.62929 3.59073
# Velocity P-wave (km/s) = 7.00548 7.18867 7.09767
#
# Compressibility (1/GPa) = 0.01642922
#
# Stress axis : x y z
#
# Youngs Moduli (GPa) = 43.54804 58.22210 76.95058
#
# Poissons Ratio (x) = 0.42851 0.59602
# Poissons Ratio (y) = 0.32051 0.24985
# Poissons Ratio (z) = 0.33730 0.18904
#
# Static dielectric constant tensor:
#      x y z
#    x 3.501720 0.000000 0.000000 
#    y 0.000000 3.404300 0.000000 
#    z 0.000000 0.000000 3.603830 
# 
# 
# High freq. dielectric constant tensor:
#      x y z
#    x 1.713480 0.000000 0.000000 
#    y 0.000000 1.725820 0.000000 
#    z 0.000000 0.000000 1.733550 
# 
# From -- ./inp_files/10899.got.cif
#   From: 2010.03.12/outbox.cif.g09.slc.cpg/sg36_6_cif.got.tgz:10899.got - 2010.04.14 02:13:53.
