data_PCOD8175529
_publ_section_title
;
Structure prediction by ZEFSAII (Michael W. Deem and Ramdas Pophale) SiO2 
 PCOD8175529
Probable space group: C M C 21
;
_chemical_formula_sum "Si O2"
_cell_formula_units_Z 64
_cell_length_a 8.747834
_cell_length_b 15.337947
_cell_length_c 23.891355
_cell_angle_alpha 90.000000
_cell_angle_beta 90.000000
_cell_angle_gamma 90.000000
_cell_volume 3205.594228
_symmetry_space_group_name_H-M "C M C 21"
_symmetry_group_IT_number 36
_symmetry_cell_setting 'orthorhombic'
loop_
_space_group_symop_operation_xyz
x,y,z
-x,-y,1/2+z
x,-y,1/2+z
-x,y,z
1/2+x,1/2+y,z
1/2-x,1/2-y,1/2+z
1/2+x,1/2-y,1/2+z
1/2-x,1/2+y,z
loop_
_atom_site_type_symbol
_atom_site_label
_atom_site_fract_x
_atom_site_fract_y
_atom_site_fract_z
Si Si1 0.322669 0.838287 0.736480
Si Si2 0.679064 0.896509 0.617566
Si Si3 0.322968 0.644358 0.720014
Si Si4 0.820139 0.339919 0.499662
Si Si5 0.680551 0.005745 0.922213
Si Si6 0.178144 0.855244 0.992683
Si Si7 0.321958 0.902218 0.107823
Si Si8 0.819861 0.008883 0.301680
O O1 0.500000 0.865784 0.738929
O O2 0.252965 0.855358 0.674415
O O3 0.300165 0.736596 0.751807
O O4 0.233231 0.896170 0.781407
O O5 0.500000 0.879006 0.617888
O O6 0.751704 0.852071 0.562019
O O7 0.720116 0.997625 0.616809
O O8 0.500000 0.630616 0.703890
O O9 0.224094 0.648856 0.663690
O O10 0.262870 0.566424 0.759323
O O11 0.752886 0.413101 0.458040
O O12 0.783022 0.244393 0.475750
O O13 0.000000 0.355791 0.504842
O O14 0.500000 0.010149 0.916892
O O15 0.750862 0.012218 0.861404
O O16 0.724422 0.915919 0.952182
O O17 0.000000 0.875957 0.984687
O O18 0.222021 0.866598 0.057101
O O19 0.500000 0.888746 0.094321
O O20 0.000000 0.008139 0.307129
#
# Coordination Sequence:
#
# PCOD8175529 Si02
#       8
#     8   8   8   8   8   8   8   8
#     4  10  20  38  63  88 116 159 198 234 290 357
#     4   9  16  31  58  87 116 150 191 230 274 344
#     4  10  22  39  61  88 120 154 195 246 298 343
#     4   9  19  37  61  87 117 154 192 232 288 354
#     4  11  23  42  64  84 112 156 203 242 288 355
#     4  11  22  38  62  91 121 153 192 245 298 342
#     4  11  20  34  60  91 122 157 196 235 285 355
#     4  11  24  41  59  86 120 151 193 252 301 342
#
# _framework density 19.965095999999999
#
# number of rings (size 3 to 8) (size 9 to 14) (size 15 to 20)
#    0.000    1.750    2.500    2.250    0.000    4.000 
#    0.000    5.000    0.000    0.000    0.000    0.000 
#    0.000    0.000    0.000    0.000    0.000    0.000 
#
# Total GULP energy -396862.831243 kJ/mol
# GULP energy per Si atom -12401.963476 kJ/mol
# Density = 1.991965 g / cm^3
# Si number density = 19.965096 Si / 1000 Ang^3
#
#
#
# Elastic Constant Matrix: (Units=GPa)
#
#
# Indices 1 2 3 4 5 6 
#
# 1 42.2967 24.1465 22.8776 0.0000 0.0000 0.0000
# 2 24.1465 88.7265 28.9375 0.0000 0.0000 0.0000
# 3 22.8776 28.9375 105.7488 0.0000 0.0000 0.0000
# 4 0.0000 0.0000 0.0000 13.2030 0.0000 0.0000
# 5 0.0000 0.0000 0.0000 0.0000 21.7174 0.0000
# 6 0.0000 0.0000 0.0000 0.0000 0.0000 26.0623
#
#
#
# Elastic Compliance Matrix: (Units=1/GPa)
#
#
# Indices 1 2 3 4 5 6 
#
# 1 0.029950 -0.006629 -0.004665 0.000000 0.000000 0.000000
# 2 -0.006629 0.013842 -0.002354 0.000000 0.000000 0.000000
# 3 -0.004665 -0.002354 0.011110 0.000000 0.000000 0.000000
# 4 0.000000 0.000000 0.000000 0.075740 0.000000 0.000000
# 5 0.000000 0.000000 0.000000 0.000000 0.046046 0.000000
# 6 0.000000 0.000000 0.000000 0.000000 0.000000 0.038370
#
#
# Mechanical properties :
#
#
# Convention : Reuss Voigt Hill
#
# Bulk Modulus (GPa) = 36.22427 43.18837 39.70632
# Shear Modulus (GPa) = 19.87619 22.91723 21.39671
#
# Velocity S-wave (km/s) = 3.15865 3.39169 3.27724
# Velocity P-wave (km/s) = 5.61124 6.08416 5.85248
#
# Compressibility (1/GPa) = 0.02760580
#
# Stress axis : x y z
#
# Youngs Moduli (GPa) = 33.38843 72.24192 90.01095
#
# Poissons Ratio (x) = 0.47891 0.41994
# Poissons Ratio (y) = 0.22134 0.21186
# Poissons Ratio (z) = 0.15577 0.17004
#
# Static dielectric constant tensor:
#      x y z
#    x 3.398480 0.000000 0.000000 
#    y 0.000000 3.789230 0.000000 
#    z 0.000000 0.000000 3.697760 
# 
# 
# High freq. dielectric constant tensor:
#      x y z
#    x 1.754640 0.000000 0.000000 
#    y 0.000000 1.792520 0.000000 
#    z 0.000000 0.000000 1.778530 
# 
# From -- ./inp_files/16614.got.cif
#   From: 2010.03.12/outbox.cif.g09.slc.cpg/sg36_9_cif.got.tgz:16614.got - 2010.04.14 02:13:53.
