data_PCOD8175244
_publ_section_title
;
Structure prediction by ZEFSAII (Michael W. Deem and Ramdas Pophale) SiO2 
 PCOD8175244
Probable space group: C M C 21
;
_chemical_formula_sum "Si O2"
_cell_formula_units_Z 64
_cell_length_a 8.653559
_cell_length_b 22.673204
_cell_length_c 16.328394
_cell_angle_alpha 90.000000
_cell_angle_beta 90.000000
_cell_angle_gamma 90.000000
_cell_volume 3203.694723
_symmetry_space_group_name_H-M "C M C 21"
_symmetry_group_IT_number 36
_symmetry_cell_setting 'orthorhombic'
loop_
_space_group_symop_operation_xyz
x,y,z
-x,-y,1/2+z
x,-y,1/2+z
-x,y,z
1/2+x,1/2+y,z
1/2-x,1/2-y,1/2+z
1/2+x,1/2-y,1/2+z
1/2-x,1/2+y,z
loop_
_atom_site_type_symbol
_atom_site_label
_atom_site_fract_x
_atom_site_fract_y
_atom_site_fract_z
Si Si1 0.675454 0.288760 0.683760
Si Si2 0.825482 0.727982 0.477337
Si Si3 0.678246 0.160736 0.027447
Si Si4 0.327833 0.146847 0.322632
Si Si5 0.680767 0.986951 0.845622
Si Si6 0.184195 0.535647 0.669462
Si Si7 0.821093 0.664868 0.636521
Si Si8 0.319030 0.534445 0.013756
O O1 0.500000 0.297041 0.653267
O O2 0.794145 0.312049 0.616564
O O3 0.699641 0.327994 0.762804
O O4 0.706892 0.218641 0.701202
O O5 0.728844 0.788256 0.463214
O O6 0.822525 0.689425 0.398239
O O7 0.752992 0.688146 0.550198
O O8 0.000000 0.746250 0.501668
O O9 0.500000 0.144012 0.014504
O O10 0.781237 0.103195 0.017210
O O11 0.500000 0.146691 0.283216
O O12 0.281042 0.081925 0.349322
O O13 0.500000 0.000754 0.854796
O O14 0.742835 0.011061 0.757653
O O15 0.764903 0.013472 0.924345
O O16 0.253208 0.602526 0.663635
O O17 0.241408 0.498438 0.591170
O O18 0.000000 0.532551 0.667861
O O19 0.000000 0.650334 0.625153
O O20 0.500000 0.524060 0.021615
#
# Coordination Sequence:
#
# PCOD8175244 Si02
#       8
#     8   8   8   8   8   8   8   8
#     4  10  20  35  56  83 116 150 187 235 288 341
#     4   9  18  34  55  79 111 148 186 235 291 343
#     4  11  22  38  59  81 108 145 193 240 290 352
#     4  10  20  35  56  83 116 153 191 232 283 340
#     4  10  22  39  60  87 118 156 201 242 284 347
#     4  10  20  38  64  89 118 158 201 242 286 344
#     4   8  16  33  56  81 110 147 187 228 281 338
#     4  12  25  40  60  87 121 157 194 242 299 353
#
# _framework density 19.976934
#
# number of rings (size 3 to 8) (size 9 to 14) (size 15 to 20)
#    0.000    2.000    0.000    4.875    0.000    5.500 
#    0.000    6.875    0.000    0.000    0.000    0.000 
#    0.000    0.000    0.000    0.000    0.000    0.000 
#
# Total GULP energy -396574.449823 kJ/mol
# GULP energy per Si atom -12392.951557 kJ/mol
# Density = 1.993147 g / cm^3
# Si number density = 19.976934 Si / 1000 Ang^3
#
#
#
# Elastic Constant Matrix: (Units=GPa)
#
#
# Indices 1 2 3 4 5 6 
#
# 1 55.1489 27.4242 30.5171 0.0000 0.0000 0.0000
# 2 27.4242 139.7552 47.4527 0.0000 0.0000 0.0000
# 3 30.5171 47.4527 102.2935 0.0000 0.0000 0.0000
# 4 0.0000 0.0000 0.0000 9.3539 0.0000 0.0000
# 5 0.0000 0.0000 0.0000 0.0000 29.9220 0.0000
# 6 0.0000 0.0000 0.0000 0.0000 0.0000 25.6635
#
#
#
# Elastic Compliance Matrix: (Units=1/GPa)
#
#
# Indices 1 2 3 4 5 6 
#
# 1 0.022447 -0.002529 -0.005523 0.000000 0.000000 0.000000
# 2 -0.002529 0.008778 -0.003317 0.000000 0.000000 0.000000
# 3 -0.005523 -0.003317 0.012962 0.000000 0.000000 0.000000
# 4 0.000000 0.000000 0.000000 0.106907 0.000000 0.000000
# 5 0.000000 0.000000 0.000000 0.000000 0.033420 0.000000
# 6 0.000000 0.000000 0.000000 0.000000 0.000000 0.038966
#
#
# Mechanical properties :
#
#
# Convention : Reuss Voigt Hill
#
# Bulk Modulus (GPa) = 46.62590 56.44284 51.53437
# Shear Modulus (GPa) = 19.73404 25.77480 22.75442
#
# Velocity S-wave (km/s) = 3.14640 3.59587 3.37862
# Velocity P-wave (km/s) = 6.04900 6.74950 6.40883
#
# Compressibility (1/GPa) = 0.02144731
#
# Stress axis : x y z
#
# Youngs Moduli (GPa) = 44.54972 113.91939 77.14590
#
# Poissons Ratio (x) = 0.28815 0.42609
# Poissons Ratio (y) = 0.11268 0.25593
# Poissons Ratio (z) = 0.24606 0.37792
#
# Static dielectric constant tensor:
#      x y z
#    x 3.472740 0.000000 0.000000 
#    y 0.000000 4.031760 0.000000 
#    z 0.000000 0.000000 3.628050 
# 
# 
# High freq. dielectric constant tensor:
#      x y z
#    x 1.756700 0.000000 0.000000 
#    y 0.000000 1.799880 0.000000 
#    z 0.000000 0.000000 1.775290 
# 
# From -- ./inp_files/13763.got.cif
#   From: 2010.03.12/outbox.cif.g09.slc.cpg/sg36_7_cif.got.tgz:13763.got - 2010.04.14 02:13:53.
