data_PCOD8175088
_publ_section_title
;
Structure prediction by ZEFSAII (Michael W. Deem and Ramdas Pophale) SiO2 
 PCOD8175088
Probable space group: C M C 21
;
_chemical_formula_sum "Si O2"
_cell_formula_units_Z 64
_cell_length_a 9.209241
_cell_length_b 24.613428
_cell_length_c 14.348044
_cell_angle_alpha 90.000000
_cell_angle_beta 90.000000
_cell_angle_gamma 90.000000
_cell_volume 3252.285342
_symmetry_space_group_name_H-M "C M C 21"
_symmetry_group_IT_number 36
_symmetry_cell_setting 'orthorhombic'
loop_
_space_group_symop_operation_xyz
x,y,z
-x,-y,1/2+z
x,-y,1/2+z
-x,y,z
1/2+x,1/2+y,z
1/2-x,1/2-y,1/2+z
1/2+x,1/2-y,1/2+z
1/2-x,1/2+y,z
loop_
_atom_site_type_symbol
_atom_site_label
_atom_site_fract_x
_atom_site_fract_y
_atom_site_fract_z
Si Si1 0.829876 0.955849 0.569260
Si Si2 0.828425 0.796454 0.331769
Si Si3 0.665274 0.408348 0.237720
Si Si4 0.335240 0.426054 0.021730
Si Si5 0.826588 0.803197 0.734112
Si Si6 0.661428 0.989746 0.747131
Si Si7 0.162432 0.613873 0.360239
Si Si8 0.328642 0.663555 0.029472
O O1 0.777510 0.899709 0.520527
O O2 0.000000 0.953763 0.593156
O O3 0.795663 0.009819 0.508574
O O4 0.748726 0.959774 0.666586
O O5 0.786046 0.851162 0.278523
O O6 0.738638 0.750212 0.280519
O O7 0.774430 0.802381 0.439463
O O8 0.000000 0.783875 0.325573
O O9 0.500000 0.421017 0.265505
O O10 0.762276 0.455428 0.283035
O O11 0.688011 0.407997 0.127429
O O12 0.500000 0.415990 0.989402
O O13 0.232217 0.386247 0.962829
O O14 0.763678 0.854342 0.788846
O O15 0.775442 0.808514 0.625850
O O16 0.000000 0.802663 0.742198
O O17 0.500000 0.003868 0.711056
O O18 0.655103 0.949009 0.833193
O O19 0.000000 0.639566 0.363641
O O20 0.500000 0.663428 0.027283
#
# Coordination Sequence:
#
# PCOD8175088 Si02
#       8
#     8   8   8   8   8   8   8   8
#     4   9  17  34  58  85 115 150 195 240 289 349
#     4  10  22  41  64  89 117 151 196 246 298 352
#     4   9  20  38  60  85 117 156 195 238 292 353
#     4   9  19  33  55  88 121 155 195 237 287 349
#     4  11  23  41  63  86 116 154 200 247 292 347
#     4  10  20  33  53  83 119 153 189 238 293 343
#     4  11  23  37  55  84 119 159 198 238 293 345
#     4   9  19  37  62  88 112 148 194 240 290 350
#
# _framework density 19.678470999999998
#
# number of rings (size 3 to 8) (size 9 to 14) (size 15 to 20)
#    0.000    2.250    1.250    1.875    1.750    5.000 
#    0.000    4.375    0.000    0.000    0.000    0.000 
#    0.000    0.000    0.000    0.000    0.000    0.000 
#
# Total GULP energy -396685.536605 kJ/mol
# GULP energy per Si atom -12396.423019 kJ/mol
# Density = 1.963368 g / cm^3
# Si number density = 19.678471 Si / 1000 Ang^3
#
#
#
# Elastic Constant Matrix: (Units=GPa)
#
#
# Indices 1 2 3 4 5 6 
#
# 1 72.6109 50.1053 34.6053 0.0000 0.0000 0.0000
# 2 50.1053 117.6935 67.1814 0.0000 0.0000 0.0000
# 3 34.6053 67.1814 101.2327 0.0000 0.0000 0.0000
# 4 0.0000 0.0000 0.0000 22.9105 0.0000 0.0000
# 5 0.0000 0.0000 0.0000 0.0000 23.2729 0.0000
# 6 0.0000 0.0000 0.0000 0.0000 0.0000 32.1181
#
#
#
# Elastic Compliance Matrix: (Units=1/GPa)
#
#
# Indices 1 2 3 4 5 6 
#
# 1 0.019721 -0.007321 -0.001883 0.000000 0.000000 0.000000
# 2 -0.007321 0.016396 -0.008378 0.000000 0.000000 0.000000
# 3 -0.001883 -0.008378 0.016082 0.000000 0.000000 0.000000
# 4 0.000000 0.000000 0.000000 0.043648 0.000000 0.000000
# 5 0.000000 0.000000 0.000000 0.000000 0.042969 0.000000
# 6 0.000000 0.000000 0.000000 0.000000 0.000000 0.031135
#
#
# Mechanical properties :
#
#
# Convention : Reuss Voigt Hill
#
# Bulk Modulus (GPa) = 58.70407 66.14680 62.42543
# Shear Modulus (GPa) = 23.71988 24.96997 24.34493
#
# Velocity S-wave (km/s) = 3.47561 3.56602 3.52111
# Velocity P-wave (km/s) = 6.78254 7.11633 6.95144
#
# Compressibility (1/GPa) = 0.01703460
#
# Stress axis : x y z
#
# Youngs Moduli (GPa) = 50.70642 60.99110 62.18135
#
# Poissons Ratio (x) = 0.44652 0.11709
# Poissons Ratio (y) = 0.37122 0.52097
# Poissons Ratio (z) = 0.09548 0.51100
#
# Static dielectric constant tensor:
#      x y z
#    x 3.540940 0.000000 0.000000 
#    y 0.000000 3.680300 0.000000 
#    z 0.000000 0.000000 3.702400 
# 
# 
# High freq. dielectric constant tensor:
#      x y z
#    x 1.752890 0.000000 0.000000 
#    y 0.000000 1.765430 0.000000 
#    z 0.000000 0.000000 1.765890 
# 
# From -- ./inp_files/11004.got.cif
#   From: 2010.03.12/outbox.cif.g09.slc.cpg/sg36_6_cif.got.tgz:11004.got - 2010.04.14 02:13:53.
