data_PCOD8175388
_publ_section_title
;
Structure prediction by ZEFSAII (Michael W. Deem and Ramdas Pophale) SiO2 
 PCOD8175388
Probable space group: C M C 21
;
_chemical_formula_sum "Si O2"
_cell_formula_units_Z 64
_cell_length_a 9.429330
_cell_length_b 23.849765
_cell_length_c 15.168882
_cell_angle_alpha 90.000000
_cell_angle_beta 90.000000
_cell_angle_gamma 90.000000
_cell_volume 3411.288987
_symmetry_space_group_name_H-M "C M C 21"
_symmetry_group_IT_number 36
_symmetry_cell_setting 'orthorhombic'
loop_
_space_group_symop_operation_xyz
x,y,z
-x,-y,1/2+z
x,-y,1/2+z
-x,y,z
1/2+x,1/2+y,z
1/2-x,1/2-y,1/2+z
1/2+x,1/2-y,1/2+z
1/2-x,1/2+y,z
loop_
_atom_site_type_symbol
_atom_site_label
_atom_site_fract_x
_atom_site_fract_y
_atom_site_fract_z
Si Si1 0.831131 0.247326 0.573510
Si Si2 0.158330 0.127563 0.504300
Si Si3 0.167921 0.259510 0.771964
Si Si4 0.666647 0.682095 0.932183
Si Si5 0.840761 0.013430 0.588687
Si Si6 0.835042 0.948419 0.411399
Si Si7 0.337715 0.007236 0.257840
Si Si8 0.839512 0.623401 0.341697
O O1 0.784033 0.186294 0.540125
O O2 0.773701 0.249009 0.673792
O O3 0.752933 0.294065 0.515340
O O4 0.000000 0.256995 0.567883
O O5 0.161308 0.080687 0.579805
O O6 0.254515 0.104247 0.426760
O O7 0.000000 0.135305 0.467335
O O8 0.218399 0.212425 0.841866
O O9 0.227373 0.319938 0.801873
O O10 0.000000 0.259925 0.767046
O O11 0.500000 0.692673 0.948303
O O12 0.701988 0.616696 0.924466
O O13 0.727956 0.999553 0.662287
O O14 0.000000 0.993805 0.615110
O O15 0.793802 0.982261 0.499211
O O16 0.745363 0.971555 0.330172
O O17 0.000000 0.956895 0.388255
O O18 0.500000 0.986459 0.258057
O O19 0.328607 0.073671 0.272186
O O20 0.000000 0.634863 0.371155
#
# Coordination Sequence:
#
# PCOD8175388 Si02
#       8
#     8   8   8   8   8   8   8   8
#     4  10  21  36  58  86 114 148 189 232 283 336
#     4  10  20  36  60  86 110 145 194 240 281 330
#     4   9  19  36  57  80 110 149 185 224 279 339
#     4  10  21  38  60  83 112 151 193 232 279 339
#     4  10  22  39  59  84 116 153 193 237 287 342
#     4  10  22  40  61  84 114 156 197 235 284 342
#     4  11  24  38  58  88 116 149 192 239 292 344
#     4  10  20  37  59  81 110 149 189 231 287 342
#
# _framework density 18.761237999999999
#
# number of rings (size 3 to 8) (size 9 to 14) (size 15 to 20)
#    0.000    2.000    2.500    0.375    3.500    2.000 
#    0.000    1.250    0.000    0.000    0.000    0.000 
#    0.000    0.000    0.000    0.000    0.000    0.000 
#
# Total GULP energy -396817.886657 kJ/mol
# GULP energy per Si atom -12400.558958 kJ/mol
# Density = 1.871854 g / cm^3
# Si number density = 18.761238 Si / 1000 Ang^3
#
#
#
# Elastic Constant Matrix: (Units=GPa)
#
#
# Indices 1 2 3 4 5 6 
#
# 1 67.3480 37.7119 52.7592 0.0000 0.0000 0.0000
# 2 37.7119 115.1980 40.5195 0.0000 0.0000 0.0000
# 3 52.7592 40.5195 121.3121 0.0000 0.0000 0.0000
# 4 0.0000 0.0000 0.0000 26.2621 0.0000 0.0000
# 5 0.0000 0.0000 0.0000 0.0000 34.7226 0.0000
# 6 0.0000 0.0000 0.0000 0.0000 0.0000 22.1888
#
#
#
# Elastic Compliance Matrix: (Units=1/GPa)
#
#
# Indices 1 2 3 4 5 6 
#
# 1 0.024732 -0.004887 -0.009124 0.000000 0.000000 0.000000
# 2 -0.004887 0.010802 -0.001482 0.000000 0.000000 0.000000
# 3 -0.009124 -0.001482 0.012706 0.000000 0.000000 0.000000
# 4 0.000000 0.000000 0.000000 0.038078 0.000000 0.000000
# 5 0.000000 0.000000 0.000000 0.000000 0.028800 0.000000
# 6 0.000000 0.000000 0.000000 0.000000 0.000000 0.045068
#
#
# Mechanical properties :
#
#
# Convention : Reuss Voigt Hill
#
# Bulk Modulus (GPa) = 57.95907 62.87105 60.41506
# Shear Modulus (GPa) = 25.39045 28.15919 26.77482
#
# Velocity S-wave (km/s) = 3.68278 3.87838 3.78184
# Velocity P-wave (km/s) = 7.00313 7.32391 7.16532
#
# Compressibility (1/GPa) = 0.01725355
#
# Stress axis : x y z
#
# Youngs Moduli (GPa) = 40.43284 92.57454 78.70074
#
# Poissons Ratio (x) = 0.45244 0.71805
# Poissons Ratio (y) = 0.19761 0.11667
# Poissons Ratio (z) = 0.36890 0.13724
#
# Static dielectric constant tensor:
#      x y z
#    x 3.319770 0.000000 0.000000 
#    y 0.000000 3.606020 0.000000 
#    z 0.000000 0.000000 3.443880 
# 
# 
# High freq. dielectric constant tensor:
#      x y z
#    x 1.711780 0.000000 0.000000 
#    y 0.000000 1.743460 0.000000 
#    z 0.000000 0.000000 1.729300 
# 
# From -- ./inp_files/10876.got.cif
#   From: 2010.03.12/outbox.cif.g09.slc.cpg/sg36_6_cif.got.tgz:10876.got - 2010.04.14 02:13:53.
