data_PCOD8175728
_publ_section_title
;
Structure prediction by ZEFSAII (Michael W. Deem and Ramdas Pophale) SiO2 
 PCOD8175728
Probable space group: C M C 21
;
_chemical_formula_sum "Si O2"
_cell_formula_units_Z 64
_cell_length_a 9.153615
_cell_length_b 24.045215
_cell_length_c 14.433978
_cell_angle_alpha 90.000000
_cell_angle_beta 90.000000
_cell_angle_gamma 90.000000
_cell_volume 3176.927806
_symmetry_space_group_name_H-M "C M C 21"
_symmetry_group_IT_number 36
_symmetry_cell_setting 'orthorhombic'
loop_
_space_group_symop_operation_xyz
x,y,z
-x,-y,1/2+z
x,-y,1/2+z
-x,y,z
1/2+x,1/2+y,z
1/2-x,1/2-y,1/2+z
1/2+x,1/2-y,1/2+z
1/2-x,1/2+y,z
loop_
_atom_site_type_symbol
_atom_site_label
_atom_site_fract_x
_atom_site_fract_y
_atom_site_fract_z
Si Si1 0.172401 0.345056 0.419110
Si Si2 0.662844 0.240799 0.450377
Si Si3 0.831891 0.093493 0.219456
Si Si4 0.828772 0.828993 0.227261
Si Si5 0.832039 0.296217 0.750335
Si Si6 0.331781 0.558606 0.018649
Si Si7 0.669948 0.557312 0.420989
Si Si8 0.664075 0.865892 0.059242
O O1 0.222624 0.289491 0.473367
O O2 0.254120 0.347175 0.321879
O O3 0.218838 0.397124 0.479731
O O4 0.000000 0.344639 0.404152
O O5 0.500000 0.266231 0.433141
O O6 0.711168 0.207560 0.358364
O O7 0.660326 0.199224 0.535704
O O8 0.755631 0.153204 0.204555
O O9 0.803008 0.054304 0.129705
O O10 0.782282 0.060211 0.312415
O O11 0.000000 0.108605 0.228454
O O12 0.796648 0.763960 0.204609
O O13 0.762122 0.870434 0.150747
O O14 0.000000 0.840783 0.234269
O O15 0.000000 0.311691 0.736806
O O16 0.500000 0.576000 0.999911
O O17 0.294161 0.501889 0.966039
O O18 0.500000 0.571950 0.433185
O O19 0.765633 0.601820 0.474576
O O20 0.500000 0.888110 0.077698
#
# Coordination Sequence:
#
# PCOD8175728 Si02
#       8
#     8   8   8   8   8   8   8   8
#     4  11  23  39  60  89 122 158 206 257 307 364
#     4   9  19  36  57  84 121 162 195 241 308 367
#     4  10  21  37  60  88 115 153 204 254 300 359
#     4  10  22  39  59  87 127 168 204 246 308 375
#     4   9  18  35  57  84 118 157 196 242 303 360
#     4  10  23  42  62  87 122 164 208 255 312 371
#     4  10  22  41  63  88 121 164 213 256 305 368
#     4  11  22  37  60  91 124 160 206 255 307 362
#
# _framework density 20.145249
#
# number of rings (size 3 to 8) (size 9 to 14) (size 15 to 20)
#    0.000    2.000    1.250    2.625    1.750    5.500 
#    0.000    2.500    0.000    0.000    0.000    0.000 
#    0.000    0.000    0.000    0.000    0.000    0.000 
#
# Total GULP energy -396748.740259 kJ/mol
# GULP energy per Si atom -12398.398133 kJ/mol
# Density = 2.009940 g / cm^3
# Si number density = 20.145249 Si / 1000 Ang^3
#
#
#
# Elastic Constant Matrix: (Units=GPa)
#
#
# Indices 1 2 3 4 5 6 
#
# 1 103.1155 45.9454 55.2882 0.0000 0.0000 0.0000
# 2 45.9454 81.2428 55.6981 0.0000 0.0000 0.0000
# 3 55.2882 55.6981 105.0056 0.0000 0.0000 0.0000
# 4 0.0000 0.0000 0.0000 25.6817 0.0000 0.0000
# 5 0.0000 0.0000 0.0000 0.0000 28.3789 0.0000
# 6 0.0000 0.0000 0.0000 0.0000 0.0000 27.1813
#
#
#
# Elastic Compliance Matrix: (Units=1/GPa)
#
#
# Indices 1 2 3 4 5 6 
#
# 1 0.014564 -0.004682 -0.005185 0.000000 0.000000 0.000000
# 2 -0.004682 0.020848 -0.008593 0.000000 0.000000 0.000000
# 3 -0.005185 -0.008593 0.016811 0.000000 0.000000 0.000000
# 4 0.000000 0.000000 0.000000 0.038938 0.000000 0.000000
# 5 0.000000 0.000000 0.000000 0.000000 0.035237 0.000000
# 6 0.000000 0.000000 0.000000 0.000000 0.000000 0.036790
#
#
# Mechanical properties :
#
#
# Convention : Reuss Voigt Hill
#
# Bulk Modulus (GPa) = 65.34533 67.02528 66.18531
# Shear Modulus (GPa) = 24.36529 25.07718 24.72124
#
# Velocity S-wave (km/s) = 3.48153 3.53203 3.50687
# Velocity P-wave (km/s) = 6.97631 7.06943 7.02303
#
# Compressibility (1/GPa) = 0.01530331
#
# Stress axis : x y z
#
# Youngs Moduli (GPa) = 68.66261 47.96685 59.48322
#
# Poissons Ratio (x) = 0.22456 0.30842
# Poissons Ratio (y) = 0.32146 0.51115
# Poissons Ratio (z) = 0.35602 0.41219
#
# Static dielectric constant tensor:
#      x y z
#    x 3.657560 0.000000 0.000000 
#    y 0.000000 3.508560 0.000000 
#    z 0.000000 0.000000 3.826610 
# 
# 
# High freq. dielectric constant tensor:
#      x y z
#    x 1.784170 0.000000 0.000000 
#    y 0.000000 1.768970 0.000000 
#    z 0.000000 0.000000 1.793860 
# 
# From -- ./inp_files/11017.got.cif
#   From: 2010.03.12/outbox.cif.g09.slc.cpg/sg36_6_cif.got.tgz:11017.got - 2010.04.14 02:13:53.
