data_PCOD8175591
_publ_section_title
;
Structure prediction by ZEFSAII (Michael W. Deem and Ramdas Pophale) SiO2 
 PCOD8175591
Probable space group: C M C 21
;
_chemical_formula_sum "Si O2"
_cell_formula_units_Z 56
_cell_length_a 16.161058
_cell_length_b 15.302808
_cell_length_c 8.985981
_cell_angle_alpha 90.000000
_cell_angle_beta 90.000000
_cell_angle_gamma 90.000000
_cell_volume 2222.319076
_symmetry_space_group_name_H-M "C M C 21"
_symmetry_group_IT_number 36
_symmetry_cell_setting 'orthorhombic'
loop_
_space_group_symop_operation_xyz
x,y,z
-x,-y,1/2+z
x,-y,1/2+z
-x,y,z
1/2+x,1/2+y,z
1/2-x,1/2-y,1/2+z
1/2+x,1/2-y,1/2+z
1/2-x,1/2+y,z
loop_
_atom_site_type_symbol
_atom_site_label
_atom_site_fract_x
_atom_site_fract_y
_atom_site_fract_z
Si Si1 0.089910 0.194469 0.785700
Si Si2 0.314757 0.571229 0.312625
Si Si3 0.908622 0.503769 0.661234
Si Si4 0.312334 0.072184 0.921547
Si Si5 0.091896 0.965207 0.511939
Si Si6 0.589752 0.811246 0.055825
Si Si7 0.235257 0.739456 0.762248
O O1 0.097444 0.108251 0.885090
O O2 0.090286 0.280301 0.887380
O O3 0.175002 0.209749 0.691615
O O4 0.000000 0.191842 0.698866
O O5 0.260110 0.490649 0.369784
O O6 0.390077 0.559487 0.432065
O O7 0.267014 0.662884 0.330836
O O8 0.343159 0.556577 0.142582
O O9 0.891423 0.544226 0.822898
O O10 0.839858 0.435710 0.596329
O O11 0.900695 0.584853 0.546918
O O12 0.000000 0.461602 0.661083
O O13 0.286562 0.172469 0.896215
O O14 0.000000 0.969175 0.581630
O O15 0.500000 0.786468 0.129846
O O16 0.664425 0.763546 0.138891
#
# Coordination Sequence:
#
# PCOD8175591 Si02
#       7
#     8   8   8   8   8   8   8
#     4  10  20  40  66  94 131 179 231 285 343 415
#     4  12  24  44  70 100 136 184 231 288 357 416
#     4  10  21  39  62  92 129 172 220 280 340 410
#     4  11  23  40  64  96 131 173 230 284 343 417
#     4  11  24  44  70 101 139 183 234 291 350 420
#     4   9  19  37  64  92 127 180 229 268 341 424
#     4  11  23  40  68  97 135 181 235 290 344 420
#
# _framework density 25.198899999999998
#
# number of rings (size 3 to 8) (size 9 to 14) (size 15 to 20)
#    0.000    1.429    2.857    2.571    0.000    2.286 
#    0.000    0.714    0.000    0.857    0.000    0.000 
#    0.000    0.000    0.000    0.000    0.000    0.000 
#
# Total GULP energy -346902.006216 kJ/mol
# GULP energy per Si atom -12389.357365 kJ/mol
# Density = 2.514155 g / cm^3
# Si number density = 25.198900 Si / 1000 Ang^3
#
#
#
# Elastic Constant Matrix: (Units=GPa)
#
#
# Indices 1 2 3 4 5 6 
#
# 1 177.7571 25.3893 20.7200 0.0000 0.0000 0.0000
# 2 25.3893 102.1831 22.4697 0.0000 0.0000 0.0000
# 3 20.7200 22.4697 25.0245 0.0000 0.0000 0.0000
# 4 0.0000 0.0000 0.0000 24.6844 0.0000 0.0000
# 5 0.0000 0.0000 0.0000 0.0000 28.4464 0.0000
# 6 0.0000 0.0000 0.0000 0.0000 0.0000 26.2371
#
#
#
# Elastic Compliance Matrix: (Units=1/GPa)
#
#
# Indices 1 2 3 4 5 6 
#
# 1 0.006248 -0.000517 -0.004709 0.000000 0.000000 0.000000
# 2 -0.000517 0.012237 -0.010560 0.000000 0.000000 0.000000
# 3 -0.004709 -0.010560 0.053342 0.000000 0.000000 0.000000
# 4 0.000000 0.000000 0.000000 0.040511 0.000000 0.000000
# 5 0.000000 0.000000 0.000000 0.000000 0.035154 0.000000
# 6 0.000000 0.000000 0.000000 0.000000 0.000000 0.038114
#
#
# Mechanical properties :
#
#
# Convention : Reuss Voigt Hill
#
# Bulk Modulus (GPa) = 24.84157 49.12475 36.98316
# Shear Modulus (GPa) = 21.68292 31.63264 26.65778
#
# Velocity S-wave (km/s) = 2.93656 3.54689 3.25606
# Velocity P-wave (km/s) = 4.62358 6.02586 5.37068
#
# Compressibility (1/GPa) = 0.04025511
#
# Stress axis : x y z
#
# Youngs Moduli (GPa) = 160.03986 81.72068 18.74706
#
# Poissons Ratio (x) = 0.04225 0.08829
# Poissons Ratio (y) = 0.08273 0.19796
# Poissons Ratio (z) = 0.75370 0.86293
#
# Static dielectric constant tensor:
#      x y z
#    x 5.343160 0.000000 0.000000 
#    y 0.000000 4.614280 0.000000 
#    z 0.000000 0.000000 4.278480 
# 
# 
# High freq. dielectric constant tensor:
#      x y z
#    x 2.035020 0.000000 0.000000 
#    y 0.000000 2.002410 0.000000 
#    z 0.000000 0.000000 1.965090 
# 
# From -- ./inp_files/8496.got.cif
#   From: 2010.03.12/outbox.cif.g09.slc.cpg/sg36_5_cif.got.tgz:8496.got - 2010.04.14 02:13:53.
