data_PCOD8175137
_publ_section_title
;
Structure prediction by ZEFSAII (Michael W. Deem and Ramdas Pophale) SiO2 
 PCOD8175137
Probable space group: C M C 21
;
_chemical_formula_sum "Si O2"
_cell_formula_units_Z 64
_cell_length_a 8.904381
_cell_length_b 19.488908
_cell_length_c 19.995646
_cell_angle_alpha 90.000000
_cell_angle_beta 90.000000
_cell_angle_gamma 90.000000
_cell_volume 3469.977663
_symmetry_space_group_name_H-M "C M C 21"
_symmetry_group_IT_number 36
_symmetry_cell_setting 'orthorhombic'
loop_
_space_group_symop_operation_xyz
x,y,z
-x,-y,1/2+z
x,-y,1/2+z
-x,y,z
1/2+x,1/2+y,z
1/2-x,1/2-y,1/2+z
1/2+x,1/2-y,1/2+z
1/2-x,1/2+y,z
loop_
_atom_site_type_symbol
_atom_site_label
_atom_site_fract_x
_atom_site_fract_y
_atom_site_fract_z
Si Si1 0.674433 0.825887 0.775150
Si Si2 0.173579 0.832022 0.274954
Si Si3 0.326569 0.326271 0.911708
Si Si4 0.824464 0.574184 0.513439
Si Si5 0.670798 0.079388 0.667048
Si Si6 0.326549 0.076977 0.156045
Si Si7 0.822851 0.931172 0.516569
Si Si8 0.173625 0.665560 0.911284
O O1 0.500000 0.839093 0.790579
O O2 0.707199 0.746987 0.757633
O O3 0.767944 0.850035 0.839398
O O4 0.729397 0.870543 0.712440
O O5 0.216015 0.876242 0.210667
O O6 0.271240 0.856848 0.337885
O O7 0.000000 0.843405 0.292502
O O8 0.500000 0.346195 0.917689
O O9 0.234338 0.364033 0.968884
O O10 0.298611 0.245943 0.921863
O O11 0.789082 0.593181 0.589940
O O12 0.744927 0.503512 0.493078
O O13 0.000000 0.563207 0.502005
O O14 0.500000 0.101417 0.682698
O O15 0.695774 0.999589 0.684071
O O16 0.500000 0.089416 0.136604
O O17 0.228883 0.090099 0.090462
O O18 0.770600 0.872539 0.466407
O O19 0.000000 0.937054 0.515055
O O20 0.000000 0.645490 0.918616
#
# Coordination Sequence:
#
# PCOD8175137 Si02
#       8
#     8   8   8   8   8   8   8   8
#     4   9  19  36  56  77 105 142 181 220 265 319
#     4  10  20  34  54  80 108 138 176 224 270 313
#     4  10  21  36  56  82 110 141 181 227 269 314
#     4  10  21  38  58  79 109 146 180 218 268 326
#     4   9  19  35  54  76 104 140 178 215 261 321
#     4   9  19  37  57  77 104 141 181 217 263 322
#     4  11  22  36  56  82 110 139 179 229 271 314
#     4  10  21  38  57  77 108 147 182 220 269 323
#
# _framework density 18.443922000000001
#
# number of rings (size 3 to 8) (size 9 to 14) (size 15 to 20)
#    0.000    2.250    0.000    3.375    0.000    7.000 
#    0.000    7.500    0.000    0.000    0.000    0.000 
#    0.000    0.000    0.000    0.000    0.000    0.000 
#
# Total GULP energy -396948.956502 kJ/mol
# GULP energy per Si atom -12404.654891 kJ/mol
# Density = 1.840194 g / cm^3
# Si number density = 18.443922 Si / 1000 Ang^3
#
#
#
# Elastic Constant Matrix: (Units=GPa)
#
#
# Indices 1 2 3 4 5 6 
#
# 1 106.6998 47.2561 60.6484 0.0000 0.0000 0.0000
# 2 47.2561 73.9247 66.0857 0.0000 0.0000 0.0000
# 3 60.6484 66.0857 108.1311 0.0000 0.0000 0.0000
# 4 0.0000 0.0000 0.0000 -49.3064 0.0000 0.0000
# 5 0.0000 0.0000 0.0000 0.0000 36.3931 0.0000
# 6 0.0000 0.0000 0.0000 0.0000 0.0000 31.5901
#
#
#
# Elastic Compliance Matrix: (Units=1/GPa)
#
#
# Indices 1 2 3 4 5 6 
#
# 1 0.014370 -0.004367 -0.005391 0.000000 0.000000 0.000000
# 2 -0.004367 0.031146 -0.016586 0.000000 0.000000 0.000000
# 3 -0.005391 -0.016586 0.022409 0.000000 0.000000 0.000000
# 4 0.000000 0.000000 0.000000 -0.020281 0.000000 0.000000
# 5 0.000000 0.000000 0.000000 0.000000 0.027478 0.000000
# 6 0.000000 0.000000 0.000000 0.000000 0.000000 0.031655
#
#
# Mechanical properties :
#
#
# Convention : Reuss Voigt Hill
#
# Bulk Modulus (GPa) = 65.62978 70.74844 68.18911
# Shear Modulus (GPa) = 30.38700 11.38640 20.88670
#
# Velocity S-wave (km/s) = 4.06339 2.48735 3.36883
# Velocity P-wave (km/s) = 7.59444 6.83309 7.22380
#
# Compressibility (1/GPa) = 0.01523699
#
# Stress axis : x y z
#
# Youngs Moduli (GPa) = 69.58716 32.10698 44.62545
#
# Poissons Ratio (x) = 0.14020 0.24059
# Poissons Ratio (y) = 0.30386 0.74016
# Poissons Ratio (z) = 0.37517 0.53253
#
# Static dielectric constant tensor:
#      x y z
#    x 3.424990 0.000000 0.000000 
#    y 0.000000 3.366250 0.000000 
#    z 0.000000 0.000000 3.394050 
# 
# 
# High freq. dielectric constant tensor:
#      x y z
#    x 1.722960 0.000000 0.000000 
#    y 0.000000 1.713820 0.000000 
#    z 0.000000 0.000000 1.718840 
# 
# From -- ./inp_files/13834.got.cif
#   From: 2010.03.12/outbox.cif.g09.slc.cpg/sg36_7_cif.got.tgz:13834.got - 2010.04.14 02:13:53.
