data_PCOD8175515
_publ_section_title
;
Structure prediction by ZEFSAII (Michael W. Deem and Ramdas Pophale) SiO2 
 PCOD8175515
Probable space group: C M C 21
;
_chemical_formula_sum "Si O2"
_cell_formula_units_Z 40
_cell_length_a 13.355864
_cell_length_b 13.023045
_cell_length_c 8.520947
_cell_angle_alpha 90.000000
_cell_angle_beta 90.000000
_cell_angle_gamma 90.000000
_cell_volume 1482.082548
_symmetry_space_group_name_H-M "C M C 21"
_symmetry_group_IT_number 36
_symmetry_cell_setting 'orthorhombic'
loop_
_space_group_symop_operation_xyz
x,y,z
-x,-y,1/2+z
x,-y,1/2+z
-x,y,z
1/2+x,1/2+y,z
1/2-x,1/2-y,1/2+z
1/2+x,1/2-y,1/2+z
1/2-x,1/2+y,z
loop_
_atom_site_type_symbol
_atom_site_label
_atom_site_fract_x
_atom_site_fract_y
_atom_site_fract_z
Si Si1 0.786881 0.649919 0.726150
Si Si2 0.278456 0.466728 0.934016
Si Si3 0.000000 0.445297 0.944746
Si Si4 0.887953 0.260852 0.869922
Si Si5 0.114792 0.882150 0.644446
Si Si6 0.000000 0.643488 0.778038
O O1 0.788755 0.602395 0.551308
O O2 0.783759 0.558743 0.854349
O O3 0.691787 0.726394 0.739595
O O4 0.895186 0.707366 0.768773
O O5 0.319988 0.389410 0.802398
O O6 0.368089 0.516919 0.036446
O O7 0.902207 0.385229 0.869818
O O8 0.000000 0.566785 0.924791
O O9 0.000000 0.433473 0.130719
O O10 0.000000 0.211059 0.841412
O O11 0.850660 0.218335 0.041474
O O12 0.000000 0.874928 0.693333
#
# Coordination Sequence:
#
# PCOD8175515 Si02
#       6
#     8   8   4   8   8   4
#     4  10  20  38  62 101 131 180 224 278 330 391
#     4   9  18  29  53  91 137 169 222 265 328 395
#     4  10  24  48  70  98 132 180 222 276 338 392
#     4   8  19  41  68  94 139 174 209 284 347 380
#     4   9  15  28  52  89 131 179 210 267 333 399
#     4  12  24  44  74  96 130 180 232 268 320 410
#
# _framework density 26.989049999999999
#
# number of rings (size 3 to 8) (size 9 to 14) (size 15 to 20)
#    0.600    2.000    0.000    1.800    0.000    5.600 
#    0.000   12.000    0.000    0.000    2.600    0.000 
#    0.000    0.000    0.000    0.000    0.000    0.000 
#
# Total GULP energy -247842.942057 kJ/mol
# GULP energy per Si atom -12392.147103 kJ/mol
# Density = 2.692762 g / cm^3
# Si number density = 26.989050 Si / 1000 Ang^3
#
#
#
# Elastic Constant Matrix: (Units=GPa)
#
#
# Indices 1 2 3 4 5 6 
#
# 1 167.7767 21.8400 37.1713 0.0000 0.0000 0.0000
# 2 21.8400 77.4454 1.6412 0.0000 0.0000 0.0000
# 3 37.1713 1.6412 104.5446 0.0000 0.0000 0.0000
# 4 0.0000 0.0000 0.0000 35.4044 0.0000 0.0000
# 5 0.0000 0.0000 0.0000 0.0000 32.9280 0.0000
# 6 0.0000 0.0000 0.0000 0.0000 0.0000 44.9813
#
#
#
# Elastic Compliance Matrix: (Units=1/GPa)
#
#
# Indices 1 2 3 4 5 6 
#
# 1 0.006724 -0.001846 -0.002362 0.000000 0.000000 0.000000
# 2 -0.001846 0.013423 0.000446 0.000000 0.000000 0.000000
# 3 -0.002362 0.000446 0.010398 0.000000 0.000000 0.000000
# 4 0.000000 0.000000 0.000000 0.028245 0.000000 0.000000
# 5 0.000000 0.000000 0.000000 0.000000 0.030369 0.000000
# 6 0.000000 0.000000 0.000000 0.000000 0.000000 0.022231
#
#
# Mechanical properties :
#
#
# Convention : Reuss Voigt Hill
#
# Bulk Modulus (GPa) = 43.43853 52.34129 47.88991
# Shear Modulus (GPa) = 39.49783 41.93701 40.71742
#
# Velocity S-wave (km/s) = 3.82969 3.94617 3.88837
# Velocity P-wave (km/s) = 5.97371 6.34024 6.15970
#
# Compressibility (1/GPa) = 0.02302104
#
# Stress axis : x y z
#
# Youngs Moduli (GPa) = 148.72405 74.49629 96.17215
#
# Poissons Ratio (x) = 0.13753 0.22713
# Poissons Ratio (y) = 0.27456 -0.04286
# Poissons Ratio (z) = 0.35124 -0.03320
#
# Static dielectric constant tensor:
#      x y z
#    x 5.074840 0.000000 0.000000 
#    y 0.000000 4.905990 0.000000 
#    z 0.000000 0.000000 4.685590 
# 
# 
# High freq. dielectric constant tensor:
#      x y z
#    x 2.106640 0.000000 0.000000 
#    y 0.000000 2.093040 0.000000 
#    z 0.000000 0.000000 2.077460 
# 
# From -- ./inp_files/3903.got.cif
#   From: 2010.03.12/outbox.cif.g09.slc.cpg/sg36_2_cif.got.tgz:3903.got - 2010.04.14 02:13:53.
