data_PCOD8175159
_publ_section_title
;
Structure prediction by ZEFSAII (Michael W. Deem and Ramdas Pophale) SiO2 
 PCOD8175159
Probable space group: C M C 21
;
_chemical_formula_sum "Si O2"
_cell_formula_units_Z 40
_cell_length_a 14.819977
_cell_length_b 24.543382
_cell_length_c 5.052505
_cell_angle_alpha 90.000000
_cell_angle_beta 90.000000
_cell_angle_gamma 90.000000
_cell_volume 1837.759551
_symmetry_space_group_name_H-M "C M C 21"
_symmetry_group_IT_number 36
_symmetry_cell_setting 'orthorhombic'
loop_
_space_group_symop_operation_xyz
x,y,z
-x,-y,1/2+z
x,-y,1/2+z
-x,y,z
1/2+x,1/2+y,z
1/2-x,1/2-y,1/2+z
1/2+x,1/2-y,1/2+z
1/2-x,1/2+y,z
loop_
_atom_site_type_symbol
_atom_site_label
_atom_site_fract_x
_atom_site_fract_y
_atom_site_fract_z
Si Si1 0.000000 0.160506 0.352060
Si Si2 0.851614 0.113491 0.075888
Si Si3 0.308853 0.036618 0.124916
Si Si4 0.000000 0.465681 0.736078
Si Si5 0.500000 0.731839 0.850732
Si Si6 0.500000 0.537611 0.862387
Si Si7 0.305594 0.266814 0.440214
O O1 0.092151 0.125317 0.350567
O O2 0.000000 0.209933 0.551650
O O3 0.000000 0.181031 0.047498
O O4 0.763494 0.082957 0.177523
O O5 0.911220 0.075266 0.884011
O O6 0.821618 0.168319 0.922318
O O7 0.407209 0.065733 0.164312
O O8 0.298003 0.987105 0.330971
O O9 0.000000 0.519630 0.546845
O O10 0.595819 0.763414 0.896190
O O11 0.500000 0.489396 0.075612
O O12 0.267646 0.250920 0.725809
#
# Coordination Sequence:
#
# PCOD8175159 Si02
#       7
#     4   8   8   4   4   4   8
#     4   9  20  34  58  84 114 162 195 233 319 386
#     4  10  22  38  60  88 126 159 201 266 318 376
#     4  10  20  34  55  81 112 152 196 247 310 376
#     4   8  16  32  50  70 100 142 185 222 279 352
#     4  10  20  41  62  84 120 158 202 261 310 364
#     4  11  24  39  62  98 130 166 212 254 322 410
#     4  11  24  41  64  92 121 168 221 260 322 395
#
# _framework density 21.765633999999999
#
# number of rings (size 3 to 8) (size 9 to 14) (size 15 to 20)
#    0.000    2.000    0.000    4.200    0.000   12.800 
#    0.000    2.000    0.000    2.400    0.000    0.000 
#    0.000    0.000    0.000    0.000    0.000    0.000 
#
# Total GULP energy -247796.852069 kJ/mol
# GULP energy per Si atom -12389.842603 kJ/mol
# Density = 2.171609 g / cm^3
# Si number density = 21.765634 Si / 1000 Ang^3
#
#
#
# Elastic Constant Matrix: (Units=GPa)
#
#
# Indices 1 2 3 4 5 6 
#
# 1 190.8292 35.3901 13.9250 0.0000 0.0000 0.0000
# 2 35.3901 66.0425 9.8965 0.0000 0.0000 0.0000
# 3 13.9250 9.8965 69.2747 0.0000 0.0000 0.0000
# 4 0.0000 0.0000 0.0000 25.8835 0.0000 0.0000
# 5 0.0000 0.0000 0.0000 0.0000 20.4468 0.0000
# 6 0.0000 0.0000 0.0000 0.0000 0.0000 34.3398
#
#
#
# Elastic Compliance Matrix: (Units=1/GPa)
#
#
# Indices 1 2 3 4 5 6 
#
# 1 0.005856 -0.003026 -0.000745 0.000000 0.000000 0.000000
# 2 -0.003026 0.017037 -0.001826 0.000000 0.000000 0.000000
# 3 -0.000745 -0.001826 0.014846 0.000000 0.000000 0.000000
# 4 0.000000 0.000000 0.000000 0.038635 0.000000 0.000000
# 5 0.000000 0.000000 0.000000 0.000000 0.048907 0.000000
# 6 0.000000 0.000000 0.000000 0.000000 0.000000 0.029121
#
#
# Mechanical properties :
#
#
# Convention : Reuss Voigt Hill
#
# Bulk Modulus (GPa) = 37.67137 49.39661 43.53399
# Shear Modulus (GPa) = 28.66261 33.92969 31.29615
#
# Velocity S-wave (km/s) = 3.63281 3.95253 3.79604
# Velocity P-wave (km/s) = 5.91115 6.60106 6.26561
#
# Compressibility (1/GPa) = 0.02654536
#
# Stress axis : x y z
#
# Youngs Moduli (GPa) = 170.76827 58.69555 67.35924
#
# Poissons Ratio (x) = 0.17764 0.05017
# Poissons Ratio (y) = 0.51681 0.12297
# Poissons Ratio (z) = 0.12718 0.10715
#
# Static dielectric constant tensor:
#      x y z
#    x 4.837260 0.000000 0.000000 
#    y 0.000000 3.469790 0.000000 
#    z 0.000000 0.000000 3.822380 
# 
# 
# High freq. dielectric constant tensor:
#      x y z
#    x 1.890380 0.000000 0.000000 
#    y 0.000000 1.798380 0.000000 
#    z 0.000000 0.000000 1.861000 
# 
# From -- ./inp_files/761.got.cif
#   From: 2010.03.12/outbox.cif.g09.slc.cpg/sg36_1_cif.got.tgz:761.got - 2010.04.14 02:13:53.
