data_PCOD8175771
_publ_section_title
;
Structure prediction by ZEFSAII (Michael W. Deem and Ramdas Pophale) SiO2 
 PCOD8175771
Probable space group: C M C 21
;
_chemical_formula_sum "Si O2"
_cell_formula_units_Z 48
_cell_length_a 9.137105
_cell_length_b 23.506187
_cell_length_c 11.920741
_cell_angle_alpha 90.000000
_cell_angle_beta 90.000000
_cell_angle_gamma 90.000000
_cell_volume 2560.318856
_symmetry_space_group_name_H-M "C M C 21"
_symmetry_group_IT_number 36
_symmetry_cell_setting 'orthorhombic'
loop_
_space_group_symop_operation_xyz
x,y,z
-x,-y,1/2+z
x,-y,1/2+z
-x,y,z
1/2+x,1/2+y,z
1/2-x,1/2-y,1/2+z
1/2+x,1/2-y,1/2+z
1/2-x,1/2+y,z
loop_
_atom_site_type_symbol
_atom_site_label
_atom_site_fract_x
_atom_site_fract_y
_atom_site_fract_z
Si Si1 0.828308 0.579598 0.662400
Si Si2 0.172260 0.164049 0.829045
Si Si3 0.169943 0.709527 0.266112
Si Si4 0.669590 0.645985 0.082184
Si Si5 0.169397 0.601258 0.406684
Si Si6 0.671573 0.535798 0.223502
O O1 0.763900 0.626237 0.744729
O O2 0.793743 0.600487 0.537318
O O3 0.750998 0.519925 0.680936
O O4 0.000000 0.572740 0.684304
O O5 0.218577 0.229226 0.810793
O O6 0.000000 0.154135 0.809372
O O7 0.220401 0.146192 0.953740
O O8 0.249799 0.695809 0.149654
O O9 0.212218 0.663663 0.361293
O O10 0.000000 0.707931 0.239129
O O11 0.500000 0.660401 0.091860
O O12 0.707401 0.584510 0.132992
O O13 0.266354 0.553668 0.344724
O O14 0.000000 0.587226 0.383119
O O15 0.500000 0.523911 0.235750
#
# Coordination Sequence:
#
# PCOD8175771 Si02
#       6
#     8   8   8   8   8   8
#     4  11  24  38  58  87 117 150 190 238 286 338
#     4  10  22  38  58  86 118 151 189 233 284 339
#     4   9  19  37  60  84 114 151 189 233 282 335
#     4   9  20  38  60  84 113 150 189 233 283 336
#     4   9  20  39  60  84 114 151 191 233 284 337
#     4  10  21  38  60  85 114 151 192 236 285 339
#
# _framework density 18.747664
#
# number of rings (size 3 to 8) (size 9 to 14) (size 15 to 20)
#    0.000    2.333    0.000    1.000    4.667    3.333 
#    0.000    0.000    0.000    0.000    0.000    0.000 
#    0.000    0.000    0.000    0.000    0.000    0.000 
#
# Total GULP energy -297692.608975 kJ/mol
# GULP energy per Si atom -12403.858707 kJ/mol
# Density = 1.870499 g / cm^3
# Si number density = 18.747664 Si / 1000 Ang^3
#
#
#
# Elastic Constant Matrix: (Units=GPa)
#
#
# Indices 1 2 3 4 5 6 
#
# 1 77.9170 59.3757 68.9148 0.0000 0.0000 0.0000
# 2 59.3757 117.3183 71.7145 0.0000 0.0000 0.0000
# 3 68.9148 71.7145 159.0883 0.0000 0.0000 0.0000
# 4 0.0000 0.0000 0.0000 24.6828 0.0000 0.0000
# 5 0.0000 0.0000 0.0000 0.0000 31.1213 0.0000
# 6 0.0000 0.0000 0.0000 0.0000 0.0000 29.9146
#
#
#
# Elastic Compliance Matrix: (Units=1/GPa)
#
#
# Indices 1 2 3 4 5 6 
#
# 1 0.025884 -0.008622 -0.007326 0.000000 0.000000 0.000000
# 2 -0.008622 0.014638 -0.002864 0.000000 0.000000 0.000000
# 3 -0.007326 -0.002864 0.010750 0.000000 0.000000 0.000000
# 4 0.000000 0.000000 0.000000 0.040514 0.000000 0.000000
# 5 0.000000 0.000000 0.000000 0.000000 0.032132 0.000000
# 6 0.000000 0.000000 0.000000 0.000000 0.000000 0.033429
#
#
# Mechanical properties :
#
#
# Convention : Reuss Voigt Hill
#
# Bulk Modulus (GPa) = 73.26496 83.81485 78.53991
# Shear Modulus (GPa) = 25.06021 27.43164 26.24593
#
# Velocity S-wave (km/s) = 3.66007 3.82933 3.74566
# Velocity P-wave (km/s) = 7.55155 8.02219 7.79043
#
# Compressibility (1/GPa) = 0.01364909
#
# Stress axis : x y z
#
# Youngs Moduli (GPa) = 38.63415 68.31583 93.02137
#
# Poissons Ratio (x) = 0.58901 0.68147
# Poissons Ratio (y) = 0.33310 0.26638
# Poissons Ratio (z) = 0.28303 0.19564
#
# Static dielectric constant tensor:
#      x y z
#    x 3.453060 0.000000 0.000000 
#    y 0.000000 3.608290 0.000000 
#    z 0.000000 0.000000 3.585910 
# 
# 
# High freq. dielectric constant tensor:
#      x y z
#    x 1.728190 0.000000 0.000000 
#    y 0.000000 1.734850 0.000000 
#    z 0.000000 0.000000 1.735430 
# 
# From -- ./inp_files/6714.got.cif
#   From: 2010.03.12/outbox.cif.g09.slc.cpg/sg36_4_cif.got.tgz:6714.got - 2010.04.14 02:13:53.
