data_PCOD8175849
_publ_section_title
;
Structure prediction by ZEFSAII (Michael W. Deem and Ramdas Pophale) SiO2 
 PCOD8175849
Probable space group: C M C 21
;
_chemical_formula_sum "Si O2"
_cell_formula_units_Z 64
_cell_length_a 8.492091
_cell_length_b 23.803876
_cell_length_c 15.386473
_cell_angle_alpha 90.000000
_cell_angle_beta 90.000000
_cell_angle_gamma 90.000000
_cell_volume 3110.293679
_symmetry_space_group_name_H-M "C M C 21"
_symmetry_group_IT_number 36
_symmetry_cell_setting 'orthorhombic'
loop_
_space_group_symop_operation_xyz
x,y,z
-x,-y,1/2+z
x,-y,1/2+z
-x,y,z
1/2+x,1/2+y,z
1/2-x,1/2-y,1/2+z
1/2+x,1/2-y,1/2+z
1/2-x,1/2+y,z
loop_
_atom_site_type_symbol
_atom_site_label
_atom_site_fract_x
_atom_site_fract_y
_atom_site_fract_z
Si Si1 0.682261 0.384904 0.434400
Si Si2 0.184499 0.699244 0.600953
Si Si3 0.816349 0.497251 0.503745
Si Si4 0.318616 0.114573 0.754183
Si Si5 0.315824 0.893619 0.759449
Si Si6 0.315765 0.881397 0.951753
Si Si7 0.683211 0.820890 0.595926
Si Si8 0.181025 0.998590 0.188970
O O1 0.500000 0.379032 0.412732
O O2 0.722116 0.449436 0.453380
O O3 0.779050 0.363520 0.350619
O O4 0.721726 0.345314 0.515226
O O5 0.220694 0.663971 0.687205
O O6 0.251850 0.665320 0.517361
O O7 0.283664 0.755621 0.607514
O O8 0.000000 0.713322 0.591632
O O9 0.746306 0.557056 0.473179
O O10 0.792653 0.491414 0.606496
O O11 0.000000 0.490050 0.481600
O O12 0.500000 0.096733 0.746457
O O13 0.212528 0.060658 0.734134
O O14 0.500000 0.907516 0.753382
O O15 0.276905 0.864702 0.852427
O O16 0.260086 0.851796 0.683741
O O17 0.220569 0.951805 0.756231
O O18 0.500000 0.885317 0.970717
O O19 0.500000 0.831796 0.579429
O O20 0.000000 0.001801 0.159959
#
# Coordination Sequence:
#
# PCOD8175849 Si02
#       8
#     8   8   8   8   8   8   8   8
#     4  12  25  41  63  94 128 163 207 262 315 367
#     4  10  22  42  65  89 121 161 209 262 311 361
#     4  11  20  37  64  92 125 164 205 250 311 381
#     4  11  23  42  66  92 126 168 209 253 313 380
#     4  10  21  39  64  89 121 162 207 251 304 377
#     4   9  19  38  64  92 117 156 204 250 305 366
#     4  11  24  41  62  90 124 167 212 255 312 372
#     4  12  23  36  60  94 130 163 203 255 311 368
#
# _framework density 20.576834999999999
#
# number of rings (size 3 to 8) (size 9 to 14) (size 15 to 20)
#    0.000    1.250    2.500    4.125    0.000    3.500 
#    0.000    2.500    0.000    0.000    0.000    0.000 
#    0.000    0.000    0.000    0.000    0.000    0.000 
#
# Total GULP energy -396971.733097 kJ/mol
# GULP energy per Si atom -12405.366659 kJ/mol
# Density = 2.053000 g / cm^3
# Si number density = 20.576835 Si / 1000 Ang^3
#
#
#
# Elastic Constant Matrix: (Units=GPa)
#
#
# Indices 1 2 3 4 5 6 
#
# 1 52.3550 26.1671 20.3730 0.0000 0.0000 0.0000
# 2 26.1671 113.6421 36.7201 0.0000 0.0000 0.0000
# 3 20.3730 36.7201 132.3072 0.0000 0.0000 0.0000
# 4 0.0000 0.0000 0.0000 13.3459 0.0000 0.0000
# 5 0.0000 0.0000 0.0000 0.0000 21.5293 0.0000
# 6 0.0000 0.0000 0.0000 0.0000 0.0000 30.9829
#
#
#
# Elastic Compliance Matrix: (Units=1/GPa)
#
#
# Indices 1 2 3 4 5 6 
#
# 1 0.022148 -0.004392 -0.002192 0.000000 0.000000 0.000000
# 2 -0.004392 0.010537 -0.002248 0.000000 0.000000 0.000000
# 3 -0.002192 -0.002248 0.008520 0.000000 0.000000 0.000000
# 4 0.000000 0.000000 0.000000 0.074929 0.000000 0.000000
# 5 0.000000 0.000000 0.000000 0.000000 0.046448 0.000000
# 6 0.000000 0.000000 0.000000 0.000000 0.000000 0.032276
#
#
# Mechanical properties :
#
#
# Convention : Reuss Voigt Hill
#
# Bulk Modulus (GPa) = 42.47721 51.64719 47.06220
# Shear Modulus (GPa) = 22.68923 27.50789 25.09856
#
# Velocity S-wave (km/s) = 3.32423 3.66025 3.49628
# Velocity P-wave (km/s) = 5.95164 6.55876 6.26256
#
# Compressibility (1/GPa) = 0.02354204
#
# Stress axis : x y z
#
# Youngs Moduli (GPa) = 45.15048 94.90161 117.37643
#
# Poissons Ratio (x) = 0.41678 0.25724
# Poissons Ratio (y) = 0.19829 0.26389
# Poissons Ratio (z) = 0.09895 0.21336
#
# Static dielectric constant tensor:
#      x y z
#    x 3.496320 0.000000 0.000000 
#    y 0.000000 3.669520 0.000000 
#    z 0.000000 0.000000 3.964720 
# 
# 
# High freq. dielectric constant tensor:
#      x y z
#    x 1.790540 0.000000 0.000000 
#    y 0.000000 1.799610 0.000000 
#    z 0.000000 0.000000 1.820110 
# 
# From -- ./inp_files/11049.got.cif
#   From: 2010.03.12/outbox.cif.g09.slc.cpg/sg36_6_cif.got.tgz:11049.got - 2010.04.14 02:13:53.
