data_PCOD8175649
_publ_section_title
;
Structure prediction by ZEFSAII (Michael W. Deem and Ramdas Pophale) SiO2 
 PCOD8175649
Probable space group: C M C 21
;
_chemical_formula_sum "Si O2"
_cell_formula_units_Z 64
_cell_length_a 8.661069
_cell_length_b 22.436095
_cell_length_c 16.511221
_cell_angle_alpha 90.000000
_cell_angle_beta 90.000000
_cell_angle_gamma 90.000000
_cell_volume 3208.469825
_symmetry_space_group_name_H-M "C M C 21"
_symmetry_group_IT_number 36
_symmetry_cell_setting 'orthorhombic'
loop_
_space_group_symop_operation_xyz
x,y,z
-x,-y,1/2+z
x,-y,1/2+z
-x,y,z
1/2+x,1/2+y,z
1/2-x,1/2-y,1/2+z
1/2+x,1/2-y,1/2+z
1/2-x,1/2+y,z
loop_
_atom_site_type_symbol
_atom_site_label
_atom_site_fract_x
_atom_site_fract_y
_atom_site_fract_z
Si Si1 0.679692 0.733691 0.554170
Si Si2 0.324598 0.537526 0.420006
Si Si3 0.323830 0.410379 0.361651
Si Si4 0.324406 0.108938 0.552802
Si Si5 0.674432 0.037833 0.708944
Si Si6 0.175730 0.586654 0.266353
Si Si7 0.818259 0.280310 0.726547
Si Si8 0.681002 0.785629 0.384380
O O1 0.500000 0.748305 0.554903
O O2 0.708495 0.663736 0.551273
O O3 0.750878 0.758184 0.639548
O O4 0.749838 0.761177 0.470389
O O5 0.500000 0.550774 0.447283
O O6 0.293126 0.466483 0.420769
O O7 0.198010 0.568248 0.475211
O O8 0.298431 0.567744 0.333513
O O9 0.500000 0.388393 0.366705
O O10 0.292053 0.433610 0.271888
O O11 0.213485 0.355943 0.384248
O O12 0.500000 0.132191 0.557103
O O13 0.278037 0.066054 0.625065
O O14 0.500000 0.055187 0.734980
O O15 0.687543 0.966014 0.699587
O O16 0.225160 0.649970 0.229770
O O17 0.000000 0.590401 0.300470
O O18 0.751551 0.245939 0.804779
O O19 0.000000 0.268985 0.728685
O O20 0.500000 0.773615 0.380509
#
# Coordination Sequence:
#
# PCOD8175649 Si02
#       8
#     8   8   8   8   8   8   8   8
#     4  10  23  40  57  81 114 151 190 232 280 337
#     4  10  21  36  55  80 110 143 179 223 276 331
#     4  10  21  37  57  81 109 143 183 225 274 332
#     4  11  22  35  55  82 110 142 182 227 274 325
#     4   9  19  35  56  83 112 142 179 225 274 327
#     4   9  18  35  58  82 109 142 182 225 272 327
#     4  10  21  38  60  84 113 151 190 230 279 333
#     4  11  23  38  58  83 113 150 189 233 283 332
#
# _framework density 19.947205
#
# number of rings (size 3 to 8) (size 9 to 14) (size 15 to 20)
#    0.000    2.000    0.000    3.000    0.000    9.500 
#    0.000    2.500    0.000    0.000    0.000    0.000 
#    0.000    0.000    0.000    0.000    0.000    0.000 
#
# Total GULP energy -396649.414603 kJ/mol
# GULP energy per Si atom -12395.294206 kJ/mol
# Density = 1.990180 g / cm^3
# Si number density = 19.947205 Si / 1000 Ang^3
#
#
#
# Elastic Constant Matrix: (Units=GPa)
#
#
# Indices 1 2 3 4 5 6 
#
# 1 29.6305 23.5239 19.3295 0.0000 0.0000 0.0000
# 2 23.5239 141.1151 66.7832 0.0000 0.0000 0.0000
# 3 19.3295 66.7832 129.5690 0.0000 0.0000 0.0000
# 4 0.0000 0.0000 0.0000 24.6012 0.0000 0.0000
# 5 0.0000 0.0000 0.0000 0.0000 24.4547 0.0000
# 6 0.0000 0.0000 0.0000 0.0000 0.0000 17.5373
#
#
#
# Elastic Compliance Matrix: (Units=1/GPa)
#
#
# Indices 1 2 3 4 5 6 
#
# 1 0.039963 -0.005079 -0.003344 0.000000 0.000000 0.000000
# 2 -0.005079 0.010018 -0.004406 0.000000 0.000000 0.000000
# 3 -0.003344 -0.004406 0.010488 0.000000 0.000000 0.000000
# 4 0.000000 0.000000 0.000000 0.040648 0.000000 0.000000
# 5 0.000000 0.000000 0.000000 0.000000 0.040892 0.000000
# 6 0.000000 0.000000 0.000000 0.000000 0.000000 0.057021
#
#
# Mechanical properties :
#
#
# Convention : Reuss Voigt Hill
#
# Bulk Modulus (GPa) = 28.72678 57.73196 43.22937
# Shear Modulus (GPa) = 21.16025 26.03050 23.59537
#
# Velocity S-wave (km/s) = 3.26055 3.61636 3.44305
# Velocity P-wave (km/s) = 5.34860 6.81488 6.12577
#
# Compressibility (1/GPa) = 0.03481072
#
# Stress axis : x y z
#
# Youngs Moduli (GPa) = 25.02323 99.81772 95.35025
#
# Poissons Ratio (x) = 0.50701 0.31883
# Poissons Ratio (y) = 0.12710 0.42011
# Poissons Ratio (z) = 0.08367 0.43979
#
# Static dielectric constant tensor:
#      x y z
#    x 3.467470 0.000000 0.000000 
#    y 0.000000 3.747370 0.000000 
#    z 0.000000 0.000000 3.739090 
# 
# 
# High freq. dielectric constant tensor:
#      x y z
#    x 1.769100 0.000000 0.000000 
#    y 0.000000 1.790530 0.000000 
#    z 0.000000 0.000000 1.774040 
# 
# From -- ./inp_files/11103.got.cif
#   From: 2010.03.12/outbox.cif.g09.slc.cpg/sg36_6_cif.got.tgz:11103.got - 2010.04.14 02:13:53.
