data_PCOD8175227
_publ_section_title
;
Structure prediction by ZEFSAII (Michael W. Deem and Ramdas Pophale) SiO2 
 PCOD8175227
Probable space group: C M C 21
;
_chemical_formula_sum "Si O2"
_cell_formula_units_Z 64
_cell_length_a 8.909388
_cell_length_b 25.054598
_cell_length_c 14.218035
_cell_angle_alpha 90.000000
_cell_angle_beta 90.000000
_cell_angle_gamma 90.000000
_cell_volume 3173.765907
_symmetry_space_group_name_H-M "C M C 21"
_symmetry_group_IT_number 36
_symmetry_cell_setting 'orthorhombic'
loop_
_space_group_symop_operation_xyz
x,y,z
-x,-y,1/2+z
x,-y,1/2+z
-x,y,z
1/2+x,1/2+y,z
1/2-x,1/2-y,1/2+z
1/2+x,1/2-y,1/2+z
1/2-x,1/2+y,z
loop_
_atom_site_type_symbol
_atom_site_label
_atom_site_fract_x
_atom_site_fract_y
_atom_site_fract_z
Si Si1 0.327012 0.617895 0.333260
Si Si2 0.323034 0.439743 0.656342
Si Si3 0.169243 0.547932 0.649214
Si Si4 0.328917 0.086027 0.965903
Si Si5 0.663141 0.970282 0.928693
Si Si6 0.178703 0.161844 0.666438
Si Si7 0.678318 0.292851 0.966670
Si Si8 0.823063 0.310162 0.355137
O O1 0.500000 0.631299 0.334009
O O2 0.272390 0.608477 0.226461
O O3 0.299528 0.562354 0.386332
O O4 0.248493 0.666012 0.390338
O O5 0.500000 0.449885 0.660162
O O6 0.245359 0.494668 0.692180
O O7 0.278327 0.418590 0.554905
O O8 0.167099 0.536913 0.539495
O O9 0.259551 0.601644 0.672145
O O10 0.000000 0.554058 0.689249
O O11 0.500000 0.094653 0.000890
O O12 0.274571 0.133922 0.900378
O O13 0.315174 0.032582 0.903469
O O14 0.500000 0.950709 0.890601
O O15 0.236955 0.191978 0.571370
O O16 0.239200 0.195861 0.755217
O O17 0.000000 0.159578 0.669299
O O18 0.500000 0.297221 0.968880
O O19 0.729210 0.234707 0.930434
O O20 0.000000 0.306290 0.335740
#
# Coordination Sequence:
#
# PCOD8175227 Si02
#       8
#     8   8   8   8   8   8   8   8
#     4  10  20  35  55  83 116 155 194 234 291 350
#     4  10  21  34  54  86 121 158 197 241 295 350
#     4  10  20  36  57  83 117 156 196 240 294 352
#     4   9  20  38  56  80 115 154 195 237 290 351
#     4   9  18  32  52  80 111 146 189 238 285 338
#     4  11  22  38  61  89 117 151 196 247 296 350
#     4   9  20  40  62  83 116 157 195 238 292 350
#     4  10  22  41  63  86 115 157 200 243 297 351
#
# _framework density 20.165317999999999
#
# number of rings (size 3 to 8) (size 9 to 14) (size 15 to 20)
#    0.000    2.250    1.250    1.875    1.750    4.500 
#    0.000    1.875    0.000    0.000    0.000    0.000 
#    0.000    0.000    0.000    0.000    0.000    0.000 
#
# Total GULP energy -396621.386824 kJ/mol
# GULP energy per Si atom -12394.418338 kJ/mol
# Density = 2.011942 g / cm^3
# Si number density = 20.165318 Si / 1000 Ang^3
#
#
#
# Elastic Constant Matrix: (Units=GPa)
#
#
# Indices 1 2 3 4 5 6 
#
# 1 46.5401 18.4586 21.5429 0.0000 0.0000 0.0000
# 2 18.4586 104.6265 48.1029 0.0000 0.0000 0.0000
# 3 21.5429 48.1029 76.0969 0.0000 0.0000 0.0000
# 4 0.0000 0.0000 0.0000 30.5740 0.0000 0.0000
# 5 0.0000 0.0000 0.0000 0.0000 29.2773 0.0000
# 6 0.0000 0.0000 0.0000 0.0000 0.0000 18.9776
#
#
#
# Elastic Compliance Matrix: (Units=1/GPa)
#
#
# Indices 1 2 3 4 5 6 
#
# 1 0.024922 -0.001625 -0.006028 0.000000 0.000000 0.000000
# 2 -0.001625 0.013580 -0.008124 0.000000 0.000000 0.000000
# 3 -0.006028 -0.008124 0.019983 0.000000 0.000000 0.000000
# 4 0.000000 0.000000 0.000000 0.032708 0.000000 0.000000
# 5 0.000000 0.000000 0.000000 0.000000 0.034156 0.000000
# 6 0.000000 0.000000 0.000000 0.000000 0.000000 0.052694
#
#
# Mechanical properties :
#
#
# Convention : Reuss Voigt Hill
#
# Bulk Modulus (GPa) = 37.13332 44.83027 40.98179
# Shear Modulus (GPa) = 22.87570 25.04305 23.95937
#
# Velocity S-wave (km/s) = 3.37175 3.52786 3.45069
# Velocity P-wave (km/s) = 5.79765 6.23491 6.02025
#
# Compressibility (1/GPa) = 0.02692999
#
# Stress axis : x y z
#
# Youngs Moduli (GPa) = 40.12561 73.63995 50.04276
#
# Poissons Ratio (x) = 0.11970 0.30165
# Poissons Ratio (y) = 0.06522 0.40654
# Poissons Ratio (z) = 0.24187 0.59824
#
# Static dielectric constant tensor:
#      x y z
#    x 3.530800 0.000000 0.000000 
#    y 0.000000 3.858810 0.000000 
#    z 0.000000 0.000000 3.781650 
# 
# 
# High freq. dielectric constant tensor:
#      x y z
#    x 1.766770 0.000000 0.000000 
#    y 0.000000 1.783700 0.000000 
#    z 0.000000 0.000000 1.793900 
# 
# From -- ./inp_files/10934.got.cif
#   From: 2010.03.12/outbox.cif.g09.slc.cpg/sg36_6_cif.got.tgz:10934.got - 2010.04.14 02:13:53.
