data_PCOD8175192
_publ_section_title
;
Structure prediction by ZEFSAII (Michael W. Deem and Ramdas Pophale) SiO2 
 PCOD8175192
Probable space group: C M C 21
;
_chemical_formula_sum "Si O2"
_cell_formula_units_Z 56
_cell_length_a 16.476911
_cell_length_b 32.307707
_cell_length_c 4.941848
_cell_angle_alpha 90.000000
_cell_angle_beta 90.000000
_cell_angle_gamma 90.000000
_cell_volume 2630.699940
_symmetry_space_group_name_H-M "C M C 21"
_symmetry_group_IT_number 36
_symmetry_cell_setting 'orthorhombic'
loop_
_space_group_symop_operation_xyz
x,y,z
-x,-y,1/2+z
x,-y,1/2+z
-x,y,z
1/2+x,1/2+y,z
1/2-x,1/2-y,1/2+z
1/2+x,1/2-y,1/2+z
1/2-x,1/2+y,z
loop_
_atom_site_type_symbol
_atom_site_label
_atom_site_fract_x
_atom_site_fract_y
_atom_site_fract_z
Si Si1 0.265860 0.472649 0.517220
Si Si2 0.907744 0.361256 0.860981
Si Si3 0.841308 0.220762 0.439056
Si Si4 0.317532 0.108498 0.844762
Si Si5 0.591460 0.584196 0.099684
Si Si6 0.353725 0.368517 0.116680
Si Si7 0.848880 0.726677 0.436170
O O1 0.253439 0.511729 0.321821
O O2 0.199637 0.437788 0.447790
O O3 0.356905 0.454438 0.484837
O O4 0.851305 0.365262 0.597048
O O5 0.900237 0.314891 0.981133
O O6 0.000000 0.371149 0.780318
O O7 0.881654 0.392898 0.098922
O O8 0.880328 0.176334 0.506561
O O9 0.872463 0.255044 0.647206
O O10 0.745123 0.215010 0.457302
O O11 0.871054 0.237380 0.150176
O O12 0.237580 0.131287 0.732106
O O13 0.500000 0.570397 0.170727
O O14 0.637474 0.599744 0.367970
O O15 0.587987 0.619040 0.865341
#
# Coordination Sequence:
#
# PCOD8175192 Si02
#       7
#     8   8   8   8   8   8   8
#     4  11  23  41  68  97 121 158 201 254 310 368
#     4  12  24  41  64  93 130 167 210 270 330 374
#     4  10  20  34  58  86 119 160 214 265 309 352
#     4  11  23  41  67  93 124 162 215 261 308 384
#     4  11  24  40  61  95 133 168 208 253 311 378
#     4  11  21  39  65  89 123 175 222 261 300 363
#     4  10  21  34  56  89 119 158 208 272 314 363
#
# _framework density 21.287109000000001
#
# number of rings (size 3 to 8) (size 9 to 14) (size 15 to 20)
#    0.000    1.143    1.429    6.857    4.000    0.571 
#    0.000    4.286    0.000    8.571    0.000    0.000 
#    0.000    0.000    0.000    0.000    0.000    0.000 
#
# Total GULP energy -347292.899584 kJ/mol
# GULP energy per Si atom -12403.317842 kJ/mol
# Density = 2.123866 g / cm^3
# Si number density = 21.287109 Si / 1000 Ang^3
#
#
#
# Elastic Constant Matrix: (Units=GPa)
#
#
# Indices 1 2 3 4 5 6 
#
# 1 86.4532 36.4404 33.7818 0.0000 0.0000 0.0000
# 2 36.4404 88.1524 24.0452 0.0000 0.0000 0.0000
# 3 33.7818 24.0452 121.7109 0.0000 0.0000 0.0000
# 4 0.0000 0.0000 0.0000 39.1244 0.0000 0.0000
# 5 0.0000 0.0000 0.0000 0.0000 21.1652 0.0000
# 6 0.0000 0.0000 0.0000 0.0000 0.0000 16.2519
#
#
#
# Elastic Compliance Matrix: (Units=1/GPa)
#
#
# Indices 1 2 3 4 5 6 
#
# 1 0.015048 -0.005371 -0.003116 0.000000 0.000000 0.000000
# 2 -0.005371 0.013907 -0.001257 0.000000 0.000000 0.000000
# 3 -0.003116 -0.001257 0.009329 0.000000 0.000000 0.000000
# 4 0.000000 0.000000 0.000000 0.025559 0.000000 0.000000
# 5 0.000000 0.000000 0.000000 0.000000 0.047247 0.000000
# 6 0.000000 0.000000 0.000000 0.000000 0.000000 0.061531
#
#
# Mechanical properties :
#
#
# Convention : Reuss Voigt Hill
#
# Bulk Modulus (GPa) = 53.19716 53.87235 53.53476
# Shear Modulus (GPa) = 25.20478 28.77824 26.99151
#
# Velocity S-wave (km/s) = 3.44472 3.68082 3.56473
# Velocity P-wave (km/s) = 6.39265 6.58992 6.49204
#
# Compressibility (1/GPa) = 0.01879800
#
# Stress axis : x y z
#
# Youngs Moduli (GPa) = 66.45301 71.90648 107.18953
#
# Poissons Ratio (x) = 0.38619 0.33397
# Poissons Ratio (y) = 0.35690 0.13471
# Poissons Ratio (z) = 0.20705 0.09037
#
# Static dielectric constant tensor:
#      x y z
#    x 3.561650 0.000000 0.000000 
#    y 0.000000 3.715830 0.000000 
#    z 0.000000 0.000000 4.041230 
# 
# 
# High freq. dielectric constant tensor:
#      x y z
#    x 1.802770 0.000000 0.000000 
#    y 0.000000 1.828400 0.000000 
#    z 0.000000 0.000000 1.857370 
# 
# From -- ./inp_files/946.got.cif
#   From: 2010.03.12/outbox.cif.g09.slc.cpg/sg36_1_cif.got.tgz:946.got - 2010.04.14 02:13:53.
