data_PCOD8175367
_publ_section_title
;
Structure prediction by ZEFSAII (Michael W. Deem and Ramdas Pophale) SiO2 
 PCOD8175367
Probable space group: C M C 21
;
_chemical_formula_sum "Si O2"
_cell_formula_units_Z 48
_cell_length_a 8.568491
_cell_length_b 15.093413
_cell_length_c 18.804859
_cell_angle_alpha 90.000000
_cell_angle_beta 90.000000
_cell_angle_gamma 90.000000
_cell_volume 2431.990545
_symmetry_space_group_name_H-M "C M C 21"
_symmetry_group_IT_number 36
_symmetry_cell_setting 'orthorhombic'
loop_
_space_group_symop_operation_xyz
x,y,z
-x,-y,1/2+z
x,-y,1/2+z
-x,y,z
1/2+x,1/2+y,z
1/2-x,1/2-y,1/2+z
1/2+x,1/2-y,1/2+z
1/2-x,1/2+y,z
loop_
_atom_site_type_symbol
_atom_site_label
_atom_site_fract_x
_atom_site_fract_y
_atom_site_fract_z
Si Si1 0.816073 0.406032 0.790070
Si Si2 0.183482 0.602701 0.783929
Si Si3 0.683439 0.741833 0.381597
Si Si4 0.318993 0.250974 0.045514
Si Si5 0.818228 0.099971 0.139835
Si Si6 0.317102 0.910825 0.123325
O O1 0.755866 0.505554 0.806541
O O2 0.769946 0.347122 0.857247
O O3 0.733873 0.370493 0.718628
O O4 0.000000 0.405060 0.776371
O O5 0.255431 0.677200 0.835407
O O6 0.230359 0.621307 0.702393
O O7 0.000000 0.605257 0.793176
O O8 0.500000 0.729403 0.368893
O O9 0.722800 0.760222 0.463055
O O10 0.500000 0.232001 0.060253
O O11 0.214756 0.181320 0.087823
O O12 0.277682 0.350997 0.068082
O O13 0.000000 0.078020 0.139610
O O14 0.725932 0.013576 0.112726
O O15 0.500000 0.899342 0.109401
#
# Coordination Sequence:
#
# PCOD8175367 Si02
#       6
#     8   8   8   8   8   8
#     4  10  20  36  59  85 111 143 189 238 285 340
#     4   8  17  35  57  79 104 140 183 227 277 330
#     4  10  21  37  56  81 115 151 186 229 283 341
#     4  11  23  37  55  84 120 155 192 234 283 340
#     4  11  22  38  60  84 113 150 193 239 288 340
#     4  10  20  37  61  85 111 147 193 241 288 339
#
# _framework density 19.736919
#
# number of rings (size 3 to 8) (size 9 to 14) (size 15 to 20)
#    0.000    2.000    0.000    5.000    0.000    4.000 
#    0.000    5.833    0.000    0.000    0.000    0.000 
#    0.000    0.000    0.000    0.000    0.000    0.000 
#
# Total GULP energy -297680.251065 kJ/mol
# GULP energy per Si atom -12403.343794 kJ/mol
# Density = 1.969200 g / cm^3
# Si number density = 19.736919 Si / 1000 Ang^3
#
#
#
# Elastic Constant Matrix: (Units=GPa)
#
#
# Indices 1 2 3 4 5 6 
#
# 1 56.6154 20.8411 33.9803 0.0000 0.0000 0.0000
# 2 20.8411 87.2684 38.6319 0.0000 0.0000 0.0000
# 3 33.9803 38.6319 72.7021 0.0000 0.0000 0.0000
# 4 0.0000 0.0000 0.0000 20.2307 0.0000 0.0000
# 5 0.0000 0.0000 0.0000 0.0000 27.2410 0.0000
# 6 0.0000 0.0000 0.0000 0.0000 0.0000 32.6264
#
#
#
# Elastic Compliance Matrix: (Units=1/GPa)
#
#
# Indices 1 2 3 4 5 6 
#
# 1 0.024620 -0.001027 -0.010961 0.000000 0.000000 0.000000
# 2 -0.001027 0.015026 -0.007504 0.000000 0.000000 0.000000
# 3 -0.010961 -0.007504 0.022866 0.000000 0.000000 0.000000
# 4 0.000000 0.000000 0.000000 0.049430 0.000000 0.000000
# 5 0.000000 0.000000 0.000000 0.000000 0.036709 0.000000
# 6 0.000000 0.000000 0.000000 0.000000 0.000000 0.030650
#
#
# Mechanical properties :
#
#
# Convention : Reuss Voigt Hill
#
# Bulk Modulus (GPa) = 42.50625 44.83249 43.66937
# Shear Modulus (GPa) = 22.11122 24.22844 23.16983
#
# Velocity S-wave (km/s) = 3.35072 3.50747 3.42999
# Velocity P-wave (km/s) = 6.04590 6.25839 6.15306
#
# Compressibility (1/GPa) = 0.02352595
#
# Stress axis : x y z
#
# Youngs Moduli (GPa) = 40.61711 66.55005 43.73375
#
# Poissons Ratio (x) = 0.06837 0.47938
# Poissons Ratio (y) = 0.04173 0.32820
# Poissons Ratio (z) = 0.44522 0.49942
#
# Static dielectric constant tensor:
#      x y z
#    x 3.421890 0.000000 0.000000 
#    y 0.000000 3.781230 0.000000 
#    z 0.000000 0.000000 3.586030 
# 
# 
# High freq. dielectric constant tensor:
#      x y z
#    x 1.760410 0.000000 0.000000 
#    y 0.000000 1.781090 0.000000 
#    z 0.000000 0.000000 1.762160 
# 
# From -- ./inp_files/13485.got.cif
#   From: 2010.03.12/outbox.cif.g09.slc.cpg/sg36_7_cif.got.tgz:13485.got - 2010.04.14 02:13:53.
