data_PCOD8175361
_publ_section_title
;
Structure prediction by ZEFSAII (Michael W. Deem and Ramdas Pophale) SiO2 
 PCOD8175361
Probable space group: C M C 21
;
_chemical_formula_sum "Si O2"
_cell_formula_units_Z 64
_cell_length_a 22.535794
_cell_length_b 13.611416
_cell_length_c 8.884469
_cell_angle_alpha 90.000000
_cell_angle_beta 90.000000
_cell_angle_gamma 90.000000
_cell_volume 2725.258154
_symmetry_space_group_name_H-M "C M C 21"
_symmetry_group_IT_number 36
_symmetry_cell_setting 'orthorhombic'
loop_
_space_group_symop_operation_xyz
x,y,z
-x,-y,1/2+z
x,-y,1/2+z
-x,y,z
1/2+x,1/2+y,z
1/2-x,1/2-y,1/2+z
1/2+x,1/2-y,1/2+z
1/2-x,1/2+y,z
loop_
_atom_site_type_symbol
_atom_site_label
_atom_site_fract_x
_atom_site_fract_y
_atom_site_fract_z
Si Si1 0.234387 0.227607 0.405180
Si Si2 0.933805 0.790082 0.812487
Si Si3 0.239201 0.003985 0.403846
Si Si4 0.668578 0.789717 0.124040
Si Si5 0.370784 0.606142 0.775108
Si Si6 0.324041 0.992239 0.654390
Si Si7 0.566659 0.482559 0.995707
Si Si8 0.628556 0.793837 0.589670
O O1 0.212396 0.114007 0.401772
O O2 0.303268 0.240452 0.460975
O O3 0.222896 0.278010 0.244111
O O4 0.194493 0.280367 0.528181
O O5 0.888042 0.774502 0.674153
O O6 0.929656 0.902563 0.862621
O O7 0.000000 0.764030 0.756756
O O8 0.919227 0.722926 0.957705
O O9 0.304039 0.005087 0.326833
O O10 0.195120 0.924336 0.330167
O O11 0.260149 0.972596 0.570856
O O12 0.647690 0.902649 0.112331
O O13 0.387168 0.542006 0.627369
O O14 0.414874 0.584123 0.914730
O O15 0.379708 0.720497 0.731565
O O16 0.374136 0.907798 0.638968
O O17 0.500000 0.490826 0.061876
#
# Coordination Sequence:
#
# PCOD8175361 Si02
#       8
#     8   8   8   8   8   8   8   8
#     4  10  20  36  58  87 118 151 197 246 302 358
#     4   9  19  39  65  88 115 156 202 246 299 360
#     4  11  21  35  57  86 117 153 192 243 300 359
#     4  10  20  37  61  90 121 156 196 247 302 358
#     4  11  20  37  60  85 117 156 199 237 293 365
#     4  11  23  37  55  84 124 156 194 244 297 348
#     4  10  21  37  60  89 118 150 194 248 298 348
#     4  10  21  36  56  85 120 158 198 241 291 354
#
# _framework density 23.484014999999999
#
# number of rings (size 3 to 8) (size 9 to 14) (size 15 to 20)
#    0.000    1.750    0.000    7.125    0.000    1.500 
#    0.000   10.625    0.000    0.000    0.000   11.375 
#    0.000    1.000    0.000    0.000    0.000    0.000 
#
# Total GULP energy -396615.627735 kJ/mol
# GULP energy per Si atom -12394.238367 kJ/mol
# Density = 2.343056 g / cm^3
# Si number density = 23.484015 Si / 1000 Ang^3
#
#
#
# Elastic Constant Matrix: (Units=GPa)
#
#
# Indices 1 2 3 4 5 6 
#
# 1 86.5776 -4.1440 23.2827 0.0000 0.0000 0.0000
# 2 -4.1440 105.1198 26.4940 0.0000 0.0000 0.0000
# 3 23.2827 26.4940 45.6898 0.0000 0.0000 0.0000
# 4 0.0000 0.0000 0.0000 32.5310 0.0000 0.0000
# 5 0.0000 0.0000 0.0000 0.0000 30.2641 0.0000
# 6 0.0000 0.0000 0.0000 0.0000 0.0000 19.0999
#
#
#
# Elastic Compliance Matrix: (Units=1/GPa)
#
#
# Indices 1 2 3 4 5 6 
#
# 1 0.014036 0.002759 -0.008753 0.000000 0.000000 0.000000
# 2 0.002759 0.011684 -0.008181 0.000000 0.000000 0.000000
# 3 -0.008753 -0.008181 0.031091 0.000000 0.000000 0.000000
# 4 0.000000 0.000000 0.000000 0.030740 0.000000 0.000000
# 5 0.000000 0.000000 0.000000 0.000000 0.033042 0.000000
# 6 0.000000 0.000000 0.000000 0.000000 0.000000 0.052356
#
#
# Mechanical properties :
#
#
# Convention : Reuss Voigt Hill
#
# Bulk Modulus (GPa) = 35.13468 36.51697 35.82582
# Shear Modulus (GPa) = 23.72080 29.16263 26.44172
#
# Velocity S-wave (km/s) = 3.18163 3.52775 3.35915
# Velocity P-wave (km/s) = 5.33766 5.67246 5.50761
#
# Compressibility (1/GPa) = 0.02846191
#
# Stress axis : x y z
#
# Youngs Moduli (GPa) = 71.24437 85.58964 32.16381
#
# Poissons Ratio (x) = -0.23617 0.28152
# Poissons Ratio (y) = -0.19659 0.26313
# Poissons Ratio (z) = 0.62358 0.70021
#
# Static dielectric constant tensor:
#      x y z
#    x 3.854380 0.000000 0.000000 
#    y 0.000000 4.347480 0.000000 
#    z 0.000000 0.000000 4.315960 
# 
# 
# High freq. dielectric constant tensor:
#      x y z
#    x 1.884400 0.000000 0.000000 
#    y 0.000000 1.930560 0.000000 
#    z 0.000000 0.000000 1.939700 
# 
# From -- ./inp_files/5676.got.cif
#   From: 2010.03.12/outbox.cif.g09.slc.cpg/sg36_3_cif.got.tgz:5676.got - 2010.04.14 02:13:53.
