data_PCOD8175107
_publ_section_title
;
Structure prediction by ZEFSAII (Michael W. Deem and Ramdas Pophale) SiO2 
 PCOD8175107
Probable space group: C M C 21
;
_chemical_formula_sum "Si O2"
_cell_formula_units_Z 48
_cell_length_a 9.026788
_cell_length_b 30.825358
_cell_length_c 9.366622
_cell_angle_alpha 90.000000
_cell_angle_beta 90.000000
_cell_angle_gamma 90.000000
_cell_volume 2606.299773
_symmetry_space_group_name_H-M "C M C 21"
_symmetry_group_IT_number 36
_symmetry_cell_setting 'orthorhombic'
loop_
_space_group_symop_operation_xyz
x,y,z
-x,-y,1/2+z
x,-y,1/2+z
-x,y,z
1/2+x,1/2+y,z
1/2-x,1/2-y,1/2+z
1/2+x,1/2-y,1/2+z
1/2-x,1/2+y,z
loop_
_atom_site_type_symbol
_atom_site_label
_atom_site_fract_x
_atom_site_fract_y
_atom_site_fract_z
Si Si1 0.324215 0.132651 0.437360
Si Si2 0.826381 0.868956 0.232338
Si Si3 0.329369 0.957509 0.258055
Si Si4 0.827068 0.210863 0.931232
Si Si5 0.668461 0.962754 0.928512
Si Si6 0.674408 0.789529 0.735440
O O1 0.500000 0.131162 0.465592
O O2 0.249766 0.146707 0.585910
O O3 0.264287 0.084778 0.391878
O O4 0.279857 0.165852 0.313509
O O5 0.762946 0.914319 0.289509
O O6 0.790090 0.834103 0.353864
O O7 0.000000 0.873294 0.203716
O O8 0.500000 0.948520 0.301831
O O9 0.254654 0.997150 0.346591
O O10 0.316889 0.971652 0.095081
O O11 0.767789 0.249898 0.832189
O O12 0.000000 0.216685 0.959874
O O13 0.747473 0.212366 0.082009
O O14 0.500000 0.962580 0.875514
O O15 0.500000 0.786385 0.713365
#
# Coordination Sequence:
#
# PCOD8175107 Si02
#       6
#     8   8   8   8   8   8
#     4   9  18  34  55  78 101 128 170 216 253 296
#     4  10  20  34  51  73 104 139 171 204 250 304
#     4   9  17  31  50  71  97 130 168 209 252 295
#     4  10  22  37  52  76 108 136 165 206 254 301
#     4   8  15  28  48  72  96 124 160 207 256 292
#     4  10  21  36  56  80 102 131 172 210 247 300
#
# _framework density 18.416914999999999
#
# number of rings (size 3 to 8) (size 9 to 14) (size 15 to 20)
#    0.000    2.667    0.000    2.500    0.000    4.000 
#    0.000    6.667    0.000    0.000    0.000    0.000 
#    0.000    0.000    0.000    0.000    0.000    0.000 
#
# Total GULP energy -297558.442325 kJ/mol
# GULP energy per Si atom -12398.268430 kJ/mol
# Density = 1.837500 g / cm^3
# Si number density = 18.416915 Si / 1000 Ang^3
#
#
#
# Elastic Constant Matrix: (Units=GPa)
#
#
# Indices 1 2 3 4 5 6 
#
# 1 46.2828 46.6360 48.0645 0.0000 0.0000 0.0000
# 2 46.6360 149.7386 96.3441 0.0000 0.0000 0.0000
# 3 48.0645 96.3441 135.8375 0.0000 0.0000 0.0000
# 4 0.0000 0.0000 0.0000 37.0590 0.0000 0.0000
# 5 0.0000 0.0000 0.0000 0.0000 29.3255 0.0000
# 6 0.0000 0.0000 0.0000 0.0000 0.0000 25.0476
#
#
#
# Elastic Compliance Matrix: (Units=1/GPa)
#
#
# Indices 1 2 3 4 5 6 
#
# 1 0.036573 -0.005637 -0.008943 0.000000 0.000000 0.000000
# 2 -0.005637 0.013153 -0.007334 0.000000 0.000000 0.000000
# 3 -0.008943 -0.007334 0.015728 0.000000 0.000000 0.000000
# 4 0.000000 0.000000 0.000000 0.026984 0.000000 0.000000
# 5 0.000000 0.000000 0.000000 0.000000 0.034100 0.000000
# 6 0.000000 0.000000 0.000000 0.000000 0.000000 0.039924
#
#
# Mechanical properties :
#
#
# Convention : Reuss Voigt Hill
#
# Bulk Modulus (GPa) = 46.24047 79.32760 62.78403
# Shear Modulus (GPa) = 22.98853 27.67402 25.33127
#
# Velocity S-wave (km/s) = 3.53686 3.88060 3.71271
# Velocity P-wave (km/s) = 6.46849 7.95270 7.24868
#
# Compressibility (1/GPa) = 0.02162608
#
# Stress axis : x y z
#
# Youngs Moduli (GPa) = 27.34220 76.02919 63.57998
#
# Poissons Ratio (x) = 0.42854 0.56862
# Poissons Ratio (y) = 0.15411 0.46632
# Poissons Ratio (z) = 0.24453 0.55763
#
# Static dielectric constant tensor:
#      x y z
#    x 3.164380 0.000000 0.000000 
#    y 0.000000 3.750290 0.000000 
#    z 0.000000 0.000000 3.295350 
# 
# 
# High freq. dielectric constant tensor:
#      x y z
#    x 1.686410 0.000000 0.000000 
#    y 0.000000 1.733900 0.000000 
#    z 0.000000 0.000000 1.711890 
# 
# From -- ./inp_files/2655.got.cif
#   From: 2010.03.12/outbox.cif.g09.slc.cpg/sg36_2_cif.got.tgz:2655.got - 2010.04.14 02:13:53.
