data_PCOD8175036
_publ_section_title
;
Structure prediction by ZEFSAII (Michael W. Deem and Ramdas Pophale) SiO2 
 PCOD8175036
Probable space group: C M C 21
;
_chemical_formula_sum "Si O2"
_cell_formula_units_Z 64
_cell_length_a 9.277995
_cell_length_b 22.652303
_cell_length_c 17.550976
_cell_angle_alpha 90.000000
_cell_angle_beta 90.000000
_cell_angle_gamma 90.000000
_cell_volume 3688.652716
_symmetry_space_group_name_H-M "C M C 21"
_symmetry_group_IT_number 36
_symmetry_cell_setting 'orthorhombic'
loop_
_space_group_symop_operation_xyz
x,y,z
-x,-y,1/2+z
x,-y,1/2+z
-x,y,z
1/2+x,1/2+y,z
1/2-x,1/2-y,1/2+z
1/2+x,1/2-y,1/2+z
1/2-x,1/2+y,z
loop_
_atom_site_type_symbol
_atom_site_label
_atom_site_fract_x
_atom_site_fract_y
_atom_site_fract_z
Si Si1 0.158965 0.173626 0.340530
Si Si2 0.831588 0.435743 0.379050
Si Si3 0.668119 0.123476 0.719036
Si Si4 0.338953 0.667971 0.944783
Si Si5 0.339007 0.271667 0.281365
Si Si6 0.668590 0.612248 0.573750
Si Si7 0.331345 0.446429 0.915573
Si Si8 0.840756 0.766669 0.003110
O O1 0.269860 0.206026 0.283564
O O2 0.210974 0.107517 0.359763
O O3 0.147959 0.210845 0.417291
O O4 0.000000 0.171962 0.302668
O O5 0.802172 0.417010 0.292192
O O6 0.754423 0.391339 0.437620
O O7 0.767197 0.500058 0.390079
O O8 0.000000 0.435618 0.398214
O O9 0.500000 0.133730 0.705624
O O10 0.743147 0.187136 0.727455
O O11 0.738430 0.090832 0.646152
O O12 0.500000 0.651502 0.972086
O O13 0.344539 0.701240 0.864996
O O14 0.267159 0.710998 0.007856
O O15 0.500000 0.266758 0.247238
O O16 0.500000 0.608883 0.593298
O O17 0.704813 0.570079 0.502750
O O18 0.714894 0.679673 0.555351
O O19 0.500000 0.462008 0.907213
O O20 0.000000 0.746095 0.029521
#
# Coordination Sequence:
#
# PCOD8175036 Si02
#       8
#     8   8   8   8   8   8   8   8
#     4   8  14  26  44  66  92 118 144 181 230 280
#     4  10  20  32  47  69  97 130 168 207 244 284
#     4  10  20  32  47  69  97 128 161 199 245 294
#     4   9  16  26  43  67  92 118 150 188 229 274
#     4   9  16  26  43  67  92 118 149 186 229 276
#     4   9  18  32  50  72  97 125 157 196 245 297
#     4   9  18  32  50  72  97 127 164 204 245 291
#     4   8  14  26  44  66  92 118 143 177 227 282
#
# _framework density 17.350507
#
# number of rings (size 3 to 8) (size 9 to 14) (size 15 to 20)
#    0.000    3.000    0.000    3.000    0.000    6.000 
#    0.000    2.500    0.000    1.500    0.000    7.000 
#    0.000    0.000    0.000    0.000    0.000    0.000 
#
# Total GULP energy -396677.394370 kJ/mol
# GULP energy per Si atom -12396.168574 kJ/mol
# Density = 1.731102 g / cm^3
# Si number density = 17.350507 Si / 1000 Ang^3
#
#
#
# Elastic Constant Matrix: (Units=GPa)
#
#
# Indices 1 2 3 4 5 6 
#
# 1 126.0446 73.3713 41.2444 0.0000 0.0000 0.0000
# 2 73.3713 115.9273 29.1108 0.0000 0.0000 0.0000
# 3 41.2444 29.1108 49.3892 0.0000 0.0000 0.0000
# 4 0.0000 0.0000 0.0000 13.3366 0.0000 0.0000
# 5 0.0000 0.0000 0.0000 0.0000 23.3521 0.0000
# 6 0.0000 0.0000 0.0000 0.0000 0.0000 33.5998
#
#
#
# Elastic Compliance Matrix: (Units=1/GPa)
#
#
# Indices 1 2 3 4 5 6 
#
# 1 0.014874 -0.007388 -0.008066 0.000000 0.000000 0.000000
# 2 -0.007388 0.013795 -0.001961 0.000000 0.000000 0.000000
# 3 -0.008066 -0.001961 0.028139 0.000000 0.000000 0.000000
# 4 0.000000 0.000000 0.000000 0.074982 0.000000 0.000000
# 5 0.000000 0.000000 0.000000 0.000000 0.042823 0.000000
# 6 0.000000 0.000000 0.000000 0.000000 0.000000 0.029762
#
#
# Mechanical properties :
#
#
# Convention : Reuss Voigt Hill
#
# Bulk Modulus (GPa) = 45.50253 64.31267 54.90760
# Shear Modulus (GPa) = 20.28146 23.90002 22.09074
#
# Velocity S-wave (km/s) = 3.42267 3.71547 3.57207
# Velocity P-wave (km/s) = 6.47317 7.45342 6.98052
#
# Compressibility (1/GPa) = 0.02197680
#
# Stress axis : x y z
#
# Youngs Moduli (GPa) = 67.23183 72.49222 35.53767
#
# Poissons Ratio (x) = 0.53559 0.28666
# Poissons Ratio (y) = 0.49673 0.06968
# Poissons Ratio (z) = 0.54231 0.14215
#
# Static dielectric constant tensor:
#      x y z
#    x 3.460110 0.000000 0.000000 
#    y 0.000000 3.151170 0.000000 
#    z 0.000000 0.000000 2.952150 
# 
# 
# High freq. dielectric constant tensor:
#      x y z
#    x 1.678680 0.000000 0.000000 
#    y 0.000000 1.655480 0.000000 
#    z 0.000000 0.000000 1.631700 
# 
# From -- ./inp_files/13786.got.cif
#   From: 2010.03.12/outbox.cif.g09.slc.cpg/sg36_7_cif.got.tgz:13786.got - 2010.04.14 02:13:53.
