data_PCOD8175176
_publ_section_title
;
Structure prediction by ZEFSAII (Michael W. Deem and Ramdas Pophale) SiO2 
 PCOD8175176
Probable space group: C M C 21
;
_chemical_formula_sum "Si O2"
_cell_formula_units_Z 48
_cell_length_a 8.720404
_cell_length_b 30.462445
_cell_length_c 9.202669
_cell_angle_alpha 90.000000
_cell_angle_beta 90.000000
_cell_angle_gamma 90.000000
_cell_volume 2444.641417
_symmetry_space_group_name_H-M "C M C 21"
_symmetry_group_IT_number 36
_symmetry_cell_setting 'orthorhombic'
loop_
_space_group_symop_operation_xyz
x,y,z
-x,-y,1/2+z
x,-y,1/2+z
-x,y,z
1/2+x,1/2+y,z
1/2-x,1/2-y,1/2+z
1/2+x,1/2-y,1/2+z
1/2-x,1/2+y,z
loop_
_atom_site_type_symbol
_atom_site_label
_atom_site_fract_x
_atom_site_fract_y
_atom_site_fract_z
Si Si1 0.676307 0.619073 0.613400
Si Si2 0.820281 0.455061 0.940621
Si Si3 0.176931 0.216789 0.664516
Si Si4 0.821107 0.703909 0.967804
Si Si5 0.819593 0.113801 0.944372
Si Si6 0.181614 0.030296 0.128373
O O1 0.500000 0.603939 0.595330
O O2 0.781236 0.593516 0.498429
O O3 0.694947 0.670722 0.578998
O O4 0.734520 0.608672 0.777415
O O5 0.725670 0.464585 0.795564
O O6 0.000000 0.459037 0.908619
O O7 0.769216 0.488524 0.065556
O O8 0.239346 0.256506 0.567489
O O9 0.281868 0.216471 0.804732
O O10 0.000000 0.222842 0.711139
O O11 0.746476 0.657984 0.016224
O O12 0.000000 0.698458 0.985624
O O13 0.000000 0.118550 0.948884
O O14 0.762381 0.072622 0.037896
O O15 0.000000 0.023121 0.115238
#
# Coordination Sequence:
#
# PCOD8175176 Si02
#       6
#     8   8   8   8   8   8
#     4   9  18  37  60  80 109 150 192 229 273 337
#     4  12  25  39  58  88 119 144 181 238 290 325
#     4   9  20  37  55  79 112 149 188 228 272 330
#     4  10  20  34  56  84 112 145 185 231 281 327
#     4   9  20  38  60  83 109 145 188 231 274 329
#     4  11  23  41  63  84 111 153 194 223 270 344
#
# _framework density 19.634782000000001
#
# number of rings (size 3 to 8) (size 9 to 14) (size 15 to 20)
#    0.000    2.000    0.000    4.500    0.000    8.000 
#    0.000    5.000    0.000    0.000    0.000    0.000 
#    0.000    0.000    0.000    0.000    0.000    0.000 
#
# Total GULP energy -297670.781895 kJ/mol
# GULP energy per Si atom -12402.949246 kJ/mol
# Density = 1.959009 g / cm^3
# Si number density = 19.634782 Si / 1000 Ang^3
#
#
#
# Elastic Constant Matrix: (Units=GPa)
#
#
# Indices 1 2 3 4 5 6 
#
# 1 42.3011 19.4532 5.5577 0.0000 0.0000 0.0000
# 2 19.4532 84.0250 15.5629 0.0000 0.0000 0.0000
# 3 5.5577 15.5629 48.6820 0.0000 0.0000 0.0000
# 4 0.0000 0.0000 0.0000 42.4665 0.0000 0.0000
# 5 0.0000 0.0000 0.0000 0.0000 27.7603 0.0000
# 6 0.0000 0.0000 0.0000 0.0000 0.0000 34.7676
#
#
#
# Elastic Compliance Matrix: (Units=1/GPa)
#
#
# Indices 1 2 3 4 5 6 
#
# 1 0.026515 -0.005929 -0.001132 0.000000 0.000000 0.000000
# 2 -0.005929 0.013976 -0.003791 0.000000 0.000000 0.000000
# 3 -0.001132 -0.003791 0.021883 0.000000 0.000000 0.000000
# 4 0.000000 0.000000 0.000000 0.023548 0.000000 0.000000
# 5 0.000000 0.000000 0.000000 0.000000 0.036023 0.000000
# 6 0.000000 0.000000 0.000000 0.000000 0.000000 0.028762
#
#
# Mechanical properties :
#
#
# Convention : Reuss Voigt Hill
#
# Bulk Modulus (GPa) = 24.58789 28.46173 26.52481
# Shear Modulus (GPa) = 26.88642 29.96118 28.42380
#
# Velocity S-wave (km/s) = 3.70446 3.91055 3.80889
# Velocity P-wave (km/s) = 5.55402 5.90905 5.73428
#
# Compressibility (1/GPa) = 0.04067043
#
# Stress axis : x y z
#
# Youngs Moduli (GPa) = 37.71399 71.55076 45.69841
#
# Poissons Ratio (x) = 0.42424 0.05171
# Poissons Ratio (y) = 0.22361 0.17325
# Poissons Ratio (z) = 0.04268 0.27125
#
# Static dielectric constant tensor:
#      x y z
#    x 3.463280 0.000000 0.000000 
#    y 0.000000 3.917350 0.000000 
#    z 0.000000 0.000000 3.546550 
# 
# 
# High freq. dielectric constant tensor:
#      x y z
#    x 1.759330 0.000000 0.000000 
#    y 0.000000 1.781360 0.000000 
#    z 0.000000 0.000000 1.757290 
# 
# From -- ./inp_files/2662.got.cif
#   From: 2010.03.12/outbox.cif.g09.slc.cpg/sg36_2_cif.got.tgz:2662.got - 2010.04.14 02:13:53.
