data_PCOD8175215
_publ_section_title
;
Structure prediction by ZEFSAII (Michael W. Deem and Ramdas Pophale) SiO2 
 PCOD8175215
Probable space group: C M C 21
;
_chemical_formula_sum "Si O2"
_cell_formula_units_Z 64
_cell_length_a 9.065574
_cell_length_b 22.760662
_cell_length_c 16.403200
_cell_angle_alpha 90.000000
_cell_angle_beta 90.000000
_cell_angle_gamma 90.000000
_cell_volume 3384.611120
_symmetry_space_group_name_H-M "C M C 21"
_symmetry_group_IT_number 36
_symmetry_cell_setting 'orthorhombic'
loop_
_space_group_symop_operation_xyz
x,y,z
-x,-y,1/2+z
x,-y,1/2+z
-x,y,z
1/2+x,1/2+y,z
1/2-x,1/2-y,1/2+z
1/2+x,1/2-y,1/2+z
1/2-x,1/2+y,z
loop_
_atom_site_type_symbol
_atom_site_label
_atom_site_fract_x
_atom_site_fract_y
_atom_site_fract_z
Si Si1 0.326580 0.962531 0.189760
Si Si2 0.824548 0.594680 0.236077
Si Si3 0.660584 0.550859 0.967751
Si Si4 0.829758 0.119185 0.810641
Si Si5 0.672879 0.138820 0.066112
Si Si6 0.824990 0.286526 0.415310
Si Si7 0.673325 0.653005 0.391218
Si Si8 0.835383 0.929586 0.031978
O O1 0.500000 0.957168 0.201942
O O2 0.248199 0.907278 0.232098
O O3 0.284481 0.950475 0.096645
O O4 0.271983 0.027188 0.219348
O O5 0.771906 0.637272 0.160447
O O6 0.755995 0.620204 0.318217
O O7 0.000000 0.595725 0.244466
O O8 0.500000 0.575795 0.995510
O O9 0.693349 0.568279 0.875988
O O10 0.782930 0.576264 0.028326
O O11 0.659576 0.481082 0.965397
O O12 0.750675 0.177926 0.842161
O O13 0.000000 0.133767 0.791674
O O14 0.500000 0.142644 0.068148
O O15 0.732058 0.190744 0.005399
O O16 0.775676 0.220135 0.399670
O O17 0.000000 0.294836 0.409634
O O18 0.500000 0.647207 0.374332
O O19 0.715213 0.626597 0.479766
O O20 0.000000 0.920218 0.070389
#
# Coordination Sequence:
#
# PCOD8175215 Si02
#       8
#     8   8   8   8   8   8   8   8
#     4  11  22  36  55  84 117 147 187 233 284 344
#     4  10  21  36  56  85 116 148 190 236 287 342
#     4   9  17  30  52  80 108 138 177 225 277 332
#     4  10  20  35  57  84 111 144 184 230 282 334
#     4   9  17  33  56  80 108 144 185 230 278 333
#     4   9  19  38  60  80 110 150 193 234 278 333
#     4  10  22  39  58  82 115 155 194 235 284 336
#     4  10  20  35  54  79 113 148 184 229 284 340
#
# _framework density 18.909115
#
# number of rings (size 3 to 8) (size 9 to 14) (size 15 to 20)
#    0.000    2.250    1.250    1.500    0.000    4.000 
#    2.250    0.000    0.000    0.000    0.000    0.000 
#    0.000    0.000    0.000    0.000    0.000    0.000 
#
# Total GULP energy -396524.952999 kJ/mol
# GULP energy per Si atom -12391.404781 kJ/mol
# Density = 1.886608 g / cm^3
# Si number density = 18.909115 Si / 1000 Ang^3
#
#
#
# Elastic Constant Matrix: (Units=GPa)
#
#
# Indices 1 2 3 4 5 6 
#
# 1 31.4867 37.8826 28.8253 0.0000 0.0000 0.0000
# 2 37.8826 128.6866 56.8791 0.0000 0.0000 0.0000
# 3 28.8253 56.8791 84.8244 0.0000 0.0000 0.0000
# 4 0.0000 0.0000 0.0000 24.5085 0.0000 0.0000
# 5 0.0000 0.0000 0.0000 0.0000 29.8966 0.0000
# 6 0.0000 0.0000 0.0000 0.0000 0.0000 21.9003
#
#
#
# Elastic Compliance Matrix: (Units=1/GPa)
#
#
# Indices 1 2 3 4 5 6 
#
# 1 0.055899 -0.011454 -0.011315 0.000000 0.000000 0.000000
# 2 -0.011454 0.013391 -0.005087 0.000000 0.000000 0.000000
# 3 -0.011315 -0.005087 0.019045 0.000000 0.000000 0.000000
# 4 0.000000 0.000000 0.000000 0.040802 0.000000 0.000000
# 5 0.000000 0.000000 0.000000 0.000000 0.033449 0.000000
# 6 0.000000 0.000000 0.000000 0.000000 0.000000 0.045661
#
#
# Mechanical properties :
#
#
# Convention : Reuss Voigt Hill
#
# Bulk Modulus (GPa) = 30.65351 54.68573 42.66962
# Shear Modulus (GPa) = 18.19277 23.35514 20.77395
#
# Velocity S-wave (km/s) = 3.10516 3.51825 3.31814
# Velocity P-wave (km/s) = 5.39465 6.74442 6.10694
#
# Compressibility (1/GPa) = 0.03262269
#
# Stress axis : x y z
#
# Youngs Moduli (GPa) = 17.88944 74.67619 52.50634
#
# Poissons Ratio (x) = 0.85536 0.59411
# Poissons Ratio (y) = 0.20491 0.26710
# Poissons Ratio (z) = 0.20242 0.37988
#
# Static dielectric constant tensor:
#      x y z
#    x 3.406470 0.000000 0.000000 
#    y 0.000000 3.490070 0.000000 
#    z 0.000000 0.000000 3.511780 
# 
# 
# High freq. dielectric constant tensor:
#      x y z
#    x 1.726750 0.000000 0.000000 
#    y 0.000000 1.727100 0.000000 
#    z 0.000000 0.000000 1.734820 
# 
# From -- ./inp_files/11007.got.cif
#   From: 2010.03.12/outbox.cif.g09.slc.cpg/sg36_6_cif.got.tgz:11007.got - 2010.04.14 02:13:53.
