data_PCOD8175779
_publ_section_title
;
Structure prediction by ZEFSAII (Michael W. Deem and Ramdas Pophale) SiO2 
 PCOD8175779
Probable space group: C M C 21
;
_chemical_formula_sum "Si O2"
_cell_formula_units_Z 48
_cell_length_a 8.924457
_cell_length_b 18.775585
_cell_length_c 15.011140
_cell_angle_alpha 90.000000
_cell_angle_beta 90.000000
_cell_angle_gamma 90.000000
_cell_volume 2515.295154
_symmetry_space_group_name_H-M "C M C 21"
_symmetry_group_IT_number 36
_symmetry_cell_setting 'orthorhombic'
loop_
_space_group_symop_operation_xyz
x,y,z
-x,-y,1/2+z
x,-y,1/2+z
-x,y,z
1/2+x,1/2+y,z
1/2-x,1/2-y,1/2+z
1/2+x,1/2-y,1/2+z
1/2-x,1/2+y,z
loop_
_atom_site_type_symbol
_atom_site_label
_atom_site_fract_x
_atom_site_fract_y
_atom_site_fract_z
Si Si1 0.673929 0.920907 0.313360
Si Si2 0.173652 0.586702 0.312199
Si Si3 0.170882 0.167636 0.159803
Si Si4 0.676720 0.677681 0.460570
Si Si5 0.327030 0.169746 0.645137
Si Si6 0.674598 0.673596 0.955655
O O1 0.500000 0.905085 0.331676
O O2 0.725339 0.884202 0.221537
O O3 0.768975 0.890320 0.394701
O O4 0.709209 0.003629 0.305204
O O5 0.216605 0.621488 0.218245
O O6 0.271990 0.618066 0.391472
O O7 0.000000 0.601355 0.331752
O O8 0.199171 0.250565 0.180840
O O9 0.000000 0.146961 0.182936
O O10 0.208012 0.151535 0.057090
O O11 0.500000 0.683775 0.458756
O O12 0.729121 0.654003 0.558279
O O13 0.742725 0.753423 0.430567
O O14 0.500000 0.158772 0.618202
O O15 0.500000 0.687255 0.940591
#
# Coordination Sequence:
#
# PCOD8175779 Si02
#       6
#     8   8   8   8   8   8
#     4  10  22  38  57  83 116 152 186 226 277 331
#     4  11  23  37  55  82 116 153 189 226 274 331
#     4   9  19  36  58  83 110 142 183 233 282 327
#     4  11  22  37  59  84 111 147 189 232 278 329
#     4   9  19  38  60  82 109 142 185 236 283 327
#     4  10  21  38  61  86 112 144 184 233 282 329
#
# _framework density 19.083248000000001
#
# number of rings (size 3 to 8) (size 9 to 14) (size 15 to 20)
#    0.000    2.000    0.000    4.500    0.000    8.000 
#    0.000    5.000    0.000    0.000    0.000    0.000 
#    0.000    0.000    0.000    0.000    0.000    0.000 
#
# Total GULP energy -297732.618336 kJ/mol
# GULP energy per Si atom -12405.525764 kJ/mol
# Density = 1.903981 g / cm^3
# Si number density = 19.083248 Si / 1000 Ang^3
#
#
#
# Elastic Constant Matrix: (Units=GPa)
#
#
# Indices 1 2 3 4 5 6 
#
# 1 106.3569 58.5609 63.6274 0.0000 0.0000 0.0000
# 2 58.5609 112.8294 77.8101 0.0000 0.0000 0.0000
# 3 63.6274 77.8101 117.6414 0.0000 0.0000 0.0000
# 4 0.0000 0.0000 0.0000 7.6113 0.0000 0.0000
# 5 0.0000 0.0000 0.0000 0.0000 33.5912 0.0000
# 6 0.0000 0.0000 0.0000 0.0000 0.0000 27.9869
#
#
#
# Elastic Compliance Matrix: (Units=1/GPa)
#
#
# Indices 1 2 3 4 5 6 
#
# 1 0.014811 -0.003977 -0.005380 0.000000 0.000000 0.000000
# 2 -0.003977 0.017364 -0.009334 0.000000 0.000000 0.000000
# 3 -0.005380 -0.009334 0.017584 0.000000 0.000000 0.000000
# 4 0.000000 0.000000 0.000000 0.131384 0.000000 0.000000
# 5 0.000000 0.000000 0.000000 0.000000 0.029770 0.000000
# 6 0.000000 0.000000 0.000000 0.000000 0.000000 0.035731
#
#
# Mechanical properties :
#
#
# Convention : Reuss Voigt Hill
#
# Bulk Modulus (GPa) = 80.79649 81.86938 81.33293
# Shear Modulus (GPa) = 17.35208 22.95983 20.15596
#
# Velocity S-wave (km/s) = 3.01870 3.47239 3.25347
# Velocity P-wave (km/s) = 7.38789 7.68577 7.53830
#
# Compressibility (1/GPa) = 0.01237678
#
# Stress axis : x y z
#
# Youngs Moduli (GPa) = 67.51937 57.59092 56.87010
#
# Poissons Ratio (x) = 0.22902 0.30597
# Poissons Ratio (y) = 0.26850 0.53082
# Poissons Ratio (z) = 0.36327 0.53755
#
# Static dielectric constant tensor:
#      x y z
#    x 3.487010 0.000000 0.000000 
#    y 0.000000 3.436310 0.000000 
#    z 0.000000 0.000000 3.539460 
# 
# 
# High freq. dielectric constant tensor:
#      x y z
#    x 1.744640 0.000000 0.000000 
#    y 0.000000 1.738190 0.000000 
#    z 0.000000 0.000000 1.752230 
# 
# From -- ./inp_files/10351.got.cif
#   From: 2010.03.12/outbox.cif.g09.slc.cpg/sg36_6_cif.got.tgz:10351.got - 2010.04.14 02:13:53.
