data_PCOD8175487
_publ_section_title
;
Structure prediction by ZEFSAII (Michael W. Deem and Ramdas Pophale) SiO2 
 PCOD8175487
Probable space group: C M C 21
;
_chemical_formula_sum "Si O2"
_cell_formula_units_Z 64
_cell_length_a 23.991168
_cell_length_b 5.074843
_cell_length_c 27.735209
_cell_angle_alpha 90.000000
_cell_angle_beta 90.000000
_cell_angle_gamma 90.000000
_cell_volume 3376.800830
_symmetry_space_group_name_H-M "C M C 21"
_symmetry_group_IT_number 36
_symmetry_cell_setting 'orthorhombic'
loop_
_space_group_symop_operation_xyz
x,y,z
-x,-y,1/2+z
x,-y,1/2+z
-x,y,z
1/2+x,1/2+y,z
1/2-x,1/2-y,1/2+z
1/2+x,1/2-y,1/2+z
1/2-x,1/2+y,z
loop_
_atom_site_type_symbol
_atom_site_label
_atom_site_fract_x
_atom_site_fract_y
_atom_site_fract_z
Si Si1 0.562119 0.192624 0.364620
Si Si2 0.371496 0.748569 0.644406
Si Si3 0.283902 0.674787 0.453405
Si Si4 0.712027 0.724441 0.562248
Si Si5 0.786479 0.282527 0.726848
Si Si6 0.623348 0.704848 0.377435
Si Si7 0.617671 0.962610 0.281106
Si Si8 0.066808 0.730306 0.681837
O O1 0.500000 0.286153 0.373943
O O2 0.602137 0.412494 0.386629
O O3 0.572219 0.152980 0.306968
O O4 0.575547 0.917813 0.391602
O O5 0.346298 0.707304 0.591273
O O6 0.317188 0.815261 0.676075
O O7 0.405178 0.495860 0.662704
O O8 0.414462 0.993041 0.646676
O O9 0.268707 0.368780 0.446950
O O10 0.308402 0.719873 0.506862
O O11 0.325566 0.761090 0.411967
O O12 0.753766 0.487162 0.574806
O O13 0.734428 0.482352 0.731071
O O14 0.830456 0.350560 0.768351
O O15 0.639268 0.748838 0.320770
O O16 0.589286 0.819969 0.235842
O O17 0.000000 0.757366 0.681911
#
# Coordination Sequence:
#
# PCOD8175487 Si02
#       8
#     8   8   8   8   8   8   8   8
#     4  10  21  37  57  77 106 146 192 239 275 321
#     4  11  22  38  58  84 115 147 191 235 287 333
#     4  10  21  38  61  88 117 148 186 233 282 345
#     4  10  20  37  64  90 112 149 189 227 285 346
#     4  11  22  34  51  76 115 146 177 220 275 339
#     4  10  22  36  56  84 112 144 191 236 286 329
#     4   9  24  36  55  82 111 152 196 229 279 334
#     4  11  23  38  59  83 113 152 197 241 281 329
#
# _framework density 18.952852
#
# number of rings (size 3 to 8) (size 9 to 14) (size 15 to 20)
#    0.750    1.000    0.000    4.875    5.250    1.000 
#    0.000    0.000    0.000    4.500    0.000    0.000 
#    0.000    0.000    0.000    0.000    0.000    0.000 
#
# Total GULP energy -396635.792656 kJ/mol
# GULP energy per Si atom -12394.868521 kJ/mol
# Density = 1.890971 g / cm^3
# Si number density = 18.952852 Si / 1000 Ang^3
#
#
#
# Elastic Constant Matrix: (Units=GPa)
#
#
# Indices 1 2 3 4 5 6 
#
# 1 99.2815 29.5100 58.1684 0.0000 0.0000 0.0000
# 2 29.5100 113.0319 30.0060 0.0000 0.0000 0.0000
# 3 58.1684 30.0060 91.9013 0.0000 0.0000 0.0000
# 4 0.0000 0.0000 0.0000 20.0265 0.0000 0.0000
# 5 0.0000 0.0000 0.0000 0.0000 23.6378 0.0000
# 6 0.0000 0.0000 0.0000 0.0000 0.0000 31.1261
#
#
#
# Elastic Compliance Matrix: (Units=1/GPa)
#
#
# Indices 1 2 3 4 5 6 
#
# 1 0.016289 -0.001660 -0.009768 0.000000 0.000000 0.000000
# 2 -0.001660 0.009856 -0.002168 0.000000 0.000000 0.000000
# 3 -0.009768 -0.002168 0.017772 0.000000 0.000000 0.000000
# 4 0.000000 0.000000 0.000000 0.049934 0.000000 0.000000
# 5 0.000000 0.000000 0.000000 0.000000 0.042305 0.000000
# 6 0.000000 0.000000 0.000000 0.000000 0.000000 0.032127
#
#
# Mechanical properties :
#
#
# Convention : Reuss Voigt Hill
#
# Bulk Modulus (GPa) = 59.78772 59.95372 59.87072
# Shear Modulus (GPa) = 24.86972 27.39342 26.13157
#
# Velocity S-wave (km/s) = 3.62634 3.80589 3.71720
# Velocity P-wave (km/s) = 7.01055 7.14247 7.07682
#
# Compressibility (1/GPa) = 0.01672584
#
# Stress axis : x y z
#
# Youngs Moduli (GPa) = 61.39250 101.46381 56.26979
#
# Poissons Ratio (x) = 0.16838 0.54964
# Poissons Ratio (y) = 0.10188 0.12197
# Poissons Ratio (z) = 0.59968 0.21993
#
# Static dielectric constant tensor:
#      x y z
#    x 3.291620 0.000000 0.000000 
#    y 0.000000 3.569250 0.000000 
#    z 0.000000 0.000000 3.377690 
# 
# 
# High freq. dielectric constant tensor:
#      x y z
#    x 1.723480 0.000000 0.000000 
#    y 0.000000 1.755870 0.000000 
#    z 0.000000 0.000000 1.716790 
# 
# From -- ./inp_files/17268.got.cif
#   From: 2010.03.12/outbox.cif.g09.slc.cpg/sg36_9_cif.got.tgz:17268.got - 2010.04.14 02:13:53.
