data_PCOD8175966
_publ_section_title
;
Structure prediction by ZEFSAII (Michael W. Deem and Ramdas Pophale) SiO2 
 PCOD8175966
Probable space group: C M C 21
;
_chemical_formula_sum "Si O2"
_cell_formula_units_Z 48
_cell_length_a 8.936605
_cell_length_b 14.835914
_cell_length_c 18.647109
_cell_angle_alpha 90.000000
_cell_angle_beta 90.000000
_cell_angle_gamma 90.000000
_cell_volume 2472.284119
_symmetry_space_group_name_H-M "C M C 21"
_symmetry_group_IT_number 36
_symmetry_cell_setting 'orthorhombic'
loop_
_space_group_symop_operation_xyz
x,y,z
-x,-y,1/2+z
x,-y,1/2+z
-x,y,z
1/2+x,1/2+y,z
1/2-x,1/2-y,1/2+z
1/2+x,1/2-y,1/2+z
1/2-x,1/2+y,z
loop_
_atom_site_type_symbol
_atom_site_label
_atom_site_fract_x
_atom_site_fract_y
_atom_site_fract_z
Si Si1 0.673044 0.491916 0.306480
Si Si2 0.175334 0.855160 0.694428
Si Si3 0.671893 0.887665 0.546552
Si Si4 0.673981 0.713108 0.786926
Si Si5 0.676307 0.263653 0.934895
Si Si6 0.327847 0.945916 0.948087
O O1 0.500000 0.504446 0.328282
O O2 0.721524 0.562693 0.246037
O O3 0.704094 0.392607 0.275644
O O4 0.773339 0.505630 0.376090
O O5 0.223188 0.880469 0.614815
O O6 0.258379 0.764113 0.718428
O O7 0.000000 0.837051 0.696151
O O8 0.500000 0.869183 0.567998
O O9 0.726879 0.815214 0.488079
O O10 0.692490 0.986777 0.514355
O O11 0.500000 0.735061 0.792893
O O12 0.751561 0.750354 0.857762
O O13 0.500000 0.265651 0.924137
O O14 0.731530 0.358127 0.967174
O O15 0.500000 0.918710 0.937614
#
# Coordination Sequence:
#
# PCOD8175966 Si02
#       6
#     8   8   8   8   8   8
#     4  10  22  39  61  90 123 159 202 251 303 363
#     4  11  24  41  62  90 125 163 203 252 310 363
#     4  10  24  43  61  87 126 163 201 252 308 362
#     4  11  22  38  63  92 122 160 206 252 302 362
#     4  11  22  39  62  90 123 160 204 253 305 361
#     4  11  22  38  63  93 121 159 206 252 302 361
#
# _framework density 19.415244999999999
#
# number of rings (size 3 to 8) (size 9 to 14) (size 15 to 20)
#    0.000    1.333    3.333    2.000    0.000    5.333 
#    0.000    5.000    0.000    0.000    0.000    0.000 
#    0.000    0.000    0.000    0.000    0.000    0.000 
#
# Total GULP energy -297758.860750 kJ/mol
# GULP energy per Si atom -12406.619198 kJ/mol
# Density = 1.937105 g / cm^3
# Si number density = 19.415245 Si / 1000 Ang^3
#
#
#
# Elastic Constant Matrix: (Units=GPa)
#
#
# Indices 1 2 3 4 5 6 
#
# 1 79.0113 28.7046 30.6666 0.0000 0.0000 0.0000
# 2 28.7046 92.9819 10.5327 0.0000 0.0000 0.0000
# 3 30.6666 10.5327 67.8521 0.0000 0.0000 0.0000
# 4 0.0000 0.0000 0.0000 28.8423 0.0000 0.0000
# 5 0.0000 0.0000 0.0000 0.0000 37.7311 0.0000
# 6 0.0000 0.0000 0.0000 0.0000 0.0000 33.3776
#
#
#
# Elastic Compliance Matrix: (Units=1/GPa)
#
#
# Indices 1 2 3 4 5 6 
#
# 1 0.016985 -0.004452 -0.006986 0.000000 0.000000 0.000000
# 2 -0.004452 0.012114 0.000132 0.000000 0.000000 0.000000
# 3 -0.006986 0.000132 0.017875 0.000000 0.000000 0.000000
# 4 0.000000 0.000000 0.000000 0.034671 0.000000 0.000000
# 5 0.000000 0.000000 0.000000 0.000000 0.026503 0.000000
# 6 0.000000 0.000000 0.000000 0.000000 0.000000 0.029960
#
#
# Mechanical properties :
#
#
# Convention : Reuss Voigt Hill
#
# Bulk Modulus (GPa) = 41.04734 42.18367 41.61550
# Shear Modulus (GPa) = 29.61351 31.31963 30.46657
#
# Velocity S-wave (km/s) = 3.90971 4.02076 3.96562
# Velocity P-wave (km/s) = 6.44739 6.58252 6.51530
#
# Compressibility (1/GPa) = 0.02436212
#
# Stress axis : x y z
#
# Youngs Moduli (GPa) = 58.87480 82.54703 55.94499
#
# Poissons Ratio (x) = 0.36752 0.39081
# Poissons Ratio (y) = 0.26212 -0.00737
# Poissons Ratio (z) = 0.41127 -0.01087
#
# Static dielectric constant tensor:
#      x y z
#    x 3.605040 0.000000 0.000000 
#    y 0.000000 3.885000 0.000000 
#    z 0.000000 0.000000 3.399800 
# 
# 
# High freq. dielectric constant tensor:
#      x y z
#    x 1.764860 0.000000 0.000000 
#    y 0.000000 1.773320 0.000000 
#    z 0.000000 0.000000 1.747750 
# 
# From -- ./inp_files/13480.got.cif
#   From: 2010.03.12/outbox.cif.g09.slc.cpg/sg36_7_cif.got.tgz:13480.got - 2010.04.14 02:13:53.
