data_PCOD8175146
_publ_section_title
;
Structure prediction by ZEFSAII (Michael W. Deem and Ramdas Pophale) SiO2 
 PCOD8175146
Probable space group: C M C 21
;
_chemical_formula_sum "Si O2"
_cell_formula_units_Z 64
_cell_length_a 9.015307
_cell_length_b 14.803141
_cell_length_c 24.261295
_cell_angle_alpha 90.000000
_cell_angle_beta 90.000000
_cell_angle_gamma 90.000000
_cell_volume 3237.787744
_symmetry_space_group_name_H-M "C M C 21"
_symmetry_group_IT_number 36
_symmetry_cell_setting 'orthorhombic'
loop_
_space_group_symop_operation_xyz
x,y,z
-x,-y,1/2+z
x,-y,1/2+z
-x,y,z
1/2+x,1/2+y,z
1/2-x,1/2-y,1/2+z
1/2+x,1/2-y,1/2+z
1/2-x,1/2+y,z
loop_
_atom_site_type_symbol
_atom_site_label
_atom_site_fract_x
_atom_site_fract_y
_atom_site_fract_z
Si Si1 0.336434 0.361087 0.531680
Si Si2 0.662066 0.850589 0.011353
Si Si3 0.170204 0.321894 0.636709
Si Si4 0.322815 0.864550 0.128998
Si Si5 0.170671 0.484684 0.714757
Si Si6 0.322092 0.818360 0.894145
Si Si7 0.175825 0.033596 0.327995
Si Si8 0.176271 0.883100 0.412354
O O1 0.500000 0.400859 0.545512
O O2 0.353180 0.255893 0.519823
O O3 0.228126 0.377036 0.583254
O O4 0.269998 0.405345 0.475210
O O5 0.500000 0.895311 0.007504
O O6 0.741389 0.888849 0.067042
O O7 0.739746 0.864196 0.951648
O O8 0.260018 0.231043 0.649495
O O9 0.189248 0.385181 0.689742
O O10 0.000000 0.297010 0.626009
O O11 0.500000 0.855681 0.125333
O O12 0.272312 0.941747 0.170738
O O13 0.273637 0.495423 0.767571
O O14 0.000000 0.503068 0.730767
O O15 0.500000 0.824573 0.891124
O O16 0.249067 0.870593 0.843219
O O17 0.267327 0.714670 0.891206
O O18 0.000000 0.042255 0.329519
O O19 0.236483 0.958722 0.370768
O O20 0.000000 0.881200 0.413261
#
# Coordination Sequence:
#
# PCOD8175146 Si02
#       8
#     8   8   8   8   8   8   8   8
#     4   8  14  30  55  79 105 138 172 203 251 320
#     4   7  12  26  52  80 101 129 168 203 242 305
#     4  10  20  34  54  82 111 135 167 216 266 307
#     4   9  18  36  59  79 104 140 177 211 255 314
#     4  10  23  40  54  72 103 143 183 217 255 312
#     4   9  17  34  58  79 104 140 174 203 251 319
#     4  11  23  37  53  77 106 135 177 228 267 300
#     4   8  17  35  57  78 104 140 174 209 259 315
#
# _framework density 19.766583000000001
#
# number of rings (size 3 to 8) (size 9 to 14) (size 15 to 20)
#    0.000    3.000    0.000    3.000    0.000    3.500 
#    0.000   13.125    0.000    0.000    0.000    0.000 
#    0.000    0.000    0.000    0.000    0.000    0.000 
#
# Total GULP energy -396533.034980 kJ/mol
# GULP energy per Si atom -12391.657343 kJ/mol
# Density = 1.972159 g / cm^3
# Si number density = 19.766583 Si / 1000 Ang^3
#
#
#
# Elastic Constant Matrix: (Units=GPa)
#
#
# Indices 1 2 3 4 5 6 
#
# 1 45.1689 14.4380 24.9315 0.0000 0.0000 0.0000
# 2 14.4380 45.7529 14.0683 0.0000 0.0000 0.0000
# 3 24.9315 14.0683 89.3923 0.0000 0.0000 0.0000
# 4 0.0000 0.0000 0.0000 32.1995 0.0000 0.0000
# 5 0.0000 0.0000 0.0000 0.0000 25.7097 0.0000
# 6 0.0000 0.0000 0.0000 0.0000 0.0000 20.8785
#
#
#
# Elastic Compliance Matrix: (Units=1/GPa)
#
#
# Indices 1 2 3 4 5 6 
#
# 1 0.028030 -0.006769 -0.006752 0.000000 0.000000 0.000000
# 2 -0.006769 0.024603 -0.001984 0.000000 0.000000 0.000000
# 3 -0.006752 -0.001984 0.013382 0.000000 0.000000 0.000000
# 4 0.000000 0.000000 0.000000 0.031056 0.000000 0.000000
# 5 0.000000 0.000000 0.000000 0.000000 0.038896 0.000000
# 6 0.000000 0.000000 0.000000 0.000000 0.000000 0.047896
#
#
# Mechanical properties :
#
#
# Convention : Reuss Voigt Hill
#
# Bulk Modulus (GPa) = 28.56817 31.91000 30.23909
# Shear Modulus (GPa) = 22.07103 24.21595 23.14349
#
# Velocity S-wave (km/s) = 3.34516 3.50393 3.42546
# Velocity P-wave (km/s) = 5.42257 5.70513 5.56564
#
# Compressibility (1/GPa) = 0.03500399
#
# Stress axis : x y z
#
# Youngs Moduli (GPa) = 35.67638 40.64604 74.72681
#
# Poissons Ratio (x) = 0.27513 0.50457
# Poissons Ratio (y) = 0.24149 0.14826
# Poissons Ratio (z) = 0.24089 0.08064
#
# Static dielectric constant tensor:
#      x y z
#    x 3.251960 0.000000 0.000000 
#    y 0.000000 3.460800 0.000000 
#    z 0.000000 0.000000 3.927330 
# 
# 
# High freq. dielectric constant tensor:
#      x y z
#    x 1.736670 0.000000 0.000000 
#    y 0.000000 1.759280 0.000000 
#    z 0.000000 0.000000 1.778530 
# 
# From -- ./inp_files/16663.got.cif
#   From: 2010.03.12/outbox.cif.g09.slc.cpg/sg36_9_cif.got.tgz:16663.got - 2010.04.14 02:13:53.
