data_PCOD8175987
_publ_section_title
;
Structure prediction by ZEFSAII (Michael W. Deem and Ramdas Pophale) SiO2 
 PCOD8175987
Probable space group: C M C 21
;
_chemical_formula_sum "Si O2"
_cell_formula_units_Z 48
_cell_length_a 8.473603
_cell_length_b 30.792841
_cell_length_c 8.832197
_cell_angle_alpha 90.000000
_cell_angle_beta 90.000000
_cell_angle_gamma 90.000000
_cell_volume 2304.552571
_symmetry_space_group_name_H-M "C M C 21"
_symmetry_group_IT_number 36
_symmetry_cell_setting 'orthorhombic'
loop_
_space_group_symop_operation_xyz
x,y,z
-x,-y,1/2+z
x,-y,1/2+z
-x,y,z
1/2+x,1/2+y,z
1/2-x,1/2-y,1/2+z
1/2+x,1/2-y,1/2+z
1/2-x,1/2+y,z
loop_
_atom_site_type_symbol
_atom_site_label
_atom_site_fract_x
_atom_site_fract_y
_atom_site_fract_z
Si Si1 0.817711 0.120588 0.493400
Si Si2 0.815284 0.454188 0.491545
Si Si3 0.816236 0.966407 0.164061
Si Si4 0.181913 0.700330 0.658612
Si Si5 0.685258 0.216239 0.006300
Si Si6 0.315420 0.870060 0.665285
O O1 0.763490 0.076636 0.575135
O O2 0.787611 0.160219 0.606235
O O3 0.719238 0.126510 0.341673
O O4 0.000000 0.118997 0.448926
O O5 0.788691 0.494259 0.603770
O O6 0.715565 0.460530 0.340646
O O7 0.747129 0.411201 0.573854
O O8 0.000000 0.450288 0.452849
O O9 0.000000 0.976682 0.139130
O O10 0.218150 0.742159 0.558438
O O11 0.000000 0.687418 0.638450
O O12 0.224014 0.709810 0.831195
O O13 0.500000 0.223748 0.035613
O O14 0.752807 0.174761 0.097811
O O15 0.500000 0.869832 0.639275
#
# Coordination Sequence:
#
# PCOD8175987 Si02
#       6
#     8   8   8   8   8   8
#     4  11  24  40  60  87 119 156 198 243 293 352
#     4  11  23  40  64  92 121 157 202 249 297 353
#     4  11  24  41  61  88 123 161 200 246 301 358
#     4  11  23  39  61  87 117 154 195 242 294 349
#     4  10  22  40  60  86 119 153 193 240 292 351
#     4  10  22  40  62  88 119 155 196 244 295 349
#
# _framework density 20.828337999999999
#
# number of rings (size 3 to 8) (size 9 to 14) (size 15 to 20)
#    0.000    1.333    0.000    5.000    0.000   12.667 
#    0.000    0.000    0.000    0.000    0.000    0.000 
#    0.000    0.000    0.000    0.000    0.000    0.000 
#
# Total GULP energy -297771.731029 kJ/mol
# GULP energy per Si atom -12407.155460 kJ/mol
# Density = 2.078093 g / cm^3
# Si number density = 20.828338 Si / 1000 Ang^3
#
#
#
# Elastic Constant Matrix: (Units=GPa)
#
#
# Indices 1 2 3 4 5 6 
#
# 1 27.8501 18.7297 11.2909 0.0000 0.0000 0.0000
# 2 18.7297 96.7951 -2.5203 0.0000 0.0000 0.0000
# 3 11.2909 -2.5203 81.0072 0.0000 0.0000 0.0000
# 4 0.0000 0.0000 0.0000 43.8717 0.0000 0.0000
# 5 0.0000 0.0000 0.0000 0.0000 34.6349 0.0000
# 6 0.0000 0.0000 0.0000 0.0000 0.0000 29.6403
#
#
#
# Elastic Compliance Matrix: (Units=1/GPa)
#
#
# Indices 1 2 3 4 5 6 
#
# 1 0.044421 -0.008764 -0.006464 0.000000 0.000000 0.000000
# 2 -0.008764 0.012068 0.001597 0.000000 0.000000 0.000000
# 3 -0.006464 0.001597 0.013295 0.000000 0.000000 0.000000
# 4 0.000000 0.000000 0.000000 0.022794 0.000000 0.000000
# 5 0.000000 0.000000 0.000000 0.000000 0.028873 0.000000
# 6 0.000000 0.000000 0.000000 0.000000 0.000000 0.033738
#
#
# Mechanical properties :
#
#
# Convention : Reuss Voigt Hill
#
# Bulk Modulus (GPa) = 23.51670 28.96144 26.23907
# Shear Modulus (GPa) = 25.42914 33.50619 29.46767
#
# Velocity S-wave (km/s) = 3.49792 4.01519 3.76545
# Velocity P-wave (km/s) = 5.25634 5.95237 5.61515
#
# Compressibility (1/GPa) = 0.04252297
#
# Stress axis : x y z
#
# Youngs Moduli (GPa) = 22.51190 82.86069 75.21487
#
# Poissons Ratio (x) = 0.72617 0.48620
# Poissons Ratio (y) = 0.19729 -0.12012
# Poissons Ratio (z) = 0.14552 -0.13233
#
# Static dielectric constant tensor:
#      x y z
#    x 3.591030 0.000000 0.000000 
#    y 0.000000 4.104740 0.000000 
#    z 0.000000 0.000000 3.768240 
# 
# 
# High freq. dielectric constant tensor:
#      x y z
#    x 1.808570 0.000000 0.000000 
#    y 0.000000 1.834840 0.000000 
#    z 0.000000 0.000000 1.830250 
# 
# From -- ./inp_files/2644.got.cif
#   From: 2010.03.12/outbox.cif.g09.slc.cpg/sg36_2_cif.got.tgz:2644.got - 2010.04.14 02:13:53.
