data_PCOD8175222
_publ_section_title
;
Structure prediction by ZEFSAII (Michael W. Deem and Ramdas Pophale) SiO2 
 PCOD8175222
Probable space group: C M C 21
;
_chemical_formula_sum "Si O2"
_cell_formula_units_Z 64
_cell_length_a 9.509691
_cell_length_b 31.519590
_cell_length_c 10.603701
_cell_angle_alpha 90.000000
_cell_angle_beta 90.000000
_cell_angle_gamma 90.000000
_cell_volume 3178.369894
_symmetry_space_group_name_H-M "C M C 21"
_symmetry_group_IT_number 36
_symmetry_cell_setting 'orthorhombic'
loop_
_space_group_symop_operation_xyz
x,y,z
-x,-y,1/2+z
x,-y,1/2+z
-x,y,z
1/2+x,1/2+y,z
1/2-x,1/2-y,1/2+z
1/2+x,1/2-y,1/2+z
1/2-x,1/2+y,z
loop_
_atom_site_type_symbol
_atom_site_label
_atom_site_fract_x
_atom_site_fract_y
_atom_site_fract_z
Si Si1 0.652286 0.158647 0.929030
Si Si2 0.168510 0.286627 0.979983
Si Si3 0.664339 0.236399 0.764110
Si Si4 0.153925 0.431216 0.304567
Si Si5 0.157769 0.940697 0.084141
Si Si6 0.161089 0.135329 0.412257
Si Si7 0.836742 0.122536 0.128716
Si Si8 0.662494 0.534365 0.007312
O O1 0.500000 0.173036 0.982776
O O2 0.695251 0.188958 0.813772
O O3 0.640521 0.111347 0.881462
O O4 0.764611 0.158309 0.041451
O O5 0.240483 0.265839 0.855446
O O6 0.234452 0.333812 0.989187
O O7 0.000000 0.288914 0.961867
O O8 0.204116 0.262606 0.113735
O O9 0.500000 0.249245 0.779402
O O10 0.231929 0.419406 0.176831
O O11 0.246377 0.465155 0.380464
O O12 0.000000 0.450717 0.278202
O O13 0.000000 0.936810 0.138497
O O14 0.171712 0.913513 0.956881
O O15 0.198386 0.989895 0.071417
O O16 0.210915 0.133986 0.268326
O O17 0.000000 0.151578 0.425917
O O18 0.000000 0.129345 0.107634
O O19 0.795913 0.073682 0.097956
O O20 0.500000 0.536590 0.967613
#
# Coordination Sequence:
#
# PCOD8175222 Si02
#       8
#     8   8   8   8   8   8   8   8
#     4   9  19  37  60  83 113 153 192 236 296 357
#     4  11  25  43  65  93 125 164 205 250 312 372
#     4  10  23  43  65  91 125 159 200 254 303 362
#     4  10  20  35  55  80 114 148 186 239 295 355
#     4  10  21  35  58  83 111 154 199 244 293 350
#     4  10  22  39  59  87 123 159 200 252 306 358
#     4   9  19  35  57  86 119 153 194 248 298 349
#     4   9  19  35  57  83 112 150 198 245 289 349
#
# _framework density 20.136109000000001
#
# number of rings (size 3 to 8) (size 9 to 14) (size 15 to 20)
#    0.000    2.250    0.000    1.500    3.500    4.500 
#    0.000    0.000    0.000    0.000    0.000    0.000 
#    0.000    0.000    0.000    0.000    0.000    0.000 
#
# Total GULP energy -396582.603955 kJ/mol
# GULP energy per Si atom -12393.206374 kJ/mol
# Density = 2.009028 g / cm^3
# Si number density = 20.136109 Si / 1000 Ang^3
#
#
#
# Elastic Constant Matrix: (Units=GPa)
#
#
# Indices 1 2 3 4 5 6 
#
# 1 89.1188 36.8289 55.3576 0.0000 0.0000 0.0000
# 2 36.8289 70.6074 26.4443 0.0000 0.0000 0.0000
# 3 55.3576 26.4443 115.7600 0.0000 0.0000 0.0000
# 4 0.0000 0.0000 0.0000 20.7605 0.0000 0.0000
# 5 0.0000 0.0000 0.0000 0.0000 22.0789 0.0000
# 6 0.0000 0.0000 0.0000 0.0000 0.0000 25.6592
#
#
#
# Elastic Compliance Matrix: (Units=1/GPa)
#
#
# Indices 1 2 3 4 5 6 
#
# 1 0.018661 -0.006989 -0.007327 0.000000 0.000000 0.000000
# 2 -0.006989 0.018106 -0.000794 0.000000 0.000000 0.000000
# 3 -0.007327 -0.000794 0.012324 0.000000 0.000000 0.000000
# 4 0.000000 0.000000 0.000000 0.048169 0.000000 0.000000
# 5 0.000000 0.000000 0.000000 0.000000 0.045292 0.000000
# 6 0.000000 0.000000 0.000000 0.000000 0.000000 0.038972
#
#
# Mechanical properties :
#
#
# Convention : Reuss Voigt Hill
#
# Bulk Modulus (GPa) = 52.99428 56.97200 54.98314
# Shear Modulus (GPa) = 22.93228 24.15673 23.54450
#
# Velocity S-wave (km/s) = 3.37837 3.46739 3.42317
# Velocity P-wave (km/s) = 6.44926 6.66222 6.55661
#
# Compressibility (1/GPa) = 0.01886996
#
# Stress axis : x y z
#
# Youngs Moduli (GPa) = 53.58863 55.23126 81.14394
#
# Poissons Ratio (x) = 0.38602 0.59455
# Poissons Ratio (y) = 0.37454 0.06441
# Poissons Ratio (z) = 0.39265 0.04384
#
# Static dielectric constant tensor:
#      x y z
#    x 3.948900 0.000000 0.000000 
#    y 0.000000 3.610830 0.000000 
#    z 0.000000 0.000000 3.682140 
# 
# 
# High freq. dielectric constant tensor:
#      x y z
#    x 1.784040 0.000000 0.000000 
#    y 0.000000 1.784480 0.000000 
#    z 0.000000 0.000000 1.783580 
# 
# From -- ./inp_files/7131.got.cif
#   From: 2010.03.12/outbox.cif.g09.slc.cpg/sg36_4_cif.got.tgz:7131.got - 2010.04.14 02:13:53.
