data_PCOD8175280
_publ_section_title
;
Structure prediction by ZEFSAII (Michael W. Deem and Ramdas Pophale) SiO2 
 PCOD8175280
Probable space group: C M C 21
;
_chemical_formula_sum "Si O2"
_cell_formula_units_Z 64
_cell_length_a 9.016057
_cell_length_b 24.418005
_cell_length_c 14.202064
_cell_angle_alpha 90.000000
_cell_angle_beta 90.000000
_cell_angle_gamma 90.000000
_cell_volume 3126.642972
_symmetry_space_group_name_H-M "C M C 21"
_symmetry_group_IT_number 36
_symmetry_cell_setting 'orthorhombic'
loop_
_space_group_symop_operation_xyz
x,y,z
-x,-y,1/2+z
x,-y,1/2+z
-x,y,z
1/2+x,1/2+y,z
1/2-x,1/2-y,1/2+z
1/2+x,1/2-y,1/2+z
1/2-x,1/2+y,z
loop_
_atom_site_type_symbol
_atom_site_label
_atom_site_fract_x
_atom_site_fract_y
_atom_site_fract_z
Si Si1 0.335921 0.617727 0.397100
Si Si2 0.168430 0.426669 0.734066
Si Si3 0.174955 0.548012 0.696098
Si Si4 0.330463 0.090769 0.015978
Si Si5 0.835312 0.985571 0.013084
Si Si6 0.827659 0.159810 0.723828
Si Si7 0.825894 0.303797 0.036226
Si Si8 0.669697 0.308152 0.431491
O O1 0.500000 0.644740 0.394398
O O2 0.267230 0.615924 0.292990
O O3 0.346542 0.554518 0.425364
O O4 0.231605 0.648238 0.470083
O O5 0.212799 0.490728 0.748352
O O6 0.191632 0.408531 0.627418
O O7 0.000000 0.418503 0.766558
O O8 0.229537 0.542728 0.589315
O O9 0.255882 0.600006 0.743142
O O10 0.000000 0.559184 0.695103
O O11 0.500000 0.080489 0.987422
O O12 0.279286 0.147532 0.973525
O O13 0.233467 0.041684 0.973090
O O14 0.000000 0.996414 0.055517
O O15 0.751641 0.192668 0.638232
O O16 0.807384 0.195903 0.818497
O O17 0.000000 0.151338 0.698469
O O18 0.000000 0.310868 0.052153
O O19 0.786314 0.248037 0.982281
O O20 0.500000 0.324113 0.453907
#
# Coordination Sequence:
#
# PCOD8175280 Si02
#       8
#     8   8   8   8   8   8   8   8
#     4  11  23  37  59  92 124 164 211 254 309 369
#     4   9  21  38  57  88 129 168 206 252 309 371
#     4  10  20  36  59  90 124 162 208 254 309 370
#     4  10  22  40  62  90 124 164 209 257 311 368
#     4  10  20  35  57  87 125 164 202 251 311 367
#     4  11  23  41  64  91 124 160 204 258 313 372
#     4  11  24  44  67  90 124 166 211 262 312 368
#     4  10  25  45  65  92 124 164 209 258 318 373
#
# _framework density 20.469237
#
# number of rings (size 3 to 8) (size 9 to 14) (size 15 to 20)
#    0.000    1.750    1.250    3.000    1.750    7.500 
#    0.000    3.750    0.000    0.000    0.000    0.000 
#    0.000    0.000    0.000    0.000    0.000    0.000 
#
# Total GULP energy -396802.795635 kJ/mol
# GULP energy per Si atom -12400.087364 kJ/mol
# Density = 2.042265 g / cm^3
# Si number density = 20.469237 Si / 1000 Ang^3
#
#
#
# Elastic Constant Matrix: (Units=GPa)
#
#
# Indices 1 2 3 4 5 6 
#
# 1 124.2821 52.9977 49.8098 0.0000 0.0000 0.0000
# 2 52.9977 95.4962 49.9960 0.0000 0.0000 0.0000
# 3 49.8098 49.9960 83.9363 0.0000 0.0000 0.0000
# 4 0.0000 0.0000 0.0000 21.5043 0.0000 0.0000
# 5 0.0000 0.0000 0.0000 0.0000 33.5421 0.0000
# 6 0.0000 0.0000 0.0000 0.0000 0.0000 29.1445
#
#
#
# Elastic Compliance Matrix: (Units=1/GPa)
#
#
# Indices 1 2 3 4 5 6 
#
# 1 0.011568 -0.004107 -0.004419 0.000000 0.000000 0.000000
# 2 -0.004107 0.016675 -0.007495 0.000000 0.000000 0.000000
# 3 -0.004419 -0.007495 0.019000 0.000000 0.000000 0.000000
# 4 0.000000 0.000000 0.000000 0.046502 0.000000 0.000000
# 5 0.000000 0.000000 0.000000 0.000000 0.029813 0.000000
# 6 0.000000 0.000000 0.000000 0.000000 0.000000 0.034312
#
#
# Mechanical properties :
#
#
# Convention : Reuss Voigt Hill
#
# Bulk Modulus (GPa) = 65.77991 67.70239 66.74115
# Shear Modulus (GPa) = 25.64367 26.89892 26.27130
#
# Velocity S-wave (km/s) = 3.54332 3.62900 3.58642
# Velocity P-wave (km/s) = 6.99613 7.12085 7.05877
#
# Compressibility (1/GPa) = 0.01520221
#
# Stress axis : x y z
#
# Youngs Moduli (GPa) = 86.44218 59.97094 52.63023
#
# Poissons Ratio (x) = 0.24628 0.23257
# Poissons Ratio (y) = 0.35499 0.39447
# Poissons Ratio (z) = 0.38198 0.44949
#
# Static dielectric constant tensor:
#      x y z
#    x 3.911340 0.000000 0.000000 
#    y 0.000000 3.691760 0.000000 
#    z 0.000000 0.000000 3.623300 
# 
# 
# High freq. dielectric constant tensor:
#      x y z
#    x 1.813370 0.000000 0.000000 
#    y 0.000000 1.790430 0.000000 
#    z 0.000000 0.000000 1.798310 
# 
# From -- ./inp_files/10931.got.cif
#   From: 2010.03.12/outbox.cif.g09.slc.cpg/sg36_6_cif.got.tgz:10931.got - 2010.04.14 02:13:53.
