data_PCOD8175286
_publ_section_title
;
Structure prediction by ZEFSAII (Michael W. Deem and Ramdas Pophale) SiO2 
 PCOD8175286
Probable space group: C M C 21
;
_chemical_formula_sum "Si O2"
_cell_formula_units_Z 56
_cell_length_a 13.923323
_cell_length_b 22.563498
_cell_length_c 8.816522
_cell_angle_alpha 90.000000
_cell_angle_beta 90.000000
_cell_angle_gamma 90.000000
_cell_volume 2769.788595
_symmetry_space_group_name_H-M "C M C 21"
_symmetry_group_IT_number 36
_symmetry_cell_setting 'orthorhombic'
loop_
_space_group_symop_operation_xyz
x,y,z
-x,-y,1/2+z
x,-y,1/2+z
-x,y,z
1/2+x,1/2+y,z
1/2-x,1/2-y,1/2+z
1/2+x,1/2-y,1/2+z
1/2-x,1/2+y,z
loop_
_atom_site_type_symbol
_atom_site_label
_atom_site_fract_x
_atom_site_fract_y
_atom_site_fract_z
Si Si1 0.719526 0.004681 0.119880
Si Si2 0.197302 0.316631 0.793726
Si Si3 0.226815 0.916206 0.361567
Si Si4 0.609144 0.839755 0.468888
Si Si5 0.388568 0.693830 0.767938
Si Si6 0.612083 0.069926 0.381700
Si Si7 0.106367 0.793716 0.915037
O O1 0.663648 0.048890 0.228847
O O2 0.782706 0.957478 0.213246
O O3 0.789586 0.043240 0.011073
O O4 0.639992 0.970668 0.022172
O O5 0.165449 0.332594 0.625410
O O6 0.166403 0.250138 0.839726
O O7 0.146390 0.362353 0.909719
O O8 0.312955 0.323297 0.808773
O O9 0.334194 0.887622 0.366917
O O10 0.147155 0.865211 0.352195
O O11 0.500000 0.862192 0.496862
O O12 0.607144 0.776662 0.385849
O O13 0.500000 0.702563 0.802017
O O14 0.368658 0.690547 0.588859
O O15 0.500000 0.067203 0.356738
O O16 0.000000 0.818561 0.873498
#
# Coordination Sequence:
#
# PCOD8175286 Si02
#       7
#     8   8   8   8   8   8   8
#     4  10  24  37  58  82 119 165 211 247 306 362
#     4  11  19  34  62  91 121 158 198 253 310 378
#     4  11  21  42  60  86 121 163 203 261 308 368
#     4  10  20  35  58  84 120 165 200 241 308 373
#     4  10  21  38  63  90 119 159 207 257 320 375
#     4  11  21  36  56  86 122 159 201 251 302 366
#     4   9  19  36  58  87 122 161 199 244 311 380
#
# _framework density 20.218150000000001
#
# number of rings (size 3 to 8) (size 9 to 14) (size 15 to 20)
#    0.000    1.714    2.857    3.429    0.000    2.857 
#    0.000    1.429    0.000    3.429    0.000    0.000 
#    0.000    0.000    0.000    0.000    0.000    0.000 
#
# Total GULP energy -347193.847994 kJ/mol
# GULP energy per Si atom -12399.780286 kJ/mol
# Density = 2.017213 g / cm^3
# Si number density = 20.218150 Si / 1000 Ang^3
#
#
#
# Elastic Constant Matrix: (Units=GPa)
#
#
# Indices 1 2 3 4 5 6 
#
# 1 92.1167 21.6189 26.1735 0.0000 0.0000 0.0000
# 2 21.6189 104.3653 32.4143 0.0000 0.0000 0.0000
# 3 26.1735 32.4143 64.3704 0.0000 0.0000 0.0000
# 4 0.0000 0.0000 0.0000 18.8032 0.0000 0.0000
# 5 0.0000 0.0000 0.0000 0.0000 26.4879 0.0000
# 6 0.0000 0.0000 0.0000 0.0000 0.0000 25.1518
#
#
#
# Elastic Compliance Matrix: (Units=1/GPa)
#
#
# Indices 1 2 3 4 5 6 
#
# 1 0.012397 -0.001188 -0.004442 0.000000 0.000000 0.000000
# 2 -0.001188 0.011472 -0.005294 0.000000 0.000000 0.000000
# 3 -0.004442 -0.005294 0.020007 0.000000 0.000000 0.000000
# 4 0.000000 0.000000 0.000000 0.053182 0.000000 0.000000
# 5 0.000000 0.000000 0.000000 0.000000 0.037753 0.000000
# 6 0.000000 0.000000 0.000000 0.000000 0.000000 0.039759
#
#
# Mechanical properties :
#
#
# Convention : Reuss Voigt Hill
#
# Bulk Modulus (GPa) = 45.39793 46.80733 46.10263
# Shear Modulus (GPa) = 24.53854 26.13162 25.33508
#
# Velocity S-wave (km/s) = 3.48758 3.59901 3.54374
# Velocity P-wave (km/s) = 6.22258 6.36175 6.29255
#
# Compressibility (1/GPa) = 0.02202744
#
# Stress axis : x y z
#
# Youngs Moduli (GPa) = 80.66545 87.16863 49.98237
#
# Poissons Ratio (x) = 0.10358 0.22204
# Poissons Ratio (y) = 0.09585 0.26459
# Poissons Ratio (z) = 0.35834 0.46144
#
# Static dielectric constant tensor:
#      x y z
#    x 3.522560 0.000000 0.000000 
#    y 0.000000 3.987770 0.000000 
#    z 0.000000 0.000000 3.543020 
# 
# 
# High freq. dielectric constant tensor:
#      x y z
#    x 1.772430 0.000000 0.000000 
#    y 0.000000 1.802190 0.000000 
#    z 0.000000 0.000000 1.773250 
# 
# From -- ./inp_files/4174.got.cif
#   From: 2010.03.12/outbox.cif.g09.slc.cpg/sg36_3_cif.got.tgz:4174.got - 2010.04.14 02:13:53.
