data_PCOD8175499
_publ_section_title
;
Structure prediction by ZEFSAII (Michael W. Deem and Ramdas Pophale) SiO2 
 PCOD8175499
Probable space group: C M C 21
;
_chemical_formula_sum "Si O2"
_cell_formula_units_Z 64
_cell_length_a 9.070606
_cell_length_b 24.076652
_cell_length_c 15.125279
_cell_angle_alpha 90.000000
_cell_angle_beta 90.000000
_cell_angle_gamma 90.000000
_cell_volume 3303.207020
_symmetry_space_group_name_H-M "C M C 21"
_symmetry_group_IT_number 36
_symmetry_cell_setting 'orthorhombic'
loop_
_space_group_symop_operation_xyz
x,y,z
-x,-y,1/2+z
x,-y,1/2+z
-x,y,z
1/2+x,1/2+y,z
1/2-x,1/2-y,1/2+z
1/2+x,1/2-y,1/2+z
1/2-x,1/2+y,z
loop_
_atom_site_type_symbol
_atom_site_label
_atom_site_fract_x
_atom_site_fract_y
_atom_site_fract_z
Si Si1 0.323757 0.319798 0.805610
Si Si2 0.332614 0.868863 0.225960
Si Si3 0.333408 0.125198 0.929158
Si Si4 0.175000 0.759877 0.170790
Si Si5 0.167108 0.971177 0.157905
Si Si6 0.325488 0.246244 0.969638
Si Si7 0.666931 0.519202 0.966500
Si Si8 0.173953 0.945717 0.807769
O O1 0.500000 0.316047 0.795837
O O2 0.251286 0.291780 0.719603
O O3 0.268013 0.289935 0.896049
O O4 0.263969 0.383016 0.808033
O O5 0.500000 0.853989 0.198386
O O6 0.325079 0.888964 0.326235
O O7 0.229386 0.815823 0.216200
O O8 0.273477 0.918934 0.167182
O O9 0.500000 0.124909 0.964498
O O10 0.260615 0.185173 0.948473
O O11 0.248294 0.077356 0.980929
O O12 0.000000 0.754291 0.179859
O O13 0.224465 0.762911 0.068086
O O14 0.000000 0.954583 0.184840
O O15 0.219670 0.023217 0.217376
O O16 0.176468 0.985889 0.056318
O O17 0.500000 0.244182 0.961520
O O18 0.500000 0.533468 0.940119
O O19 0.739537 0.480885 0.890083
O O20 0.000000 0.941138 0.818749
#
# Coordination Sequence:
#
# PCOD8175499 Si02
#       8
#     8   8   8   8   8   8   8   8
#     4  10  20  39  61  81 115 156 192 231 284 348
#     4  11  22  39  62  85 113 153 196 240 292 343
#     4  10  20  38  60  82 111 151 193 236 285 342
#     4  11  23  38  60  88 115 149 194 243 291 342
#     4  10  21  37  58  87 118 149 191 237 285 338
#     4   9  20  38  59  82 112 154 193 227 284 351
#     4  10  21  36  58  87 114 149 191 234 285 339
#     4   9  19  35  56  82 114 151 188 228 274 333
#
# _framework density 19.375109999999999
#
# number of rings (size 3 to 8) (size 9 to 14) (size 15 to 20)
#    0.000    2.000    2.500    0.750    3.500    1.000 
#    0.000    3.125    0.000    0.000    0.000    0.000 
#    0.000    0.000    0.000    0.000    0.000    0.000 
#
# Total GULP energy -396818.965719 kJ/mol
# GULP energy per Si atom -12400.592679 kJ/mol
# Density = 1.933101 g / cm^3
# Si number density = 19.375110 Si / 1000 Ang^3
#
#
#
# Elastic Constant Matrix: (Units=GPa)
#
#
# Indices 1 2 3 4 5 6 
#
# 1 48.0808 27.1813 21.4986 0.0000 0.0000 0.0000
# 2 27.1813 122.3266 15.4471 0.0000 0.0000 0.0000
# 3 21.4986 15.4471 76.4336 0.0000 0.0000 0.0000
# 4 0.0000 0.0000 0.0000 26.3106 0.0000 0.0000
# 5 0.0000 0.0000 0.0000 0.0000 20.0399 0.0000
# 6 0.0000 0.0000 0.0000 0.0000 0.0000 30.2171
#
#
#
# Elastic Compliance Matrix: (Units=1/GPa)
#
#
# Indices 1 2 3 4 5 6 
#
# 1 0.026554 -0.005087 -0.006441 0.000000 0.000000 0.000000
# 2 -0.005087 0.009363 -0.000462 0.000000 0.000000 0.000000
# 3 -0.006441 -0.000462 0.014988 0.000000 0.000000 0.000000
# 4 0.000000 0.000000 0.000000 0.038007 0.000000 0.000000
# 5 0.000000 0.000000 0.000000 0.000000 0.049900 0.000000
# 6 0.000000 0.000000 0.000000 0.000000 0.000000 0.033094
#
#
# Mechanical properties :
#
#
# Convention : Reuss Voigt Hill
#
# Bulk Modulus (GPa) = 37.13752 41.67722 39.40737
# Shear Modulus (GPa) = 24.40669 27.49446 25.95057
#
# Velocity S-wave (km/s) = 3.55307 3.77113 3.66372
# Velocity P-wave (km/s) = 6.00347 6.36548 6.18712
#
# Compressibility (1/GPa) = 0.02692695
#
# Stress axis : x y z
#
# Youngs Moduli (GPa) = 37.65901 106.79807 66.71946
#
# Poissons Ratio (x) = 0.54329 0.42973
# Poissons Ratio (y) = 0.19157 0.03079
# Poissons Ratio (z) = 0.24255 0.04929
#
# Static dielectric constant tensor:
#      x y z
#    x 3.311840 0.000000 0.000000 
#    y 0.000000 3.671230 0.000000 
#    z 0.000000 0.000000 3.568740 
# 
# 
# High freq. dielectric constant tensor:
#      x y z
#    x 1.721200 0.000000 0.000000 
#    y 0.000000 1.766210 0.000000 
#    z 0.000000 0.000000 1.760400 
# 
# From -- ./inp_files/10877.got.cif
#   From: 2010.03.12/outbox.cif.g09.slc.cpg/sg36_6_cif.got.tgz:10877.got - 2010.04.14 02:13:53.
