data_PCOD8175097
_publ_section_title
;
Structure prediction by ZEFSAII (Michael W. Deem and Ramdas Pophale) SiO2 
 PCOD8175097
Probable space group: C M C 21
;
_chemical_formula_sum "Si O2"
_cell_formula_units_Z 56
_cell_length_a 9.817741
_cell_length_b 14.000970
_cell_length_c 18.898735
_cell_angle_alpha 90.000000
_cell_angle_beta 90.000000
_cell_angle_gamma 90.000000
_cell_volume 2597.780373
_symmetry_space_group_name_H-M "C M C 21"
_symmetry_group_IT_number 36
_symmetry_cell_setting 'orthorhombic'
loop_
_space_group_symop_operation_xyz
x,y,z
-x,-y,1/2+z
x,-y,1/2+z
-x,y,z
1/2+x,1/2+y,z
1/2-x,1/2-y,1/2+z
1/2+x,1/2-y,1/2+z
1/2-x,1/2+y,z
loop_
_atom_site_type_symbol
_atom_site_label
_atom_site_fract_x
_atom_site_fract_y
_atom_site_fract_z
Si Si1 0.649338 0.357175 0.939230
Si Si2 0.844151 0.651368 0.313803
Si Si3 0.251658 0.518063 0.560206
Si Si4 0.348477 0.198904 0.624867
Si Si5 0.850770 0.160215 0.745987
Si Si6 0.848749 0.955636 0.714221
Si Si7 0.653540 0.183025 0.034365
O O1 0.500000 0.362836 0.903263
O O2 0.765170 0.385014 0.882981
O O3 0.646526 0.432296 0.004268
O O4 0.675070 0.248039 0.964893
O O5 0.841498 0.767443 0.312501
O O6 0.768566 0.615425 0.242103
O O7 0.000000 0.613014 0.315493
O O8 0.144406 0.602307 0.578223
O O9 0.325752 0.486691 0.632636
O O10 0.178822 0.429385 0.520916
O O11 0.500000 0.237720 0.636513
O O12 0.280047 0.178333 0.698885
O O13 0.262929 0.285084 0.592020
O O14 0.000000 0.178020 0.708690
O O15 0.843442 0.048466 0.766279
O O16 0.000000 0.909230 0.719424
O O17 0.500000 0.197546 0.063131
#
# Coordination Sequence:
#
# PCOD8175097 Si02
#       7
#     8   8   8   8   8   8   8
#     4  10  23  42  61  85 119 159 202 249 300 361
#     4  11  24  41  60  85 119 160 203 250 304 360
#     4  10  21  38  63  93 123 155 197 251 306 362
#     4  10  20  33  55  88 120 149 188 239 291 347
#     4   9  20  38  57  79 114 155 193 237 291 349
#     4  10  21  39  64  92 120 156 202 251 303 361
#     4  10  21  37  58  82 113 154 193 233 291 354
#
# _framework density 21.556864999999998
#
# number of rings (size 3 to 8) (size 9 to 14) (size 15 to 20)
#    0.000    2.000    0.000    2.571    0.000   14.857 
#    0.000    2.857    0.000    0.000    0.000    0.000 
#    0.000    0.000    0.000    0.000    0.000    0.000 
#
# Total GULP energy -346911.952776 kJ/mol
# GULP energy per Si atom -12389.712599 kJ/mol
# Density = 2.150780 g / cm^3
# Si number density = 21.556865 Si / 1000 Ang^3
#
#
#
# Elastic Constant Matrix: (Units=GPa)
#
#
# Indices 1 2 3 4 5 6 
#
# 1 168.7705 33.1050 37.7992 0.0000 0.0000 0.0000
# 2 33.1050 117.5116 26.7919 0.0000 0.0000 0.0000
# 3 37.7992 26.7919 68.2490 0.0000 0.0000 0.0000
# 4 0.0000 0.0000 0.0000 25.6701 0.0000 0.0000
# 5 0.0000 0.0000 0.0000 0.0000 25.9580 0.0000
# 6 0.0000 0.0000 0.0000 0.0000 0.0000 17.7715
#
#
#
# Elastic Compliance Matrix: (Units=1/GPa)
#
#
# Indices 1 2 3 4 5 6 
#
# 1 0.006910 -0.001180 -0.003364 0.000000 0.000000 0.000000
# 2 -0.001180 0.009548 -0.003095 0.000000 0.000000 0.000000
# 3 -0.003364 -0.003095 0.017730 0.000000 0.000000 0.000000
# 4 0.000000 0.000000 0.000000 0.038956 0.000000 0.000000
# 5 0.000000 0.000000 0.000000 0.000000 0.038524 0.000000
# 6 0.000000 0.000000 0.000000 0.000000 0.000000 0.056270
#
#
# Mechanical properties :
#
#
# Convention : Reuss Voigt Hill
#
# Bulk Modulus (GPa) = 52.87867 61.10258 56.99062
# Shear Modulus (GPa) = 26.38277 31.00227 28.69252
#
# Velocity S-wave (km/s) = 3.50218 3.79643 3.65227
# Velocity P-wave (km/s) = 6.39819 6.90098 6.65433
#
# Compressibility (1/GPa) = 0.01891122
#
# Stress axis : x y z
#
# Youngs Moduli (GPa) = 144.71720 104.73721 56.40101
#
# Poissons Ratio (x) = 0.12356 0.18973
# Poissons Ratio (y) = 0.17072 0.17454
# Poissons Ratio (z) = 0.48682 0.32413
#
# Static dielectric constant tensor:
#      x y z
#    x 3.854930 0.000000 0.000000 
#    y 0.000000 4.210730 0.000000 
#    z 0.000000 0.000000 3.432000 
# 
# 
# High freq. dielectric constant tensor:
#      x y z
#    x 1.852760 0.000000 0.000000 
#    y 0.000000 1.858650 0.000000 
#    z 0.000000 0.000000 1.806180 
# 
# From -- ./inp_files/15482.got.cif
#   From: 2010.03.12/outbox.cif.g09.slc.cpg/sg36_8_cif.got.tgz:15482.got - 2010.04.14 02:13:53.
