data_PCOD8175109
_publ_section_title
;
Structure prediction by ZEFSAII (Michael W. Deem and Ramdas Pophale) SiO2 
 PCOD8175109
Probable space group: C M C 21
;
_chemical_formula_sum "Si O2"
_cell_formula_units_Z 64
_cell_length_a 8.700322
_cell_length_b 18.363316
_cell_length_c 20.598729
_cell_angle_alpha 90.000000
_cell_angle_beta 90.000000
_cell_angle_gamma 90.000000
_cell_volume 3290.992238
_symmetry_space_group_name_H-M "C M C 21"
_symmetry_group_IT_number 36
_symmetry_cell_setting 'orthorhombic'
loop_
_space_group_symop_operation_xyz
x,y,z
-x,-y,1/2+z
x,-y,1/2+z
-x,y,z
1/2+x,1/2+y,z
1/2-x,1/2-y,1/2+z
1/2+x,1/2-y,1/2+z
1/2-x,1/2+y,z
loop_
_atom_site_type_symbol
_atom_site_label
_atom_site_fract_x
_atom_site_fract_y
_atom_site_fract_z
Si Si1 0.179346 0.787881 0.157880
Si Si2 0.677063 0.957117 0.056358
Si Si3 0.326081 0.006984 0.922198
Si Si4 0.320344 0.748163 0.281118
Si Si5 0.677243 0.599639 0.817091
Si Si6 0.325073 0.689095 0.519157
Si Si7 0.324587 0.938028 0.194457
Si Si8 0.824022 0.338821 0.892076
O O1 0.231135 0.730159 0.213108
O O2 0.207429 0.760436 0.083353
O O3 0.289261 0.856206 0.171849
O O4 0.000000 0.808637 0.166913
O O5 0.500000 0.927674 0.051383
O O6 0.797081 0.892958 0.043321
O O7 0.706257 0.988133 0.129867
O O8 0.700181 0.017833 0.000041
O O9 0.500000 0.026989 0.902640
O O10 0.290410 0.923399 0.904606
O O11 0.212412 0.060671 0.884988
O O12 0.500000 0.746957 0.267832
O O13 0.272551 0.826181 0.310803
O O14 0.278373 0.685146 0.331618
O O15 0.500000 0.620005 0.814203
O O16 0.720641 0.544178 0.757593
O O17 0.500000 0.697556 0.496021
O O18 0.219691 0.707465 0.457016
O O19 0.500000 0.945255 0.217204
O O20 0.000000 0.322567 0.875778
#
# Coordination Sequence:
#
# PCOD8175109 Si02
#       8
#     8   8   8   8   8   8   8   8
#     4   9  16  27  44  68  97 125 157 198 240 281
#     4   8  15  27  45  68  93 122 157 198 241 283
#     4   9  18  33  51  72  98 128 160 196 240 288
#     4  11  21  33  51  73  99 130 165 203 243 290
#     4  11  21  32  48  72 101 131 163 199 240 286
#     4   9  16  26  44  70  97 124 157 197 238 283
#     4   9  15  26  45  68  93 122 158 198 240 283
#     4  10  20  34  52  73 100 130 161 201 246 292
#
# _framework density 19.447023000000002
#
# number of rings (size 3 to 8) (size 9 to 14) (size 15 to 20)
#    0.000    2.500    0.000    6.000    0.000    4.500 
#    0.000    0.000    0.000    1.500    0.000    7.000 
#    0.000    0.000    0.000    0.000    0.000    0.000 
#
# Total GULP energy -396446.332700 kJ/mol
# GULP energy per Si atom -12388.947897 kJ/mol
# Density = 1.940276 g / cm^3
# Si number density = 19.447023 Si / 1000 Ang^3
#
#
#
# Elastic Constant Matrix: (Units=GPa)
#
#
# Indices 1 2 3 4 5 6 
#
# 1 69.6647 5.1844 -0.8573 0.0000 0.0000 0.0000
# 2 5.1844 12.0479 -7.5680 0.0000 0.0000 0.0000
# 3 -0.8573 -7.5680 20.4128 0.0000 0.0000 0.0000
# 4 0.0000 0.0000 0.0000 23.2703 0.0000 0.0000
# 5 0.0000 0.0000 0.0000 0.0000 34.4685 0.0000
# 6 0.0000 0.0000 0.0000 0.0000 0.0000 17.6298
#
#
#
# Elastic Compliance Matrix: (Units=1/GPa)
#
#
# Indices 1 2 3 4 5 6 
#
# 1 0.014911 -0.007851 -0.002285 0.000000 0.000000 0.000000
# 2 -0.007851 0.112335 0.041318 0.000000 0.000000 0.000000
# 3 -0.002285 0.041318 0.064212 0.000000 0.000000 0.000000
# 4 0.000000 0.000000 0.000000 0.042973 0.000000 0.000000
# 5 0.000000 0.000000 0.000000 0.000000 0.029012 0.000000
# 6 0.000000 0.000000 0.000000 0.000000 0.000000 0.056722
#
#
# Mechanical properties :
#
#
# Convention : Reuss Voigt Hill
#
# Bulk Modulus (GPa) = 3.93977 10.62706 7.28341
# Shear Modulus (GPa) = 14.60247 22.09814 18.35031
#
# Velocity S-wave (km/s) = 2.74320 3.37460 3.07515
# Velocity P-wave (km/s) = 3.47330 4.54537 4.04501
#
# Compressibility (1/GPa) = 0.25382197
#
# Stress axis : x y z
#
# Youngs Moduli (GPa) = 67.06612 8.90193 15.57351
#
# Poissons Ratio (x) = 0.06989 0.03558
# Poissons Ratio (y) = 0.52656 -0.64347
# Poissons Ratio (z) = 0.15322 -0.36781
#
# Static dielectric constant tensor:
#      x y z
#    x 3.525990 0.000000 0.000000 
#    y 0.000000 2.818140 0.000000 
#    z 0.000000 0.000000 4.408620 
# 
# 
# High freq. dielectric constant tensor:
#      x y z
#    x 1.763980 0.000000 0.000000 
#    y 0.000000 1.670110 0.000000 
#    z 0.000000 0.000000 1.788560 
# 
# From -- ./inp_files/15802.got.cif
#   From: 2010.03.12/outbox.cif.g09.slc.cpg/sg36_8_cif.got.tgz:15802.got - 2010.04.14 02:13:53.
