data_PCOD8175514
_publ_section_title
;
Structure prediction by ZEFSAII (Michael W. Deem and Ramdas Pophale) SiO2 
 PCOD8175514
Probable space group: C M C 21
;
_chemical_formula_sum "Si O2"
_cell_formula_units_Z 64
_cell_length_a 8.433826
_cell_length_b 23.851074
_cell_length_c 15.490333
_cell_angle_alpha 90.000000
_cell_angle_beta 90.000000
_cell_angle_gamma 90.000000
_cell_volume 3115.970451
_symmetry_space_group_name_H-M "C M C 21"
_symmetry_group_IT_number 36
_symmetry_cell_setting 'orthorhombic'
loop_
_space_group_symop_operation_xyz
x,y,z
-x,-y,1/2+z
x,-y,1/2+z
-x,y,z
1/2+x,1/2+y,z
1/2-x,1/2-y,1/2+z
1/2+x,1/2-y,1/2+z
1/2-x,1/2+y,z
loop_
_atom_site_type_symbol
_atom_site_label
_atom_site_fract_x
_atom_site_fract_y
_atom_site_fract_z
Si Si1 0.689082 0.143208 0.199940
Si Si2 0.683193 0.128625 0.011345
Si Si3 0.811943 0.571987 0.361543
Si Si4 0.818989 0.756532 0.458224
Si Si5 0.310648 0.055569 0.855283
Si Si6 0.683556 0.751523 0.274941
Si Si7 0.816189 0.866485 0.211009
Si Si8 0.185437 0.636776 0.529168
O O1 0.500000 0.150120 0.201979
O O2 0.752963 0.103248 0.276179
O O3 0.768302 0.204370 0.206029
O O4 0.747571 0.117343 0.108231
O O5 0.500000 0.114696 0.010680
O O6 0.706156 0.193223 0.986174
O O7 0.759788 0.087723 0.939626
O O8 0.752217 0.508283 0.361240
O O9 0.746904 0.602761 0.446973
O O10 0.000000 0.575009 0.360881
O O11 0.788990 0.740406 0.359191
O O12 0.782711 0.702733 0.516783
O O13 0.000000 0.775956 0.468825
O O14 0.500000 0.060349 0.848366
O O15 0.233312 0.081685 0.770413
O O16 0.500000 0.746905 0.299528
O O17 0.713463 0.812398 0.235258
O O18 0.780003 0.884109 0.112781
O O19 0.000000 0.852495 0.223449
O O20 0.000000 0.624347 0.541850
#
# Coordination Sequence:
#
# PCOD8175514 Si02
#       8
#     8   8   8   8   8   8   8   8
#     4  10  20  38  61  90 122 156 196 243 296 354
#     4  10  21  35  57  88 121 155 196 241 292 350
#     4   9  19  38  64  90 119 156 202 248 292 346
#     4  11  21  36  61  89 120 153 190 240 302 360
#     4  10  21  39  62  89 119 158 205 250 293 346
#     4  12  23  37  60  89 120 156 196 243 301 361
#     4  12  25  40  60  88 122 161 201 247 300 353
#     4  10  21  39  63  91 121 155 198 244 296 360
#
# _framework density 20.539348
#
# number of rings (size 3 to 8) (size 9 to 14) (size 15 to 20)
#    0.000    1.500    2.500    3.375    0.000    4.500 
#    0.000    5.000    0.000    1.500    0.000    0.000 
#    0.000    0.000    0.000    0.000    0.000    0.000 
#
# Total GULP energy -396901.064348 kJ/mol
# GULP energy per Si atom -12403.158261 kJ/mol
# Density = 2.049260 g / cm^3
# Si number density = 20.539348 Si / 1000 Ang^3
#
#
#
# Elastic Constant Matrix: (Units=GPa)
#
#
# Indices 1 2 3 4 5 6 
#
# 1 30.2663 19.8507 20.7664 0.0000 0.0000 0.0000
# 2 19.8507 105.7846 37.4061 0.0000 0.0000 0.0000
# 3 20.7664 37.4061 136.9825 0.0000 0.0000 0.0000
# 4 0.0000 0.0000 0.0000 19.3826 0.0000 0.0000
# 5 0.0000 0.0000 0.0000 0.0000 21.1067 0.0000
# 6 0.0000 0.0000 0.0000 0.0000 0.0000 23.2723
#
#
#
# Elastic Compliance Matrix: (Units=1/GPa)
#
#
# Indices 1 2 3 4 5 6 
#
# 1 0.039977 -0.005932 -0.004441 0.000000 0.000000 0.000000
# 2 -0.005932 0.011344 -0.002198 0.000000 0.000000 0.000000
# 3 -0.004441 -0.002198 0.008574 0.000000 0.000000 0.000000
# 4 0.000000 0.000000 0.000000 0.051593 0.000000 0.000000
# 5 0.000000 0.000000 0.000000 0.000000 0.047378 0.000000
# 6 0.000000 0.000000 0.000000 0.000000 0.000000 0.042970
#
#
# Mechanical properties :
#
#
# Convention : Reuss Voigt Hill
#
# Bulk Modulus (GPa) = 28.77433 47.67552 38.22492
# Shear Modulus (GPa) = 20.95902 25.75301 23.35601
#
# Velocity S-wave (km/s) = 3.19789 3.54480 3.37580
# Velocity P-wave (km/s) = 5.26071 6.32585 5.81771
#
# Compressibility (1/GPa) = 0.03475320
#
# Stress axis : x y z
#
# Youngs Moduli (GPa) = 25.01423 88.15547 116.63516
#
# Poissons Ratio (x) = 0.52289 0.51795
# Poissons Ratio (y) = 0.14837 0.25641
# Poissons Ratio (z) = 0.11108 0.19380
#
# Static dielectric constant tensor:
#      x y z
#    x 3.377990 0.000000 0.000000 
#    y 0.000000 3.680360 0.000000 
#    z 0.000000 0.000000 4.047310 
# 
# 
# High freq. dielectric constant tensor:
#      x y z
#    x 1.776900 0.000000 0.000000 
#    y 0.000000 1.796130 0.000000 
#    z 0.000000 0.000000 1.821310 
# 
# From -- ./inp_files/10916.got.cif
#   From: 2010.03.12/outbox.cif.g09.slc.cpg/sg36_6_cif.got.tgz:10916.got - 2010.04.14 02:13:53.
