data_PCOD8175551
_publ_section_title
;
Structure prediction by ZEFSAII (Michael W. Deem and Ramdas Pophale) SiO2 
 PCOD8175551
Probable space group: C M C 21
;
_chemical_formula_sum "Si O2"
_cell_formula_units_Z 40
_cell_length_a 21.126345
_cell_length_b 9.451925
_cell_length_c 8.412101
_cell_angle_alpha 90.000000
_cell_angle_beta 90.000000
_cell_angle_gamma 90.000000
_cell_volume 1679.767263
_symmetry_space_group_name_H-M "C M C 21"
_symmetry_group_IT_number 36
_symmetry_cell_setting 'orthorhombic'
loop_
_space_group_symop_operation_xyz
x,y,z
-x,-y,1/2+z
x,-y,1/2+z
-x,y,z
1/2+x,1/2+y,z
1/2-x,1/2-y,1/2+z
1/2+x,1/2-y,1/2+z
1/2-x,1/2+y,z
loop_
_atom_site_type_symbol
_atom_site_label
_atom_site_fract_x
_atom_site_fract_y
_atom_site_fract_z
Si Si1 0.500000 0.215384 0.911581
Si Si2 0.136014 0.605294 0.586609
Si Si3 0.626746 0.356479 0.820013
Si Si4 0.186531 0.075679 0.643101
Si Si5 0.300175 0.117419 0.263138
Si Si6 0.500000 0.048147 0.594534
O O1 0.560031 0.318330 0.899126
O O2 0.500000 0.090665 0.779970
O O3 0.500000 0.123224 0.073691
O O4 0.152391 0.728161 0.712155
O O5 0.139098 0.454674 0.678316
O O6 0.190377 0.604271 0.452887
O O7 0.064065 0.617462 0.519026
O O8 0.622481 0.499016 0.711395
O O9 0.678799 0.389105 0.957018
O O10 0.202618 0.217108 0.734788
O O11 0.239789 0.960591 0.688145
#
# Coordination Sequence:
#
# PCOD8175551 Si02
#       6
#     4   8   8   8   8   4
#     4  10  22  42  70 106 146 192 238 292 352 426
#     4  11  23  43  69 103 138 183 234 296 352 427
#     4  11  25  45  69 100 142 185 239 294 359 426
#     4  12  26  45  66  97 136 187 238 300 360 428
#     4  12  25  42  67  97 136 182 237 292 359 425
#     4  10  20  38  68 102 138 180 230 276 340 418
#
# _framework density 23.812822000000001
#
# number of rings (size 3 to 8) (size 9 to 14) (size 15 to 20)
#    0.000    0.800    0.000    8.400    0.000    4.000 
#    0.000    4.000    0.000    0.000    0.000    0.000 
#    0.000    0.000    0.000    0.000    0.000    0.000 
#
# Total GULP energy -247889.646345 kJ/mol
# GULP energy per Si atom -12394.482317 kJ/mol
# Density = 2.375862 g / cm^3
# Si number density = 23.812822 Si / 1000 Ang^3
#
#
#
# Elastic Constant Matrix: (Units=GPa)
#
#
# Indices 1 2 3 4 5 6 
#
# 1 132.4853 61.8890 53.3351 0.0000 0.0000 0.0000
# 2 61.8890 173.2186 39.2605 0.0000 0.0000 0.0000
# 3 53.3351 39.2605 108.8348 0.0000 0.0000 0.0000
# 4 0.0000 0.0000 0.0000 58.3515 0.0000 0.0000
# 5 0.0000 0.0000 0.0000 0.0000 36.8522 0.0000
# 6 0.0000 0.0000 0.0000 0.0000 0.0000 36.0464
#
#
#
# Elastic Compliance Matrix: (Units=1/GPa)
#
#
# Indices 1 2 3 4 5 6 
#
# 1 0.010536 -0.002825 -0.004144 0.000000 0.000000 0.000000
# 2 -0.002825 0.007045 -0.001157 0.000000 0.000000 0.000000
# 3 -0.004144 -0.001157 0.011636 0.000000 0.000000 0.000000
# 4 0.000000 0.000000 0.000000 0.017138 0.000000 0.000000
# 5 0.000000 0.000000 0.000000 0.000000 0.027135 0.000000
# 6 0.000000 0.000000 0.000000 0.000000 0.000000 0.027742
#
#
# Mechanical properties :
#
#
# Convention : Reuss Voigt Hill
#
# Bulk Modulus (GPa) = 77.13073 80.38974 78.76024
# Shear Modulus (GPa) = 41.04899 43.58698 42.31798
#
# Velocity S-wave (km/s) = 4.15639 4.28296 4.22015
# Velocity P-wave (km/s) = 7.44949 7.63483 7.54273
#
# Compressibility (1/GPa) = 0.01296500
#
# Stress axis : x y z
#
# Youngs Moduli (GPa) = 94.91219 141.95219 85.93744
#
# Poissons Ratio (x) = 0.40103 0.35614
# Poissons Ratio (y) = 0.26814 0.09941
# Poissons Ratio (z) = 0.39333 0.16421
#
# Static dielectric constant tensor:
#      x y z
#    x 4.447250 0.000000 0.000000 
#    y 0.000000 4.497680 0.000000 
#    z 0.000000 0.000000 4.381100 
# 
# 
# High freq. dielectric constant tensor:
#      x y z
#    x 1.952490 0.000000 0.000000 
#    y 0.000000 1.944620 0.000000 
#    z 0.000000 0.000000 1.946640 
# 
# From -- ./inp_files/5492.got.cif
#   From: 2010.03.12/outbox.cif.g09.slc.cpg/sg36_3_cif.got.tgz:5492.got - 2010.04.14 02:13:53.
