data_PCOD8175039
_publ_section_title
;
Structure prediction by ZEFSAII (Michael W. Deem and Ramdas Pophale) SiO2 
 PCOD8175039
Probable space group: C M C 21
;
_chemical_formula_sum "Si O2"
_cell_formula_units_Z 64
_cell_length_a 23.127736
_cell_length_b 17.260913
_cell_length_c 9.647999
_cell_angle_alpha 90.000000
_cell_angle_beta 90.000000
_cell_angle_gamma 90.000000
_cell_volume 3851.537535
_symmetry_space_group_name_H-M "C M C 21"
_symmetry_group_IT_number 36
_symmetry_cell_setting 'orthorhombic'
loop_
_space_group_symop_operation_xyz
x,y,z
-x,-y,1/2+z
x,-y,1/2+z
-x,y,z
1/2+x,1/2+y,z
1/2-x,1/2-y,1/2+z
1/2+x,1/2-y,1/2+z
1/2-x,1/2+y,z
loop_
_atom_site_type_symbol
_atom_site_label
_atom_site_fract_x
_atom_site_fract_y
_atom_site_fract_z
Si Si1 0.432737 0.935801 0.872680
Si Si2 0.744221 0.445561 0.522741
Si Si3 0.808377 0.205971 0.075193
Si Si4 0.378485 0.844736 0.124504
Si Si5 0.714822 0.256348 0.275229
Si Si6 0.435032 0.115941 0.900015
Si Si7 0.857620 0.633408 0.141589
Si Si8 0.744216 0.083820 0.710735
O O1 0.500000 0.915021 0.851946
O O2 0.399297 0.922568 0.728982
O O3 0.424347 0.024426 0.914619
O O4 0.404647 0.881918 0.987964
O O5 0.689319 0.386570 0.543941
O O6 0.799851 0.411628 0.600955
O O7 0.758928 0.458417 0.360748
O O8 0.729530 0.527035 0.594351
O O9 0.868584 0.251958 0.098156
O O10 0.771202 0.215808 0.213582
O O11 0.777723 0.246009 0.941432
O O12 0.424941 0.854295 0.245103
O O13 0.318896 0.886693 0.166081
O O14 0.657324 0.210989 0.227579
O O15 0.711366 0.344610 0.220857
O O16 0.500000 0.137352 0.941855
O O17 0.391397 0.159450 0.003375
#
# Coordination Sequence:
#
# PCOD8175039 Si02
#       8
#     8   8   8   8   8   8   8   8
#     4  11  22  34  49  68  93 129 170 205 236 270
#     4  10  20  32  49  73  98 125 158 194 236 288
#     4   9  19  33  48  69  95 125 161 196 233 285
#     4  11  20  34  50  67  97 134 163 196 238 280
#     4   9  19  33  48  69  95 125 161 196 233 285
#     4  11  22  34  47  70  99 127 166 207 234 270
#     4  11  20  34  50  67  97 134 163 196 238 280
#     4  10  20  32  49  73  98 125 158 194 236 288
#
# _framework density 16.61674
#
# number of rings (size 3 to 8) (size 9 to 14) (size 15 to 20)
#    0.000    1.750    2.500    3.000    3.500    3.000 
#    0.000    0.000    0.000    0.000    0.000    0.000 
#    0.000    6.000    0.000    0.000    0.000    0.000 
#
# Total GULP energy -396686.426503 kJ/mol
# GULP energy per Si atom -12396.450828 kJ/mol
# Density = 1.657892 g / cm^3
# Si number density = 16.616740 Si / 1000 Ang^3
#
#
#
# Elastic Constant Matrix: (Units=GPa)
#
#
# Indices 1 2 3 4 5 6 
#
# 1 50.1078 20.3488 4.3723 0.0000 0.0000 0.0000
# 2 20.3488 41.5365 -1.1616 0.0000 0.0000 0.0000
# 3 4.3723 -1.1616 52.7712 0.0000 0.0000 0.0000
# 4 0.0000 0.0000 0.0000 26.7653 0.0000 0.0000
# 5 0.0000 0.0000 0.0000 0.0000 19.1776 0.0000
# 6 0.0000 0.0000 0.0000 0.0000 0.0000 17.5998
#
#
#
# Elastic Compliance Matrix: (Units=1/GPa)
#
#
# Indices 1 2 3 4 5 6 
#
# 1 0.025204 -0.012414 -0.002362 0.000000 0.000000 0.000000
# 2 -0.012414 0.030204 0.001693 0.000000 0.000000 0.000000
# 3 -0.002362 0.001693 0.019183 0.000000 0.000000 0.000000
# 4 0.000000 0.000000 0.000000 0.037362 0.000000 0.000000
# 5 0.000000 0.000000 0.000000 0.000000 0.052144 0.000000
# 6 0.000000 0.000000 0.000000 0.000000 0.000000 0.056819
#
#
# Mechanical properties :
#
#
# Convention : Reuss Voigt Hill
#
# Bulk Modulus (GPa) = 20.64949 21.28162 20.96556
# Shear Modulus (GPa) = 18.99538 20.76559 19.88049
#
# Velocity S-wave (km/s) = 3.38471 3.53892 3.46267
# Velocity P-wave (km/s) = 5.26583 5.43449 5.35082
#
# Compressibility (1/GPa) = 0.04842734
#
# Stress axis : x y z
#
# Youngs Moduli (GPa) = 39.67589 33.10812 52.13039
#
# Poissons Ratio (x) = 0.41099 0.12311
# Poissons Ratio (y) = 0.49252 -0.08828
# Poissons Ratio (z) = 0.09370 -0.05606
#
# Static dielectric constant tensor:
#      x y z
#    x 2.973420 0.000000 0.000000 
#    y 0.000000 3.267270 0.000000 
#    z 0.000000 0.000000 3.348650 
# 
# 
# High freq. dielectric constant tensor:
#      x y z
#    x 1.599790 0.000000 0.000000 
#    y 0.000000 1.623350 0.000000 
#    z 0.000000 0.000000 1.665980 
# 
# From -- ./inp_files/5338.got.cif
#   From: 2010.03.12/outbox.cif.g09.slc.cpg/sg36_3_cif.got.tgz:5338.got - 2010.04.14 02:13:53.
