data_PCOD8175421
_publ_section_title
;
Structure prediction by ZEFSAII (Michael W. Deem and Ramdas Pophale) SiO2 
 PCOD8175421
Probable space group: C M C 21
;
_chemical_formula_sum "Si O2"
_cell_formula_units_Z 64
_cell_length_a 8.546272
_cell_length_b 15.094082
_cell_length_c 24.622935
_cell_angle_alpha 90.000000
_cell_angle_beta 90.000000
_cell_angle_gamma 90.000000
_cell_volume 3176.312579
_symmetry_space_group_name_H-M "C M C 21"
_symmetry_group_IT_number 36
_symmetry_cell_setting 'orthorhombic'
loop_
_space_group_symop_operation_xyz
x,y,z
-x,-y,1/2+z
x,-y,1/2+z
-x,y,z
1/2+x,1/2+y,z
1/2-x,1/2-y,1/2+z
1/2+x,1/2-y,1/2+z
1/2-x,1/2+y,z
loop_
_atom_site_type_symbol
_atom_site_label
_atom_site_fract_x
_atom_site_fract_y
_atom_site_fract_z
Si Si1 0.686472 0.391440 0.036260
Si Si2 0.184131 0.093093 0.032707
Si Si3 0.685207 0.422122 0.267878
Si Si4 0.185271 0.764954 0.341351
Si Si5 0.683972 0.237559 0.958958
Si Si6 0.680482 0.113343 0.260634
Si Si7 0.820743 0.900976 0.152009
Si Si8 0.680694 0.914146 0.641358
O O1 0.500000 0.391160 0.037399
O O2 0.742438 0.491717 0.022925
O O3 0.751051 0.359480 0.096299
O O4 0.750066 0.323184 0.991450
O O5 0.271637 0.136479 0.085726
O O6 0.000000 0.098557 0.041216
O O7 0.232382 0.149059 0.980073
O O8 0.500000 0.421023 0.261600
O O9 0.737076 0.360676 0.317890
O O10 0.736901 0.522318 0.277740
O O11 0.757256 0.380977 0.211027
O O12 0.276139 0.747723 0.396497
O O13 0.244023 0.691774 0.298333
O O14 0.000000 0.760475 0.351137
O O15 0.500000 0.227492 0.966916
O O16 0.500000 0.097335 0.272401
O O17 0.706458 0.141411 0.197165
O O18 0.000000 0.872191 0.154683
O O19 0.803597 0.006028 0.143731
O O20 0.500000 0.945713 0.638348
#
# Coordination Sequence:
#
# PCOD8175421 Si02
#       8
#     8   8   8   8   8   8   8   8
#     4   8  17  34  56  78 104 136 171 211 262 318
#     4  10  20  37  58  80 108 142 174 213 265 324
#     4   9  18  33  56  80 104 136 175 214 260 317
#     4  10  22  39  54  74 105 144 184 220 261 316
#     4  11  23  38  55  78 104 137 183 231 268 307
#     4   9  19  35  56  80 109 141 175 218 268 313
#     4   8  14  29  53  79 104 135 173 213 258 317
#     4   9  16  29  52  83 112 137 169 214 264 318
#
# _framework density 20.149149999999999
#
# number of rings (size 3 to 8) (size 9 to 14) (size 15 to 20)
#    0.000    2.750    0.000    1.875    0.000    3.500 
#    0.000   13.750    0.000    4.500    0.000    0.000 
#    0.000    0.000    0.000    0.000    0.000    0.000 
#
# Total GULP energy -396430.865805 kJ/mol
# GULP energy per Si atom -12388.464556 kJ/mol
# Density = 2.010329 g / cm^3
# Si number density = 20.149150 Si / 1000 Ang^3
#
#
#
# Elastic Constant Matrix: (Units=GPa)
#
#
# Indices 1 2 3 4 5 6 
#
# 1 34.7264 19.3904 21.2223 0.0000 0.0000 0.0000
# 2 19.3904 72.7335 32.4884 0.0000 0.0000 0.0000
# 3 21.2223 32.4884 113.5919 0.0000 0.0000 0.0000
# 4 0.0000 0.0000 0.0000 34.9956 0.0000 0.0000
# 5 0.0000 0.0000 0.0000 0.0000 31.1534 0.0000
# 6 0.0000 0.0000 0.0000 0.0000 0.0000 21.7493
#
#
#
# Elastic Compliance Matrix: (Units=1/GPa)
#
#
# Indices 1 2 3 4 5 6 
#
# 1 0.035760 -0.007508 -0.004533 0.000000 0.000000 0.000000
# 2 -0.007508 0.017339 -0.003556 0.000000 0.000000 0.000000
# 3 -0.004533 -0.003556 0.010668 0.000000 0.000000 0.000000
# 4 0.000000 0.000000 0.000000 0.028575 0.000000 0.000000
# 5 0.000000 0.000000 0.000000 0.000000 0.032099 0.000000
# 6 0.000000 0.000000 0.000000 0.000000 0.000000 0.045979
#
#
# Mechanical properties :
#
#
# Convention : Reuss Voigt Hill
#
# Bulk Modulus (GPa) = 30.70327 40.80602 35.75464
# Shear Modulus (GPa) = 23.53252 27.44304 25.48778
#
# Velocity S-wave (km/s) = 3.42119 3.69452 3.56048
# Velocity P-wave (km/s) = 5.55672 6.20446 5.88950
#
# Compressibility (1/GPa) = 0.03256982
#
# Stress axis : x y z
#
# Youngs Moduli (GPa) = 27.96457 57.67325 93.74198
#
# Poissons Ratio (x) = 0.43303 0.42498
# Poissons Ratio (y) = 0.20997 0.33338
# Poissons Ratio (z) = 0.12678 0.20511
#
# Static dielectric constant tensor:
#      x y z
#    x 3.362810 0.000000 0.000000 
#    y 0.000000 3.607850 0.000000 
#    z 0.000000 0.000000 4.019670 
# 
# 
# High freq. dielectric constant tensor:
#      x y z
#    x 1.760750 0.000000 0.000000 
#    y 0.000000 1.767290 0.000000 
#    z 0.000000 0.000000 1.800210 
# 
# From -- ./inp_files/16574.got.cif
#   From: 2010.03.12/outbox.cif.g09.slc.cpg/sg36_9_cif.got.tgz:16574.got - 2010.04.14 02:13:53.
