data_PCOD8175617
_publ_section_title
;
Structure prediction by ZEFSAII (Michael W. Deem and Ramdas Pophale) SiO2 
 PCOD8175617
Probable space group: C M C 21
;
_chemical_formula_sum "Si O2"
_cell_formula_units_Z 64
_cell_length_a 9.661490
_cell_length_b 25.424850
_cell_length_c 14.237472
_cell_angle_alpha 90.000000
_cell_angle_beta 90.000000
_cell_angle_gamma 90.000000
_cell_volume 3497.320158
_symmetry_space_group_name_H-M "C M C 21"
_symmetry_group_IT_number 36
_symmetry_cell_setting 'orthorhombic'
loop_
_space_group_symop_operation_xyz
x,y,z
-x,-y,1/2+z
x,-y,1/2+z
-x,y,z
1/2+x,1/2+y,z
1/2-x,1/2-y,1/2+z
1/2+x,1/2-y,1/2+z
1/2-x,1/2+y,z
loop_
_atom_site_type_symbol
_atom_site_label
_atom_site_fract_x
_atom_site_fract_y
_atom_site_fract_z
Si Si1 0.664616 0.264829 0.179050
Si Si2 0.346560 0.330558 0.009627
Si Si3 0.163114 0.647780 0.177965
Si Si4 0.162796 0.604209 0.980288
Si Si5 0.338809 0.111191 0.376017
Si Si6 0.152222 0.930424 0.142968
Si Si7 0.836203 0.141852 0.810101
Si Si8 0.840018 0.515139 0.505003
O O1 0.500000 0.266979 0.181137
O O2 0.724917 0.206351 0.194496
O O3 0.717135 0.304506 0.260138
O O4 0.712025 0.283538 0.074910
O O5 0.500000 0.317474 0.969850
O O6 0.242119 0.340539 0.924204
O O7 0.355481 0.381660 0.073623
O O8 0.203035 0.610644 0.266127
O O9 0.000000 0.653185 0.169726
O O10 0.218478 0.621811 0.082554
O O11 0.249621 0.636940 0.905112
O O12 0.195644 0.542623 0.968043
O O13 0.000000 0.615853 0.966919
O O14 0.500000 0.123453 0.389545
O O15 0.298407 0.055184 0.421416
O O16 0.199106 0.908624 0.244576
O O17 0.000000 0.956629 0.150267
O O18 0.258590 0.973133 0.101715
O O19 0.000000 0.143888 0.831594
O O20 0.000000 0.520381 0.532102
#
# Coordination Sequence:
#
# PCOD8175617 Si02
#       8
#     8   8   8   8   8   8   8   8
#     4   8  15  30  51  71  93 124 157 191 238 291
#     4   8  14  27  48  71  92 114 147 192 236 279
#     4   9  18  32  48  67  94 128 162 193 232 288
#     4  10  21  34  48  70 100 132 164 198 239 287
#     4   9  17  30  48  69  93 123 161 198 231 276
#     4   8  15  29  49  71  93 120 156 194 234 283
#     4   9  18  33  52  73  96 125 162 201 242 289
#     4   9  18  31  48  72  99 126 157 197 242 279
#
# _framework density 18.299724999999999
#
# number of rings (size 3 to 8) (size 9 to 14) (size 15 to 20)
#    0.000    3.250    0.000    1.500    0.000    3.000 
#    0.000    5.000    0.000    1.500    0.000    0.000 
#    0.000    0.000    0.000    0.000    0.000    0.000 
#
# Total GULP energy -396616.714049 kJ/mol
# GULP energy per Si atom -12394.272314 kJ/mol
# Density = 1.825807 g / cm^3
# Si number density = 18.299725 Si / 1000 Ang^3
#
#
#
# Elastic Constant Matrix: (Units=GPa)
#
#
# Indices 1 2 3 4 5 6 
#
# 1 43.4789 29.0337 45.1355 0.0000 0.0000 0.0000
# 2 29.0337 94.7395 54.6350 0.0000 0.0000 0.0000
# 3 45.1355 54.6350 141.6769 0.0000 0.0000 0.0000
# 4 0.0000 0.0000 0.0000 25.3936 0.0000 0.0000
# 5 0.0000 0.0000 0.0000 0.0000 31.0837 0.0000
# 6 0.0000 0.0000 0.0000 0.0000 0.0000 13.5030
#
#
#
# Elastic Compliance Matrix: (Units=1/GPa)
#
#
# Indices 1 2 3 4 5 6 
#
# 1 0.036678 -0.005789 -0.009452 0.000000 0.000000 0.000000
# 2 -0.005789 0.014488 -0.003743 0.000000 0.000000 0.000000
# 3 -0.009452 -0.003743 0.011513 0.000000 0.000000 0.000000
# 4 0.000000 0.000000 0.000000 0.039380 0.000000 0.000000
# 5 0.000000 0.000000 0.000000 0.000000 0.032171 0.000000
# 6 0.000000 0.000000 0.000000 0.000000 0.000000 0.074057
#
#
# Mechanical properties :
#
#
# Convention : Reuss Voigt Hill
#
# Bulk Modulus (GPa) = 40.46896 59.72264 50.09580
# Shear Modulus (GPa) = 19.64693 24.06880 21.85787
#
# Velocity S-wave (km/s) = 3.28017 3.63058 3.45981
# Velocity P-wave (km/s) = 6.04223 7.09094 6.58749
#
# Compressibility (1/GPa) = 0.02471029
#
# Stress axis : x y z
#
# Youngs Moduli (GPa) = 27.26421 69.02400 86.85880
#
# Poissons Ratio (x) = 0.39959 0.82103
# Poissons Ratio (y) = 0.15784 0.32508
# Poissons Ratio (z) = 0.25771 0.25833
#
# Static dielectric constant tensor:
#      x y z
#    x 3.255340 0.000000 0.000000 
#    y 0.000000 3.445900 0.000000 
#    z 0.000000 0.000000 3.444290 
# 
# 
# High freq. dielectric constant tensor:
#      x y z
#    x 1.676980 0.000000 0.000000 
#    y 0.000000 1.700050 0.000000 
#    z 0.000000 0.000000 1.707110 
# 
# From -- ./inp_files/8086.got.cif
#   From: 2010.03.12/outbox.cif.g09.slc.cpg/sg36_5_cif.got.tgz:8086.got - 2010.04.14 02:13:53.
