data_PCOD8175256
_publ_section_title
;
Structure prediction by ZEFSAII (Michael W. Deem and Ramdas Pophale) SiO2 
 PCOD8175256
Probable space group: C M C 21
;
_chemical_formula_sum "Si O2"
_cell_formula_units_Z 64
_cell_length_a 8.843345
_cell_length_b 18.381007
_cell_length_c 20.681827
_cell_angle_alpha 90.000000
_cell_angle_beta 90.000000
_cell_angle_gamma 90.000000
_cell_volume 3361.822424
_symmetry_space_group_name_H-M "C M C 21"
_symmetry_group_IT_number 36
_symmetry_cell_setting 'orthorhombic'
loop_
_space_group_symop_operation_xyz
x,y,z
-x,-y,1/2+z
x,-y,1/2+z
-x,y,z
1/2+x,1/2+y,z
1/2-x,1/2-y,1/2+z
1/2+x,1/2-y,1/2+z
1/2-x,1/2+y,z
loop_
_atom_site_type_symbol
_atom_site_label
_atom_site_fract_x
_atom_site_fract_y
_atom_site_fract_z
Si Si1 0.671464 0.685140 0.132250
Si Si2 0.822164 0.925454 0.888551
Si Si3 0.669317 0.665745 0.993689
Si Si4 0.827394 0.661466 0.500068
Si Si5 0.673339 0.674810 0.273859
Si Si6 0.676657 0.080470 0.883890
Si Si7 0.322741 0.669284 0.771273
Si Si8 0.826327 0.167525 0.627783
O O1 0.500000 0.719072 0.129157
O O2 0.690995 0.642846 0.200500
O O3 0.798838 0.746415 0.131164
O O4 0.693174 0.635851 0.067708
O O5 0.783007 0.874167 0.948407
O O6 0.765166 0.886058 0.822915
O O7 0.000000 0.941315 0.887020
O O8 0.733630 0.999857 0.896790
O O9 0.500000 0.646850 0.969397
O O10 0.693991 0.752177 0.994969
O O11 0.788889 0.629031 0.946727
O O12 0.777667 0.633208 0.571472
O O13 0.000000 0.637860 0.487648
O O14 0.500000 0.691710 0.290545
O O15 0.759252 0.750373 0.283685
O O16 0.500000 0.080135 0.871972
O O17 0.754967 0.112066 0.820683
O O18 0.500000 0.674614 0.782548
O O19 0.285140 0.638028 0.699478
O O20 0.000000 0.152218 0.610402
#
# Coordination Sequence:
#
# PCOD8175256 Si02
#       8
#     8   8   8   8   8   8   8   8
#     4   8  15  30  53  81 109 135 167 213 267 316
#     4  11  23  38  55  76 107 144 181 224 270 319
#     4   9  18  34  57  82 109 140 172 214 266 318
#     4  10  20  35  57  83 110 140 175 217 265 318
#     4   9  18  34  58  85 108 135 174 217 263 317
#     4  12  25  38  53  74 105 145 186 227 268 315
#     4  10  20  35  57  83 110 140 175 217 265 317
#     4   9  17  30  52  82 110 137 172 215 262 312
#
# _framework density 19.037292999999998
#
# number of rings (size 3 to 8) (size 9 to 14) (size 15 to 20)
#    0.000    2.250    0.000    4.125    0.000    7.000 
#    0.000    1.250    0.000    6.000    0.000    0.000 
#    0.000    0.000    0.000    0.000    0.000    0.000 
#
# Total GULP energy -396653.487454 kJ/mol
# GULP energy per Si atom -12395.421483 kJ/mol
# Density = 1.899396 g / cm^3
# Si number density = 19.037293 Si / 1000 Ang^3
#
#
#
# Elastic Constant Matrix: (Units=GPa)
#
#
# Indices 1 2 3 4 5 6 
#
# 1 50.3486 17.9441 30.5167 0.0000 0.0000 0.0000
# 2 17.9441 48.4890 35.8692 0.0000 0.0000 0.0000
# 3 30.5167 35.8692 142.6855 0.0000 0.0000 0.0000
# 4 0.0000 0.0000 0.0000 0.5911 0.0000 0.0000
# 5 0.0000 0.0000 0.0000 0.0000 30.3501 0.0000
# 6 0.0000 0.0000 0.0000 0.0000 0.0000 19.0654
#
#
#
# Elastic Compliance Matrix: (Units=1/GPa)
#
#
# Indices 1 2 3 4 5 6 
#
# 1 0.024302 -0.006325 -0.003608 0.000000 0.000000 0.000000
# 2 -0.006325 0.026980 -0.005430 0.000000 0.000000 0.000000
# 3 -0.003608 -0.005430 0.009145 0.000000 0.000000 0.000000
# 4 0.000000 0.000000 0.000000 1.691619 0.000000 0.000000
# 5 0.000000 0.000000 0.000000 0.000000 0.032949 0.000000
# 6 0.000000 0.000000 0.000000 0.000000 0.000000 0.052451
#
#
# Mechanical properties :
#
#
# Convention : Reuss Voigt Hill
#
# Bulk Modulus (GPa) = 33.66632 45.57590 39.62111
# Shear Modulus (GPa) = 2.66231 20.48088 11.57159
#
# Velocity S-wave (km/s) = 1.18385 3.28354 2.46811
# Velocity P-wave (km/s) = 4.42623 6.19418 5.38328
#
# Compressibility (1/GPa) = 0.02970327
#
# Stress axis : x y z
#
# Youngs Moduli (GPa) = 41.14845 37.06391 109.34959
#
# Poissons Ratio (x) = 0.23442 0.39450
# Poissons Ratio (y) = 0.26025 0.59375
# Poissons Ratio (z) = 0.14845 0.20125
#
# Static dielectric constant tensor:
#      x y z
#    x 3.511050 0.000000 0.000000 
#    y 0.000000 3.065990 0.000000 
#    z 0.000000 0.000000 3.995780 
# 
# 
# High freq. dielectric constant tensor:
#      x y z
#    x 1.745360 0.000000 0.000000 
#    y 0.000000 1.691370 0.000000 
#    z 0.000000 0.000000 1.767100 
# 
# From -- ./inp_files/15704.got.cif
#   From: 2010.03.12/outbox.cif.g09.slc.cpg/sg36_8_cif.got.tgz:15704.got - 2010.04.14 02:13:53.
