data_PCOD8175098
_publ_section_title
;
Structure prediction by ZEFSAII (Michael W. Deem and Ramdas Pophale) SiO2 
 PCOD8175098
Probable space group: C M C 21
;
_chemical_formula_sum "Si O2"
_cell_formula_units_Z 64
_cell_length_a 8.945509
_cell_length_b 29.145425
_cell_length_c 12.382046
_cell_angle_alpha 90.000000
_cell_angle_beta 90.000000
_cell_angle_gamma 90.000000
_cell_volume 3228.255226
_symmetry_space_group_name_H-M "C M C 21"
_symmetry_group_IT_number 36
_symmetry_cell_setting 'orthorhombic'
loop_
_space_group_symop_operation_xyz
x,y,z
-x,-y,1/2+z
x,-y,1/2+z
-x,y,z
1/2+x,1/2+y,z
1/2-x,1/2-y,1/2+z
1/2+x,1/2-y,1/2+z
1/2-x,1/2+y,z
loop_
_atom_site_type_symbol
_atom_site_label
_atom_site_fract_x
_atom_site_fract_y
_atom_site_fract_z
Si Si1 0.673471 0.437541 0.176580
Si Si2 0.664638 0.681432 0.146315
Si Si3 0.826506 0.866728 0.354455
Si Si4 0.166723 0.083403 0.067211
Si Si5 0.174723 0.282808 0.448855
Si Si6 0.174034 0.185691 0.388471
Si Si7 0.822431 0.914938 0.932897
Si Si8 0.323771 0.027400 0.240917
O O1 0.500000 0.451382 0.187133
O O2 0.702330 0.389090 0.237596
O O3 0.772530 0.474682 0.239538
O O4 0.721006 0.433084 0.051749
O O5 0.500000 0.699859 0.111553
O O6 0.660848 0.626470 0.147597
O O7 0.707136 0.697215 0.264636
O O8 0.792609 0.699593 0.068320
O O9 0.769935 0.901046 0.450011
O O10 0.746188 0.817361 0.360715
O O11 0.000000 0.857316 0.377436
O O12 0.275020 0.047037 0.123979
O O13 0.000000 0.061770 0.055240
O O14 0.241319 0.230916 0.446014
O O15 0.000000 0.282007 0.424877
O O16 0.244786 0.136961 0.424080
O O17 0.000000 0.181538 0.414266
O O18 0.750060 0.947253 0.842667
O O19 0.000000 0.915531 0.914679
O O20 0.500000 0.031070 0.253453
#
# Coordination Sequence:
#
# PCOD8175098 Si02
#       8
#     8   8   8   8   8   8   8   8
#     4  10  23  41  64  88 113 156 206 246 288 347
#     4   9  17  34  56  77 107 150 197 240 283 338
#     4   9  20  39  60  85 116 153 200 243 284 342
#     4   9  17  34  60  81 105 148 197 240 277 338
#     4  10  20  33  55  88 121 153 191 239 300 352
#     4   9  18  35  58  83 113 153 194 238 291 345
#     4  10  21  42  66  86 114 155 206 248 284 346
#     4  12  25  38  57  88 123 150 185 242 307 360
#
# _framework density 19.824949
#
# number of rings (size 3 to 8) (size 9 to 14) (size 15 to 20)
#    0.000    2.250    1.250    2.250    1.750    4.000 
#    0.000    3.750    0.000    0.000    0.000    0.000 
#    0.000    0.000    0.000    0.000    0.000    0.000 
#
# Total GULP energy -396661.886916 kJ/mol
# GULP energy per Si atom -12395.683966 kJ/mol
# Density = 1.977983 g / cm^3
# Si number density = 19.824949 Si / 1000 Ang^3
#
#
#
# Elastic Constant Matrix: (Units=GPa)
#
#
# Indices 1 2 3 4 5 6 
#
# 1 62.4325 41.4065 34.1427 0.0000 0.0000 0.0000
# 2 41.4065 126.4822 49.2385 0.0000 0.0000 0.0000
# 3 34.1427 49.2385 65.5498 0.0000 0.0000 0.0000
# 4 0.0000 0.0000 0.0000 24.0897 0.0000 0.0000
# 5 0.0000 0.0000 0.0000 0.0000 19.1140 0.0000
# 6 0.0000 0.0000 0.0000 0.0000 0.0000 22.7390
#
#
#
# Elastic Compliance Matrix: (Units=1/GPa)
#
#
# Indices 1 2 3 4 5 6 
#
# 1 0.023881 -0.004205 -0.009280 0.000000 0.000000 0.000000
# 2 -0.004205 0.011914 -0.006759 0.000000 0.000000 0.000000
# 3 -0.009280 -0.006759 0.025166 0.000000 0.000000 0.000000
# 4 0.000000 0.000000 0.000000 0.041512 0.000000 0.000000
# 5 0.000000 0.000000 0.000000 0.000000 0.052318 0.000000
# 6 0.000000 0.000000 0.000000 0.000000 0.000000 0.043977
#
#
# Mechanical properties :
#
#
# Convention : Reuss Voigt Hill
#
# Bulk Modulus (GPa) = 48.84494 56.00446 52.42470
# Shear Modulus (GPa) = 20.31842 21.83365 21.07603
#
# Velocity S-wave (km/s) = 3.20487 3.32222 3.26407
# Velocity P-wave (km/s) = 6.19568 6.55950 6.38018
#
# Compressibility (1/GPa) = 0.02047295
#
# Stress axis : x y z
#
# Youngs Moduli (GPa) = 41.87345 83.93328 39.73548
#
# Poissons Ratio (x) = 0.35297 0.36875
# Poissons Ratio (y) = 0.17610 0.26857
# Poissons Ratio (z) = 0.38859 0.56731
#
# Static dielectric constant tensor:
#      x y z
#    x 3.293530 0.000000 0.000000 
#    y 0.000000 3.744640 0.000000 
#    z 0.000000 0.000000 3.557050 
# 
# 
# High freq. dielectric constant tensor:
#      x y z
#    x 1.740460 0.000000 0.000000 
#    y 0.000000 1.776610 0.000000 
#    z 0.000000 0.000000 1.774000 
# 
# From -- ./inp_files/7229.got.cif
#   From: 2010.03.12/outbox.cif.g09.slc.cpg/sg36_4_cif.got.tgz:7229.got - 2010.04.14 02:13:53.
