data_PCOD8175869
_publ_section_title
;
Structure prediction by ZEFSAII (Michael W. Deem and Ramdas Pophale) SiO2 
 PCOD8175869
Probable space group: C M C 21
;
_chemical_formula_sum "Si O2"
_cell_formula_units_Z 36
_cell_length_a 20.653571
_cell_length_b 16.194519
_cell_length_c 5.084957
_cell_angle_alpha 90.000000
_cell_angle_beta 90.000000
_cell_angle_gamma 90.000000
_cell_volume 1700.789203
_symmetry_space_group_name_H-M "C M C 21"
_symmetry_group_IT_number 36
_symmetry_cell_setting 'orthorhombic'
loop_
_space_group_symop_operation_xyz
x,y,z
-x,-y,1/2+z
x,-y,1/2+z
-x,y,z
1/2+x,1/2+y,z
1/2-x,1/2-y,1/2+z
1/2+x,1/2-y,1/2+z
1/2-x,1/2+y,z
loop_
_atom_site_type_symbol
_atom_site_label
_atom_site_fract_x
_atom_site_fract_y
_atom_site_fract_z
Si Si1 0.875845 0.052845 0.332140
Si Si2 0.500000 0.946537 0.932780
Si Si3 0.274059 0.053446 0.336073
Si Si4 0.574850 0.269643 0.912928
Si Si5 0.883816 0.677112 0.410791
O O1 0.800853 0.078679 0.352414
O O2 0.919526 0.132950 0.370524
O O3 0.893246 0.985279 0.550975
O O4 0.563691 0.894242 0.876861
O O5 0.500000 0.023426 0.733497
O O6 0.313241 0.137946 0.372013
O O7 0.292441 0.987300 0.559058
O O8 0.500000 0.243620 0.893929
O O9 0.614178 0.219029 0.694993
O O10 0.604117 0.247978 0.196205
#
# Coordination Sequence:
#
# PCOD8175869 Si02
#       5
#     8   4   8   8   8
#     4  10  23  42  65  89 115 155 204 253 304 356
#     4  12  22  36  58  84 116 162 200 226 280 346
#     4  10  21  40  62  89 121 155 203 250 291 356
#     4  12  24  41  60  88 127 157 198 252 297 355
#     4  12  23  39  60  88 125 161 195 246 300 350
#
# _framework density 21.166643000000001
#
# number of rings (size 3 to 8) (size 9 to 14) (size 15 to 20)
#    0.000    0.889    2.222    5.333    0.000    2.667 
#    0.000    0.000    0.000    0.000    0.000    0.000 
#    0.000    0.000    0.000    0.000    0.000    0.000 
#
# Total GULP energy -223378.014716 kJ/mol
# GULP energy per Si atom -12409.889706 kJ/mol
# Density = 2.111847 g / cm^3
# Si number density = 21.166643 Si / 1000 Ang^3
#
#
#
# Elastic Constant Matrix: (Units=GPa)
#
#
# Indices 1 2 3 4 5 6 
#
# 1 35.6601 17.0512 17.2366 0.0000 0.0000 0.0000
# 2 17.0512 74.1057 3.0154 0.0000 0.0000 0.0000
# 3 17.2366 3.0154 79.1445 0.0000 0.0000 0.0000
# 4 0.0000 0.0000 0.0000 36.8248 0.0000 0.0000
# 5 0.0000 0.0000 0.0000 0.0000 19.8981 0.0000
# 6 0.0000 0.0000 0.0000 0.0000 0.0000 38.8079
#
#
#
# Elastic Compliance Matrix: (Units=1/GPa)
#
#
# Indices 1 2 3 4 5 6 
#
# 1 0.035369 -0.007837 -0.007404 0.000000 0.000000 0.000000
# 2 -0.007837 0.015252 0.001126 0.000000 0.000000 0.000000
# 3 -0.007404 0.001126 0.014205 0.000000 0.000000 0.000000
# 4 0.000000 0.000000 0.000000 0.027156 0.000000 0.000000
# 5 0.000000 0.000000 0.000000 0.000000 0.050256 0.000000
# 6 0.000000 0.000000 0.000000 0.000000 0.000000 0.025768
#
#
# Mechanical properties :
#
#
# Convention : Reuss Voigt Hill
#
# Bulk Modulus (GPa) = 27.32664 29.27964 28.30314
# Shear Modulus (GPa) = 23.98846 29.21332 26.60089
#
# Velocity S-wave (km/s) = 3.37013 3.71908 3.54889
# Velocity P-wave (km/s) = 5.29924 5.68375 5.49486
#
# Compressibility (1/GPa) = 0.03659432
#
# Stress axis : x y z
#
# Youngs Moduli (GPa) = 28.27357 65.56675 70.39889
#
# Poissons Ratio (x) = 0.51384 0.52125
# Poissons Ratio (y) = 0.22158 -0.07925
# Poissons Ratio (z) = 0.20934 -0.07381
#
# Static dielectric constant tensor:
#      x y z
#    x 3.831960 0.000000 0.000000 
#    y 0.000000 3.655480 0.000000 
#    z 0.000000 0.000000 4.017840 
# 
# 
# High freq. dielectric constant tensor:
#      x y z
#    x 1.825540 0.000000 0.000000 
#    y 0.000000 1.829090 0.000000 
#    z 0.000000 0.000000 1.848880 
# 
# From -- ./inp_files/1284.got.cif
#   From: 2010.03.12/outbox.cif.g09.slc.cpg/sg36_1_cif.got.tgz:1284.got - 2010.04.14 02:13:53.
