data_PCOD8175871
_publ_section_title
;
Structure prediction by ZEFSAII (Michael W. Deem and Ramdas Pophale) SiO2 
 PCOD8175871
Probable space group: C M C 21
;
_chemical_formula_sum "Si O2"
_cell_formula_units_Z 56
_cell_length_a 22.322722
_cell_length_b 7.872367
_cell_length_c 15.068625
_cell_angle_alpha 90.000000
_cell_angle_beta 90.000000
_cell_angle_gamma 90.000000
_cell_volume 2648.049554
_symmetry_space_group_name_H-M "C M C 21"
_symmetry_group_IT_number 36
_symmetry_cell_setting 'orthorhombic'
loop_
_space_group_symop_operation_xyz
x,y,z
-x,-y,1/2+z
x,-y,1/2+z
-x,y,z
1/2+x,1/2+y,z
1/2-x,1/2-y,1/2+z
1/2+x,1/2-y,1/2+z
1/2-x,1/2+y,z
loop_
_atom_site_type_symbol
_atom_site_label
_atom_site_fract_x
_atom_site_fract_y
_atom_site_fract_z
Si Si1 0.934024 0.660326 0.688790
Si Si2 0.678775 0.970564 0.103786
Si Si3 0.193751 0.155041 0.608205
Si Si4 0.193751 0.155041 0.396350
Si Si5 0.178775 0.529436 0.400769
Si Si6 0.434024 0.160327 0.315765
Si Si7 0.384568 0.500000 0.252278
O O1 0.881050 0.639314 0.617526
O O2 0.929003 0.500000 0.752278
O O3 0.000000 0.661784 0.643207
O O4 0.926469 0.835596 0.741925
O O5 0.736772 0.867148 0.136291
O O6 0.675131 0.159102 0.146288
O O7 0.688354 0.010385 0.002278
O O8 0.182777 0.128401 0.502278
O O9 0.154952 0.018725 0.662822
O O10 0.175131 0.340898 0.358267
O O11 0.263228 0.132852 0.368265
O O12 0.154952 0.018725 0.341733
O O13 0.118950 0.639314 0.387030
O O14 0.500000 0.161784 0.361348
O O15 0.426469 0.335596 0.262630
#
# Coordination Sequence:
#
# PCOD8175871 Si02
#       7
#     8   8   8   8   8   8   8
#     4  11  24  41  61  89 122 163 211 254 302 372
#     4  10  21  40  62  90 128 163 206 263 314 371
#     4  10  22  38  62  97 128 160 210 263 316 383
#     4  10  22  38  62  97 128 160 210 263 316 383
#     4  10  21  40  62  90 128 163 206 263 314 371
#     4  11  24  41  61  89 122 163 211 254 302 372
#     4  12  23  40  70  90 127 168 206 260 326 364
#
# _framework density 21.147639000000002
#
# number of rings (size 3 to 8) (size 9 to 14) (size 15 to 20)
#    0.000    1.429    2.857    2.143    2.000    6.286 
#    0.000    0.000    0.000    2.571    0.000    0.000 
#    0.000    0.000    0.000    0.000    0.000    0.000 
#
# Total GULP energy -347084.033010 kJ/mol
# GULP energy per Si atom -12395.858322 kJ/mol
# Density = 2.109951 g / cm^3
# Si number density = 21.147639 Si / 1000 Ang^3
#
#
#
# Elastic Constant Matrix: (Units=GPa)
#
#
# Indices 1 2 3 4 5 6 
#
# 1 142.2112 54.2225 27.6389 0.0000 0.0000 0.0000
# 2 54.2225 142.3893 26.1103 0.0000 0.0000 0.0000
# 3 27.6389 26.1103 43.3414 0.0000 0.0000 0.0000
# 4 0.0000 0.0000 0.0000 31.0902 0.0000 0.0000
# 5 0.0000 0.0000 0.0000 0.0000 23.7997 0.0000
# 6 0.0000 0.0000 0.0000 0.0000 0.0000 10.6829
#
#
#
# Elastic Compliance Matrix: (Units=1/GPa)
#
#
# Indices 1 2 3 4 5 6 
#
# 1 0.008815 -0.002615 -0.004046 0.000000 0.000000 0.000000
# 2 -0.002615 0.008671 -0.003556 0.000000 0.000000 0.000000
# 3 -0.004046 -0.003556 0.027795 0.000000 0.000000 0.000000
# 4 0.000000 0.000000 0.000000 0.032164 0.000000 0.000000
# 5 0.000000 0.000000 0.000000 0.000000 0.042017 0.000000
# 6 0.000000 0.000000 0.000000 0.000000 0.000000 0.093607
#
#
# Mechanical properties :
#
#
# Convention : Reuss Voigt Hill
#
# Bulk Modulus (GPa) = 40.24645 60.43172 50.33908
# Shear Modulus (GPa) = 20.67938 27.77925 24.22931
#
# Velocity S-wave (km/s) = 3.13046 3.62828 3.38852
# Velocity P-wave (km/s) = 5.66912 6.79637 6.25818
#
# Compressibility (1/GPa) = 0.02484691
#
# Stress axis : x y z
#
# Youngs Moduli (GPa) = 113.44052 115.32884 35.97746
#
# Poissons Ratio (x) = 0.30157 0.14557
# Poissons Ratio (y) = 0.29664 0.12794
# Poissons Ratio (z) = 0.45900 0.41012
#
# Static dielectric constant tensor:
#      x y z
#    x 4.004240 0.000000 0.000000 
#    y 0.000000 4.025970 0.000000 
#    z 0.000000 0.000000 3.436490 
# 
# 
# High freq. dielectric constant tensor:
#      x y z
#    x 1.828740 0.000000 0.000000 
#    y 0.000000 1.850050 0.000000 
#    z 0.000000 0.000000 1.802230 
# 
# From -- ./inp_files/12845.got.cif
#   From: 2010.03.12/outbox.cif.g09.slc.cpg/sg36_7_cif.got.tgz:12845.got - 2010.04.14 02:13:53.
