data_PCOD8175569
_publ_section_title
;
Structure prediction by ZEFSAII (Michael W. Deem and Ramdas Pophale) SiO2 
 PCOD8175569
Probable space group: C M C 21
;
_chemical_formula_sum "Si O2"
_cell_formula_units_Z 48
_cell_length_a 8.629282
_cell_length_b 20.065837
_cell_length_c 13.869454
_cell_angle_alpha 90.000000
_cell_angle_beta 90.000000
_cell_angle_gamma 90.000000
_cell_volume 2401.548193
_symmetry_space_group_name_H-M "C M C 21"
_symmetry_group_IT_number 36
_symmetry_cell_setting 'orthorhombic'
loop_
_space_group_symop_operation_xyz
x,y,z
-x,-y,1/2+z
x,-y,1/2+z
-x,y,z
1/2+x,1/2+y,z
1/2-x,1/2-y,1/2+z
1/2+x,1/2-y,1/2+z
1/2-x,1/2+y,z
loop_
_atom_site_type_symbol
_atom_site_label
_atom_site_fract_x
_atom_site_fract_y
_atom_site_fract_z
Si Si1 0.683096 0.328349 0.137210
Si Si2 0.316160 0.192982 0.233147
Si Si3 0.325411 0.053323 0.755022
Si Si4 0.317355 0.857874 0.937834
Si Si5 0.175610 0.431955 0.616860
Si Si6 0.178713 0.997773 0.438225
O O1 0.500000 0.335145 0.144109
O O2 0.743491 0.264771 0.197688
O O3 0.760148 0.393923 0.179738
O O4 0.732188 0.321291 0.026031
O O5 0.500000 0.189530 0.236270
O O6 0.253490 0.177064 0.340431
O O7 0.258611 0.138158 0.156159
O O8 0.500000 0.073239 0.783740
O O9 0.220105 0.051086 0.850074
O O10 0.321751 0.981178 0.707205
O O11 0.500000 0.848444 0.950287
O O12 0.283100 0.936426 0.935912
O O13 0.290773 0.456371 0.534630
O O14 0.000000 0.425993 0.576180
O O15 0.000000 0.018869 0.434175
#
# Coordination Sequence:
#
# PCOD8175569 Si02
#       6
#     8   8   8   8   8   8
#     4  11  23  40  62  93 128 158 199 258 313 359
#     4   9  21  41  64  88 121 162 205 254 302 362
#     4  11  22  39  64  89 120 163 207 246 297 369
#     4  11  21  40  64  87 119 166 211 246 305 378
#     4  10  20  39  64  88 118 160 208 248 297 366
#     4  12  24  37  60  95 128 157 202 264 312 352
#
# _framework density 19.987106000000001
#
# number of rings (size 3 to 8) (size 9 to 14) (size 15 to 20)
#    0.000    1.333    3.333    3.000    0.000    2.000 
#    0.000    8.333    0.000    0.000    0.000    0.000 
#    0.000    0.000    0.000    0.000    0.000    0.000 
#
# Total GULP energy -297709.341561 kJ/mol
# GULP energy per Si atom -12404.555898 kJ/mol
# Density = 1.994161 g / cm^3
# Si number density = 19.987106 Si / 1000 Ang^3
#
#
#
# Elastic Constant Matrix: (Units=GPa)
#
#
# Indices 1 2 3 4 5 6 
#
# 1 66.2691 15.0050 17.6581 0.0000 0.0000 0.0000
# 2 15.0050 83.1422 26.5497 0.0000 0.0000 0.0000
# 3 17.6581 26.5497 116.3384 0.0000 0.0000 0.0000
# 4 0.0000 0.0000 0.0000 36.0083 0.0000 0.0000
# 5 0.0000 0.0000 0.0000 0.0000 32.1841 0.0000
# 6 0.0000 0.0000 0.0000 0.0000 0.0000 17.1511
#
#
#
# Elastic Compliance Matrix: (Units=1/GPa)
#
#
# Indices 1 2 3 4 5 6 
#
# 1 0.016122 -0.002295 -0.001923 0.000000 0.000000 0.000000
# 2 -0.002295 0.013300 -0.002687 0.000000 0.000000 0.000000
# 3 -0.001923 -0.002687 0.009501 0.000000 0.000000 0.000000
# 4 0.000000 0.000000 0.000000 0.027771 0.000000 0.000000
# 5 0.000000 0.000000 0.000000 0.000000 0.031071 0.000000
# 6 0.000000 0.000000 0.000000 0.000000 0.000000 0.058305
#
#
# Mechanical properties :
#
#
# Convention : Reuss Voigt Hill
#
# Bulk Modulus (GPa) = 39.82193 42.68614 41.25403
# Shear Modulus (GPa) = 28.05015 30.83782 29.44399
#
# Velocity S-wave (km/s) = 3.75028 3.93222 3.84233
# Velocity P-wave (km/s) = 6.22253 6.48226 6.35372
#
# Compressibility (1/GPa) = 0.02511179
#
# Stress axis : x y z
#
# Youngs Moduli (GPa) = 62.02625 75.18901 105.25576
#
# Poissons Ratio (x) = 0.17260 0.20243
# Poissons Ratio (y) = 0.14238 0.28280
# Poissons Ratio (z) = 0.11929 0.20201
#
# Static dielectric constant tensor:
#      x y z
#    x 3.456510 0.000000 0.000000 
#    y 0.000000 3.638600 0.000000 
#    z 0.000000 0.000000 3.795280 
# 
# 
# High freq. dielectric constant tensor:
#      x y z
#    x 1.768330 0.000000 0.000000 
#    y 0.000000 1.774020 0.000000 
#    z 0.000000 0.000000 1.793320 
# 
# From -- ./inp_files/6759.got.cif
#   From: 2010.03.12/outbox.cif.g09.slc.cpg/sg36_4_cif.got.tgz:6759.got - 2010.04.14 02:13:53.
