data_PCOD8175064
_publ_section_title
;
Structure prediction by ZEFSAII (Michael W. Deem and Ramdas Pophale) SiO2 
 PCOD8175064
Probable space group: C M C 21
;
_chemical_formula_sum "Si O2"
_cell_formula_units_Z 64
_cell_length_a 8.914341
_cell_length_b 18.101743
_cell_length_c 19.756658
_cell_angle_alpha 90.000000
_cell_angle_beta 90.000000
_cell_angle_gamma 90.000000
_cell_volume 3188.035287
_symmetry_space_group_name_H-M "C M C 21"
_symmetry_group_IT_number 36
_symmetry_cell_setting 'orthorhombic'
loop_
_space_group_symop_operation_xyz
x,y,z
-x,-y,1/2+z
x,-y,1/2+z
-x,y,z
1/2+x,1/2+y,z
1/2-x,1/2-y,1/2+z
1/2+x,1/2-y,1/2+z
1/2-x,1/2+y,z
loop_
_atom_site_type_symbol
_atom_site_label
_atom_site_fract_x
_atom_site_fract_y
_atom_site_fract_z
Si Si1 0.665922 0.728991 0.552460
Si Si2 0.831073 0.483038 0.980491
Si Si3 0.822674 0.268622 0.696478
Si Si4 0.821902 0.383203 0.235785
Si Si5 0.331305 0.563245 0.606603
Si Si6 0.673581 0.362804 0.801533
Si Si7 0.675066 0.527384 0.849815
Si Si8 0.666771 0.183646 0.429642
O O1 0.500000 0.752781 0.529034
O O2 0.719009 0.777800 0.616823
O O3 0.663646 0.644897 0.576789
O O4 0.774470 0.739167 0.488119
O O5 0.736001 0.529861 0.926419
O O6 0.833922 0.398236 0.958893
O O7 0.000000 0.514459 0.984912
O O8 0.752659 0.490668 0.053767
O O9 0.735639 0.199872 0.728566
O O10 0.768362 0.342090 0.734815
O O11 0.000000 0.255602 0.704660
O O12 0.756281 0.436675 0.177556
O O13 0.766240 0.412083 0.308077
O O14 0.000000 0.384665 0.231682
O O15 0.500000 0.533687 0.618965
O O16 0.500000 0.346481 0.788846
O O17 0.705779 0.447860 0.816712
O O18 0.727375 0.311983 0.864179
O O19 0.500000 0.546881 0.850235
O O20 0.500000 0.208756 0.408722
#
# Coordination Sequence:
#
# PCOD8175064 Si02
#       8
#     8   8   8   8   8   8   8   8
#     4   8  15  27  44  67  94 124 158 198 242 288
#     4   9  16  27  45  71  98 125 162 206 248 289
#     4  10  20  34  52  74 102 133 165 203 249 299
#     4  11  21  33  51  75 102 132 168 208 249 295
#     4   9  16  28  46  69  97 128 162 202 249 294
#     4  10  20  33  51  74 101 132 166 204 245 293
#     4  10  20  34  51  73 102 135 168 204 250 299
#     4   9  16  26  44  69  96 125 159 201 244 287
#
# _framework density 20.075060000000001
#
# number of rings (size 3 to 8) (size 9 to 14) (size 15 to 20)
#    0.000    2.500    0.000    4.125    0.000    8.000 
#    0.000    0.000    0.000    1.500    0.000    7.000 
#    0.000    0.000    0.000    0.000    0.000    0.000 
#
# Total GULP energy -396777.028363 kJ/mol
# GULP energy per Si atom -12399.282136 kJ/mol
# Density = 2.002937 g / cm^3
# Si number density = 20.075060 Si / 1000 Ang^3
#
#
#
# Elastic Constant Matrix: (Units=GPa)
#
#
# Indices 1 2 3 4 5 6 
#
# 1 117.0156 7.4815 -0.0227 0.0000 0.0000 0.0000
# 2 7.4815 10.3492 -7.9297 0.0000 0.0000 0.0000
# 3 -0.0227 -7.9297 12.6608 0.0000 0.0000 0.0000
# 4 0.0000 0.0000 0.0000 22.8385 0.0000 0.0000
# 5 0.0000 0.0000 0.0000 0.0000 40.8899 0.0000
# 6 0.0000 0.0000 0.0000 0.0000 0.0000 19.8258
#
#
#
# Elastic Compliance Matrix: (Units=1/GPa)
#
#
# Indices 1 2 3 4 5 6 
#
# 1 0.009376 -0.013007 -0.008130 0.000000 0.000000 0.000000
# 2 -0.013007 0.203824 0.127635 0.000000 0.000000 0.000000
# 3 -0.008130 0.127635 0.158909 0.000000 0.000000 0.000000
# 4 0.000000 0.000000 0.000000 0.043786 0.000000 0.000000
# 5 0.000000 0.000000 0.000000 0.000000 0.024456 0.000000
# 6 0.000000 0.000000 0.000000 0.000000 0.000000 0.050439
#
#
# Mechanical properties :
#
#
# Convention : Reuss Voigt Hill
#
# Bulk Modulus (GPa) = 1.70910 15.45377 8.58143
# Shear Modulus (GPa) = 10.57467 26.07727 18.32597
#
# Velocity S-wave (km/s) = 2.29761 3.60806 3.02466
# Velocity P-wave (km/s) = 2.80925 5.00721 4.05980
#
# Compressibility (1/GPa) = 0.58510495
#
# Stress axis : x y z
#
# Youngs Moduli (GPa) = 106.65648 4.90621 6.29291
#
# Poissons Ratio (x) = 0.06381 0.05116
# Poissons Ratio (y) = 1.38727 -0.80319
# Poissons Ratio (z) = 0.86708 -0.62620
#
# Static dielectric constant tensor:
#      x y z
#    x 3.803940 0.000000 0.000000 
#    y 0.000000 3.073470 0.000000 
#    z 0.000000 0.000000 3.873000 
# 
# 
# High freq. dielectric constant tensor:
#      x y z
#    x 1.796590 0.000000 0.000000 
#    y 0.000000 1.723670 0.000000 
#    z 0.000000 0.000000 1.792760 
# 
# From -- ./inp_files/13768.got.cif
#   From: 2010.03.12/outbox.cif.g09.slc.cpg/sg36_7_cif.got.tgz:13768.got - 2010.04.14 02:13:53.
