data_PCOD8175578
_publ_section_title
;
Structure prediction by ZEFSAII (Michael W. Deem and Ramdas Pophale) SiO2 
 PCOD8175578
Probable space group: C M C 21
;
_chemical_formula_sum "Si O2"
_cell_formula_units_Z 56
_cell_length_a 19.106230
_cell_length_b 9.794213
_cell_length_c 13.858079
_cell_angle_alpha 90.000000
_cell_angle_beta 90.000000
_cell_angle_gamma 90.000000
_cell_volume 2593.269062
_symmetry_space_group_name_H-M "C M C 21"
_symmetry_group_IT_number 36
_symmetry_cell_setting 'orthorhombic'
loop_
_space_group_symop_operation_xyz
x,y,z
-x,-y,1/2+z
x,-y,1/2+z
-x,y,z
1/2+x,1/2+y,z
1/2-x,1/2-y,1/2+z
1/2+x,1/2-y,1/2+z
1/2-x,1/2+y,z
loop_
_atom_site_type_symbol
_atom_site_label
_atom_site_fract_x
_atom_site_fract_y
_atom_site_fract_z
Si Si1 0.207003 0.432588 0.968910
Si Si2 0.421516 0.857441 0.273107
Si Si3 0.182701 0.598869 0.250982
Si Si4 0.079701 0.790843 0.168820
Si Si5 0.078795 0.601394 0.992318
Si Si6 0.221696 0.162504 0.069303
Si Si7 0.078298 0.894017 0.640731
O O1 0.216015 0.395705 0.856730
O O2 0.126885 0.466479 0.000427
O O3 0.238531 0.317597 0.039438
O O4 0.250762 0.569565 0.983224
O O5 0.500000 0.914539 0.249614
O O6 0.411931 0.835574 0.386666
O O7 0.412304 0.706161 0.231434
O O8 0.362434 0.960389 0.230939
O O9 0.129160 0.725564 0.249587
O O10 0.243792 0.618707 0.171570
O O11 0.000000 0.756396 0.194192
O O12 0.092773 0.951290 0.171738
O O13 0.101462 0.720570 0.066702
O O14 0.000000 0.551757 0.012670
O O15 0.137742 0.146742 0.065157
O O16 0.000000 0.881068 0.595614
#
# Coordination Sequence:
#
# PCOD8175578 Si02
#       7
#     8   8   8   8   8   8   8
#     4  11  26  43  66  98 128 175 222 265 335 392
#     4   9  19  39  68 100 130 171 224 268 319 386
#     4  11  23  43  68  95 129 173 221 273 323 389
#     4  10  20  39  65  94 132 172 210 264 326 385
#     4   9  19  39  68  96 129 171 220 269 319 385
#     4  12  25  44  64  93 133 170 218 277 327 395
#     4  10  23  41  64  94 129 170 215 268 332 386
#
# _framework density 21.594365
#
# number of rings (size 3 to 8) (size 9 to 14) (size 15 to 20)
#    0.000    1.714    1.429    2.143    0.000    5.714 
#    2.571    0.000    0.000    0.000    0.000    0.000 
#    0.000    0.000    0.000    0.000    0.000    0.000 
#
# Total GULP energy -347129.562792 kJ/mol
# GULP energy per Si atom -12397.484385 kJ/mol
# Density = 2.154522 g / cm^3
# Si number density = 21.594365 Si / 1000 Ang^3
#
#
#
# Elastic Constant Matrix: (Units=GPa)
#
#
# Indices 1 2 3 4 5 6 
#
# 1 96.0892 45.7987 49.8568 0.0000 0.0000 0.0000
# 2 45.7987 132.2994 45.3330 0.0000 0.0000 0.0000
# 3 49.8568 45.3330 94.9845 0.0000 0.0000 0.0000
# 4 0.0000 0.0000 0.0000 26.0622 0.0000 0.0000
# 5 0.0000 0.0000 0.0000 0.0000 32.9584 0.0000
# 6 0.0000 0.0000 0.0000 0.0000 0.0000 34.5973
#
#
#
# Elastic Compliance Matrix: (Units=1/GPa)
#
#
# Indices 1 2 3 4 5 6 
#
# 1 0.015257 -0.003034 -0.006560 0.000000 0.000000 0.000000
# 2 -0.003034 0.009640 -0.003008 0.000000 0.000000 0.000000
# 3 -0.006560 -0.003008 0.015407 0.000000 0.000000 0.000000
# 4 0.000000 0.000000 0.000000 0.038370 0.000000 0.000000
# 5 0.000000 0.000000 0.000000 0.000000 0.030341 0.000000
# 6 0.000000 0.000000 0.000000 0.000000 0.000000 0.028904
#
#
# Mechanical properties :
#
#
# Convention : Reuss Voigt Hill
#
# Bulk Modulus (GPa) = 66.22913 67.26113 66.74513
# Shear Modulus (GPa) = 29.73423 30.88255 30.30839
#
# Velocity S-wave (km/s) = 3.71474 3.78580 3.75044
# Velocity P-wave (km/s) = 7.00966 7.09400 7.05196
#
# Compressibility (1/GPa) = 0.01509910
#
# Stress axis : x y z
#
# Youngs Moduli (GPa) = 65.54452 103.73889 64.90417
#
# Poissons Ratio (x) = 0.31470 0.42580
# Poissons Ratio (y) = 0.19883 0.19525
# Poissons Ratio (z) = 0.43000 0.31208
#
# Static dielectric constant tensor:
#      x y z
#    x 4.247410 0.000000 0.000000 
#    y 0.000000 3.907870 0.000000 
#    z 0.000000 0.000000 3.701780 
# 
# 
# High freq. dielectric constant tensor:
#      x y z
#    x 1.863680 0.000000 0.000000 
#    y 0.000000 1.849600 0.000000 
#    z 0.000000 0.000000 1.830850 
# 
# From -- ./inp_files/12837.got.cif
#   From: 2010.03.12/outbox.cif.g09.slc.cpg/sg36_7_cif.got.tgz:12837.got - 2010.04.14 02:13:53.
