data_PCOD8175011
_publ_section_title
;
Structure prediction by ZEFSAII (Michael W. Deem and Ramdas Pophale) SiO2 
 PCOD8175011
Probable space group: C M C 21
;
_chemical_formula_sum "Si O2"
_cell_formula_units_Z 64
_cell_length_a 19.936275
_cell_length_b 16.956955
_cell_length_c 9.006120
_cell_angle_alpha 90.000000
_cell_angle_beta 90.000000
_cell_angle_gamma 90.000000
_cell_volume 3044.595581
_symmetry_space_group_name_H-M "C M C 21"
_symmetry_group_IT_number 36
_symmetry_cell_setting 'orthorhombic'
loop_
_space_group_symop_operation_xyz
x,y,z
-x,-y,1/2+z
x,-y,1/2+z
-x,y,z
1/2+x,1/2+y,z
1/2-x,1/2-y,1/2+z
1/2+x,1/2-y,1/2+z
1/2-x,1/2+y,z
loop_
_atom_site_type_symbol
_atom_site_label
_atom_site_fract_x
_atom_site_fract_y
_atom_site_fract_z
Si Si1 0.696739 0.423263 0.429880
Si Si2 0.364239 0.935332 0.641786
Si Si3 0.572990 0.949055 0.334139
Si Si4 0.660169 0.759844 0.716099
Si Si5 0.751959 0.552685 0.621946
Si Si6 0.079212 0.186844 0.944553
Si Si7 0.139672 0.321645 0.151834
Si Si8 0.222619 0.725595 0.922013
O O1 0.709271 0.512214 0.488860
O O2 0.700027 0.420456 0.250080
O O3 0.623654 0.391204 0.484098
O O4 0.756281 0.362563 0.482435
O O5 0.373376 0.947747 0.465916
O O6 0.366006 0.844423 0.675239
O O7 0.423892 0.969337 0.743597
O O8 0.297934 0.983197 0.691706
O O9 0.500000 0.938927 0.405494
O O10 0.584092 0.880713 0.213068
O O11 0.596601 0.708299 0.772174
O O12 0.710527 0.764839 0.856401
O O13 0.695563 0.725131 0.565668
O O14 0.799821 0.626627 0.574863
O O15 0.000000 0.169470 0.965005
O O16 0.103165 0.260917 0.043321
O O17 0.167368 0.273835 0.293802
#
# Coordination Sequence:
#
# PCOD8175011 Si02
#       8
#     8   8   8   8   8   8   8   8
#     4  10  21  40  63  92 124 162 201 268 319 383
#     4  11  22  38  57  90 127 159 205 265 310 371
#     4  11  23  38  56  85 128 177 212 240 298 381
#     4  11  22  38  63  89 124 165 203 266 318 380
#     4  10  20  37  64  94 120 150 206 265 329 363
#     4  11  26  44  61  90 131 178 216 254 318 391
#     4  10  21  38  65  91 126 164 207 264 314 381
#     4  10  19  39  61  95 122 155 204 260 332 368
#
# _framework density 21.020854
#
# number of rings (size 3 to 8) (size 9 to 14) (size 15 to 20)
#    0.000    1.500    2.500    3.750    5.250    1.000 
#    0.000    0.625    0.000    0.000    0.000    0.000 
#    0.000    0.000    0.000    0.000    0.000    0.000 
#
# Total GULP energy -396529.957348 kJ/mol
# GULP energy per Si atom -12391.561167 kJ/mol
# Density = 2.097301 g / cm^3
# Si number density = 21.020854 Si / 1000 Ang^3
#
#
#
# Elastic Constant Matrix: (Units=GPa)
#
#
# Indices 1 2 3 4 5 6 
#
# 1 114.5920 24.8175 33.1900 0.0000 0.0000 0.0000
# 2 24.8175 31.5284 28.6767 0.0000 0.0000 0.0000
# 3 33.1900 28.6767 82.7665 0.0000 0.0000 0.0000
# 4 0.0000 0.0000 0.0000 40.3985 0.0000 0.0000
# 5 0.0000 0.0000 0.0000 0.0000 20.3486 0.0000
# 6 0.0000 0.0000 0.0000 0.0000 0.0000 15.2612
#
#
#
# Elastic Compliance Matrix: (Units=1/GPa)
#
#
# Indices 1 2 3 4 5 6 
#
# 1 0.010745 -0.006627 -0.002013 0.000000 0.000000 0.000000
# 2 -0.006627 0.050400 -0.014805 0.000000 0.000000 0.000000
# 3 -0.002013 -0.014805 0.018019 0.000000 0.000000 0.000000
# 4 0.000000 0.000000 0.000000 0.024753 0.000000 0.000000
# 5 0.000000 0.000000 0.000000 0.000000 0.049143 0.000000
# 6 0.000000 0.000000 0.000000 0.000000 0.000000 0.065526
#
#
# Mechanical properties :
#
#
# Convention : Reuss Voigt Hill
#
# Bulk Modulus (GPa) = 30.98453 44.69501 37.83977
# Shear Modulus (GPa) = 18.10066 24.68183 21.39125
#
# Velocity S-wave (km/s) = 2.93760 3.43032 3.19348
# Velocity P-wave (km/s) = 5.12620 6.08258 5.62475
#
# Compressibility (1/GPa) = 0.03227417
#
# Stress axis : x y z
#
# Youngs Moduli (GPa) = 93.06839 19.84140 55.49775
#
# Poissons Ratio (x) = 0.13149 0.11169
# Poissons Ratio (y) = 0.61678 0.82163
# Poissons Ratio (z) = 0.18731 0.29375
#
# Static dielectric constant tensor:
#      x y z
#    x 3.635270 0.000000 0.000000 
#    y 0.000000 3.802040 0.000000 
#    z 0.000000 0.000000 4.195400 
# 
# 
# High freq. dielectric constant tensor:
#      x y z
#    x 1.795630 0.000000 0.000000 
#    y 0.000000 1.813150 0.000000 
#    z 0.000000 0.000000 1.826950 
# 
# From -- ./inp_files/5318.got.cif
#   From: 2010.03.12/outbox.cif.g09.slc.cpg/sg36_3_cif.got.tgz:5318.got - 2010.04.14 02:13:53.
