data_PCOD8175589
_publ_section_title
;
Structure prediction by ZEFSAII (Michael W. Deem and Ramdas Pophale) SiO2 
 PCOD8175589
Probable space group: C M C 21
;
_chemical_formula_sum "Si O2"
_cell_formula_units_Z 48
_cell_length_a 16.938154
_cell_length_b 12.144746
_cell_length_c 9.890686
_cell_angle_alpha 90.000000
_cell_angle_beta 90.000000
_cell_angle_gamma 90.000000
_cell_volume 2034.608844
_symmetry_space_group_name_H-M "C M C 21"
_symmetry_group_IT_number 36
_symmetry_cell_setting 'orthorhombic'
loop_
_space_group_symop_operation_xyz
x,y,z
-x,-y,1/2+z
x,-y,1/2+z
-x,y,z
1/2+x,1/2+y,z
1/2-x,1/2-y,1/2+z
1/2+x,1/2-y,1/2+z
1/2-x,1/2+y,z
loop_
_atom_site_type_symbol
_atom_site_label
_atom_site_fract_x
_atom_site_fract_y
_atom_site_fract_z
Si Si1 0.655259 0.614488 0.946730
Si Si2 0.591142 0.009697 0.118591
Si Si3 0.089414 0.125544 0.443813
Si Si4 0.295396 0.327698 0.731771
Si Si5 0.135798 0.754324 0.199631
Si Si6 0.689733 0.021906 0.855203
O O1 0.612390 0.500111 0.915461
O O2 0.614336 0.708524 0.853703
O O3 0.748683 0.612467 0.908154
O O4 0.649316 0.639403 0.105398
O O5 0.500000 0.977017 0.102095
O O6 0.597415 0.137678 0.162969
O O7 0.631335 0.934278 0.236205
O O8 0.635705 0.982745 0.979771
O O9 0.144199 0.205850 0.351427
O O10 0.101396 0.153497 0.600324
O O11 0.000000 0.145549 0.400050
O O12 0.231808 0.236618 0.684947
O O13 0.238469 0.422806 0.789254
#
# Coordination Sequence:
#
# PCOD8175589 Si02
#       6
#     8   8   8   8   8   8
#     4  11  22  41  65  94 126 177 222 268 331 400
#     4  11  23  41  65  95 134 175 218 279 344 400
#     4  11  24  41  65  99 136 170 218 284 344 393
#     4  10  22  40  66  97 125 176 228 270 325 406
#     4  11  23  41  66  94 130 175 223 274 331 405
#     4  10  20  40  63  95 129 171 225 273 327 404
#
# _framework density 23.591757000000001
#
# number of rings (size 3 to 8) (size 9 to 14) (size 15 to 20)
#    0.000    1.333    3.333    4.000    2.333    3.333 
#    0.000    0.000    0.000    0.000    0.000    0.000 
#    0.000    0.000    0.000    0.000    0.000    0.000 
#
# Total GULP energy -297485.427132 kJ/mol
# GULP energy per Si atom -12395.226131 kJ/mol
# Density = 2.353806 g / cm^3
# Si number density = 23.591757 Si / 1000 Ang^3
#
#
#
# Elastic Constant Matrix: (Units=GPa)
#
#
# Indices 1 2 3 4 5 6 
#
# 1 116.4775 -5.4911 33.9266 0.0000 0.0000 0.0000
# 2 -5.4911 32.2538 2.5316 0.0000 0.0000 0.0000
# 3 33.9266 2.5316 158.3602 0.0000 0.0000 0.0000
# 4 0.0000 0.0000 0.0000 34.9286 0.0000 0.0000
# 5 0.0000 0.0000 0.0000 0.0000 33.3510 0.0000
# 6 0.0000 0.0000 0.0000 0.0000 0.0000 19.5180
#
#
#
# Elastic Compliance Matrix: (Units=1/GPa)
#
#
# Indices 1 2 3 4 5 6 
#
# 1 0.009252 0.001733 -0.002010 0.000000 0.000000 0.000000
# 2 0.001733 0.031368 -0.000873 0.000000 0.000000 0.000000
# 3 -0.002010 -0.000873 0.006759 0.000000 0.000000 0.000000
# 4 0.000000 0.000000 0.000000 0.028630 0.000000 0.000000
# 5 0.000000 0.000000 0.000000 0.000000 0.029984 0.000000
# 6 0.000000 0.000000 0.000000 0.000000 0.000000 0.051235
#
#
# Mechanical properties :
#
#
# Convention : Reuss Voigt Hill
#
# Bulk Modulus (GPa) = 22.18281 41.00287 31.59284
# Shear Modulus (GPa) = 28.64440 35.96780 32.30610
#
# Velocity S-wave (km/s) = 3.48827 3.90884 3.70453
# Velocity P-wave (km/s) = 5.06431 6.14735 5.63193
#
# Compressibility (1/GPa) = 0.04507996
#
# Stress axis : x y z
#
# Youngs Moduli (GPa) = 108.07909 31.88004 147.94490
#
# Poissons Ratio (x) = -0.05525 0.29736
# Poissons Ratio (y) = -0.18730 0.12911
# Poissons Ratio (z) = 0.21723 0.02782
#
# Static dielectric constant tensor:
#      x y z
#    x 4.496590 0.000000 0.000000 
#    y 0.000000 3.908070 0.000000 
#    z 0.000000 0.000000 4.579020 
# 
# 
# High freq. dielectric constant tensor:
#      x y z
#    x 1.928040 0.000000 0.000000 
#    y 0.000000 1.906340 0.000000 
#    z 0.000000 0.000000 1.951850 
# 
# From -- ./inp_files/4639.got.cif
#   From: 2010.03.12/outbox.cif.g09.slc.cpg/sg36_3_cif.got.tgz:4639.got - 2010.04.14 02:13:53.
