data_PCOD8175399
_publ_section_title
;
Structure prediction by ZEFSAII (Michael W. Deem and Ramdas Pophale) SiO2 
 PCOD8175399
Probable space group: C M C 21
;
_chemical_formula_sum "Si O2"
_cell_formula_units_Z 64
_cell_length_a 8.941425
_cell_length_b 15.426996
_cell_length_c 23.651242
_cell_angle_alpha 90.000000
_cell_angle_beta 90.000000
_cell_angle_gamma 90.000000
_cell_volume 3262.436421
_symmetry_space_group_name_H-M "C M C 21"
_symmetry_group_IT_number 36
_symmetry_cell_setting 'orthorhombic'
loop_
_space_group_symop_operation_xyz
x,y,z
-x,-y,1/2+z
x,-y,1/2+z
-x,y,z
1/2+x,1/2+y,z
1/2-x,1/2-y,1/2+z
1/2+x,1/2-y,1/2+z
1/2-x,1/2+y,z
loop_
_atom_site_type_symbol
_atom_site_label
_atom_site_fract_x
_atom_site_fract_y
_atom_site_fract_z
Si Si1 0.175638 0.469370 0.344800
Si Si2 0.323060 0.373429 0.041550
Si Si3 0.322740 0.787570 0.614777
Si Si4 0.174020 0.369233 0.921255
Si Si5 0.175348 0.209997 0.841362
Si Si6 0.669178 0.024963 0.716824
Si Si7 0.675973 0.460301 0.610088
Si Si8 0.828642 0.273587 0.224009
O O1 0.225409 0.547785 0.384838
O O2 0.263547 0.382658 0.362739
O O3 0.216472 0.497159 0.280905
O O4 0.000000 0.448228 0.348619
O O5 0.500000 0.371744 0.040304
O O6 0.262330 0.291649 0.076959
O O7 0.265627 0.460545 0.071803
O O8 0.264639 0.369225 0.978558
O O9 0.500000 0.789644 0.617158
O O10 0.259449 0.875222 0.586766
O O11 0.259965 0.782470 0.678256
O O12 0.211433 0.280583 0.889023
O O13 0.000000 0.376023 0.935235
O O14 0.255634 0.242167 0.784755
O O15 0.000000 0.202518 0.829156
O O16 0.500000 0.993383 0.704624
O O17 0.683929 0.126826 0.706292
O O18 0.781904 0.976096 0.675431
O O19 0.500000 0.446944 0.605205
O O20 0.000000 0.242726 0.226162
#
# Coordination Sequence:
#
# PCOD8175399 Si02
#       8
#     8   8   8   8   8   8   8   8
#     4   9  20  39  59  86 121 158 198 243 296 356
#     4  10  24  44  62  84 120 159 201 252 299 352
#     4  11  23  40  61  88 120 159 201 247 304 361
#     4  10  23  41  63  87 117 160 205 245 295 358
#     4  10  21  37  59  90 122 157 198 247 300 353
#     4   9  18  34  59  87 121 158 193 239 299 356
#     4  11  23  39  59  89 121 154 201 250 300 356
#     4  10  20  36  60  91 124 159 197 245 301 358
#
# _framework density 19.617239999999999
#
# number of rings (size 3 to 8) (size 9 to 14) (size 15 to 20)
#    0.000    2.000    1.250    2.250    1.750    6.500 
#    0.000    5.000    0.000    0.000    0.000    0.000 
#    0.000    0.000    0.000    0.000    0.000    0.000 
#
# Total GULP energy -396921.373751 kJ/mol
# GULP energy per Si atom -12403.792930 kJ/mol
# Density = 1.957259 g / cm^3
# Si number density = 19.617240 Si / 1000 Ang^3
#
#
#
# Elastic Constant Matrix: (Units=GPa)
#
#
# Indices 1 2 3 4 5 6 
#
# 1 68.0151 44.9936 32.4569 0.0000 0.0000 0.0000
# 2 44.9936 127.7929 58.6011 0.0000 0.0000 0.0000
# 3 32.4569 58.6011 98.8853 0.0000 0.0000 0.0000
# 4 0.0000 0.0000 0.0000 20.3871 0.0000 0.0000
# 5 0.0000 0.0000 0.0000 0.0000 37.1120 0.0000
# 6 0.0000 0.0000 0.0000 0.0000 0.0000 34.2168
#
#
#
# Elastic Compliance Matrix: (Units=1/GPa)
#
#
# Indices 1 2 3 4 5 6 
#
# 1 0.019908 -0.005510 -0.003269 0.000000 0.000000 0.000000
# 2 -0.005510 0.012270 -0.005463 0.000000 0.000000 0.000000
# 3 -0.003269 -0.005463 0.014423 0.000000 0.000000 0.000000
# 4 0.000000 0.000000 0.000000 0.049051 0.000000 0.000000
# 5 0.000000 0.000000 0.000000 0.000000 0.026945 0.000000
# 6 0.000000 0.000000 0.000000 0.000000 0.000000 0.029225
#
#
# Mechanical properties :
#
#
# Convention : Reuss Voigt Hill
#
# Bulk Modulus (GPa) = 55.19654 62.97740 59.08697
# Shear Modulus (GPa) = 26.83188 28.91931 27.87559
#
# Velocity S-wave (km/s) = 3.70235 3.84367 3.77367
# Velocity P-wave (km/s) = 6.81721 7.20216 7.01233
#
# Compressibility (1/GPa) = 0.01811708
#
# Stress axis : x y z
#
# Youngs Moduli (GPa) = 50.23206 81.49741 69.33314
#
# Poissons Ratio (x) = 0.44906 0.22664
# Poissons Ratio (y) = 0.27679 0.37877
# Poissons Ratio (z) = 0.16420 0.44522
#
# Static dielectric constant tensor:
#      x y z
#    x 3.510910 0.000000 0.000000 
#    y 0.000000 3.828290 0.000000 
#    z 0.000000 0.000000 3.463320 
# 
# 
# High freq. dielectric constant tensor:
#      x y z
#    x 1.763340 0.000000 0.000000 
#    y 0.000000 1.775760 0.000000 
#    z 0.000000 0.000000 1.757710 
# 
# From -- ./inp_files/16605.got.cif
#   From: 2010.03.12/outbox.cif.g09.slc.cpg/sg36_9_cif.got.tgz:16605.got - 2010.04.14 02:13:53.
