data_PCOD8175769
_publ_section_title
;
Structure prediction by ZEFSAII (Michael W. Deem and Ramdas Pophale) SiO2 
 PCOD8175769
Probable space group: C M C 21
;
_chemical_formula_sum "Si O2"
_cell_formula_units_Z 48
_cell_length_a 14.825152
_cell_length_b 18.743676
_cell_length_c 8.768747
_cell_angle_alpha 90.000000
_cell_angle_beta 90.000000
_cell_angle_gamma 90.000000
_cell_volume 2436.640526
_symmetry_space_group_name_H-M "C M C 21"
_symmetry_group_IT_number 36
_symmetry_cell_setting 'orthorhombic'
loop_
_space_group_symop_operation_xyz
x,y,z
-x,-y,1/2+z
x,-y,1/2+z
-x,y,z
1/2+x,1/2+y,z
1/2-x,1/2-y,1/2+z
1/2+x,1/2-y,1/2+z
1/2-x,1/2+y,z
loop_
_atom_site_type_symbol
_atom_site_label
_atom_site_fract_x
_atom_site_fract_y
_atom_site_fract_z
Si Si1 0.105301 0.915287 0.792790
Si Si2 0.747093 0.341018 0.296063
Si Si3 0.397886 0.948866 0.354879
Si Si4 0.760240 0.191354 0.149872
Si Si5 0.601513 0.907975 0.700028
Si Si6 0.105567 0.062588 0.642515
O O1 0.154988 0.846413 0.728086
O O2 0.000000 0.899556 0.778582
O O3 0.134483 0.983444 0.693353
O O4 0.133225 0.928933 0.967061
O O5 0.831956 0.393353 0.272010
O O6 0.764518 0.274270 0.187338
O O7 0.735842 0.316370 0.469010
O O8 0.655659 0.379600 0.245546
O O9 0.500000 0.933350 0.297911
O O10 0.389281 0.942692 0.534779
O O11 0.370217 0.030055 0.317291
O O12 0.668034 0.158678 0.218580
O O13 0.500000 0.880166 0.730191
O O14 0.000000 0.074834 0.670623
#
# Coordination Sequence:
#
# PCOD8175769 Si02
#       6
#     8   8   8   8   8   8
#     4  10  21  38  60  84 111 145 186 233 283 335
#     4  11  23  37  55  81 114 150 186 227 277 333
#     4   9  19  36  57  80 106 138 177 221 269 321
#     4  11  23  37  55  81 114 150 186 227 277 333
#     4   9  19  36  57  80 106 138 177 221 269 321
#     4  10  21  38  60  84 111 145 186 233 283 335
#
# _framework density 19.699254
#
# number of rings (size 3 to 8) (size 9 to 14) (size 15 to 20)
#    0.000    2.000    0.000    3.000    0.000    8.667 
#    0.000    3.333    0.000    0.000    0.000    0.000 
#    0.000    0.000    0.000    0.000    0.000    0.000 
#
# Total GULP energy -297722.611789 kJ/mol
# GULP energy per Si atom -12405.108825 kJ/mol
# Density = 1.965442 g / cm^3
# Si number density = 19.699254 Si / 1000 Ang^3
#
#
#
# Elastic Constant Matrix: (Units=GPa)
#
#
# Indices 1 2 3 4 5 6 
#
# 1 67.0594 26.1963 26.8139 0.0000 0.0000 0.0000
# 2 26.1963 52.1645 -2.3458 0.0000 0.0000 0.0000
# 3 26.8139 -2.3458 41.2641 0.0000 0.0000 0.0000
# 4 0.0000 0.0000 0.0000 36.8511 0.0000 0.0000
# 5 0.0000 0.0000 0.0000 0.0000 31.3119 0.0000
# 6 0.0000 0.0000 0.0000 0.0000 0.0000 21.4137
#
#
#
# Elastic Compliance Matrix: (Units=1/GPa)
#
#
# Indices 1 2 3 4 5 6 
#
# 1 0.028681 -0.015280 -0.019506 0.000000 0.000000 0.000000
# 2 -0.015280 0.027360 0.011485 0.000000 0.000000 0.000000
# 3 -0.019506 0.011485 0.037562 0.000000 0.000000 0.000000
# 4 0.000000 0.000000 0.000000 0.027136 0.000000 0.000000
# 5 0.000000 0.000000 0.000000 0.000000 0.031937 0.000000
# 6 0.000000 0.000000 0.000000 0.000000 0.000000 0.046699
#
#
# Mechanical properties :
#
#
# Convention : Reuss Voigt Hill
#
# Bulk Modulus (GPa) = 21.27643 29.09074 25.18358
# Shear Modulus (GPa) = 19.10989 25.23690 22.17339
#
# Velocity S-wave (km/s) = 3.11799 3.58314 3.35863
# Velocity P-wave (km/s) = 4.87715 5.64960 5.27753
#
# Compressibility (1/GPa) = 0.04700038
#
# Stress axis : x y z
#
# Youngs Moduli (GPa) = 34.86659 36.54949 26.62256
#
# Poissons Ratio (x) = 0.55849 0.51929
# Poissons Ratio (y) = 0.53277 -0.30575
# Poissons Ratio (z) = 0.68010 -0.41976
#
# Static dielectric constant tensor:
#      x y z
#    x 3.766950 0.000000 0.000000 
#    y 0.000000 3.537830 0.000000 
#    z 0.000000 0.000000 3.636860 
# 
# 
# High freq. dielectric constant tensor:
#      x y z
#    x 1.778500 0.000000 0.000000 
#    y 0.000000 1.761140 0.000000 
#    z 0.000000 0.000000 1.774270 
# 
# From -- ./inp_files/3985.got.cif
#   From: 2010.03.12/outbox.cif.g09.slc.cpg/sg36_2_cif.got.tgz:3985.got - 2010.04.14 02:13:53.
