data_PCOD8175814
_publ_section_title
;
Structure prediction by ZEFSAII (Michael W. Deem and Ramdas Pophale) SiO2 
 PCOD8175814
Probable space group: C M C 21
;
_chemical_formula_sum "Si O2"
_cell_formula_units_Z 64
_cell_length_a 8.878769
_cell_length_b 19.980906
_cell_length_c 19.596270
_cell_angle_alpha 90.000000
_cell_angle_beta 90.000000
_cell_angle_gamma 90.000000
_cell_volume 3476.492912
_symmetry_space_group_name_H-M "C M C 21"
_symmetry_group_IT_number 36
_symmetry_cell_setting 'orthorhombic'
loop_
_space_group_symop_operation_xyz
x,y,z
-x,-y,1/2+z
x,-y,1/2+z
-x,y,z
1/2+x,1/2+y,z
1/2-x,1/2-y,1/2+z
1/2+x,1/2-y,1/2+z
1/2-x,1/2+y,z
loop_
_atom_site_type_symbol
_atom_site_label
_atom_site_fract_x
_atom_site_fract_y
_atom_site_fract_z
Si Si1 0.823933 0.169322 0.317490
Si Si2 0.323305 0.090476 0.931395
Si Si3 0.674190 0.270688 0.056158
Si Si4 0.178058 0.449527 0.578352
Si Si5 0.322253 0.274799 0.417672
Si Si6 0.826195 0.406118 0.048926
Si Si7 0.325236 0.833422 0.675137
Si Si8 0.671597 0.056211 0.392758
O O1 0.737804 0.222019 0.363761
O O2 0.778306 0.180858 0.239548
O O3 0.780248 0.094296 0.340417
O O4 0.000000 0.180420 0.326056
O O5 0.500000 0.107016 0.931713
O O6 0.235909 0.151668 0.896267
O O7 0.289965 0.022589 0.889584
O O8 0.258911 0.082351 0.008338
O O9 0.500000 0.269590 0.034930
O O10 0.724352 0.345586 0.075622
O O11 0.704525 0.225235 0.121550
O O12 0.769312 0.243251 0.993323
O O13 0.231846 0.526428 0.587232
O O14 0.226187 0.404441 0.642419
O O15 0.000000 0.450921 0.568498
O O16 0.500000 0.272799 0.415375
O O17 0.000000 0.391035 0.066221
O O18 0.804067 0.415073 0.968265
O O19 0.500000 0.836221 0.696729
O O20 0.500000 0.068296 0.369674
#
# Coordination Sequence:
#
# PCOD8175814 Si02
#       8
#     8   8   8   8   8   8   8   8
#     4  12  25  39  57  82 116 154 198 243 287 343
#     4   9  17  34  59  87 115 144 185 232 282 339
#     4  11  21  35  58  86 115 150 190 240 291 341
#     4   8  15  32  57  83 110 145 184 223 274 339
#     4  12  23  36  57  85 117 153 194 241 291 342
#     4   9  17  31  56  86 114 144 183 230 275 334
#     4  10  21  39  60  80 111 154 195 233 289 351
#     4   9  18  34  58  85 114 148 185 228 283 343
#
# _framework density 18.409358000000001
#
# number of rings (size 3 to 8) (size 9 to 14) (size 15 to 20)
#    0.000    2.000    2.500    4.125    0.000    1.500 
#    0.000    3.750    0.000    4.500    0.000    0.000 
#    0.000    0.000    0.000    0.000    0.000    0.000 
#
# Total GULP energy -396815.505253 kJ/mol
# GULP energy per Si atom -12400.484539 kJ/mol
# Density = 1.836746 g / cm^3
# Si number density = 18.409358 Si / 1000 Ang^3
#
#
#
# Elastic Constant Matrix: (Units=GPa)
#
#
# Indices 1 2 3 4 5 6 
#
# 1 106.5065 60.7293 45.4608 0.0000 0.0000 0.0000
# 2 60.7293 145.0574 46.8630 0.0000 0.0000 0.0000
# 3 45.4608 46.8630 75.5868 0.0000 0.0000 0.0000
# 4 0.0000 0.0000 0.0000 18.9696 0.0000 0.0000
# 5 0.0000 0.0000 0.0000 0.0000 25.9846 0.0000
# 6 0.0000 0.0000 0.0000 0.0000 0.0000 32.8385
#
#
#
# Elastic Compliance Matrix: (Units=1/GPa)
#
#
# Indices 1 2 3 4 5 6 
#
# 1 0.014279 -0.004006 -0.006104 0.000000 0.000000 0.000000
# 2 -0.004006 0.009744 -0.003632 0.000000 0.000000 0.000000
# 3 -0.006104 -0.003632 0.019153 0.000000 0.000000 0.000000
# 4 0.000000 0.000000 0.000000 0.052716 0.000000 0.000000
# 5 0.000000 0.000000 0.000000 0.000000 0.038484 0.000000
# 6 0.000000 0.000000 0.000000 0.000000 0.000000 0.030452
#
#
# Mechanical properties :
#
#
# Convention : Reuss Voigt Hill
#
# Bulk Modulus (GPa) = 63.72778 70.36185 67.04481
# Shear Modulus (GPa) = 25.31094 27.16505 26.23800
#
# Velocity S-wave (km/s) = 3.71198 3.84554 3.77935
# Velocity P-wave (km/s) = 7.28450 7.61716 7.45269
#
# Compressibility (1/GPa) = 0.01569175
#
# Stress axis : x y z
#
# Youngs Moduli (GPa) = 70.03455 102.62424 52.21128
#
# Poissons Ratio (x) = 0.41109 0.31871
# Poissons Ratio (y) = 0.28055 0.18964
# Poissons Ratio (z) = 0.42750 0.37274
#
# Static dielectric constant tensor:
#      x y z
#    x 3.236320 0.000000 0.000000 
#    y 0.000000 3.785390 0.000000 
#    z 0.000000 0.000000 3.269770 
# 
# 
# High freq. dielectric constant tensor:
#      x y z
#    x 1.698830 0.000000 0.000000 
#    y 0.000000 1.733710 0.000000 
#    z 0.000000 0.000000 1.685190 
# 
# From -- ./inp_files/13976.got.cif
#   From: 2010.03.12/outbox.cif.g09.slc.cpg/sg36_7_cif.got.tgz:13976.got - 2010.04.14 02:13:53.
