data_PCOD8175958
_publ_section_title
;
Structure prediction by ZEFSAII (Michael W. Deem and Ramdas Pophale) SiO2 
 PCOD8175958
Probable space group: C M C 21
;
_chemical_formula_sum "Si O2"
_cell_formula_units_Z 40
_cell_length_a 14.421440
_cell_length_b 22.341575
_cell_length_c 5.272541
_cell_angle_alpha 90.000000
_cell_angle_beta 90.000000
_cell_angle_gamma 90.000000
_cell_volume 1698.800496
_symmetry_space_group_name_H-M "C M C 21"
_symmetry_group_IT_number 36
_symmetry_cell_setting 'orthorhombic'
loop_
_space_group_symop_operation_xyz
x,y,z
-x,-y,1/2+z
x,-y,1/2+z
-x,y,z
1/2+x,1/2+y,z
1/2-x,1/2-y,1/2+z
1/2+x,1/2-y,1/2+z
1/2-x,1/2+y,z
loop_
_atom_site_type_symbol
_atom_site_label
_atom_site_fract_x
_atom_site_fract_y
_atom_site_fract_z
Si Si1 0.500000 0.422642 0.930910
Si Si2 0.159129 0.780085 0.217017
Si Si3 0.000000 0.153412 0.941296
Si Si4 0.798917 0.652838 0.431373
Si Si5 0.500000 0.239155 0.924852
Si Si6 0.300160 0.466266 0.860958
Si Si7 0.500000 0.835625 0.934635
O O1 0.500000 0.371307 0.722053
O O2 0.500000 0.395878 0.216151
O O3 0.411182 0.464112 0.880336
O O4 0.198187 0.713278 0.263121
O O5 0.244349 0.826532 0.185102
O O6 0.093487 0.778263 0.965607
O O7 0.092367 0.805460 0.435969
O O8 0.742339 0.599097 0.304927
O O9 0.904015 0.628400 0.484214
O O10 0.500000 0.188414 0.146850
O O11 0.500000 0.217339 0.639120
O O12 0.264950 0.492445 0.129467
#
# Coordination Sequence:
#
# PCOD8175958 Si02
#       7
#     4   8   4   8   4   8   4
#     4  12  24  48  72 106 145 185 228 291 360 432
#     4  10  22  38  67 109 142 185 225 294 364 440
#     4  11  24  41  72 111 148 181 222 283 374 452
#     4  11  24  42  70 104 143 188 239 295 358 416
#     4   9  20  38  58  97 141 177 218 267 362 433
#     4  12  28  49  73 102 140 192 247 289 342 419
#     4  10  22  41  62  92 136 179 224 293 344 407
#
# _framework density 23.546025
#
# number of rings (size 3 to 8) (size 9 to 14) (size 15 to 20)
#    0.000    1.200    2.000    3.600    2.800    9.600 
#    0.000    1.000    0.000    0.000    0.000    0.000 
#    0.000    0.000    0.000    0.000    0.000    0.000 
#
# Total GULP energy -247772.884473 kJ/mol
# GULP energy per Si atom -12388.644224 kJ/mol
# Density = 2.349243 g / cm^3
# Si number density = 23.546025 Si / 1000 Ang^3
#
#
#
# Elastic Constant Matrix: (Units=GPa)
#
#
# Indices 1 2 3 4 5 6 
#
# 1 142.0530 28.0744 9.8397 0.0000 0.0000 0.0000
# 2 28.0744 97.5797 31.7836 0.0000 0.0000 0.0000
# 3 9.8397 31.7836 102.1702 0.0000 0.0000 0.0000
# 4 0.0000 0.0000 0.0000 39.5926 0.0000 0.0000
# 5 0.0000 0.0000 0.0000 0.0000 6.5233 0.0000
# 6 0.0000 0.0000 0.0000 0.0000 0.0000 -33.7345
#
#
#
# Elastic Compliance Matrix: (Units=1/GPa)
#
#
# Indices 1 2 3 4 5 6 
#
# 1 0.007464 -0.002129 -0.000057 0.000000 0.000000 0.000000
# 2 -0.002129 0.012011 -0.003531 0.000000 0.000000 0.000000
# 3 -0.000057 -0.003531 0.010892 0.000000 0.000000 0.000000
# 4 0.000000 0.000000 0.000000 0.025257 0.000000 0.000000
# 5 0.000000 0.000000 0.000000 0.000000 0.153297 0.000000
# 6 0.000000 0.000000 0.000000 0.000000 0.000000 -0.029643
#
#
# Mechanical properties :
#
#
# Convention : Reuss Voigt Hill
#
# Bulk Modulus (GPa) = 52.81855 53.46649 53.14252
# Shear Modulus (GPa) = 25.37779 20.61661 22.99720
#
# Velocity S-wave (km/s) = 3.28654 2.96224 3.12860
# Velocity P-wave (km/s) = 6.07310 5.86995 5.97239
#
# Compressibility (1/GPa) = 0.01893274
#
# Stress axis : x y z
#
# Youngs Moduli (GPa) = 133.97057 83.25821 91.81401
#
# Poissons Ratio (x) = 0.17727 0.00519
# Poissons Ratio (y) = 0.28524 0.32423
# Poissons Ratio (z) = 0.00757 0.29401
#
# Static dielectric constant tensor:
#      x y z
#    x 4.938300 0.000000 0.000000 
#    y 0.000000 3.927070 0.000000 
#    z 0.000000 0.000000 4.027470 
# 
# 
# High freq. dielectric constant tensor:
#      x y z
#    x 1.945080 0.000000 0.000000 
#    y 0.000000 1.902970 0.000000 
#    z 0.000000 0.000000 1.930280 
# 
# From -- ./inp_files/762.got.cif
#   From: 2010.03.12/outbox.cif.g09.slc.cpg/sg36_1_cif.got.tgz:762.got - 2010.04.14 02:13:53.
