data_PCOD8175082
_publ_section_title
;
Structure prediction by ZEFSAII (Michael W. Deem and Ramdas Pophale) SiO2 
 PCOD8175082
Probable space group: C M C 21
;
_chemical_formula_sum "Si O2"
_cell_formula_units_Z 64
_cell_length_a 9.066131
_cell_length_b 22.660928
_cell_length_c 16.287161
_cell_angle_alpha 90.000000
_cell_angle_beta 90.000000
_cell_angle_gamma 90.000000
_cell_volume 3346.147419
_symmetry_space_group_name_H-M "C M C 21"
_symmetry_group_IT_number 36
_symmetry_cell_setting 'orthorhombic'
loop_
_space_group_symop_operation_xyz
x,y,z
-x,-y,1/2+z
x,-y,1/2+z
-x,y,z
1/2+x,1/2+y,z
1/2-x,1/2-y,1/2+z
1/2+x,1/2-y,1/2+z
1/2-x,1/2+y,z
loop_
_atom_site_type_symbol
_atom_site_label
_atom_site_fract_x
_atom_site_fract_y
_atom_site_fract_z
Si Si1 0.174326 0.019624 0.758850
Si Si2 0.823996 0.838790 0.546992
Si Si3 0.175173 0.955028 0.925831
Si Si4 0.333990 0.780012 0.112686
Si Si5 0.335855 0.861599 0.246798
Si Si6 0.836144 0.280732 0.400867
Si Si7 0.667807 0.830348 0.931784
Si Si8 0.175049 0.969780 0.584495
O O1 0.225773 0.983677 0.839377
O O2 0.236326 0.993962 0.671935
O O3 0.000000 0.021317 0.755048
O O4 0.232834 0.084953 0.772011
O O5 0.771635 0.787308 0.610918
O O6 0.754050 0.824116 0.459777
O O7 0.767674 0.902490 0.576887
O O8 0.000000 0.836992 0.536233
O O9 0.250368 0.892018 0.927443
O O10 0.000000 0.947707 0.929441
O O11 0.230987 0.992653 0.005379
O O12 0.500000 0.776621 0.146493
O O13 0.252937 0.825917 0.173013
O O14 0.326379 0.806772 0.023284
O O15 0.500000 0.885458 0.222847
O O16 0.351052 0.814894 0.317594
O O17 0.753793 0.219179 0.379614
O O18 0.000000 0.267397 0.436943
O O19 0.500000 0.837136 0.900312
O O20 0.000000 0.970603 0.585113
#
# Coordination Sequence:
#
# PCOD8175082 Si02
#       8
#     8   8   8   8   8   8   8   8
#     4  10  21  35  53  78 105 137 177 216 256 306
#     4   9  17  33  55  75 101 137 174 209 250 306
#     4  10  20  34  53  77 106 138 172 214 260 303
#     4   8  16  31  52  76  98 127 168 210 252 301
#     4  10  20  34  52  75 103 134 169 210 258 307
#     4  10  20  33  52  78 105 132 166 213 262 307
#     4  10  20  35  55  76 100 134 173 210 256 312
#     4   9  18  33  54  79 106 139 177 214 254 304
#
# _framework density 19.126474000000002
#
# number of rings (size 3 to 8) (size 9 to 14) (size 15 to 20)
#    0.000    2.500    0.000    3.000    0.000    3.500 
#    0.000    7.500    0.000    3.000    0.000    0.000 
#    0.000    0.000    0.000    0.000    0.000    0.000 
#
# Total GULP energy -396557.350567 kJ/mol
# GULP energy per Si atom -12392.417205 kJ/mol
# Density = 1.908294 g / cm^3
# Si number density = 19.126474 Si / 1000 Ang^3
#
#
#
# Elastic Constant Matrix: (Units=GPa)
#
#
# Indices 1 2 3 4 5 6 
#
# 1 27.9743 30.0886 18.6883 0.0000 0.0000 0.0000
# 2 30.0886 158.1662 50.9043 0.0000 0.0000 0.0000
# 3 18.6883 50.9043 87.3636 0.0000 0.0000 0.0000
# 4 0.0000 0.0000 0.0000 25.4872 0.0000 0.0000
# 5 0.0000 0.0000 0.0000 0.0000 13.1952 0.0000
# 6 0.0000 0.0000 0.0000 0.0000 0.0000 26.7717
#
#
#
# Elastic Compliance Matrix: (Units=1/GPa)
#
#
# Indices 1 2 3 4 5 6 
#
# 1 0.047375 -0.007078 -0.006010 0.000000 0.000000 0.000000
# 2 -0.007078 0.008839 -0.003636 0.000000 0.000000 0.000000
# 3 -0.006010 -0.003636 0.014851 0.000000 0.000000 0.000000
# 4 0.000000 0.000000 0.000000 0.039235 0.000000 0.000000
# 5 0.000000 0.000000 0.000000 0.000000 0.075785 0.000000
# 6 0.000000 0.000000 0.000000 0.000000 0.000000 0.037353
#
#
# Mechanical properties :
#
#
# Convention : Reuss Voigt Hill
#
# Bulk Modulus (GPa) = 26.58414 52.54071 39.56243
# Shear Modulus (GPa) = 18.55798 24.67903 21.61850
#
# Velocity S-wave (km/s) = 3.11831 3.59598 3.36563
# Velocity P-wave (km/s) = 5.18598 6.69113 5.98605
#
# Compressibility (1/GPa) = 0.03761641
#
# Stress axis : x y z
#
# Youngs Moduli (GPa) = 21.10817 113.13167 67.33647
#
# Poissons Ratio (x) = 0.80075 0.40469
# Poissons Ratio (y) = 0.14941 0.24485
# Poissons Ratio (z) = 0.12686 0.41138
#
# Static dielectric constant tensor:
#      x y z
#    x 3.447890 0.000000 0.000000 
#    y 0.000000 3.806520 0.000000 
#    z 0.000000 0.000000 3.659280 
# 
# 
# High freq. dielectric constant tensor:
#      x y z
#    x 1.715220 0.000000 0.000000 
#    y 0.000000 1.759650 0.000000 
#    z 0.000000 0.000000 1.742570 
# 
# From -- ./inp_files/11117.got.cif
#   From: 2010.03.12/outbox.cif.g09.slc.cpg/sg36_6_cif.got.tgz:11117.got - 2010.04.14 02:13:53.
