data_PCOD8175155
_publ_section_title
;
Structure prediction by ZEFSAII (Michael W. Deem and Ramdas Pophale) SiO2 
 PCOD8175155
Probable space group: C M C 21
;
_chemical_formula_sum "Si O2"
_cell_formula_units_Z 64
_cell_length_a 9.200681
_cell_length_b 24.024321
_cell_length_c 14.546943
_cell_angle_alpha 90.000000
_cell_angle_beta 90.000000
_cell_angle_gamma 90.000000
_cell_volume 3215.457936
_symmetry_space_group_name_H-M "C M C 21"
_symmetry_group_IT_number 36
_symmetry_cell_setting 'orthorhombic'
loop_
_space_group_symop_operation_xyz
x,y,z
-x,-y,1/2+z
x,-y,1/2+z
-x,y,z
1/2+x,1/2+y,z
1/2-x,1/2-y,1/2+z
1/2+x,1/2-y,1/2+z
1/2-x,1/2+y,z
loop_
_atom_site_type_symbol
_atom_site_label
_atom_site_fract_x
_atom_site_fract_y
_atom_site_fract_z
Si Si1 0.827697 0.694115 0.558320
Si Si2 0.334170 0.456180 0.914640
Si Si3 0.834245 0.893898 0.181081
Si Si4 0.670308 0.696087 0.169507
Si Si5 0.164511 0.393473 0.555277
Si Si6 0.337058 0.579739 0.880782
Si Si7 0.664692 0.020211 0.592388
Si Si8 0.168245 0.832811 0.871986
O O1 0.767772 0.644623 0.620322
O O2 0.781404 0.749342 0.613726
O O3 0.759957 0.692967 0.456234
O O4 0.000000 0.688946 0.548945
O O5 0.500000 0.455464 0.952112
O O6 0.305447 0.513990 0.859588
O O7 0.305111 0.399479 0.857196
O O8 0.220094 0.454306 0.996914
O O9 0.822023 0.882664 0.289622
O O10 0.772162 0.956335 0.170116
O O11 0.000000 0.888732 0.146778
O O12 0.500000 0.685765 0.161549
O O13 0.748366 0.644486 0.123995
O O14 0.715186 0.698390 0.277542
O O15 0.228251 0.392999 0.452855
O O16 0.175643 0.454435 0.597378
O O17 0.000000 0.372283 0.548206
O O18 0.500000 0.585164 0.920555
O O19 0.500000 0.040521 0.607664
O O20 0.000000 0.821155 0.894287
#
# Coordination Sequence:
#
# PCOD8175155 Si02
#       8
#     8   8   8   8   8   8   8   8
#     4  11  24  42  62  88 124 160 200 252 307 354
#     4   9  17  33  57  85 116 154 201 245 291 348
#     4  11  22  36  59  89 118 159 207 245 294 355
#     4  10  24  43  64  89 118 159 205 250 302 357
#     4  10  22  39  59  88 123 159 197 244 304 359
#     4   9  20  36  57  88 124 163 203 245 295 357
#     4  10  20  34  54  85 123 157 190 239 301 357
#     4  10  21  39  64  90 116 155 205 250 296 355
#
# _framework density 19.903853999999999
#
# number of rings (size 3 to 8) (size 9 to 14) (size 15 to 20)
#    0.000    2.000    1.250    1.500    1.750    5.000 
#    0.000    2.500    0.000    0.000    0.000    0.000 
#    0.000    0.000    0.000    0.000    0.000    0.000 
#
# Total GULP energy -396665.571553 kJ/mol
# GULP energy per Si atom -12395.799111 kJ/mol
# Density = 1.985855 g / cm^3
# Si number density = 19.903854 Si / 1000 Ang^3
#
#
#
# Elastic Constant Matrix: (Units=GPa)
#
#
# Indices 1 2 3 4 5 6 
#
# 1 57.3632 44.6609 50.4084 0.0000 0.0000 0.0000
# 2 44.6609 71.4306 59.9505 0.0000 0.0000 0.0000
# 3 50.4084 59.9505 127.4641 0.0000 0.0000 0.0000
# 4 0.0000 0.0000 0.0000 23.6441 0.0000 0.0000
# 5 0.0000 0.0000 0.0000 0.0000 22.8638 0.0000
# 6 0.0000 0.0000 0.0000 0.0000 0.0000 23.5213
#
#
#
# Elastic Compliance Matrix: (Units=1/GPa)
#
#
# Indices 1 2 3 4 5 6 
#
# 1 0.036665 -0.017769 -0.006143 0.000000 0.000000 0.000000
# 2 -0.017769 0.031741 -0.007902 0.000000 0.000000 0.000000
# 3 -0.006143 -0.007902 0.013991 0.000000 0.000000 0.000000
# 4 0.000000 0.000000 0.000000 0.042294 0.000000 0.000000
# 5 0.000000 0.000000 0.000000 0.000000 0.043737 0.000000
# 6 0.000000 0.000000 0.000000 0.000000 0.000000 0.042515
#
#
# Mechanical properties :
#
#
# Convention : Reuss Voigt Hill
#
# Bulk Modulus (GPa) = 53.27498 62.92195 58.09846
# Shear Modulus (GPa) = 17.80460 20.75502 19.27981
#
# Velocity S-wave (km/s) = 2.99411 3.23269 3.11569
# Velocity P-wave (km/s) = 6.22714 6.75391 6.49586
#
# Compressibility (1/GPa) = 0.01877054
#
# Stress axis : x y z
#
# Youngs Moduli (GPa) = 27.27414 31.50487 71.47392
#
# Poissons Ratio (x) = 0.55980 0.43904
# Poissons Ratio (y) = 0.48462 0.56478
# Poissons Ratio (z) = 0.16754 0.24895
#
# Static dielectric constant tensor:
#      x y z
#    x 3.716470 0.000000 0.000000 
#    y 0.000000 3.723780 0.000000 
#    z 0.000000 0.000000 3.665740 
# 
# 
# High freq. dielectric constant tensor:
#      x y z
#    x 1.780490 0.000000 0.000000 
#    y 0.000000 1.770840 0.000000 
#    z 0.000000 0.000000 1.772070 
# 
# From -- ./inp_files/11067.got.cif
#   From: 2010.03.12/outbox.cif.g09.slc.cpg/sg36_6_cif.got.tgz:11067.got - 2010.04.14 02:13:53.
