data_PCOD8175427
_publ_section_title
;
Structure prediction by ZEFSAII (Michael W. Deem and Ramdas Pophale) SiO2 
 PCOD8175427
Probable space group: C M C 21
;
_chemical_formula_sum "Si O2"
_cell_formula_units_Z 48
_cell_length_a 8.518811
_cell_length_b 30.472626
_cell_length_c 9.259617
_cell_angle_alpha 90.000000
_cell_angle_beta 90.000000
_cell_angle_gamma 90.000000
_cell_volume 2403.708992
_symmetry_space_group_name_H-M "C M C 21"
_symmetry_group_IT_number 36
_symmetry_cell_setting 'orthorhombic'
loop_
_space_group_symop_operation_xyz
x,y,z
-x,-y,1/2+z
x,-y,1/2+z
-x,y,z
1/2+x,1/2+y,z
1/2-x,1/2-y,1/2+z
1/2+x,1/2-y,1/2+z
1/2-x,1/2+y,z
loop_
_atom_site_type_symbol
_atom_site_label
_atom_site_fract_x
_atom_site_fract_y
_atom_site_fract_z
Si Si1 0.316585 0.636278 0.377340
Si Si2 0.185166 0.786181 0.075214
Si Si3 0.817566 0.297934 0.387612
Si Si4 0.184464 0.123764 0.056706
Si Si5 0.180583 0.037854 0.408024
Si Si6 0.680687 0.965708 0.600909
O O1 0.500000 0.645077 0.367270
O O2 0.244109 0.673521 0.480705
O O3 0.250072 0.639636 0.213584
O O4 0.279814 0.588554 0.444627
O O5 0.273642 0.784650 0.226242
O O6 0.000000 0.791407 0.101419
O O7 0.227808 0.741765 0.992510
O O8 0.721170 0.340647 0.434896
O O9 0.000000 0.308967 0.397027
O O10 0.270087 0.078296 0.014516
O O11 0.000000 0.114577 0.062859
O O12 0.209597 0.029235 0.239827
O O13 0.000000 0.026834 0.442946
O O14 0.294865 0.007762 0.500710
O O15 0.500000 0.963205 0.647695
#
# Coordination Sequence:
#
# PCOD8175427 Si02
#       6
#     8   8   8   8   8   8
#     4   8  17  35  59  82 105 141 190 233 269 327
#     4  10  21  38  58  81 112 149 187 229 279 334
#     4  11  23  37  56  85 116 146 187 235 280 332
#     4  10  20  38  61  82 110 150 191 232 286 347
#     4  10  20  37  59  83 113 154 198 235 283 347
#     4  11  22  37  57  85 118 150 191 244 293 335
#
# _framework density 19.969138999999998
#
# number of rings (size 3 to 8) (size 9 to 14) (size 15 to 20)
#    0.000    2.000    0.000    5.000    0.000    4.000 
#    0.000   10.000    0.000    0.000    0.000    0.000 
#    0.000    0.000    0.000    0.000    0.000    0.000 
#
# Total GULP energy -297674.393065 kJ/mol
# GULP energy per Si atom -12403.099711 kJ/mol
# Density = 1.992369 g / cm^3
# Si number density = 19.969139 Si / 1000 Ang^3
#
#
#
# Elastic Constant Matrix: (Units=GPa)
#
#
# Indices 1 2 3 4 5 6 
#
# 1 59.7031 24.9195 13.2388 0.0000 0.0000 0.0000
# 2 24.9195 77.0300 17.4534 0.0000 0.0000 0.0000
# 3 13.2388 17.4534 61.5541 0.0000 0.0000 0.0000
# 4 0.0000 0.0000 0.0000 39.1693 0.0000 0.0000
# 5 0.0000 0.0000 0.0000 0.0000 28.9054 0.0000
# 6 0.0000 0.0000 0.0000 0.0000 0.0000 26.1073
#
#
#
# Elastic Compliance Matrix: (Units=1/GPa)
#
#
# Indices 1 2 3 4 5 6 
#
# 1 0.019747 -0.005798 -0.002603 0.000000 0.000000 0.000000
# 2 -0.005798 0.015576 -0.003169 0.000000 0.000000 0.000000
# 3 -0.002603 -0.003169 0.017704 0.000000 0.000000 0.000000
# 4 0.000000 0.000000 0.000000 0.025530 0.000000 0.000000
# 5 0.000000 0.000000 0.000000 0.000000 0.034596 0.000000
# 6 0.000000 0.000000 0.000000 0.000000 0.000000 0.038303
#
#
# Mechanical properties :
#
#
# Convention : Reuss Voigt Hill
#
# Bulk Modulus (GPa) = 33.46086 34.39005 33.92546
# Shear Modulus (GPa) = 27.09147 28.34810 27.71979
#
# Velocity S-wave (km/s) = 3.68729 3.77184 3.72981
# Velocity P-wave (km/s) = 5.90938 6.01897 5.96443
#
# Compressibility (1/GPa) = 0.02988566
#
# Stress axis : x y z
#
# Youngs Moduli (GPa) = 50.64068 64.20176 56.48322
#
# Poissons Ratio (x) = 0.37227 0.14702
# Poissons Ratio (y) = 0.29364 0.17902
# Poissons Ratio (z) = 0.13182 0.20348
#
# Static dielectric constant tensor:
#      x y z
#    x 3.400450 0.000000 0.000000 
#    y 0.000000 3.812520 0.000000 
#    z 0.000000 0.000000 3.577520 
# 
# 
# High freq. dielectric constant tensor:
#      x y z
#    x 1.767390 0.000000 0.000000 
#    y 0.000000 1.791360 0.000000 
#    z 0.000000 0.000000 1.772750 
# 
# From -- ./inp_files/2699.got.cif
#   From: 2010.03.12/outbox.cif.g09.slc.cpg/sg36_2_cif.got.tgz:2699.got - 2010.04.14 02:13:53.
