data_PCOD8175229
_publ_section_title
;
Structure prediction by ZEFSAII (Michael W. Deem and Ramdas Pophale) SiO2 
 PCOD8175229
Probable space group: C M C 21
;
_chemical_formula_sum "Si O2"
_cell_formula_units_Z 64
_cell_length_a 14.124012
_cell_length_b 17.433521
_cell_length_c 14.016126
_cell_angle_alpha 90.000000
_cell_angle_beta 90.000000
_cell_angle_gamma 90.000000
_cell_volume 3451.208363
_symmetry_space_group_name_H-M "C M C 21"
_symmetry_group_IT_number 36
_symmetry_cell_setting 'orthorhombic'
loop_
_space_group_symop_operation_xyz
x,y,z
-x,-y,1/2+z
x,-y,1/2+z
-x,y,z
1/2+x,1/2+y,z
1/2-x,1/2-y,1/2+z
1/2+x,1/2-y,1/2+z
1/2-x,1/2+y,z
loop_
_atom_site_type_symbol
_atom_site_label
_atom_site_fract_x
_atom_site_fract_y
_atom_site_fract_z
Si Si1 0.748430 0.099731 0.458460
Si Si2 0.713383 0.180221 0.114907
Si Si3 0.772652 0.073678 0.952836
Si Si4 0.608761 0.663805 0.802735
Si Si5 0.390436 0.157883 0.304692
Si Si6 0.394828 0.872241 0.333650
Si Si7 0.105049 0.228302 0.456318
Si Si8 0.724890 0.163186 0.662331
O O1 0.662021 0.106667 0.384085
O O2 0.831019 0.156933 0.426783
O O3 0.711832 0.120447 0.563003
O O4 0.794959 0.015739 0.462365
O O5 0.656993 0.141086 0.201929
O O6 0.788005 0.244518 0.151625
O O7 0.767861 0.114148 0.056476
O O8 0.639414 0.226913 0.049888
O O9 0.854402 0.114524 0.891916
O O10 0.670538 0.077816 0.902556
O O11 0.500000 0.642385 0.780185
O O12 0.619404 0.752661 0.832075
O O13 0.671741 0.646136 0.709231
O O14 0.500000 0.132661 0.300843
O O15 0.500000 0.907433 0.337311
O O16 0.392717 0.784182 0.366204
O O17 0.357679 0.872748 0.226053
O O18 0.000000 0.198096 0.477799
#
# Coordination Sequence:
#
# PCOD8175229 Si02
#       8
#     8   8   8   8   8   8   8   8
#     4  11  22  33  49  77 113 143 169 207 259 315
#     4   9  17  33  55  76 101 133 174 219 258 303
#     4  10  21  35  52  78 111 140 166 205 262 320
#     4   9  18  36  60  80  99 131 177 222 261 304
#     4  10  20  35  56  78 100 134 181 224 257 297
#     4   9  18  35  57  77  99 132 176 220 259 301
#     4   9  17  32  55  78  98 129 176 222 260 303
#     4   9  18  33  53  78 103 134 174 217 259 303
#
# _framework density 18.544229999999999
#
# number of rings (size 3 to 8) (size 9 to 14) (size 15 to 20)
#    0.000    2.500    0.000    4.125    0.000    7.000 
#    0.000    0.625    0.000    0.750    0.000    0.000 
#    0.000    0.000    0.000    0.000    0.000    0.000 
#
# Total GULP energy -396778.822551 kJ/mol
# GULP energy per Si atom -12399.338205 kJ/mol
# Density = 1.850202 g / cm^3
# Si number density = 18.544230 Si / 1000 Ang^3
#
#
#
# Elastic Constant Matrix: (Units=GPa)
#
#
# Indices 1 2 3 4 5 6 
#
# 1 70.0372 11.2423 22.7765 0.0000 0.0000 0.0000
# 2 11.2423 70.3809 25.6008 0.0000 0.0000 0.0000
# 3 22.7765 25.6008 104.9122 0.0000 0.0000 0.0000
# 4 0.0000 0.0000 0.0000 12.0061 0.0000 0.0000
# 5 0.0000 0.0000 0.0000 0.0000 18.6548 0.0000
# 6 0.0000 0.0000 0.0000 0.0000 0.0000 15.5880
#
#
#
# Elastic Compliance Matrix: (Units=1/GPa)
#
#
# Indices 1 2 3 4 5 6 
#
# 1 0.015483 -0.001372 -0.003026 0.000000 0.000000 0.000000
# 2 -0.001372 0.015714 -0.003537 0.000000 0.000000 0.000000
# 3 -0.003026 -0.003537 0.011052 0.000000 0.000000 0.000000
# 4 0.000000 0.000000 0.000000 0.083291 0.000000 0.000000
# 5 0.000000 0.000000 0.000000 0.000000 0.053605 0.000000
# 6 0.000000 0.000000 0.000000 0.000000 0.000000 0.064152
#
#
# Mechanical properties :
#
#
# Convention : Reuss Voigt Hill
#
# Bulk Modulus (GPa) = 37.91066 40.50775 39.20920
# Shear Modulus (GPa) = 18.65947 21.63049 20.14498
#
# Velocity S-wave (km/s) = 3.17553 3.41900 3.29951
# Velocity P-wave (km/s) = 5.82521 6.12188 5.97539
#
# Compressibility (1/GPa) = 0.02637781
#
# Stress axis : x y z
#
# Youngs Moduli (GPa) = 64.58859 63.63740 90.48277
#
# Poissons Ratio (x) = 0.08733 0.27384
# Poissons Ratio (y) = 0.08863 0.32000
# Poissons Ratio (z) = 0.19547 0.22506
#
# Static dielectric constant tensor:
#      x y z
#    x 3.391080 0.000000 0.000000 
#    y 0.000000 3.209710 0.000000 
#    z 0.000000 0.000000 3.444490 
# 
# 
# High freq. dielectric constant tensor:
#      x y z
#    x 1.708100 0.000000 0.000000 
#    y 0.000000 1.700400 0.000000 
#    z 0.000000 0.000000 1.725550 
# 
# From -- ./inp_files/8621.got.cif
#   From: 2010.03.12/outbox.cif.g09.slc.cpg/sg36_5_cif.got.tgz:8621.got - 2010.04.14 02:13:53.
