data_PCOD8175842
_publ_section_title
;
Structure prediction by ZEFSAII (Michael W. Deem and Ramdas Pophale) SiO2 
 PCOD8175842
Probable space group: C M C 21
;
_chemical_formula_sum "Si O2"
_cell_formula_units_Z 56
_cell_length_a 15.833049
_cell_length_b 22.147747
_cell_length_c 7.468185
_cell_angle_alpha 90.000000
_cell_angle_beta 90.000000
_cell_angle_gamma 90.000000
_cell_volume 2618.841276
_symmetry_space_group_name_H-M "C M C 21"
_symmetry_group_IT_number 36
_symmetry_cell_setting 'orthorhombic'
loop_
_space_group_symop_operation_xyz
x,y,z
-x,-y,1/2+z
x,-y,1/2+z
-x,y,z
1/2+x,1/2+y,z
1/2-x,1/2-y,1/2+z
1/2+x,1/2-y,1/2+z
1/2-x,1/2+y,z
loop_
_atom_site_type_symbol
_atom_site_label
_atom_site_fract_x
_atom_site_fract_y
_atom_site_fract_z
Si Si1 0.405168 0.039194 0.641700
Si Si2 0.747717 0.880462 0.217152
Si Si3 0.092010 0.588172 0.245357
Si Si4 0.812646 0.189631 0.030713
Si Si5 0.100659 0.053492 0.562696
Si Si6 0.204697 0.309401 0.862964
Si Si7 0.403437 0.421765 0.672113
O O1 0.500000 0.043483 0.732346
O O2 0.333055 0.076033 0.746388
O O3 0.411466 0.064953 0.446214
O O4 0.375854 0.968852 0.628411
O O5 0.744644 0.839216 0.394088
O O6 0.838500 0.915196 0.209499
O O7 0.741904 0.841607 0.036597
O O8 0.150116 0.646631 0.236927
O O9 0.000000 0.608842 0.178914
O O10 0.776808 0.210525 0.223215
O O11 0.882988 0.138888 0.063915
O O12 0.847264 0.250256 0.931488
O O13 0.136605 0.076697 0.371184
O O14 0.000000 0.066518 0.602293
O O15 0.119494 0.981668 0.560632
O O16 0.500000 0.422102 0.717440
#
# Coordination Sequence:
#
# PCOD8175842 Si02
#       7
#     8   8   8   8   8   8   8
#     4   9  20  37  59  91 126 156 197 254 314 374
#     4  11  23  39  66  93 124 169 210 259 319 374
#     4   9  20  38  60  88 122 157 196 253 313 374
#     4  12  24  41  64  87 123 170 216 263 311 369
#     4  10  21  39  62  99 136 161 205 263 321 388
#     4  11  24  41  60  88 122 161 219 261 305 370
#     4  10  22  39  63  94 129 166 207 263 323 383
#
# _framework density 21.383503999999999
#
# number of rings (size 3 to 8) (size 9 to 14) (size 15 to 20)
#    0.000    1.714    2.857    0.857    4.000    3.429 
#    0.000    0.000    0.000    1.714    0.000    0.000 
#    0.000    0.000    0.000    0.000    0.000    0.000 
#
# Total GULP energy -346870.902512 kJ/mol
# GULP energy per Si atom -12388.246518 kJ/mol
# Density = 2.133483 g / cm^3
# Si number density = 21.383504 Si / 1000 Ang^3
#
#
#
# Elastic Constant Matrix: (Units=GPa)
#
#
# Indices 1 2 3 4 5 6 
#
# 1 56.0469 31.0735 13.1191 0.0000 0.0000 0.0000
# 2 31.0735 126.8864 21.4519 0.0000 0.0000 0.0000
# 3 13.1191 21.4519 61.4276 0.0000 0.0000 0.0000
# 4 0.0000 0.0000 0.0000 25.4475 0.0000 0.0000
# 5 0.0000 0.0000 0.0000 0.0000 19.6811 0.0000
# 6 0.0000 0.0000 0.0000 0.0000 0.0000 29.8221
#
#
#
# Elastic Compliance Matrix: (Units=1/GPa)
#
#
# Indices 1 2 3 4 5 6 
#
# 1 0.021112 -0.004684 -0.002873 0.000000 0.000000 0.000000
# 2 -0.004684 0.009415 -0.002287 0.000000 0.000000 0.000000
# 3 -0.002873 -0.002287 0.017692 0.000000 0.000000 0.000000
# 4 0.000000 0.000000 0.000000 0.039297 0.000000 0.000000
# 5 0.000000 0.000000 0.000000 0.000000 0.050810 0.000000
# 6 0.000000 0.000000 0.000000 0.000000 0.000000 0.033532
#
#
# Mechanical properties :
#
#
# Convention : Reuss Voigt Hill
#
# Bulk Modulus (GPa) = 35.05222 41.73886 38.39554
# Shear Modulus (GPa) = 24.86859 26.90456 25.88657
#
# Velocity S-wave (km/s) = 3.41395 3.55095 3.48312
# Velocity P-wave (km/s) = 5.65401 6.03108 5.84558
#
# Compressibility (1/GPa) = 0.02852887
#
# Stress axis : x y z
#
# Youngs Moduli (GPa) = 47.36684 106.21389 56.52354
#
# Poissons Ratio (x) = 0.49755 0.16239
# Poissons Ratio (y) = 0.22189 0.12930
# Poissons Ratio (z) = 0.13608 0.24296
#
# Static dielectric constant tensor:
#      x y z
#    x 3.861920 0.000000 0.000000 
#    y 0.000000 4.142210 0.000000 
#    z 0.000000 0.000000 3.873750 
# 
# 
# High freq. dielectric constant tensor:
#      x y z
#    x 1.814060 0.000000 0.000000 
#    y 0.000000 1.838130 0.000000 
#    z 0.000000 0.000000 1.848920 
# 
# From -- ./inp_files/4195.got.cif
#   From: 2010.03.12/outbox.cif.g09.slc.cpg/sg36_3_cif.got.tgz:4195.got - 2010.04.14 02:13:53.
