data_PCOD8175095
_publ_section_title
;
Structure prediction by ZEFSAII (Michael W. Deem and Ramdas Pophale) SiO2 
 PCOD8175095
Probable space group: C M C 21
;
_chemical_formula_sum "Si O2"
_cell_formula_units_Z 64
_cell_length_a 9.656382
_cell_length_b 31.778398
_cell_length_c 10.612399
_cell_angle_alpha 90.000000
_cell_angle_beta 90.000000
_cell_angle_gamma 90.000000
_cell_volume 3256.566926
_symmetry_space_group_name_H-M "C M C 21"
_symmetry_group_IT_number 36
_symmetry_cell_setting 'orthorhombic'
loop_
_space_group_symop_operation_xyz
x,y,z
-x,-y,1/2+z
x,-y,1/2+z
-x,y,z
1/2+x,1/2+y,z
1/2-x,1/2-y,1/2+z
1/2+x,1/2-y,1/2+z
1/2-x,1/2+y,z
loop_
_atom_site_type_symbol
_atom_site_label
_atom_site_fract_x
_atom_site_fract_y
_atom_site_fract_z
Si Si1 0.843205 0.966959 0.920270
Si Si2 0.161525 0.270790 0.671808
Si Si3 0.349094 0.154290 0.340018
Si Si4 0.663764 0.718014 0.924372
Si Si5 0.661552 0.378198 0.041544
Si Si6 0.848568 0.564742 0.223687
Si Si7 0.339261 0.631150 0.818156
Si Si8 0.843405 0.940281 0.503929
O O1 0.741091 0.968978 0.801251
O O2 0.000000 0.964555 0.868267
O O3 0.819331 0.009966 0.994586
O O4 0.810576 0.927184 0.008945
O O5 0.196265 0.317952 0.720180
O O6 0.253182 0.262662 0.545252
O O7 0.199611 0.241252 0.791994
O O8 0.000000 0.265026 0.634989
O O9 0.500000 0.171086 0.388063
O O10 0.236346 0.155528 0.450846
O O11 0.365893 0.106299 0.303618
O O12 0.500000 0.721330 0.954337
O O13 0.715431 0.669660 0.904394
O O14 0.500000 0.367950 0.032215
O O15 0.726811 0.369744 0.178987
O O16 0.000000 0.545538 0.192507
O O17 0.766797 0.577967 0.100042
O O18 0.500000 0.639437 0.797850
O O19 0.312094 0.585167 0.876500
O O20 0.000000 0.930687 0.549314
#
# Coordination Sequence:
#
# PCOD8175095 Si02
#       8
#     8   8   8   8   8   8   8   8
#     4   9  19  33  53  79 104 137 180 222 267 324
#     4  10  22  39  60  86 117 151 190 235 282 338
#     4   9  19  36  55  77 108 144 180 223 275 329
#     4  10  22  39  59  86 118 151 190 235 288 341
#     4   9  18  33  55  82 109 141 183 229 275 328
#     4  10  20  34  52  73 104 138 173 219 269 325
#     4   9  19  35  55  81 113 143 179 233 285 329
#     4  10  20  33  55  78 103 139 179 224 271 324
#
# _framework density 19.652598999999999
#
# number of rings (size 3 to 8) (size 9 to 14) (size 15 to 20)
#    0.000    2.500    0.000    1.125    3.500    2.000 
#    0.000    1.250    0.000    0.000    0.000    0.000 
#    0.000    0.000    0.000    0.000    0.000    0.000 
#
# Total GULP energy -396553.811349 kJ/mol
# GULP energy per Si atom -12392.306605 kJ/mol
# Density = 1.960787 g / cm^3
# Si number density = 19.652599 Si / 1000 Ang^3
#
#
#
# Elastic Constant Matrix: (Units=GPa)
#
#
# Indices 1 2 3 4 5 6 
#
# 1 94.0699 27.3291 68.4712 0.0000 0.0000 0.0000
# 2 27.3291 65.8377 27.5513 0.0000 0.0000 0.0000
# 3 68.4712 27.5513 131.4108 0.0000 0.0000 0.0000
# 4 0.0000 0.0000 0.0000 19.5424 0.0000 0.0000
# 5 0.0000 0.0000 0.0000 0.0000 24.5699 0.0000
# 6 0.0000 0.0000 0.0000 0.0000 0.0000 18.0252
#
#
#
# Elastic Compliance Matrix: (Units=1/GPa)
#
#
# Indices 1 2 3 4 5 6 
#
# 1 0.017989 -0.003886 -0.008558 0.000000 0.000000 0.000000
# 2 -0.003886 0.017489 -0.001642 0.000000 0.000000 0.000000
# 3 -0.008558 -0.001642 0.012413 0.000000 0.000000 0.000000
# 4 0.000000 0.000000 0.000000 0.051171 0.000000 0.000000
# 5 0.000000 0.000000 0.000000 0.000000 0.040700 0.000000
# 6 0.000000 0.000000 0.000000 0.000000 0.000000 0.055478
#
#
# Mechanical properties :
#
#
# Convention : Reuss Voigt Hill
#
# Bulk Modulus (GPa) = 50.71294 59.78018 55.24656
# Shear Modulus (GPa) = 21.74062 23.62531 22.68297
#
# Velocity S-wave (km/s) = 3.32964 3.47096 3.40103
# Velocity P-wave (km/s) = 6.37516 6.82260 6.60267
#
# Compressibility (1/GPa) = 0.01971883
#
# Stress axis : x y z
#
# Youngs Moduli (GPa) = 55.59088 57.17893 80.55920
#
# Poissons Ratio (x) = 0.22218 0.68944
# Poissons Ratio (y) = 0.21601 0.13229
# Poissons Ratio (z) = 0.47576 0.09389
#
# Static dielectric constant tensor:
#      x y z
#    x 3.731220 0.000000 0.000000 
#    y 0.000000 3.584320 0.000000 
#    z 0.000000 0.000000 3.562910 
# 
# 
# High freq. dielectric constant tensor:
#      x y z
#    x 1.748400 0.000000 0.000000 
#    y 0.000000 1.766840 0.000000 
#    z 0.000000 0.000000 1.761690 
# 
# From -- ./inp_files/7250.got.cif
#   From: 2010.03.12/outbox.cif.g09.slc.cpg/sg36_4_cif.got.tgz:7250.got - 2010.04.14 02:13:53.
