data_PCOD8175160
_publ_section_title
;
Structure prediction by ZEFSAII (Michael W. Deem and Ramdas Pophale) SiO2 
 PCOD8175160
Probable space group: C M C 21
;
_chemical_formula_sum "Si O2"
_cell_formula_units_Z 64
_cell_length_a 9.174186
_cell_length_b 28.301110
_cell_length_c 13.761396
_cell_angle_alpha 90.000000
_cell_angle_beta 90.000000
_cell_angle_gamma 90.000000
_cell_volume 3573.004002
_symmetry_space_group_name_H-M "C M C 21"
_symmetry_group_IT_number 36
_symmetry_cell_setting 'orthorhombic'
loop_
_space_group_symop_operation_xyz
x,y,z
-x,-y,1/2+z
x,-y,1/2+z
-x,y,z
1/2+x,1/2+y,z
1/2-x,1/2-y,1/2+z
1/2+x,1/2-y,1/2+z
1/2-x,1/2+y,z
loop_
_atom_site_type_symbol
_atom_site_label
_atom_site_fract_x
_atom_site_fract_y
_atom_site_fract_z
Si Si1 0.327015 0.176644 0.797130
Si Si2 0.332374 0.410508 0.383517
Si Si3 0.837402 0.589139 0.247926
Si Si4 0.328646 0.272118 0.463919
Si Si5 0.835416 0.135948 0.082678
Si Si6 0.336440 0.092233 0.461499
Si Si7 0.328155 0.482027 0.858997
Si Si8 0.827063 0.319240 0.076162
O O1 0.500000 0.177505 0.809605
O O2 0.269572 0.124695 0.823644
O O3 0.256824 0.217087 0.864466
O O4 0.277948 0.187677 0.687044
O O5 0.500000 0.401128 0.353311
O O6 0.313760 0.402789 0.498496
O O7 0.282259 0.463459 0.360211
O O8 0.770746 0.624961 0.170970
O O9 0.841820 0.615324 0.352941
O O10 0.740568 0.541250 0.261056
O O11 0.000000 0.574855 0.214385
O O12 0.500000 0.270712 0.439779
O O13 0.294697 0.312747 0.541995
O O14 0.268072 0.223709 0.510146
O O15 0.000000 0.135202 0.122316
O O16 0.500000 0.077874 0.494707
O O17 0.237220 0.044739 0.454924
O O18 0.266813 0.130879 0.534389
O O19 0.500000 0.475409 0.858822
O O20 0.000000 0.319924 0.068006
#
# Coordination Sequence:
#
# PCOD8175160 Si02
#       8
#     8   8   8   8   8   8   8   8
#     4  10  20  34  55  82 109 137 179 224 264 315
#     4   9  19  36  55  74 105 143 176 213 267 321
#     4   9  18  31  49  74 103 133 169 211 258 310
#     4   9  19  36  56  75 105 144 177 213 267 320
#     4   9  17  31  51  74 100 135 175 213 255 311
#     4   8  17  33  50  71 104 137 170 211 258 313
#     4   9  17  33  53  73 101 137 175 217 259 309
#     4   9  18  36  57  77 107 146 175 212 272 323
#
# _framework density 17.912098
#
# number of rings (size 3 to 8) (size 9 to 14) (size 15 to 20)
#    0.750    2.250    0.000    1.500    0.000    4.000 
#    2.250    3.125    0.000    0.000    0.000    0.000 
#    0.000    0.000    0.000    0.000    0.000    0.000 
#
# Total GULP energy -396580.322173 kJ/mol
# GULP energy per Si atom -12393.135068 kJ/mol
# Density = 1.787133 g / cm^3
# Si number density = 17.912098 Si / 1000 Ang^3
#
#
#
# Elastic Constant Matrix: (Units=GPa)
#
#
# Indices 1 2 3 4 5 6 
#
# 1 71.4389 38.3666 35.7414 0.0000 0.0000 0.0000
# 2 38.3666 97.1452 44.4743 0.0000 0.0000 0.0000
# 3 35.7414 44.4743 85.7362 0.0000 0.0000 0.0000
# 4 0.0000 0.0000 0.0000 21.0259 0.0000 0.0000
# 5 0.0000 0.0000 0.0000 0.0000 26.2309 0.0000
# 6 0.0000 0.0000 0.0000 0.0000 0.0000 21.4345
#
#
#
# Elastic Compliance Matrix: (Units=1/GPa)
#
#
# Indices 1 2 3 4 5 6 
#
# 1 0.019519 -0.005224 -0.005427 0.000000 0.000000 0.000000
# 2 -0.005224 0.014898 -0.005550 0.000000 0.000000 0.000000
# 3 -0.005427 -0.005550 0.016805 0.000000 0.000000 0.000000
# 4 0.000000 0.000000 0.000000 0.047560 0.000000 0.000000
# 5 0.000000 0.000000 0.000000 0.000000 0.038123 0.000000
# 6 0.000000 0.000000 0.000000 0.000000 0.000000 0.046654
#
#
# Mechanical properties :
#
#
# Convention : Reuss Voigt Hill
#
# Bulk Modulus (GPa) = 53.13737 54.60943 53.87340
# Shear Modulus (GPa) = 22.49867 22.78746 22.64307
#
# Velocity S-wave (km/s) = 3.54794 3.57064 3.55931
# Velocity P-wave (km/s) = 6.82011 6.89586 6.85809
#
# Compressibility (1/GPa) = 0.01881915
#
# Stress axis : x y z
#
# Youngs Moduli (GPa) = 51.23263 67.12245 59.50552
#
# Poissons Ratio (x) = 0.35067 0.32293
# Poissons Ratio (y) = 0.26765 0.33027
# Poissons Ratio (z) = 0.27804 0.37255
#
# Static dielectric constant tensor:
#      x y z
#    x 3.177710 0.000000 0.000000 
#    y 0.000000 3.276980 0.000000 
#    z 0.000000 0.000000 3.192490 
# 
# 
# High freq. dielectric constant tensor:
#      x y z
#    x 1.684450 0.000000 0.000000 
#    y 0.000000 1.686210 0.000000 
#    z 0.000000 0.000000 1.680470 
# 
# From -- ./inp_files/11180.got.cif
#   From: 2010.03.12/outbox.cif.g09.slc.cpg/sg36_6_cif.got.tgz:11180.got - 2010.04.14 02:13:53.
