data_PCOD8175650
_publ_section_title
;
Structure prediction by ZEFSAII (Michael W. Deem and Ramdas Pophale) SiO2 
 PCOD8175650
Probable space group: C M C 21
;
_chemical_formula_sum "Si O2"
_cell_formula_units_Z 64
_cell_length_a 9.327445
_cell_length_b 25.085397
_cell_length_c 14.380371
_cell_angle_alpha 90.000000
_cell_angle_beta 90.000000
_cell_angle_gamma 90.000000
_cell_volume 3364.757470
_symmetry_space_group_name_H-M "C M C 21"
_symmetry_group_IT_number 36
_symmetry_cell_setting 'orthorhombic'
loop_
_space_group_symop_operation_xyz
x,y,z
-x,-y,1/2+z
x,-y,1/2+z
-x,y,z
1/2+x,1/2+y,z
1/2-x,1/2-y,1/2+z
1/2+x,1/2-y,1/2+z
1/2-x,1/2+y,z
loop_
_atom_site_type_symbol
_atom_site_label
_atom_site_fract_x
_atom_site_fract_y
_atom_site_fract_z
Si Si1 0.336118 0.902912 0.422730
Si Si2 0.168646 0.349070 0.236484
Si Si3 0.668230 0.489048 0.540273
Si Si4 0.337235 0.757687 0.738039
Si Si5 0.160219 0.337182 0.591213
Si Si6 0.666499 0.902579 0.046917
Si Si7 0.834651 0.082689 0.206072
Si Si8 0.335618 0.862188 0.850029
O O1 0.500000 0.923626 0.424387
O O2 0.286382 0.890041 0.318052
O O3 0.236611 0.948231 0.466375
O O4 0.323410 0.846781 0.480694
O O5 0.238355 0.292365 0.255977
O O6 0.222999 0.373204 0.139206
O O7 0.000000 0.339657 0.235836
O O8 0.500000 0.492316 0.517988
O O9 0.740259 0.545709 0.527193
O O10 0.694702 0.471453 0.647855
O O11 0.500000 0.741164 0.760707
O O12 0.322535 0.776699 0.629309
O O13 0.286891 0.805536 0.806933
O O14 0.285063 0.370143 0.639315
O O15 0.000000 0.357052 0.622183
O O16 0.500000 0.918900 0.057450
O O17 0.690569 0.862386 0.960616
O O18 0.748656 0.087809 0.302944
O O19 0.000000 0.089473 0.230226
O O20 0.500000 0.872455 0.825903
#
# Coordination Sequence:
#
# PCOD8175650 Si02
#       8
#     8   8   8   8   8   8   8   8
#     4   9  18  35  57  79 105 140 181 219 258 311
#     4  10  22  37  53  78 109 140 178 219 258 309
#     4  10  21  36  55  81 109 136 171 218 270 316
#     4   9  18  33  53  77 105 138 175 218 269 313
#     4   8  15  30  52  76 103 136 174 213 254 308
#     4  10  22  39  55  74 106 145 180 214 256 311
#     4   9  17  30  51  80 108 131 164 215 266 308
#     4   9  19  36  56  77 103 140 183 218 255 312
#
# _framework density 19.020686999999999
#
# number of rings (size 3 to 8) (size 9 to 14) (size 15 to 20)
#    0.000    2.750    0.000    1.500    0.000    7.000 
#    0.000    3.750    0.000    0.000    0.000    0.000 
#    0.000    0.000    0.000    0.000    0.000    0.000 
#
# Total GULP energy -396547.666141 kJ/mol
# GULP energy per Si atom -12392.114567 kJ/mol
# Density = 1.897739 g / cm^3
# Si number density = 19.020687 Si / 1000 Ang^3
#
#
#
# Elastic Constant Matrix: (Units=GPa)
#
#
# Indices 1 2 3 4 5 6 
#
# 1 68.2497 50.4135 44.1751 0.0000 0.0000 0.0000
# 2 50.4135 99.6577 51.0955 0.0000 0.0000 0.0000
# 3 44.1751 51.0955 141.4860 0.0000 0.0000 0.0000
# 4 0.0000 0.0000 0.0000 22.9133 0.0000 0.0000
# 5 0.0000 0.0000 0.0000 0.0000 20.6416 0.0000
# 6 0.0000 0.0000 0.0000 0.0000 0.0000 29.4053
#
#
#
# Elastic Compliance Matrix: (Units=1/GPa)
#
#
# Indices 1 2 3 4 5 6 
#
# 1 0.025104 -0.010653 -0.003991 0.000000 0.000000 0.000000
# 2 -0.010653 0.016835 -0.002754 0.000000 0.000000 0.000000
# 3 -0.003991 -0.002754 0.009308 0.000000 0.000000 0.000000
# 4 0.000000 0.000000 0.000000 0.043643 0.000000 0.000000
# 5 0.000000 0.000000 0.000000 0.000000 0.048446 0.000000
# 6 0.000000 0.000000 0.000000 0.000000 0.000000 0.034007
#
#
# Mechanical properties :
#
#
# Convention : Reuss Voigt Hill
#
# Bulk Modulus (GPa) = 60.78136 66.75129 63.76632
# Shear Modulus (GPa) = 22.97543 25.50601 24.24072
#
# Velocity S-wave (km/s) = 3.47928 3.66589 3.57380
# Velocity P-wave (km/s) = 6.94012 7.28619 7.11526
#
# Compressibility (1/GPa) = 0.01645241
#
# Stress axis : x y z
#
# Youngs Moduli (GPa) = 39.83362 59.39891 107.43098
#
# Poissons Ratio (x) = 0.63280 0.42874
# Poissons Ratio (y) = 0.42436 0.29582
# Poissons Ratio (z) = 0.15897 0.16356
#
# Static dielectric constant tensor:
#      x y z
#    x 3.430000 0.000000 0.000000 
#    y 0.000000 3.231220 0.000000 
#    z 0.000000 0.000000 3.787130 
# 
# 
# High freq. dielectric constant tensor:
#      x y z
#    x 1.736440 0.000000 0.000000 
#    y 0.000000 1.712910 0.000000 
#    z 0.000000 0.000000 1.744990 
# 
# From -- ./inp_files/11110.got.cif
#   From: 2010.03.12/outbox.cif.g09.slc.cpg/sg36_6_cif.got.tgz:11110.got - 2010.04.14 02:13:53.
