data_PCOD8175228
_publ_section_title
;
Structure prediction by ZEFSAII (Michael W. Deem and Ramdas Pophale) SiO2 
 PCOD8175228
Probable space group: C M C 21
;
_chemical_formula_sum "Si O2"
_cell_formula_units_Z 64
_cell_length_a 9.357277
_cell_length_b 24.326488
_cell_length_c 14.404676
_cell_angle_alpha 90.000000
_cell_angle_beta 90.000000
_cell_angle_gamma 90.000000
_cell_volume 3278.931884
_symmetry_space_group_name_H-M "C M C 21"
_symmetry_group_IT_number 36
_symmetry_cell_setting 'orthorhombic'
loop_
_space_group_symop_operation_xyz
x,y,z
-x,-y,1/2+z
x,-y,1/2+z
-x,y,z
1/2+x,1/2+y,z
1/2-x,1/2-y,1/2+z
1/2+x,1/2-y,1/2+z
1/2-x,1/2+y,z
loop_
_atom_site_type_symbol
_atom_site_label
_atom_site_fract_x
_atom_site_fract_y
_atom_site_fract_z
Si Si1 0.833886 0.698056 0.555170
Si Si2 0.333302 0.456749 0.912119
Si Si3 0.660062 0.887247 0.209414
Si Si4 0.665179 0.692214 0.168484
Si Si5 0.166376 0.395859 0.558500
Si Si6 0.330981 0.578984 0.875830
Si Si7 0.656538 0.017566 0.582565
Si Si8 0.165865 0.835224 0.874794
O O1 0.787612 0.648454 0.622201
O O2 0.797782 0.752533 0.613334
O O3 0.749800 0.694722 0.458123
O O4 0.000000 0.694567 0.529624
O O5 0.500000 0.458913 0.926636
O O6 0.286477 0.514320 0.862747
O O7 0.288686 0.399885 0.860552
O O8 0.267840 0.454416 0.014090
O O9 0.500000 0.868588 0.241118
O O10 0.773378 0.883551 0.291987
O O11 0.658424 0.950784 0.179510
O O12 0.500000 0.674959 0.153291
O O13 0.771638 0.646851 0.130740
O O14 0.696120 0.697569 0.279012
O O15 0.255945 0.394157 0.464247
O O16 0.191664 0.454766 0.606131
O O17 0.000000 0.383473 0.538157
O O18 0.500000 0.586544 0.884183
O O19 0.500000 0.021777 0.534885
O O20 0.000000 0.832038 0.901612
#
# Coordination Sequence:
#
# PCOD8175228 Si02
#       8
#     8   8   8   8   8   8   8   8
#     4  10  22  41  62  85 117 156 198 243 292 343
#     4   9  18  33  53  81 115 151 193 237 288 343
#     4  10  20  35  55  83 118 156 195 240 291 346
#     4  10  23  41  61  86 117 154 195 242 295 346
#     4  10  21  38  58  84 117 154 194 238 293 351
#     4  10  21  35  55  86 122 159 196 240 291 349
#     4   9  18  33  54  81 114 150 187 233 289 343
#     4  10  21  38  60  86 116 152 194 243 293 345
#
# _framework density 19.518550999999999
#
# number of rings (size 3 to 8) (size 9 to 14) (size 15 to 20)
#    0.000    2.250    1.250    0.750    1.750    4.000 
#    0.000    1.250    0.000    0.000    0.000    0.000 
#    0.000    0.000    0.000    0.000    0.000    0.000 
#
# Total GULP energy -396636.388070 kJ/mol
# GULP energy per Si atom -12394.887127 kJ/mol
# Density = 1.947413 g / cm^3
# Si number density = 19.518551 Si / 1000 Ang^3
#
#
#
# Elastic Constant Matrix: (Units=GPa)
#
#
# Indices 1 2 3 4 5 6 
#
# 1 61.2466 38.8110 53.3653 0.0000 0.0000 0.0000
# 2 38.8110 81.3532 55.0183 0.0000 0.0000 0.0000
# 3 53.3653 55.0183 117.3004 0.0000 0.0000 0.0000
# 4 0.0000 0.0000 0.0000 22.3944 0.0000 0.0000
# 5 0.0000 0.0000 0.0000 0.0000 37.1762 0.0000
# 6 0.0000 0.0000 0.0000 0.0000 0.0000 23.4498
#
#
#
# Elastic Compliance Matrix: (Units=1/GPa)
#
#
# Indices 1 2 3 4 5 6 
#
# 1 0.029807 -0.007395 -0.010092 0.000000 0.000000 0.000000
# 2 -0.007395 0.019837 -0.005940 0.000000 0.000000 0.000000
# 3 -0.010092 -0.005940 0.015903 0.000000 0.000000 0.000000
# 4 0.000000 0.000000 0.000000 0.044654 0.000000 0.000000
# 5 0.000000 0.000000 0.000000 0.000000 0.026899 0.000000
# 6 0.000000 0.000000 0.000000 0.000000 0.000000 0.042644
#
#
# Mechanical properties :
#
#
# Convention : Reuss Voigt Hill
#
# Bulk Modulus (GPa) = 53.49696 61.58769 57.54233
# Shear Modulus (GPa) = 21.47504 24.11779 22.79641
#
# Velocity S-wave (km/s) = 3.32058 3.51897 3.42121
# Velocity P-wave (km/s) = 6.49380 6.93778 6.71946
#
# Compressibility (1/GPa) = 0.01869265
#
# Stress axis : x y z
#
# Youngs Moduli (GPa) = 33.54945 50.41058 62.88272
#
# Poissons Ratio (x) = 0.37277 0.63462
# Poissons Ratio (y) = 0.24809 0.37353
# Poissons Ratio (z) = 0.33858 0.29945
#
# Static dielectric constant tensor:
#      x y z
#    x 3.552920 0.000000 0.000000 
#    y 0.000000 3.685340 0.000000 
#    z 0.000000 0.000000 3.387590 
# 
# 
# High freq. dielectric constant tensor:
#      x y z
#    x 1.758720 0.000000 0.000000 
#    y 0.000000 1.759380 0.000000 
#    z 0.000000 0.000000 1.749680 
# 
# From -- ./inp_files/11057.got.cif
#   From: 2010.03.12/outbox.cif.g09.slc.cpg/sg36_6_cif.got.tgz:11057.got - 2010.04.14 02:13:53.
