data_PCOD8175900
_publ_section_title
;
Structure prediction by ZEFSAII (Michael W. Deem and Ramdas Pophale) SiO2 
 PCOD8175900
Probable space group: C M C 21
;
_chemical_formula_sum "Si O2"
_cell_formula_units_Z 40
_cell_length_a 11.585851
_cell_length_b 32.241700
_cell_length_c 4.902076
_cell_angle_alpha 90.000000
_cell_angle_beta 90.000000
_cell_angle_gamma 90.000000
_cell_volume 1831.158392
_symmetry_space_group_name_H-M "C M C 21"
_symmetry_group_IT_number 36
_symmetry_cell_setting 'orthorhombic'
loop_
_space_group_symop_operation_xyz
x,y,z
-x,-y,1/2+z
x,-y,1/2+z
-x,y,z
1/2+x,1/2+y,z
1/2-x,1/2-y,1/2+z
1/2+x,1/2-y,1/2+z
1/2-x,1/2+y,z
loop_
_atom_site_type_symbol
_atom_site_label
_atom_site_fract_x
_atom_site_fract_y
_atom_site_fract_z
Si Si1 0.000000 0.846703 0.679020
Si Si2 0.368570 0.527629 0.483889
Si Si3 0.634171 0.144322 0.838967
Si Si4 0.694318 0.763184 0.500791
Si Si5 0.262554 0.610865 0.325510
Si Si6 0.500000 0.291219 0.173101
O O1 0.886449 0.873646 0.726635
O O2 0.000000 0.831057 0.367599
O O3 0.000000 0.806764 0.865048
O O4 0.346879 0.488288 0.288998
O O5 0.500000 0.544163 0.449555
O O6 0.276804 0.563772 0.426073
O O7 0.500000 0.136809 0.769971
O O8 0.710979 0.138855 0.568678
O O9 0.653467 0.190235 0.954865
O O10 0.674547 0.112065 0.071100
O O11 0.697332 0.738564 0.211148
O O12 0.610372 0.738028 0.707434
#
# Coordination Sequence:
#
# PCOD8175900 Si02
#       6
#     4   8   8   8   8   4
#     4  12  24  40  64 105 128 168 214 289 350 378
#     4  10  21  40  69 104 139 169 206 270 349 418
#     4  12  26  45  66  95 135 186 234 272 332 401
#     4  12  24  42  64  89 123 171 229 286 333 380
#     4  12  24  43  70 100 139 170 224 280 332 416
#     4  12  24  40  60  89 130 164 218 275 332 390
#
# _framework density 21.844093999999998
#
# number of rings (size 3 to 8) (size 9 to 14) (size 15 to 20)
#    0.000    0.400    2.000    9.000    0.000    0.000 
#    0.000    0.000    0.000   12.000    0.000    0.000 
#    0.000    0.000    0.000    0.000    0.000    0.000 
#
# Total GULP energy -248017.301615 kJ/mol
# GULP energy per Si atom -12400.865081 kJ/mol
# Density = 2.179438 g / cm^3
# Si number density = 21.844094 Si / 1000 Ang^3
#
#
#
# Elastic Constant Matrix: (Units=GPa)
#
#
# Indices 1 2 3 4 5 6 
#
# 1 97.2532 37.2609 31.1932 0.0000 0.0000 0.0000
# 2 37.2609 74.9067 7.1810 0.0000 0.0000 0.0000
# 3 31.1932 7.1810 107.8993 0.0000 0.0000 0.0000
# 4 0.0000 0.0000 0.0000 26.6176 0.0000 0.0000
# 5 0.0000 0.0000 0.0000 0.0000 31.1039 0.0000
# 6 0.0000 0.0000 0.0000 0.0000 0.0000 378.4054
#
#
#
# Elastic Compliance Matrix: (Units=1/GPa)
#
#
# Indices 1 2 3 4 5 6 
#
# 1 0.013966 -0.006602 -0.003598 0.000000 0.000000 0.000000
# 2 -0.006602 0.016557 0.000807 0.000000 0.000000 0.000000
# 3 -0.003598 0.000807 0.010254 0.000000 0.000000 0.000000
# 4 0.000000 0.000000 0.000000 0.037569 0.000000 0.000000
# 5 0.000000 0.000000 0.000000 0.000000 0.032150 0.000000
# 6 0.000000 0.000000 0.000000 0.000000 0.000000 0.002643
#
#
# Mechanical properties :
#
#
# Convention : Reuss Voigt Hill
#
# Bulk Modulus (GPa) = 45.47505 47.92549 46.70027
# Shear Modulus (GPa) = 35.90498 100.85364 68.37931
#
# Velocity S-wave (km/s) = 4.05865 6.80220 5.60101
# Velocity P-wave (km/s) = 6.54421 9.14772 7.95322
#
# Compressibility (1/GPa) = 0.02199008
#
# Stress axis : x y z
#
# Youngs Moduli (GPa) = 71.60226 60.39831 97.51896
#
# Poissons Ratio (x) = 0.39876 0.35089
# Poissons Ratio (y) = 0.47273 -0.07868
# Poissons Ratio (z) = 0.25763 -0.04873
#
# Static dielectric constant tensor:
#      x y z
#    x 4.073840 0.000000 0.000000 
#    y 0.000000 3.659130 0.000000 
#    z 0.000000 0.000000 4.021200 
# 
# 
# High freq. dielectric constant tensor:
#      x y z
#    x 1.851920 0.000000 0.000000 
#    y 0.000000 1.845670 0.000000 
#    z 0.000000 0.000000 1.882910 
# 
# From -- ./inp_files/577.got.cif
#   From: 2010.03.12/outbox.cif.g09.slc.cpg/sg36_1_cif.got.tgz:577.got - 2010.04.14 02:13:53.
