data_PCOD8175302
_publ_section_title
;
Structure prediction by ZEFSAII (Michael W. Deem and Ramdas Pophale) SiO2 
 PCOD8175302
Probable space group: C M C 21
;
_chemical_formula_sum "Si O2"
_cell_formula_units_Z 64
_cell_length_a 8.602887
_cell_length_b 15.384218
_cell_length_c 23.890291
_cell_angle_alpha 90.000000
_cell_angle_beta 90.000000
_cell_angle_gamma 90.000000
_cell_volume 3161.848695
_symmetry_space_group_name_H-M "C M C 21"
_symmetry_group_IT_number 36
_symmetry_cell_setting 'orthorhombic'
loop_
_space_group_symop_operation_xyz
x,y,z
-x,-y,1/2+z
x,-y,1/2+z
-x,y,z
1/2+x,1/2+y,z
1/2-x,1/2-y,1/2+z
1/2+x,1/2-y,1/2+z
1/2-x,1/2+y,z
loop_
_atom_site_type_symbol
_atom_site_label
_atom_site_fract_x
_atom_site_fract_y
_atom_site_fract_z
Si Si1 0.316990 0.498788 0.032930
Si Si2 0.181081 0.665142 0.225816
Si Si3 0.184598 0.844033 0.958139
Si Si4 0.681398 0.398931 0.836987
Si Si5 0.317481 0.505571 0.159182
Si Si6 0.181047 0.350385 0.460436
Si Si7 0.178224 0.654947 0.720129
Si Si8 0.322584 0.918163 0.338968
O O1 0.500000 0.488537 0.034644
O O2 0.252603 0.503437 0.095825
O O3 0.245279 0.413886 0.001961
O O4 0.276231 0.585477 0.999525
O O5 0.222285 0.651774 0.290465
O O6 0.226924 0.580769 0.190980
O O7 0.270769 0.748834 0.201729
O O8 0.000000 0.682424 0.219359
O O9 0.247053 0.867027 0.896509
O O10 0.236617 0.747193 0.975426
O O11 0.000000 0.850502 0.956359
O O12 0.500000 0.377824 0.828593
O O13 0.706218 0.501826 0.831822
O O14 0.500000 0.525352 0.161850
O O15 0.284323 0.413605 0.187705
O O16 0.218241 0.366201 0.395257
O O17 0.000000 0.363433 0.473111
O O18 0.202297 0.646334 0.786926
O O19 0.000000 0.639226 0.703078
O O20 0.500000 0.952906 0.340335
#
# Coordination Sequence:
#
# PCOD8175302 Si02
#       8
#     8   8   8   8   8   8   8   8
#     4  10  22  41  61  85 118 155 202 253 299 352
#     4  12  25  41  62  90 125 161 204 253 306 367
#     4   9  19  37  60  87 119 158 194 238 299 358
#     4  11  20  35  63  90 121 160 200 245 305 367
#     4  11  24  42  63  88 121 162 210 258 306 361
#     4  10  20  36  60  88 121 158 197 238 294 362
#     4  11  23  41  65  92 125 160 200 250 309 370
#     4  10  20  35  58  90 126 158 193 243 302 365
#
# _framework density 20.241322
#
# number of rings (size 3 to 8) (size 9 to 14) (size 15 to 20)
#    0.000    1.500    2.500    3.000    0.000    4.500 
#    0.000    4.375    0.000    0.000    0.000    0.000 
#    0.000    0.000    0.000    0.000    0.000    0.000 
#
# Total GULP energy -396929.096187 kJ/mol
# GULP energy per Si atom -12404.034256 kJ/mol
# Density = 2.019525 g / cm^3
# Si number density = 20.241322 Si / 1000 Ang^3
#
#
#
# Elastic Constant Matrix: (Units=GPa)
#
#
# Indices 1 2 3 4 5 6 
#
# 1 37.2858 1.6275 18.4884 0.0000 0.0000 0.0000
# 2 1.6275 122.0116 35.7201 0.0000 0.0000 0.0000
# 3 18.4884 35.7201 123.9208 0.0000 0.0000 0.0000
# 4 0.0000 0.0000 0.0000 3.2797 0.0000 0.0000
# 5 0.0000 0.0000 0.0000 0.0000 14.1259 0.0000
# 6 0.0000 0.0000 0.0000 0.0000 0.0000 34.6430
#
#
#
# Elastic Compliance Matrix: (Units=1/GPa)
#
#
# Indices 1 2 3 4 5 6 
#
# 1 0.029066 0.000963 -0.004614 0.000000 0.000000 0.000000
# 2 0.000963 0.008983 -0.002733 0.000000 0.000000 0.000000
# 3 -0.004614 -0.002733 0.009546 0.000000 0.000000 0.000000
# 4 0.000000 0.000000 0.000000 0.304904 0.000000 0.000000
# 5 0.000000 0.000000 0.000000 0.000000 0.070792 0.000000
# 6 0.000000 0.000000 0.000000 0.000000 0.000000 0.028866
#
#
# Mechanical properties :
#
#
# Convention : Reuss Voigt Hill
#
# Bulk Modulus (GPa) = 28.71357 43.87669 36.29513
# Shear Modulus (GPa) = 10.49242 25.56852 18.03047
#
# Velocity S-wave (km/s) = 2.27924 3.55799 2.98782
# Velocity P-wave (km/s) = 4.59815 6.21312 5.46561
#
# Compressibility (1/GPa) = 0.03482674
#
# Stress axis : x y z
#
# Youngs Moduli (GPa) = 34.40472 111.31837 104.75711
#
# Poissons Ratio (x) = -0.10721 0.48336
# Poissons Ratio (y) = -0.03314 0.28631
# Poissons Ratio (z) = 0.15875 0.30425
#
# Static dielectric constant tensor:
#      x y z
#    x 3.485520 0.000000 0.000000 
#    y 0.000000 3.742700 0.000000 
#    z 0.000000 0.000000 3.867010 
# 
# 
# High freq. dielectric constant tensor:
#      x y z
#    x 1.774140 0.000000 0.000000 
#    y 0.000000 1.801970 0.000000 
#    z 0.000000 0.000000 1.791120 
# 
# From -- ./inp_files/16534.got.cif
#   From: 2010.03.12/outbox.cif.g09.slc.cpg/sg36_9_cif.got.tgz:16534.got - 2010.04.14 02:13:53.
