data_PCOD8175912
_publ_section_title
;
Structure prediction by ZEFSAII (Michael W. Deem and Ramdas Pophale) SiO2 
 PCOD8175912
Probable space group: C M C 21
;
_chemical_formula_sum "Si O2"
_cell_formula_units_Z 48
_cell_length_a 8.724310
_cell_length_b 27.215693
_cell_length_c 10.028911
_cell_angle_alpha 90.000000
_cell_angle_beta 90.000000
_cell_angle_gamma 90.000000
_cell_volume 2381.246000
_symmetry_space_group_name_H-M "C M C 21"
_symmetry_group_IT_number 36
_symmetry_cell_setting 'orthorhombic'
loop_
_space_group_symop_operation_xyz
x,y,z
-x,-y,1/2+z
x,-y,1/2+z
-x,y,z
1/2+x,1/2+y,z
1/2-x,1/2-y,1/2+z
1/2+x,1/2-y,1/2+z
1/2-x,1/2+y,z
loop_
_atom_site_type_symbol
_atom_site_label
_atom_site_fract_x
_atom_site_fract_y
_atom_site_fract_z
Si Si1 0.818737 0.713371 0.112830
Si Si2 0.675637 0.062392 0.474110
Si Si3 0.322406 0.108789 0.753001
Si Si4 0.177890 0.395303 0.689012
Si Si5 0.678389 0.541169 0.965639
Si Si6 0.180465 0.789458 0.331560
O O1 0.763662 0.659294 0.156357
O O2 0.755484 0.752721 0.218957
O O3 0.000000 0.715593 0.104312
O O4 0.750837 0.727718 0.970706
O O5 0.500000 0.043643 0.479520
O O6 0.712392 0.096878 0.599657
O O7 0.707021 0.095128 0.344422
O O8 0.788001 0.016339 0.476439
O O9 0.500000 0.120645 0.777782
O O10 0.275095 0.062589 0.842934
O O11 0.224484 0.155218 0.796839
O O12 0.276114 0.433625 0.604338
O O13 0.000000 0.401909 0.651081
O O14 0.500000 0.549497 0.938083
O O15 0.000000 0.785449 0.343717
#
# Coordination Sequence:
#
# PCOD8175912 Si02
#       6
#     8   8   8   8   8   8
#     4  10  23  42  65  92 124 163 202 251 307 365
#     4  10  23  40  63  91 119 163 212 252 298 365
#     4  11  23  41  65  90 123 166 207 250 304 365
#     4  10  21  41  65  88 120 162 208 251 297 364
#     4  12  24  39  61  91 126 162 202 256 311 361
#     4  11  24  41  65  96 126 158 203 254 305 362
#
# _framework density 20.157513999999999
#
# number of rings (size 3 to 8) (size 9 to 14) (size 15 to 20)
#    0.000    1.333    1.667    3.500    2.333    7.333 
#    0.000    0.000    0.000    0.000    0.000    0.000 
#    0.000    0.000    0.000    0.000    0.000    0.000 
#
# Total GULP energy -297774.080434 kJ/mol
# GULP energy per Si atom -12407.253351 kJ/mol
# Density = 2.011163 g / cm^3
# Si number density = 20.157514 Si / 1000 Ang^3
#
#
#
# Elastic Constant Matrix: (Units=GPa)
#
#
# Indices 1 2 3 4 5 6 
#
# 1 29.3323 19.8313 31.7790 0.0000 0.0000 0.0000
# 2 19.8313 86.3464 45.4039 0.0000 0.0000 0.0000
# 3 31.7790 45.4039 167.6509 0.0000 0.0000 0.0000
# 4 0.0000 0.0000 0.0000 38.4484 0.0000 0.0000
# 5 0.0000 0.0000 0.0000 0.0000 26.9510 0.0000
# 6 0.0000 0.0000 0.0000 0.0000 0.0000 21.7242
#
#
#
# Elastic Compliance Matrix: (Units=1/GPa)
#
#
# Indices 1 2 3 4 5 6 
#
# 1 0.046281 -0.007016 -0.006873 0.000000 0.000000 0.000000
# 2 -0.007016 0.014568 -0.002615 0.000000 0.000000 0.000000
# 3 -0.006873 -0.002615 0.007976 0.000000 0.000000 0.000000
# 4 0.000000 0.000000 0.000000 0.026009 0.000000 0.000000
# 5 0.000000 0.000000 0.000000 0.000000 0.037104 0.000000
# 6 0.000000 0.000000 0.000000 0.000000 0.000000 0.046032
#
#
# Mechanical properties :
#
#
# Convention : Reuss Voigt Hill
#
# Bulk Modulus (GPa) = 27.91945 53.03978 40.47962
# Shear Modulus (GPa) = 22.42989 29.84577 26.13783
#
# Velocity S-wave (km/s) = 3.33938 3.85207 3.60485
# Velocity P-wave (km/s) = 5.36184 6.79370 6.11979
#
# Compressibility (1/GPa) = 0.03581732
#
# Stress axis : x y z
#
# Youngs Moduli (GPa) = 21.60695 68.64439 125.37767
#
# Poissons Ratio (x) = 0.48158 0.86171
# Poissons Ratio (y) = 0.15158 0.32792
# Poissons Ratio (z) = 0.14850 0.17954
#
# Static dielectric constant tensor:
#      x y z
#    x 3.563260 0.000000 0.000000 
#    y 0.000000 3.710630 0.000000 
#    z 0.000000 0.000000 3.923090 
# 
# 
# High freq. dielectric constant tensor:
#      x y z
#    x 1.780520 0.000000 0.000000 
#    y 0.000000 1.791180 0.000000 
#    z 0.000000 0.000000 1.806280 
# 
# From -- ./inp_files/2728.got.cif
#   From: 2010.03.12/outbox.cif.g09.slc.cpg/sg36_2_cif.got.tgz:2728.got - 2010.04.14 02:13:53.
