data_PCOD8175172
_publ_section_title
;
Structure prediction by ZEFSAII (Michael W. Deem and Ramdas Pophale) SiO2 
 PCOD8175172
Probable space group: C M C 21
;
_chemical_formula_sum "Si O2"
_cell_formula_units_Z 64
_cell_length_a 32.729097
_cell_length_b 11.024505
_cell_length_c 9.009938
_cell_angle_alpha 90.000000
_cell_angle_beta 90.000000
_cell_angle_gamma 90.000000
_cell_volume 3250.984692
_symmetry_space_group_name_H-M "C M C 21"
_symmetry_group_IT_number 36
_symmetry_cell_setting 'orthorhombic'
loop_
_space_group_symop_operation_xyz
x,y,z
-x,-y,1/2+z
x,-y,1/2+z
-x,y,z
1/2+x,1/2+y,z
1/2-x,1/2-y,1/2+z
1/2+x,1/2-y,1/2+z
1/2-x,1/2+y,z
loop_
_atom_site_type_symbol
_atom_site_label
_atom_site_fract_x
_atom_site_fract_y
_atom_site_fract_z
Si Si1 0.624614 0.151224 0.724960
Si Si2 0.318431 0.668779 0.101690
Si Si3 0.681461 0.072371 0.211309
Si Si4 0.726208 0.101859 0.516868
Si Si5 0.454166 0.166367 0.107794
Si Si6 0.185563 0.948575 0.913669
Si Si7 0.868652 0.243501 0.540020
Si Si8 0.455459 0.946851 0.297456
O O1 0.638563 0.259435 0.615837
O O2 0.576020 0.138745 0.709149
O O3 0.645341 0.024066 0.686889
O O4 0.637210 0.176751 0.893527
O O5 0.314490 0.573904 0.237614
O O6 0.283541 0.773236 0.105844
O O7 0.316301 0.592623 0.948636
O O8 0.695750 0.092135 0.378268
O O9 0.662645 0.199874 0.158942
O O10 0.719858 0.018907 0.117567
O O11 0.773162 0.111036 0.474605
O O12 0.500000 0.228136 0.104546
O O13 0.416386 0.261673 0.094767
O O14 0.448641 0.088929 0.258663
O O15 0.450568 0.069104 0.973870
O O16 0.146537 0.891351 0.999259
O O17 0.500000 0.904490 0.243128
#
# Coordination Sequence:
#
# PCOD8175172 Si02
#       8
#     8   8   8   8   8   8   8   8
#     4   9  18  36  54  80 115 143 188 226 280 344
#     4  10  25  41  57  81 107 152 189 244 281 334
#     4  11  20  36  55  85 108 150 184 229 288 339
#     4  11  25  37  60  79 114 146 191 238 289 339
#     4   9  17  30  51  81 114 144 179 224 284 341
#     4  11  25  41  57  77 112 147 204 236 284 335
#     4  10  20  34  56  79 112 149 184 231 279 336
#     4   9  16  27  49  80 114 145 174 222 281 346
#
# _framework density 19.686343000000001
#
# number of rings (size 3 to 8) (size 9 to 14) (size 15 to 20)
#    0.000    2.000    2.500    0.750    5.250    0.000 
#    0.000    0.000    0.000    0.750    0.000    0.000 
#    0.000    0.000    0.000    0.000    0.000    0.000 
#
# Total GULP energy -396603.980023 kJ/mol
# GULP energy per Si atom -12393.874376 kJ/mol
# Density = 1.964154 g / cm^3
# Si number density = 19.686343 Si / 1000 Ang^3
#
#
#
# Elastic Constant Matrix: (Units=GPa)
#
#
# Indices 1 2 3 4 5 6 
#
# 1 96.9046 19.0250 11.8789 0.0000 0.0000 0.0000
# 2 19.0250 54.3253 14.7486 0.0000 0.0000 0.0000
# 3 11.8789 14.7486 54.5491 0.0000 0.0000 0.0000
# 4 0.0000 0.0000 0.0000 30.2422 0.0000 0.0000
# 5 0.0000 0.0000 0.0000 0.0000 18.1710 0.0000
# 6 0.0000 0.0000 0.0000 0.0000 0.0000 23.6879
#
#
#
# Elastic Compliance Matrix: (Units=1/GPa)
#
#
# Indices 1 2 3 4 5 6 
#
# 1 0.011192 -0.003516 -0.001487 0.000000 0.000000 0.000000
# 2 -0.003516 0.020970 -0.004904 0.000000 0.000000 0.000000
# 3 -0.001487 -0.004904 0.019982 0.000000 0.000000 0.000000
# 4 0.000000 0.000000 0.000000 0.033066 0.000000 0.000000
# 5 0.000000 0.000000 0.000000 0.000000 0.055033 0.000000
# 6 0.000000 0.000000 0.000000 0.000000 0.000000 0.042216
#
#
# Mechanical properties :
#
#
# Convention : Reuss Voigt Hill
#
# Bulk Modulus (GPa) = 30.93033 33.00934 31.96984
# Shear Modulus (GPa) = 23.46877 25.09532 24.28205
#
# Velocity S-wave (km/s) = 3.45648 3.57425 3.51586
# Velocity P-wave (km/s) = 5.62808 5.81702 5.72333
#
# Compressibility (1/GPa) = 0.03233072
#
# Stress axis : x y z
#
# Youngs Moduli (GPa) = 89.35010 47.68641 50.04557
#
# Poissons Ratio (x) = 0.16766 0.07440
# Poissons Ratio (y) = 0.31414 0.24543
# Poissons Ratio (z) = 0.13283 0.23386
#
# Static dielectric constant tensor:
#      x y z
#    x 3.816490 0.000000 0.000000 
#    y 0.000000 3.293390 0.000000 
#    z 0.000000 0.000000 3.585310 
# 
# 
# High freq. dielectric constant tensor:
#      x y z
#    x 1.770760 0.000000 0.000000 
#    y 0.000000 1.730230 0.000000 
#    z 0.000000 0.000000 1.766480 
# 
# From -- ./inp_files/6078.got.cif
#   From: 2010.03.12/outbox.cif.g09.slc.cpg/sg36_4_cif.got.tgz:6078.got - 2010.04.14 02:13:53.
