data_PCOD8175691
_publ_section_title
;
Structure prediction by ZEFSAII (Michael W. Deem and Ramdas Pophale) SiO2 
 PCOD8175691
Probable space group: C M C 21
;
_chemical_formula_sum "Si O2"
_cell_formula_units_Z 64
_cell_length_a 8.433196
_cell_length_b 29.484362
_cell_length_c 12.652327
_cell_angle_alpha 90.000000
_cell_angle_beta 90.000000
_cell_angle_gamma 90.000000
_cell_volume 3145.968259
_symmetry_space_group_name_H-M "C M C 21"
_symmetry_group_IT_number 36
_symmetry_cell_setting 'orthorhombic'
loop_
_space_group_symop_operation_xyz
x,y,z
-x,-y,1/2+z
x,-y,1/2+z
-x,y,z
1/2+x,1/2+y,z
1/2-x,1/2-y,1/2+z
1/2+x,1/2-y,1/2+z
1/2-x,1/2+y,z
loop_
_atom_site_type_symbol
_atom_site_label
_atom_site_fract_x
_atom_site_fract_y
_atom_site_fract_z
Si Si1 0.180875 0.401408 0.098460
Si Si2 0.814766 0.472719 0.927529
Si Si3 0.690201 0.068940 0.997909
Si Si4 0.178992 0.814992 0.010491
Si Si5 0.681939 0.133129 0.820543
Si Si6 0.181159 0.687556 0.293069
Si Si7 0.688890 0.087525 0.233982
Si Si8 0.815844 0.722542 0.709856
O O1 0.305552 0.365225 0.056233
O O2 0.202443 0.403694 0.225360
O O3 0.000000 0.386272 0.071948
O O4 0.219551 0.448271 0.039817
O O5 0.743335 0.522982 0.943060
O O6 0.741126 0.445595 0.826372
O O7 0.000000 0.476354 0.905887
O O8 0.500000 0.068213 0.998527
O O9 0.757348 0.110966 0.926808
O O10 0.752415 0.072606 0.118542
O O11 0.220933 0.778777 0.100409
O O12 0.000000 0.806725 0.970226
O O13 0.306671 0.809760 0.918556
O O14 0.500000 0.141139 0.847249
O O15 0.752458 0.182774 0.788647
O O16 0.246865 0.639016 0.253714
O O17 0.293505 0.727162 0.251430
O O18 0.000000 0.695479 0.257712
O O19 0.500000 0.086636 0.239177
O O20 0.000000 0.712156 0.689190
#
# Coordination Sequence:
#
# PCOD8175691 Si02
#       8
#     8   8   8   8   8   8   8   8
#     4   9  16  30  50  73 104 139 175 226 278 323
#     4   9  16  26  45  72 105 143 179 221 274 334
#     4   9  17  27  44  75 111 144 181 222 278 341
#     4  11  21  35  55  80 106 141 188 235 285 337
#     4   8  16  29  46  70 106 144 177 226 279 326
#     4  11  21  36  56  80 114 149 187 235 290 343
#     4   9  18  30  45  73 112 147 179 227 282 333
#     4  10  21  37  56  81 112 147 192 236 288 345
#
# _framework density 20.343496999999999
#
# number of rings (size 3 to 8) (size 9 to 14) (size 15 to 20)
#    0.000    2.500    1.250    2.625    1.750    1.000 
#    0.000    2.500    0.000    0.000    0.000   10.500 
#    0.000    0.000    0.000    0.000    0.000    0.000 
#
# Total GULP energy -396531.230152 kJ/mol
# GULP energy per Si atom -12391.600942 kJ/mol
# Density = 2.029719 g / cm^3
# Si number density = 20.343497 Si / 1000 Ang^3
#
#
#
# Elastic Constant Matrix: (Units=GPa)
#
#
# Indices 1 2 3 4 5 6 
#
# 1 30.0914 7.4460 5.5048 0.0000 0.0000 0.0000
# 2 7.4460 139.4822 71.6223 0.0000 0.0000 0.0000
# 3 5.5048 71.6223 131.1265 0.0000 0.0000 0.0000
# 4 0.0000 0.0000 0.0000 21.3740 0.0000 0.0000
# 5 0.0000 0.0000 0.0000 0.0000 13.3956 0.0000
# 6 0.0000 0.0000 0.0000 0.0000 0.0000 17.0145
#
#
#
# Elastic Compliance Matrix: (Units=1/GPa)
#
#
# Indices 1 2 3 4 5 6 
#
# 1 0.033711 -0.001491 -0.000601 0.000000 0.000000 0.000000
# 2 -0.001491 0.010030 -0.005416 0.000000 0.000000 0.000000
# 3 -0.000601 -0.005416 0.010610 0.000000 0.000000 0.000000
# 4 0.000000 0.000000 0.000000 0.046786 0.000000 0.000000
# 5 0.000000 0.000000 0.000000 0.000000 0.074652 0.000000
# 6 0.000000 0.000000 0.000000 0.000000 0.000000 0.058773
#
#
# Mechanical properties :
#
#
# Convention : Reuss Voigt Hill
#
# Bulk Modulus (GPa) = 25.42260 52.20515 38.81388
# Shear Modulus (GPa) = 19.03398 24.76530 21.89964
#
# Velocity S-wave (km/s) = 3.06212 3.49285 3.28456
# Velocity P-wave (km/s) = 5.00259 6.47952 5.78836
#
# Compressibility (1/GPa) = 0.03933508
#
# Stress axis : x y z
#
# Youngs Moduli (GPa) = 29.66396 99.70156 94.25417
#
# Poissons Ratio (x) = 0.14867 0.05662
# Poissons Ratio (y) = 0.04423 0.51046
# Poissons Ratio (z) = 0.01782 0.53997
#
# Static dielectric constant tensor:
#      x y z
#    x 3.052690 0.000000 0.000000 
#    y 0.000000 3.781450 0.000000 
#    z 0.000000 0.000000 3.959900 
# 
# 
# High freq. dielectric constant tensor:
#      x y z
#    x 1.733440 0.000000 0.000000 
#    y 0.000000 1.793980 0.000000 
#    z 0.000000 0.000000 1.800890 
# 
# From -- ./inp_files/7233.got.cif
#   From: 2010.03.12/outbox.cif.g09.slc.cpg/sg36_4_cif.got.tgz:7233.got - 2010.04.14 02:13:53.
