data_PCOD8175522
_publ_section_title
;
Structure prediction by ZEFSAII (Michael W. Deem and Ramdas Pophale) SiO2 
 PCOD8175522
Probable space group: C M C 21
;
_chemical_formula_sum "Si O2"
_cell_formula_units_Z 64
_cell_length_a 8.443329
_cell_length_b 22.008394
_cell_length_c 16.993200
_cell_angle_alpha 90.000000
_cell_angle_beta 90.000000
_cell_angle_gamma 90.000000
_cell_volume 3157.746288
_symmetry_space_group_name_H-M "C M C 21"
_symmetry_group_IT_number 36
_symmetry_cell_setting 'orthorhombic'
loop_
_space_group_symop_operation_xyz
x,y,z
-x,-y,1/2+z
x,-y,1/2+z
-x,y,z
1/2+x,1/2+y,z
1/2-x,1/2-y,1/2+z
1/2+x,1/2-y,1/2+z
1/2-x,1/2+y,z
loop_
_atom_site_type_symbol
_atom_site_label
_atom_site_fract_x
_atom_site_fract_y
_atom_site_fract_z
Si Si1 0.816701 0.855621 0.912410
Si Si2 0.681960 0.042617 0.315452
Si Si3 0.813036 0.891251 0.677209
Si Si4 0.816596 0.451192 0.530570
Si Si5 0.816044 0.354553 0.228523
Si Si6 0.815302 0.224979 0.275379
Si Si7 0.683249 0.584390 0.572164
Si Si8 0.319826 0.575298 0.870203
O O1 0.691566 0.898484 0.869625
O O2 0.782620 0.790264 0.869066
O O3 0.000000 0.873459 0.893292
O O4 0.784654 0.862534 0.006029
O O5 0.500000 0.021232 0.307085
O O6 0.760339 0.052463 0.230917
O O7 0.795280 0.995672 0.358058
O O8 0.715944 0.902530 0.598510
O O9 0.754921 0.829025 0.718478
O O10 0.000000 0.892613 0.661676
O O11 0.763446 0.520224 0.550251
O O12 0.727630 0.416157 0.460424
O O13 0.000000 0.455215 0.509669
O O14 0.737760 0.288067 0.245616
O O15 0.736005 0.388767 0.155582
O O16 0.793690 0.390628 0.309357
O O17 0.000000 0.350421 0.208226
O O18 0.000000 0.232818 0.263010
O O19 0.500000 0.568995 0.577638
O O20 0.500000 0.595603 0.855998
#
# Coordination Sequence:
#
# PCOD8175522 Si02
#       8
#     8   8   8   8   8   8   8   8
#     4   9  18  36  62  87 115 156 202 246 298 359
#     4  11  20  33  57  89 120 150 192 244 296 349
#     4  10  20  38  62  87 118 158 197 238 293 357
#     4  12  24  39  60  92 125 153 195 249 306 360
#     4  11  23  41  62  87 123 162 205 255 303 349
#     4   8  18  39  64  86 115 157 204 250 296 351
#     4  11  22  38  62  91 124 159 201 249 305 369
#     4  12  24  40  59  83 120 161 198 241 301 366
#
# _framework density 20.267620000000001
#
# number of rings (size 3 to 8) (size 9 to 14) (size 15 to 20)
#    0.000    1.500    1.250    6.000    0.000    0.500 
#    2.250    6.250    0.000    0.000    0.000    0.000 
#    0.000    0.000    0.000    0.000    0.000    0.000 
#
# Total GULP energy -396494.273412 kJ/mol
# GULP energy per Si atom -12390.446044 kJ/mol
# Density = 2.022149 g / cm^3
# Si number density = 20.267620 Si / 1000 Ang^3
#
#
#
# Elastic Constant Matrix: (Units=GPa)
#
#
# Indices 1 2 3 4 5 6 
#
# 1 57.1199 16.0270 -7.8369 0.0000 0.0000 0.0000
# 2 16.0270 57.4025 36.5726 0.0000 0.0000 0.0000
# 3 -7.8369 36.5726 101.8806 0.0000 0.0000 0.0000
# 4 0.0000 0.0000 0.0000 25.1586 0.0000 0.0000
# 5 0.0000 0.0000 0.0000 0.0000 26.4523 0.0000
# 6 0.0000 0.0000 0.0000 0.0000 0.0000 18.2295
#
#
#
# Elastic Compliance Matrix: (Units=1/GPa)
#
#
# Indices 1 2 3 4 5 6 
#
# 1 0.020619 -0.008774 0.004736 0.000000 0.000000 0.000000
# 2 -0.008774 0.026320 -0.010123 0.000000 0.000000 0.000000
# 3 0.004736 -0.010123 0.013814 0.000000 0.000000 0.000000
# 4 0.000000 0.000000 0.000000 0.039748 0.000000 0.000000
# 5 0.000000 0.000000 0.000000 0.000000 0.037804 0.000000
# 6 0.000000 0.000000 0.000000 0.000000 0.000000 0.054856
#
#
# Mechanical properties :
#
#
# Convention : Reuss Voigt Hill
#
# Bulk Modulus (GPa) = 30.83612 33.99203 32.41408
# Shear Modulus (GPa) = 21.52447 25.41078 23.46762
#
# Velocity S-wave (km/s) = 3.26239 3.54469 3.40647
# Velocity P-wave (km/s) = 5.42572 5.79320 5.61247
#
# Compressibility (1/GPa) = 0.03242950
#
# Stress axis : x y z
#
# Youngs Moduli (GPa) = 48.49970 37.99330 72.39180
#
# Poissons Ratio (x) = 0.33336 -0.34283
# Poissons Ratio (y) = 0.42554 0.73284
# Poissons Ratio (z) = -0.22968 0.38462
#
# Static dielectric constant tensor:
#      x y z
#    x 3.539620 0.000000 0.000000 
#    y 0.000000 3.786790 0.000000 
#    z 0.000000 0.000000 4.112230 
# 
# 
# High freq. dielectric constant tensor:
#      x y z
#    x 1.786070 0.000000 0.000000 
#    y 0.000000 1.773170 0.000000 
#    z 0.000000 0.000000 1.804320 
# 
# From -- ./inp_files/11058.got.cif
#   From: 2010.03.12/outbox.cif.g09.slc.cpg/sg36_6_cif.got.tgz:11058.got - 2010.04.14 02:13:53.
