data_PCOD8175108
_publ_section_title
;
Structure prediction by ZEFSAII (Michael W. Deem and Ramdas Pophale) SiO2 
 PCOD8175108
Probable space group: C M C 21
;
_chemical_formula_sum "Si O2"
_cell_formula_units_Z 64
_cell_length_a 9.059194
_cell_length_b 23.018736
_cell_length_c 17.673425
_cell_angle_alpha 90.000000
_cell_angle_beta 90.000000
_cell_angle_gamma 90.000000
_cell_volume 3685.460436
_symmetry_space_group_name_H-M "C M C 21"
_symmetry_group_IT_number 36
_symmetry_cell_setting 'orthorhombic'
loop_
_space_group_symop_operation_xyz
x,y,z
-x,-y,1/2+z
x,-y,1/2+z
-x,y,z
1/2+x,1/2+y,z
1/2-x,1/2-y,1/2+z
1/2+x,1/2-y,1/2+z
1/2-x,1/2+y,z
loop_
_atom_site_type_symbol
_atom_site_label
_atom_site_fract_x
_atom_site_fract_y
_atom_site_fract_z
Si Si1 0.172858 0.080217 0.092330
Si Si2 0.666560 0.909532 0.449336
Si Si3 0.674690 0.358481 0.015485
Si Si4 0.827831 0.821561 0.706067
Si Si5 0.332989 0.020725 0.529671
Si Si6 0.172297 0.792541 0.870733
Si Si7 0.825786 0.795923 0.169616
Si Si8 0.173959 0.668798 0.815946
O O1 0.214616 0.118358 0.165388
O O2 0.000000 0.068518 0.086648
O O3 0.228463 0.114710 0.016792
O O4 0.256918 0.017829 0.096853
O O5 0.500000 0.886368 0.464096
O O6 0.719111 0.886514 0.367466
O O7 0.670036 0.980263 0.453393
O O8 0.500000 0.365645 0.009414
O O9 0.721410 0.325249 0.091148
O O10 0.742818 0.422002 0.013816
O O11 0.743493 0.323170 0.944130
O O12 0.788843 0.828710 0.794763
O O13 0.736931 0.769034 0.669763
O O14 0.000000 0.806593 0.695260
O O15 0.500000 0.035933 0.553678
O O16 0.228330 0.726528 0.860389
O O17 0.000000 0.790958 0.885554
O O18 0.758152 0.835507 0.236442
O O19 0.000000 0.793328 0.179730
O O20 0.000000 0.671553 0.798592
#
# Coordination Sequence:
#
# PCOD8175108 Si02
#       8
#     8   8   8   8   8   8   8   8
#     4   9  17  30  52  77 101 129 164 210 253 296
#     4   8  17  31  52  76  98 128 166 208 252 298
#     4  10  20  34  52  72  98 136 173 206 250 296
#     4   9  18  34  53  76 104 134 166 202 253 306
#     4   9  19  34  51  73 100 131 172 214 249 297
#     4   8  16  31  52  73  97 132 168 197 240 304
#     4  10  21  32  49  77 107 133 167 212 248 296
#     4   9  17  34  55  74 101 133 166 205 253 307
#
# _framework density 17.365538000000001
#
# number of rings (size 3 to 8) (size 9 to 14) (size 15 to 20)
#    0.750    2.250    0.000    1.500    1.750    2.500 
#    0.000    3.750    0.000    4.500    0.000    0.000 
#    0.000    0.000    0.000    0.000    0.000    0.000 
#
# Total GULP energy -396512.806167 kJ/mol
# GULP energy per Si atom -12391.025193 kJ/mol
# Density = 1.732601 g / cm^3
# Si number density = 17.365538 Si / 1000 Ang^3
#
#
#
# Elastic Constant Matrix: (Units=GPa)
#
#
# Indices 1 2 3 4 5 6 
#
# 1 44.6795 32.1419 42.4950 0.0000 0.0000 0.0000
# 2 32.1419 88.2136 67.4352 0.0000 0.0000 0.0000
# 3 42.4950 67.4352 131.0223 0.0000 0.0000 0.0000
# 4 0.0000 0.0000 0.0000 16.1686 0.0000 0.0000
# 5 0.0000 0.0000 0.0000 0.0000 21.7684 0.0000
# 6 0.0000 0.0000 0.0000 0.0000 0.0000 24.3275
#
#
#
# Elastic Compliance Matrix: (Units=1/GPa)
#
#
# Indices 1 2 3 4 5 6 
#
# 1 0.034572 -0.006636 -0.007797 0.000000 0.000000 0.000000
# 2 -0.006636 0.019963 -0.008123 0.000000 0.000000 0.000000
# 3 -0.007797 -0.008123 0.014342 0.000000 0.000000 0.000000
# 4 0.000000 0.000000 0.000000 0.061848 0.000000 0.000000
# 5 0.000000 0.000000 0.000000 0.000000 0.045938 0.000000
# 6 0.000000 0.000000 0.000000 0.000000 0.000000 0.041106
#
#
# Mechanical properties :
#
#
# Convention : Reuss Voigt Hill
#
# Bulk Modulus (GPa) = 42.07864 60.89550 51.48707
# Shear Modulus (GPa) = 18.46367 20.57579 19.51973
#
# Velocity S-wave (km/s) = 3.26427 3.44592 3.35632
# Velocity P-wave (km/s) = 6.20411 7.13971 6.68829
#
# Compressibility (1/GPa) = 0.02376503
#
# Stress axis : x y z
#
# Youngs Moduli (GPa) = 28.92552 50.09180 69.72630
#
# Poissons Ratio (x) = 0.33241 0.54368
# Poissons Ratio (y) = 0.19195 0.56636
# Poissons Ratio (z) = 0.22554 0.40687
#
# Static dielectric constant tensor:
#      x y z
#    x 3.116300 0.000000 0.000000 
#    y 0.000000 3.113340 0.000000 
#    z 0.000000 0.000000 3.318870 
# 
# 
# High freq. dielectric constant tensor:
#      x y z
#    x 1.661780 0.000000 0.000000 
#    y 0.000000 1.658270 0.000000 
#    z 0.000000 0.000000 1.661860 
# 
# From -- ./inp_files/14061.got.cif
#   From: 2010.03.12/outbox.cif.g09.slc.cpg/sg36_8_cif.got.tgz:14061.got - 2010.04.14 02:13:53.
