data_PCOD8175575
_publ_section_title
;
Structure prediction by ZEFSAII (Michael W. Deem and Ramdas Pophale) SiO2 
 PCOD8175575
Probable space group: C M C 21
;
_chemical_formula_sum "Si O2"
_cell_formula_units_Z 48
_cell_length_a 9.225790
_cell_length_b 26.955767
_cell_length_c 9.888842
_cell_angle_alpha 90.000000
_cell_angle_beta 90.000000
_cell_angle_gamma 90.000000
_cell_volume 2459.238768
_symmetry_space_group_name_H-M "C M C 21"
_symmetry_group_IT_number 36
_symmetry_cell_setting 'orthorhombic'
loop_
_space_group_symop_operation_xyz
x,y,z
-x,-y,1/2+z
x,-y,1/2+z
-x,y,z
1/2+x,1/2+y,z
1/2-x,1/2-y,1/2+z
1/2+x,1/2-y,1/2+z
1/2-x,1/2+y,z
loop_
_atom_site_type_symbol
_atom_site_label
_atom_site_fract_x
_atom_site_fract_y
_atom_site_fract_z
Si Si1 0.830999 0.042531 0.042290
Si Si2 0.170428 0.284082 0.365607
Si Si3 0.167897 0.600333 0.261305
Si Si4 0.331556 0.384146 0.303067
Si Si5 0.333550 0.210837 0.174665
Si Si6 0.167825 0.929172 0.014318
O O1 0.743220 0.057237 0.175344
O O2 0.000000 0.046869 0.077888
O O3 0.790101 0.986769 0.002380
O O4 0.785234 0.077630 0.919088
O O5 0.240131 0.334579 0.314290
O O6 0.230774 0.238691 0.279045
O O7 0.207614 0.273657 0.522257
O O8 0.000000 0.288256 0.343247
O O9 0.194411 0.652452 0.187695
O O10 0.237391 0.602326 0.409706
O O11 0.000000 0.587606 0.274812
O O12 0.500000 0.370212 0.314143
O O13 0.293864 0.409958 0.162478
O O14 0.500000 0.224304 0.207546
O O15 0.000000 0.920644 0.979738
#
# Coordination Sequence:
#
# PCOD8175575 Si02
#       6
#     8   8   8   8   8   8
#     4  10  20  39  65  89 119 161 205 247 295 352
#     4  11  24  42  65  89 118 156 198 248 301 358
#     4  11  23  40  61  89 126 160 196 249 301 354
#     4  10  21  38  62  90 122 158 198 249 300 351
#     4  10  24  44  62  88 123 155 196 247 300 360
#     4  10  22  39  61  91 124 160 205 248 289 351
#
# _framework density 19.518236000000002
#
# number of rings (size 3 to 8) (size 9 to 14) (size 15 to 20)
#    0.000    1.667    1.667    2.000    2.333    6.667 
#    0.000    1.667    0.000    0.000    0.000    0.000 
#    0.000    0.000    0.000    0.000    0.000    0.000 
#
# Total GULP energy -297756.098589 kJ/mol
# GULP energy per Si atom -12406.504108 kJ/mol
# Density = 1.947381 g / cm^3
# Si number density = 19.518236 Si / 1000 Ang^3
#
#
#
# Elastic Constant Matrix: (Units=GPa)
#
#
# Indices 1 2 3 4 5 6 
#
# 1 70.9297 32.7110 49.6187 0.0000 0.0000 0.0000
# 2 32.7110 56.3517 28.1690 0.0000 0.0000 0.0000
# 3 49.6187 28.1690 108.1072 0.0000 0.0000 0.0000
# 4 0.0000 0.0000 0.0000 35.8459 0.0000 0.0000
# 5 0.0000 0.0000 0.0000 0.0000 23.1403 0.0000
# 6 0.0000 0.0000 0.0000 0.0000 0.0000 27.3363
#
#
#
# Elastic Compliance Matrix: (Units=1/GPa)
#
#
# Indices 1 2 3 4 5 6 
#
# 1 0.024893 -0.010047 -0.008807 0.000000 0.000000 0.000000
# 2 -0.010047 0.024459 -0.001762 0.000000 0.000000 0.000000
# 3 -0.008807 -0.001762 0.013751 0.000000 0.000000 0.000000
# 4 0.000000 0.000000 0.000000 0.027897 0.000000 0.000000
# 5 0.000000 0.000000 0.000000 0.000000 0.043215 0.000000
# 6 0.000000 0.000000 0.000000 0.000000 0.000000 0.036581
#
#
# Mechanical properties :
#
#
# Convention : Reuss Voigt Hill
#
# Bulk Modulus (GPa) = 45.72353 50.70958 48.21656
# Shear Modulus (GPa) = 22.79778 25.59049 24.19413
#
# Velocity S-wave (km/s) = 3.42135 3.62485 3.52457
# Velocity P-wave (km/s) = 6.25175 6.59973 6.42809
#
# Compressibility (1/GPa) = 0.02187058
#
# Stress axis : x y z
#
# Youngs Moduli (GPa) = 40.17142 40.88550 72.71938
#
# Poissons Ratio (x) = 0.41079 0.64047
# Poissons Ratio (y) = 0.40362 0.12810
# Poissons Ratio (z) = 0.35381 0.07202
#
# Static dielectric constant tensor:
#      x y z
#    x 3.663930 0.000000 0.000000 
#    y 0.000000 3.546670 0.000000 
#    z 0.000000 0.000000 3.626650 
# 
# 
# High freq. dielectric constant tensor:
#      x y z
#    x 1.756640 0.000000 0.000000 
#    y 0.000000 1.765750 0.000000 
#    z 0.000000 0.000000 1.775070 
# 
# From -- ./inp_files/2691.got.cif
#   From: 2010.03.12/outbox.cif.g09.slc.cpg/sg36_2_cif.got.tgz:2691.got - 2010.04.14 02:13:53.
