data_PCOD8175063
_publ_section_title
;
Structure prediction by ZEFSAII (Michael W. Deem and Ramdas Pophale) SiO2 
 PCOD8175063
Probable space group: C M C 21
;
_chemical_formula_sum "Si O2"
_cell_formula_units_Z 64
_cell_length_a 9.001625
_cell_length_b 18.460892
_cell_length_c 20.378961
_cell_angle_alpha 90.000000
_cell_angle_beta 90.000000
_cell_angle_gamma 90.000000
_cell_volume 3386.535530
_symmetry_space_group_name_H-M "C M C 21"
_symmetry_group_IT_number 36
_symmetry_cell_setting 'orthorhombic'
loop_
_space_group_symop_operation_xyz
x,y,z
-x,-y,1/2+z
x,-y,1/2+z
-x,y,z
1/2+x,1/2+y,z
1/2-x,1/2-y,1/2+z
1/2+x,1/2-y,1/2+z
1/2-x,1/2+y,z
loop_
_atom_site_type_symbol
_atom_site_label
_atom_site_fract_x
_atom_site_fract_y
_atom_site_fract_z
Si Si1 0.824281 0.533347 0.492920
Si Si2 0.675981 0.803121 0.007008
Si Si3 0.675926 0.216108 0.361568
Si Si4 0.174662 0.298305 0.249850
Si Si5 0.324282 0.962892 0.224342
Si Si6 0.324131 0.054565 0.346688
Si Si7 0.823693 0.045488 0.107183
Si Si8 0.823401 0.209059 0.126023
O O1 0.775607 0.613543 0.516590
O O2 0.774250 0.522724 0.417175
O O3 0.735377 0.474745 0.535217
O O4 0.000000 0.521716 0.501908
O O5 0.500000 0.800213 0.008883
O O6 0.729366 0.772668 0.936605
O O7 0.744803 0.753673 0.064567
O O8 0.500000 0.222404 0.355501
O O9 0.750123 0.278112 0.318341
O O10 0.731941 0.136964 0.337527
O O11 0.219803 0.379553 0.231753
O O12 0.235270 0.245202 0.192989
O O13 0.000000 0.290730 0.258809
O O14 0.500000 0.973374 0.216220
O O15 0.245048 0.991244 0.159676
O O16 0.261093 0.005650 0.287764
O O17 0.500000 0.054612 0.345551
O O18 0.000000 0.039893 0.108646
O O19 0.768301 0.126584 0.123226
O O20 0.000000 0.213750 0.123182
#
# Coordination Sequence:
#
# PCOD8175063 Si02
#       8
#     8   8   8   8   8   8   8   8
#     4   9  17  33  56  76  98 131 167 202 243 297
#     4   8  15  31  54  74  94 129 170 197 230 291
#     4   9  17  31  53  77 100 127 159 199 244 289
#     4  10  20  33  51  73  97 130 167 201 242 292
#     4  10  20  35  54  73  97 132 171 208 246 294
#     4   8  16  32  54  78 100 127 167 207 243 291
#     4  11  22  33  48  73 102 129 162 208 254 294
#     4   9  18  32  48  68  96 129 165 200 236 288
#
# _framework density 18.898368000000001
#
# number of rings (size 3 to 8) (size 9 to 14) (size 15 to 20)
#    0.000    2.750    0.000    3.375    0.000    3.500 
#    0.000    3.750    0.000    3.000    0.000    0.000 
#    0.000    0.000    0.000    0.000    0.000    0.000 
#
# Total GULP energy -396761.512013 kJ/mol
# GULP energy per Si atom -12398.797250 kJ/mol
# Density = 1.885535 g / cm^3
# Si number density = 18.898368 Si / 1000 Ang^3
#
#
#
# Elastic Constant Matrix: (Units=GPa)
#
#
# Indices 1 2 3 4 5 6 
#
# 1 22.3917 20.1597 14.8154 0.0000 0.0000 0.0000
# 2 20.1597 75.6322 27.0222 0.0000 0.0000 0.0000
# 3 14.8154 27.0222 89.6964 0.0000 0.0000 0.0000
# 4 0.0000 0.0000 0.0000 43.2141 0.0000 0.0000
# 5 0.0000 0.0000 0.0000 0.0000 24.4149 0.0000
# 6 0.0000 0.0000 0.0000 0.0000 0.0000 17.1951
#
#
#
# Elastic Compliance Matrix: (Units=1/GPa)
#
#
# Indices 1 2 3 4 5 6 
#
# 1 0.061372 -0.014273 -0.005837 0.000000 0.000000 0.000000
# 2 -0.014273 0.018136 -0.003106 0.000000 0.000000 0.000000
# 3 -0.005837 -0.003106 0.013049 0.000000 0.000000 0.000000
# 4 0.000000 0.000000 0.000000 0.023141 0.000000 0.000000
# 5 0.000000 0.000000 0.000000 0.000000 0.040959 0.000000
# 6 0.000000 0.000000 0.000000 0.000000 0.000000 0.058156
#
#
# Mechanical properties :
#
#
# Convention : Reuss Voigt Hill
#
# Bulk Modulus (GPa) = 21.68068 34.63498 28.15783
# Shear Modulus (GPa) = 18.07535 25.34635 21.71085
#
# Velocity S-wave (km/s) = 3.09601 3.66620 3.39310
# Velocity P-wave (km/s) = 4.92722 6.02396 5.50298
#
# Compressibility (1/GPa) = 0.04612401
#
# Stress axis : x y z
#
# Youngs Moduli (GPa) = 16.29406 55.13827 76.63654
#
# Poissons Ratio (x) = 0.78700 0.44732
# Poissons Ratio (y) = 0.23257 0.23805
# Poissons Ratio (z) = 0.09511 0.17127
#
# Static dielectric constant tensor:
#      x y z
#    x 2.965000 0.000000 0.000000 
#    y 0.000000 3.606240 0.000000 
#    z 0.000000 0.000000 3.788630 
# 
# 
# High freq. dielectric constant tensor:
#      x y z
#    x 1.687010 0.000000 0.000000 
#    y 0.000000 1.737240 0.000000 
#    z 0.000000 0.000000 1.751010 
# 
# From -- ./inp_files/15601.got.cif
#   From: 2010.03.12/outbox.cif.g09.slc.cpg/sg36_8_cif.got.tgz:15601.got - 2010.04.14 02:13:53.
