data_PCOD8175443
_publ_section_title
;
Structure prediction by ZEFSAII (Michael W. Deem and Ramdas Pophale) SiO2 
 PCOD8175443
Probable space group: C M C 21
;
_chemical_formula_sum "Si O2"
_cell_formula_units_Z 64
_cell_length_a 17.696427
_cell_length_b 12.730290
_cell_length_c 15.223062
_cell_angle_alpha 90.000000
_cell_angle_beta 90.000000
_cell_angle_gamma 90.000000
_cell_volume 3429.461267
_symmetry_space_group_name_H-M "C M C 21"
_symmetry_group_IT_number 36
_symmetry_cell_setting 'orthorhombic'
loop_
_space_group_symop_operation_xyz
x,y,z
-x,-y,1/2+z
x,-y,1/2+z
-x,y,z
1/2+x,1/2+y,z
1/2-x,1/2-y,1/2+z
1/2+x,1/2-y,1/2+z
1/2-x,1/2+y,z
loop_
_atom_site_type_symbol
_atom_site_label
_atom_site_fract_x
_atom_site_fract_y
_atom_site_fract_z
Si Si1 0.412696 0.264830 0.639000
Si Si2 0.668706 0.457567 0.732436
Si Si3 0.266826 0.983587 0.567725
Si Si4 0.813713 0.191158 0.978951
Si Si5 0.265228 0.891628 0.900126
Si Si6 0.915993 0.380055 0.814694
Si Si7 0.413316 0.363220 0.327395
Si Si8 0.416071 0.969303 0.151048
O O1 0.500000 0.293553 0.624030
O O2 0.376393 0.356725 0.697192
O O3 0.372619 0.251884 0.544247
O O4 0.403209 0.150711 0.685561
O O5 0.725058 0.506211 0.659761
O O6 0.714230 0.420553 0.817638
O O7 0.612123 0.552742 0.754274
O O8 0.235120 0.055443 0.489102
O O9 0.356121 0.000206 0.576559
O O10 0.248286 0.866100 0.538272
O O11 0.764216 0.267584 0.917915
O O12 0.863028 0.117060 0.914653
O O13 0.353168 0.922201 0.882351
O O14 0.902563 0.256444 0.792559
O O15 0.906163 0.447227 0.727651
O O16 0.000000 0.395795 0.855037
O O17 0.500000 0.385717 0.351217
O O18 0.500000 0.977700 0.109741
#
# Coordination Sequence:
#
# PCOD8175443 Si02
#       8
#     8   8   8   8   8   8   8   8
#     4  10  21  37  59  87 117 154 197 242 295 350
#     4  11  23  37  60  88 121 155 194 244 297 349
#     4  11  22  37  57  89 118 150 197 240 292 352
#     4  10  21  36  59  87 113 149 198 245 288 348
#     4  11  21  37  57  86 119 154 191 243 294 351
#     4   9  20  36  58  86 111 151 198 240 289 343
#     4  10  20  37  60  83 114 152 195 239 289 349
#     4  10  20  37  60  86 119 153 194 243 292 350
#
# _framework density 18.661823999999999
#
# number of rings (size 3 to 8) (size 9 to 14) (size 15 to 20)
#    0.000    1.750    3.750    0.750    0.000    5.000 
#    0.000    0.000    0.000    1.500    0.000    0.000 
#    0.000    0.000    0.000    0.000    0.000    0.000 
#
# Total GULP energy -396595.206751 kJ/mol
# GULP energy per Si atom -12393.600211 kJ/mol
# Density = 1.861935 g / cm^3
# Si number density = 18.661824 Si / 1000 Ang^3
#
#
#
# Elastic Constant Matrix: (Units=GPa)
#
#
# Indices 1 2 3 4 5 6 
#
# 1 92.2722 53.8913 41.9638 0.0000 0.0000 0.0000
# 2 53.8913 87.4701 44.7494 0.0000 0.0000 0.0000
# 3 41.9638 44.7494 99.8704 0.0000 0.0000 0.0000
# 4 0.0000 0.0000 0.0000 33.8821 0.0000 0.0000
# 5 0.0000 0.0000 0.0000 0.0000 20.7610 0.0000
# 6 0.0000 0.0000 0.0000 0.0000 0.0000 28.5063
#
#
#
# Elastic Compliance Matrix: (Units=1/GPa)
#
#
# Indices 1 2 3 4 5 6 
#
# 1 0.017737 -0.009231 -0.003317 0.000000 0.000000 0.000000
# 2 -0.009231 0.019637 -0.004920 0.000000 0.000000 0.000000
# 3 -0.003317 -0.004920 0.013611 0.000000 0.000000 0.000000
# 4 0.000000 0.000000 0.000000 0.029514 0.000000 0.000000
# 5 0.000000 0.000000 0.000000 0.000000 0.048167 0.000000
# 6 0.000000 0.000000 0.000000 0.000000 0.000000 0.035080
#
#
# Mechanical properties :
#
#
# Convention : Reuss Voigt Hill
#
# Bulk Modulus (GPa) = 62.30703 62.31351 62.31027
# Shear Modulus (GPa) = 24.50588 25.89712 25.20150
#
# Velocity S-wave (km/s) = 3.62768 3.72923 3.67881
# Velocity P-wave (km/s) = 7.14189 7.21154 7.17680
#
# Compressibility (1/GPa) = 0.01604955
#
# Stress axis : x y z
#
# Youngs Moduli (GPa) = 56.37796 50.92389 73.46965
#
# Poissons Ratio (x) = 0.47010 0.24367
# Poissons Ratio (y) = 0.52045 0.36147
# Poissons Ratio (z) = 0.18698 0.25055
#
# Static dielectric constant tensor:
#      x y z
#    x 3.648100 0.000000 0.000000 
#    y 0.000000 3.462200 0.000000 
#    z 0.000000 0.000000 3.396680 
# 
# 
# High freq. dielectric constant tensor:
#      x y z
#    x 1.730570 0.000000 0.000000 
#    y 0.000000 1.725560 0.000000 
#    z 0.000000 0.000000 1.716930 
# 
# From -- ./inp_files/12638.got.cif
#   From: 2010.03.12/outbox.cif.g09.slc.cpg/sg36_7_cif.got.tgz:12638.got - 2010.04.14 02:13:53.
