data_PCOD8175629
_publ_section_title
;
Structure prediction by ZEFSAII (Michael W. Deem and Ramdas Pophale) SiO2 
 PCOD8175629
Probable space group: C M C 21
;
_chemical_formula_sum "Si O2"
_cell_formula_units_Z 64
_cell_length_a 12.224485
_cell_length_b 30.775120
_cell_length_c 8.155597
_cell_angle_alpha 90.000000
_cell_angle_beta 90.000000
_cell_angle_gamma 90.000000
_cell_volume 3068.217089
_symmetry_space_group_name_H-M "C M C 21"
_symmetry_group_IT_number 36
_symmetry_cell_setting 'orthorhombic'
loop_
_space_group_symop_operation_xyz
x,y,z
-x,-y,1/2+z
x,-y,1/2+z
-x,y,z
1/2+x,1/2+y,z
1/2-x,1/2-y,1/2+z
1/2+x,1/2-y,1/2+z
1/2-x,1/2+y,z
loop_
_atom_site_type_symbol
_atom_site_label
_atom_site_fract_x
_atom_site_fract_y
_atom_site_fract_z
Si Si1 0.630950 0.127403 0.015710
Si Si2 0.192446 0.365743 0.889337
Si Si3 0.250767 0.511119 0.118819
Si Si4 0.773058 0.293410 0.325705
Si Si5 0.120213 0.545030 0.397841
Si Si6 0.876371 0.857347 0.138156
Si Si7 0.797134 0.066900 0.842809
Si Si8 0.877781 0.273352 0.006577
O O1 0.500000 0.120939 0.029815
O O2 0.688795 0.127716 0.193593
O O3 0.659319 0.173929 0.939160
O O4 0.681695 0.089144 0.900103
O O5 0.130870 0.406755 0.976379
O O6 0.129904 0.322131 0.937687
O O7 0.314546 0.367459 0.966823
O O8 0.208936 0.544898 0.252455
O O9 0.297598 0.466742 0.191995
O O10 0.145229 0.495165 0.016133
O O11 0.335733 0.537810 0.000848
O O12 0.678172 0.315678 0.219682
O O13 0.716364 0.256135 0.430396
O O14 0.860580 0.272339 0.202119
O O15 0.000000 0.537868 0.326744
O O16 0.876334 0.895592 0.276481
O O17 0.000000 0.846629 0.090733
O O18 0.000000 0.255782 0.968490
#
# Coordination Sequence:
#
# PCOD8175629 Si02
#       8
#     8   8   8   8   8   8   8   8
#     4  11  22  39  62  91 129 166 198 243 308 375
#     4  11  22  38  60  91 124 159 201 251 301 369
#     4  10  21  35  55  84 125 155 201 252 296 358
#     4  10  23  41  64  95 123 158 206 255 300 369
#     4  11  20  33  54  85 124 162 195 236 301 363
#     4  10  22  44  65  86 117 163 210 260 310 356
#     4  10  21  38  59  86 122 158 202 253 304 363
#     4  11  22  40  64  92 126 163 202 252 311 367
#
# _framework density 20.859017999999999
#
# number of rings (size 3 to 8) (size 9 to 14) (size 15 to 20)
#    0.000    1.500    2.500    3.000    0.000    2.500 
#    0.000   11.875    0.000    0.000    0.000    0.000 
#    0.000    0.000    0.000    0.000    0.000    0.000 
#
# Total GULP energy -396447.761302 kJ/mol
# GULP energy per Si atom -12388.992541 kJ/mol
# Density = 2.081154 g / cm^3
# Si number density = 20.859018 Si / 1000 Ang^3
#
#
#
# Elastic Constant Matrix: (Units=GPa)
#
#
# Indices 1 2 3 4 5 6 
#
# 1 76.2439 2.3605 25.9407 0.0000 0.0000 0.0000
# 2 2.3605 91.5875 26.8477 0.0000 0.0000 0.0000
# 3 25.9407 26.8477 83.1177 0.0000 0.0000 0.0000
# 4 0.0000 0.0000 0.0000 40.3332 0.0000 0.0000
# 5 0.0000 0.0000 0.0000 0.0000 20.3597 0.0000
# 6 0.0000 0.0000 0.0000 0.0000 0.0000 13.4500
#
#
#
# Elastic Compliance Matrix: (Units=1/GPa)
#
#
# Indices 1 2 3 4 5 6 
#
# 1 0.014769 0.001072 -0.004955 0.000000 0.000000 0.000000
# 2 0.001072 0.012138 -0.004255 0.000000 0.000000 0.000000
# 3 -0.004955 -0.004255 0.014952 0.000000 0.000000 0.000000
# 4 0.000000 0.000000 0.000000 0.024793 0.000000 0.000000
# 5 0.000000 0.000000 0.000000 0.000000 0.049117 0.000000
# 6 0.000000 0.000000 0.000000 0.000000 0.000000 0.074350
#
#
# Mechanical properties :
#
#
# Convention : Reuss Voigt Hill
#
# Bulk Modulus (GPa) = 39.09076 40.13855 39.61466
# Shear Modulus (GPa) = 23.26407 27.88192 25.57300
#
# Velocity S-wave (km/s) = 3.34323 3.66004 3.50522
# Velocity P-wave (km/s) = 5.80380 6.09473 5.95104
#
# Compressibility (1/GPa) = 0.02558149
#
# Stress axis : x y z
#
# Youngs Moduli (GPa) = 67.71108 82.38403 66.87974
#
# Poissons Ratio (x) = -0.08832 0.33142
# Poissons Ratio (y) = -0.07259 0.28459
# Poissons Ratio (z) = 0.33554 0.35057
#
# Static dielectric constant tensor:
#      x y z
#    x 3.334320 0.000000 0.000000 
#    y 0.000000 3.996940 0.000000 
#    z 0.000000 0.000000 4.036750 
# 
# 
# High freq. dielectric constant tensor:
#      x y z
#    x 1.774690 0.000000 0.000000 
#    y 0.000000 1.838620 0.000000 
#    z 0.000000 0.000000 1.824860 
# 
# From -- ./inp_files/3627.got.cif
#   From: 2010.03.12/outbox.cif.g09.slc.cpg/sg36_2_cif.got.tgz:3627.got - 2010.04.14 02:13:53.
