data_PCOD8175946
_publ_section_title
;
Structure prediction by ZEFSAII (Michael W. Deem and Ramdas Pophale) SiO2 
 PCOD8175946
Probable space group: C M C 21
;
_chemical_formula_sum "Si O2"
_cell_formula_units_Z 64
_cell_length_a 9.363841
_cell_length_b 14.747710
_cell_length_c 24.146319
_cell_angle_alpha 90.000000
_cell_angle_beta 90.000000
_cell_angle_gamma 90.000000
_cell_volume 3334.491031
_symmetry_space_group_name_H-M "C M C 21"
_symmetry_group_IT_number 36
_symmetry_cell_setting 'orthorhombic'
loop_
_space_group_symop_operation_xyz
x,y,z
-x,-y,1/2+z
x,-y,1/2+z
-x,y,z
1/2+x,1/2+y,z
1/2-x,1/2-y,1/2+z
1/2+x,1/2-y,1/2+z
1/2-x,1/2+y,z
loop_
_atom_site_type_symbol
_atom_site_label
_atom_site_fract_x
_atom_site_fract_y
_atom_site_fract_z
Si Si1 0.332726 0.876558 0.880370
Si Si2 0.667274 0.123442 0.678457
Si Si3 0.166902 0.471734 0.466668
Si Si4 0.165559 0.842886 0.279254
Si Si5 0.337966 0.669479 0.901633
Si Si6 0.337966 0.330521 0.657194
Si Si7 0.834441 0.842886 0.779573
Si Si8 0.166902 0.528266 0.092160
O O1 0.500000 0.883760 0.865889
O O2 0.291287 0.774583 0.898094
O O3 0.242153 0.906016 0.825621
O O4 0.286673 0.942315 0.930042
O O5 0.500000 0.116240 0.692938
O O6 0.757847 0.093984 0.733206
O O7 0.708713 0.225417 0.660733
O O8 0.713327 0.057685 0.628786
O O9 0.240740 0.379984 0.446300
O O10 0.213795 0.492424 0.529414
O O11 0.000000 0.454315 0.462006
O O12 0.177658 0.881029 0.341872
O O13 0.250000 0.750000 0.279414
O O14 0.000000 0.828043 0.263298
O O15 0.500000 0.663583 0.922620
O O16 0.500000 0.336417 0.636207
O O17 0.322342 0.381029 0.716955
O O18 0.240740 0.379984 0.612527
O O19 0.000000 0.828043 0.795529
O O20 0.000000 0.545685 0.096822
#
# Coordination Sequence:
#
# PCOD8175946 Si02
#       8
#     8   8   8   8   8   8   8   8
#     4   9  19  36  56  78 106 140 174 211 261 315
#     4   9  19  36  56  78 106 140 174 211 261 315
#     4  10  22  38  54  75 104 139 181 223 260 305
#     4   9  17  31  53  81 110 137 169 210 259 315
#     4   9  19  35  55  79 106 137 171 211 261 313
#     4   9  19  35  55  79 106 137 171 211 261 313
#     4   9  17  31  53  81 110 137 169 210 259 315
#     4  10  22  38  54  75 104 139 181 223 260 305
#
# _framework density 19.193334
#
# number of rings (size 3 to 8) (size 9 to 14) (size 15 to 20)
#    0.000    2.750    0.000    2.250    0.000    8.500 
#    0.000    7.500    0.000    0.000    0.000    0.000 
#    0.000    0.000    0.000    0.000    0.000    0.000 
#
# Total GULP energy -396666.204242 kJ/mol
# GULP energy per Si atom -12395.818883 kJ/mol
# Density = 1.914965 g / cm^3
# Si number density = 19.193334 Si / 1000 Ang^3
#
#
#
# Elastic Constant Matrix: (Units=GPa)
#
#
# Indices 1 2 3 4 5 6 
#
# 1 55.4024 12.9221 31.2493 0.0000 0.0000 0.0000
# 2 12.9221 52.0119 17.7612 0.0000 0.0000 0.0000
# 3 31.2493 17.7612 81.6790 0.0000 0.0000 0.0000
# 4 0.0000 0.0000 0.0000 31.8442 0.0000 0.0000
# 5 0.0000 0.0000 0.0000 0.0000 34.5559 0.0000
# 6 0.0000 0.0000 0.0000 0.0000 0.0000 26.8556
#
#
#
# Elastic Compliance Matrix: (Units=1/GPa)
#
#
# Indices 1 2 3 4 5 6 
#
# 1 0.023437 -0.002982 -0.008318 0.000000 0.000000 0.000000
# 2 -0.002982 0.021148 -0.003458 0.000000 0.000000 0.000000
# 3 -0.008318 -0.003458 0.016177 0.000000 0.000000 0.000000
# 4 0.000000 0.000000 0.000000 0.031403 0.000000 0.000000
# 5 0.000000 0.000000 0.000000 0.000000 0.028939 0.000000
# 6 0.000000 0.000000 0.000000 0.000000 0.000000 0.037236
#
#
# Mechanical properties :
#
#
# Convention : Reuss Voigt Hill
#
# Bulk Modulus (GPa) = 32.00396 34.77317 33.38856
# Shear Modulus (GPa) = 25.21786 27.12851 26.17319
#
# Velocity S-wave (km/s) = 3.62869 3.76365 3.69678
# Velocity P-wave (km/s) = 5.85382 6.08632 5.97121
#
# Compressibility (1/GPa) = 0.03124613
#
# Stress axis : x y z
#
# Youngs Moduli (GPa) = 42.66724 47.28570 61.81470
#
# Poissons Ratio (x) = 0.14102 0.51419
# Poissons Ratio (y) = 0.12725 0.21373
# Poissons Ratio (z) = 0.35492 0.16350
#
# Static dielectric constant tensor:
#      x y z
#    x 3.566700 0.000000 0.000000 
#    y 0.000000 3.262180 0.000000 
#    z 0.000000 0.000000 4.007350 
# 
# 
# High freq. dielectric constant tensor:
#      x y z
#    x 1.744510 0.000000 0.000000 
#    y 0.000000 1.729750 0.000000 
#    z 0.000000 0.000000 1.747890 
# 
# From -- ./inp_files/16686.got.cif
#   From: 2010.03.12/outbox.cif.g09.slc.cpg/sg36_9_cif.got.tgz:16686.got - 2010.04.14 02:13:53.
