data_PCOD8175576
_publ_section_title
;
Structure prediction by ZEFSAII (Michael W. Deem and Ramdas Pophale) SiO2 
 PCOD8175576
Probable space group: C M C 21
;
_chemical_formula_sum "Si O2"
_cell_formula_units_Z 64
_cell_length_a 8.890383
_cell_length_b 19.554447
_cell_length_c 18.157602
_cell_angle_alpha 90.000000
_cell_angle_beta 90.000000
_cell_angle_gamma 90.000000
_cell_volume 3156.635977
_symmetry_space_group_name_H-M "C M C 21"
_symmetry_group_IT_number 36
_symmetry_cell_setting 'orthorhombic'
loop_
_space_group_symop_operation_xyz
x,y,z
-x,-y,1/2+z
x,-y,1/2+z
-x,y,z
1/2+x,1/2+y,z
1/2-x,1/2-y,1/2+z
1/2+x,1/2-y,1/2+z
1/2-x,1/2+y,z
loop_
_atom_site_type_symbol
_atom_site_label
_atom_site_fract_x
_atom_site_fract_y
_atom_site_fract_z
Si Si1 0.322621 0.570859 0.907560
Si Si2 0.821821 0.866437 0.560566
Si Si3 0.676230 0.948730 0.834664
Si Si4 0.675732 0.874518 0.133055
Si Si5 0.326934 0.202275 0.376678
Si Si6 0.675988 0.971299 0.668116
Si Si7 0.172981 0.828734 0.278758
Si Si8 0.177519 0.772243 0.027844
O O1 0.500000 0.565111 0.910038
O O2 0.254984 0.496042 0.895210
O O3 0.269176 0.620603 0.842390
O O4 0.262406 0.600345 0.984612
O O5 0.772330 0.914233 0.627328
O O6 0.747371 0.792297 0.570727
O O7 0.000000 0.857426 0.560681
O O8 0.500000 0.957571 0.844406
O O9 0.727840 0.871717 0.850530
O O10 0.726977 0.970573 0.753090
O O11 0.500000 0.862687 0.121478
O O12 0.723539 0.837769 0.208157
O O13 0.763679 0.842106 0.064550
O O14 0.715439 0.954720 0.134982
O O15 0.500000 0.202346 0.403688
O O16 0.307628 0.251440 0.306695
O O17 0.225177 0.229344 0.442892
O O18 0.500000 0.953936 0.660457
O O19 0.000000 0.844125 0.257781
O O20 0.000000 0.768829 0.034825
#
# Coordination Sequence:
#
# PCOD8175576 Si02
#       8
#     8   8   8   8   8   8   8   8
#     4  10  21  39  63  89 122 159 203 254 307 366
#     4  11  24  43  65  92 126 164 206 257 317 376
#     4  10  22  40  64  92 126 163 206 255 308 366
#     4  11  24  42  64  91 128 167 211 259 310 375
#     4  10  22  42  65  91 127 166 206 259 315 364
#     4  10  23  42  62  92 128 166 208 253 305 371
#     4  10  20  39  65  90 120 162 208 256 310 366
#     4  12  26  43  64  91 125 165 214 261 310 376
#
# _framework density 20.274749
#
# number of rings (size 3 to 8) (size 9 to 14) (size 15 to 20)
#    0.000    1.500    2.500    1.875    3.500    3.500 
#    0.000    0.000    0.000    0.000    0.000    0.000 
#    0.000    0.000    0.000    0.000    0.000    0.000 
#
# Total GULP energy -397012.354462 kJ/mol
# GULP energy per Si atom -12406.636077 kJ/mol
# Density = 2.022860 g / cm^3
# Si number density = 20.274749 Si / 1000 Ang^3
#
#
#
# Elastic Constant Matrix: (Units=GPa)
#
#
# Indices 1 2 3 4 5 6 
#
# 1 73.7030 38.0523 24.7862 0.0000 0.0000 0.0000
# 2 38.0523 117.8452 10.1450 0.0000 0.0000 0.0000
# 3 24.7862 10.1450 51.5126 0.0000 0.0000 0.0000
# 4 0.0000 0.0000 0.0000 37.7914 0.0000 0.0000
# 5 0.0000 0.0000 0.0000 0.0000 35.1639 0.0000
# 6 0.0000 0.0000 0.0000 0.0000 0.0000 32.5888
#
#
#
# Elastic Compliance Matrix: (Units=1/GPa)
#
#
# Indices 1 2 3 4 5 6 
#
# 1 0.019128 -0.005477 -0.008125 0.000000 0.000000 0.000000
# 2 -0.005477 0.010200 0.000627 0.000000 0.000000 0.000000
# 3 -0.008125 0.000627 0.023199 0.000000 0.000000 0.000000
# 4 0.000000 0.000000 0.000000 0.026461 0.000000 0.000000
# 5 0.000000 0.000000 0.000000 0.000000 0.028438 0.000000
# 6 0.000000 0.000000 0.000000 0.000000 0.000000 0.030685
#
#
# Mechanical properties :
#
#
# Convention : Reuss Voigt Hill
#
# Bulk Modulus (GPa) = 37.62798 43.22530 40.42664
# Shear Modulus (GPa) = 28.91471 32.44730 30.68101
#
# Velocity S-wave (km/s) = 3.78053 4.00481 3.89429
# Velocity P-wave (km/s) = 6.13644 6.53841 6.34061
#
# Compressibility (1/GPa) = 0.02657597
#
# Stress axis : x y z
#
# Youngs Moduli (GPa) = 52.27878 98.03619 43.10543
#
# Poissons Ratio (x) = 0.53695 0.35024
# Poissons Ratio (y) = 0.28633 -0.02701
# Poissons Ratio (z) = 0.42478 -0.06142
#
# Static dielectric constant tensor:
#      x y z
#    x 3.536520 0.000000 0.000000 
#    y 0.000000 3.865740 0.000000 
#    z 0.000000 0.000000 3.688020 
# 
# 
# High freq. dielectric constant tensor:
#      x y z
#    x 1.783050 0.000000 0.000000 
#    y 0.000000 1.806890 0.000000 
#    z 0.000000 0.000000 1.794050 
# 
# From -- ./inp_files/15748.got.cif
#   From: 2010.03.12/outbox.cif.g09.slc.cpg/sg36_8_cif.got.tgz:15748.got - 2010.04.14 02:13:53.
