data_PCOD8175826
_publ_section_title
;
Structure prediction by ZEFSAII (Michael W. Deem and Ramdas Pophale) SiO2 
 PCOD8175826
Probable space group: C M C 21
;
_chemical_formula_sum "Si O2"
_cell_formula_units_Z 64
_cell_length_a 9.061015
_cell_length_b 28.905284
_cell_length_c 12.383399
_cell_angle_alpha 90.000000
_cell_angle_beta 90.000000
_cell_angle_gamma 90.000000
_cell_volume 3243.351040
_symmetry_space_group_name_H-M "C M C 21"
_symmetry_group_IT_number 36
_symmetry_cell_setting 'orthorhombic'
loop_
_space_group_symop_operation_xyz
x,y,z
-x,-y,1/2+z
x,-y,1/2+z
-x,y,z
1/2+x,1/2+y,z
1/2-x,1/2-y,1/2+z
1/2+x,1/2-y,1/2+z
1/2-x,1/2+y,z
loop_
_atom_site_type_symbol
_atom_site_label
_atom_site_fract_x
_atom_site_fract_y
_atom_site_fract_z
Si Si1 0.831520 0.652337 0.055840
Si Si2 0.171679 0.932912 0.639768
Si Si3 0.834524 0.472111 0.449004
Si Si4 0.674168 0.323250 0.156259
Si Si5 0.170541 0.724369 0.231486
Si Si6 0.667397 0.069563 0.348191
Si Si7 0.831448 0.382177 0.324923
Si Si8 0.324523 0.337117 0.911534
O O1 0.719842 0.619745 0.120400
O O2 0.810623 0.702032 0.111622
O O3 0.000000 0.634699 0.070362
O O4 0.791836 0.650555 0.928573
O O5 0.212185 0.964936 0.539565
O O6 0.263141 0.951586 0.740490
O O7 0.000000 0.935400 0.664577
O O8 0.827612 0.526141 0.426932
O O9 0.797802 0.436337 0.351121
O O10 0.000000 0.459072 0.489400
O O11 0.500000 0.326822 0.158633
O O12 0.728313 0.276602 0.216324
O O13 0.736601 0.367075 0.221675
O O14 0.727614 0.323023 0.031880
O O15 0.262966 0.699324 0.324709
O O16 0.000000 0.722665 0.266892
O O17 0.500000 0.086951 0.330006
O O18 0.764170 0.111644 0.391299
O O19 0.000000 0.375110 0.291321
O O20 0.500000 0.337921 0.900326
#
# Coordination Sequence:
#
# PCOD8175826 Si02
#       8
#     8   8   8   8   8   8   8   8
#     4   9  18  35  60  83 110 150 198 249 293 346
#     4  11  21  34  56  87 119 150 191 248 307 356
#     4   9  21  40  61  85 115 160 210 250 295 357
#     4  10  24  41  58  86 126 164 196 244 309 365
#     4  10  21  39  62  85 114 158 202 242 295 359
#     4  11  22  39  63  87 118 159 204 251 298 359
#     4   9  19  37  61  87 115 153 202 249 296 351
#     4  11  24  41  61  90 125 156 197 251 311 363
#
# _framework density 19.732678
#
# number of rings (size 3 to 8) (size 9 to 14) (size 15 to 20)
#    0.000    2.000    1.250    2.625    1.750    5.500 
#    0.000    3.750    0.000    0.000    0.000    0.000 
#    0.000    0.000    0.000    0.000    0.000    0.000 
#
# Total GULP energy -396689.145061 kJ/mol
# GULP energy per Si atom -12396.535783 kJ/mol
# Density = 1.968777 g / cm^3
# Si number density = 19.732678 Si / 1000 Ang^3
#
#
#
# Elastic Constant Matrix: (Units=GPa)
#
#
# Indices 1 2 3 4 5 6 
#
# 1 70.5438 32.5433 41.1920 0.0000 0.0000 0.0000
# 2 32.5433 94.4805 38.9100 0.0000 0.0000 0.0000
# 3 41.1920 38.9100 98.9326 0.0000 0.0000 0.0000
# 4 0.0000 0.0000 0.0000 23.2698 0.0000 0.0000
# 5 0.0000 0.0000 0.0000 0.0000 32.0565 0.0000
# 6 0.0000 0.0000 0.0000 0.0000 0.0000 19.2272
#
#
#
# Elastic Compliance Matrix: (Units=1/GPa)
#
#
# Indices 1 2 3 4 5 6 
#
# 1 0.019992 -0.004126 -0.006701 0.000000 0.000000 0.000000
# 2 -0.004126 0.013482 -0.003584 0.000000 0.000000 0.000000
# 3 -0.006701 -0.003584 0.014308 0.000000 0.000000 0.000000
# 4 0.000000 0.000000 0.000000 0.042974 0.000000 0.000000
# 5 0.000000 0.000000 0.000000 0.000000 0.031195 0.000000
# 6 0.000000 0.000000 0.000000 0.000000 0.000000 0.052010
#
#
# Mechanical properties :
#
#
# Convention : Reuss Voigt Hill
#
# Bulk Modulus (GPa) = 52.74840 54.36083 53.55461
# Shear Modulus (GPa) = 23.91167 24.99813 24.45490
#
# Velocity S-wave (km/s) = 3.48484 3.56313 3.52420
# Velocity P-wave (km/s) = 6.55604 6.67355 6.61506
#
# Compressibility (1/GPa) = 0.01895792
#
# Stress axis : x y z
#
# Youngs Moduli (GPa) = 50.01970 74.17507 69.89280
#
# Poissons Ratio (x) = 0.30608 0.46836
# Poissons Ratio (y) = 0.20641 0.25051
# Poissons Ratio (z) = 0.33519 0.26586
#
# Static dielectric constant tensor:
#      x y z
#    x 3.517510 0.000000 0.000000 
#    y 0.000000 3.531290 0.000000 
#    z 0.000000 0.000000 3.698590 
# 
# 
# High freq. dielectric constant tensor:
#      x y z
#    x 1.764360 0.000000 0.000000 
#    y 0.000000 1.766590 0.000000 
#    z 0.000000 0.000000 1.769430 
# 
# From -- ./inp_files/7264.got.cif
#   From: 2010.03.12/outbox.cif.g09.slc.cpg/sg36_4_cif.got.tgz:7264.got - 2010.04.14 02:13:53.
