data_PCOD8175533
_publ_section_title
;
Structure prediction by ZEFSAII (Michael W. Deem and Ramdas Pophale) SiO2 
 PCOD8175533
Probable space group: C M C 21
;
_chemical_formula_sum "Si O2"
_cell_formula_units_Z 64
_cell_length_a 29.050233
_cell_length_b 11.284388
_cell_length_c 9.432700
_cell_angle_alpha 90.000000
_cell_angle_beta 90.000000
_cell_angle_gamma 90.000000
_cell_volume 3092.172067
_symmetry_space_group_name_H-M "C M C 21"
_symmetry_group_IT_number 36
_symmetry_cell_setting 'orthorhombic'
loop_
_space_group_symop_operation_xyz
x,y,z
-x,-y,1/2+z
x,-y,1/2+z
-x,y,z
1/2+x,1/2+y,z
1/2-x,1/2-y,1/2+z
1/2+x,1/2-y,1/2+z
1/2-x,1/2+y,z
loop_
_atom_site_type_symbol
_atom_site_label
_atom_site_fract_x
_atom_site_fract_y
_atom_site_fract_z
Si Si1 0.157843 0.475591 0.669380
Si Si2 0.949186 0.318036 0.408023
Si Si3 0.373930 0.424072 0.695934
Si Si4 0.623021 0.358806 0.005551
Si Si5 0.214897 0.714148 0.018896
Si Si6 0.202395 0.723349 0.705836
Si Si7 0.947552 0.765893 0.588363
Si Si8 0.903090 0.448614 0.930413
O O1 0.202042 0.401393 0.613736
O O2 0.168226 0.614556 0.682479
O O3 0.118214 0.471636 0.554397
O O4 0.136813 0.421250 0.814289
O O5 0.915654 0.244752 0.514698
O O6 0.944488 0.273567 0.249391
O O7 0.941147 0.457744 0.381035
O O8 0.000000 0.298795 0.470980
O O9 0.370882 0.558817 0.643018
O O10 0.327172 0.344640 0.687384
O O11 0.413463 0.377389 0.588138
O O12 0.387249 0.431969 0.861500
O O13 0.671933 0.298344 0.001020
O O14 0.258115 0.778395 0.088388
O O15 0.227877 0.692891 0.854630
O O16 0.927980 0.670800 0.477483
O O17 0.000000 0.799233 0.545207
#
# Coordination Sequence:
#
# PCOD8175533 Si02
#       8
#     8   8   8   8   8   8   8   8
#     4  12  23  42  68  92 132 166 207 265 323 383
#     4  10  20  38  63  91 127 167 207 262 321 379
#     4  10  22  42  62  85 124 166 208 259 311 374
#     4  10  22  42  61  87 123 165 210 257 312 375
#     4  11  26  43  65  94 126 167 214 263 323 384
#     4  11  25  43  63  94 126 166 215 263 322 383
#     4  10  21  38  63  94 126 165 210 260 320 381
#     4  12  20  40  66  93 128 166 206 259 327 383
#
# _framework density 20.697426
#
# number of rings (size 3 to 8) (size 9 to 14) (size 15 to 20)
#    0.000    1.250    5.000    1.125    3.500    2.500 
#    0.000    0.000    0.000    0.000    0.000    0.000 
#    0.000    0.000    0.000    0.000    0.000    0.000 
#
# Total GULP energy -396480.905146 kJ/mol
# GULP energy per Si atom -12390.028286 kJ/mol
# Density = 2.065032 g / cm^3
# Si number density = 20.697426 Si / 1000 Ang^3
#
#
#
# Elastic Constant Matrix: (Units=GPa)
#
#
# Indices 1 2 3 4 5 6 
#
# 1 91.5295 -5.5878 36.7034 0.0000 0.0000 0.0000
# 2 -5.5878 34.7243 36.6754 0.0000 0.0000 0.0000
# 3 36.7034 36.6754 66.4151 0.0000 0.0000 0.0000
# 4 0.0000 0.0000 0.0000 30.2967 0.0000 0.0000
# 5 0.0000 0.0000 0.0000 0.0000 27.0652 0.0000
# 6 0.0000 0.0000 0.0000 0.0000 0.0000 17.7795
#
#
#
# Elastic Compliance Matrix: (Units=1/GPa)
#
#
# Indices 1 2 3 4 5 6 
#
# 1 0.039920 0.071323 -0.061447 0.000000 0.000000 0.000000
# 2 0.071323 0.196531 -0.147943 0.000000 0.000000 0.000000
# 3 -0.061447 -0.147943 0.130711 0.000000 0.000000 0.000000
# 4 0.000000 0.000000 0.000000 0.033007 0.000000 0.000000
# 5 0.000000 0.000000 0.000000 0.000000 0.036948 0.000000
# 6 0.000000 0.000000 0.000000 0.000000 0.000000 0.056244
#
#
# Mechanical properties :
#
#
# Convention : Reuss Voigt Hill
#
# Bulk Modulus (GPa) = 10.98557 36.47231 23.72894
# Shear Modulus (GPa) = 6.25127 23.35347 14.80237
#
# Velocity S-wave (km/s) = 1.73979 3.36270 2.67719
# Velocity P-wave (km/s) = 3.05860 5.72162 4.58759
#
# Compressibility (1/GPa) = 0.09102847
#
# Stress axis : x y z
#
# Youngs Moduli (GPa) = 25.05015 5.08825 7.65047
#
# Poissons Ratio (x) = -0.36291 0.47010
# Poissons Ratio (y) = -1.78666 1.13183
# Poissons Ratio (z) = 1.53925 0.75277
#
# Static dielectric constant tensor:
#      x y z
#    x 3.898370 0.000000 0.000000 
#    y 0.000000 3.608100 0.000000 
#    z 0.000000 0.000000 3.968680 
# 
# 
# High freq. dielectric constant tensor:
#      x y z
#    x 1.810070 0.000000 0.000000 
#    y 0.000000 1.802070 0.000000 
#    z 0.000000 0.000000 1.809170 
# 
# From -- ./inp_files/6092.got.cif
#   From: 2010.03.12/outbox.cif.g09.slc.cpg/sg36_4_cif.got.tgz:6092.got - 2010.04.14 02:13:53.
