data_PCOD8175262
_publ_section_title
;
Structure prediction by ZEFSAII (Michael W. Deem and Ramdas Pophale) SiO2 
 PCOD8175262
Probable space group: C M C 21
;
_chemical_formula_sum "Si O2"
_cell_formula_units_Z 64
_cell_length_a 8.834337
_cell_length_b 14.859870
_cell_length_c 24.258967
_cell_angle_alpha 90.000000
_cell_angle_beta 90.000000
_cell_angle_gamma 90.000000
_cell_volume 3184.646821
_symmetry_space_group_name_H-M "C M C 21"
_symmetry_group_IT_number 36
_symmetry_cell_setting 'orthorhombic'
loop_
_space_group_symop_operation_xyz
x,y,z
-x,-y,1/2+z
x,-y,1/2+z
-x,y,z
1/2+x,1/2+y,z
1/2-x,1/2-y,1/2+z
1/2+x,1/2-y,1/2+z
1/2-x,1/2+y,z
loop_
_atom_site_type_symbol
_atom_site_label
_atom_site_fract_x
_atom_site_fract_y
_atom_site_fract_z
Si Si1 0.674156 0.381035 0.035680
Si Si2 0.177930 0.083953 0.026904
Si Si3 0.673552 0.422386 0.273745
Si Si4 0.324039 0.763704 0.330860
Si Si5 0.676863 0.228176 0.957894
Si Si6 0.677573 0.114010 0.257291
Si Si7 0.829024 0.920854 0.152405
Si Si8 0.673091 0.898582 0.636126
O O1 0.500000 0.384242 0.018567
O O2 0.741381 0.481380 0.026404
O O3 0.694468 0.352543 0.100635
O O4 0.750745 0.307514 0.995708
O O5 0.228257 0.133863 0.083854
O O6 0.000000 0.086208 0.023135
O O7 0.245075 0.134494 0.974107
O O8 0.500000 0.421143 0.293987
O O9 0.775673 0.364827 0.315108
O O10 0.729080 0.524991 0.272937
O O11 0.686791 0.376257 0.212673
O O12 0.500000 0.749490 0.317194
O O13 0.289072 0.748713 0.394919
O O14 0.223157 0.692979 0.298174
O O15 0.500000 0.216649 0.969136
O O16 0.500000 0.092625 0.263081
O O17 0.714226 0.148266 0.194730
O O18 0.000000 0.962810 0.146611
O O19 0.701867 0.996323 0.147175
O O20 0.500000 0.881496 0.620126
#
# Coordination Sequence:
#
# PCOD8175262 Si02
#       8
#     8   8   8   8   8   8   8   8
#     4   8  16  34  57  78 105 139 174 216 270 329
#     4  10  20  35  57  84 112 143 179 224 277 333
#     4  10  20  36  59  85 114 148 185 231 288 344
#     4  11  24  39  55  80 114 152 196 242 285 335
#     4  10  22  39  56  77 107 146 191 234 276 326
#     4  10  21  38  60  85 113 148 190 236 285 338
#     4   8  15  30  54  82 108 137 177 224 276 335
#     4   9  17  31  54  83 113 143 176 219 275 338
#
# _framework density 20.096419000000001
#
# number of rings (size 3 to 8) (size 9 to 14) (size 15 to 20)
#    0.000    2.500    0.000    2.625    0.000    5.000 
#    0.000    6.875    0.000    0.000    0.000    0.000 
#    0.000    0.000    0.000    0.000    0.000    0.000 
#
# Total GULP energy -396602.741124 kJ/mol
# GULP energy per Si atom -12393.835660 kJ/mol
# Density = 2.005068 g / cm^3
# Si number density = 20.096419 Si / 1000 Ang^3
#
#
#
# Elastic Constant Matrix: (Units=GPa)
#
#
# Indices 1 2 3 4 5 6 
#
# 1 54.8853 15.1997 36.3774 0.0000 0.0000 0.0000
# 2 15.1997 51.5524 21.1899 0.0000 0.0000 0.0000
# 3 36.3774 21.1899 81.9238 0.0000 0.0000 0.0000
# 4 0.0000 0.0000 0.0000 35.1849 0.0000 0.0000
# 5 0.0000 0.0000 0.0000 0.0000 28.3458 0.0000
# 6 0.0000 0.0000 0.0000 0.0000 0.0000 26.8817
#
#
#
# Elastic Compliance Matrix: (Units=1/GPa)
#
#
# Indices 1 2 3 4 5 6 
#
# 1 0.026313 -0.003307 -0.010828 0.000000 0.000000 0.000000
# 2 -0.003307 0.022121 -0.004253 0.000000 0.000000 0.000000
# 3 -0.010828 -0.004253 0.018115 0.000000 0.000000 0.000000
# 4 0.000000 0.000000 0.000000 0.028421 0.000000 0.000000
# 5 0.000000 0.000000 0.000000 0.000000 0.035279 0.000000
# 6 0.000000 0.000000 0.000000 0.000000 0.000000 0.037200
#
#
# Mechanical properties :
#
#
# Convention : Reuss Voigt Hill
#
# Bulk Modulus (GPa) = 33.58977 37.09949 35.34463
# Shear Modulus (GPa) = 23.34816 25.78877 24.56846
#
# Velocity S-wave (km/s) = 3.41223 3.58614 3.50026
# Velocity P-wave (km/s) = 5.68111 5.97059 5.82765
#
# Compressibility (1/GPa) = 0.02977097
#
# Stress axis : x y z
#
# Youngs Moduli (GPa) = 38.00450 45.20590 55.20336
#
# Poissons Ratio (x) = 0.14950 0.59777
# Poissons Ratio (y) = 0.12569 0.23479
# Poissons Ratio (z) = 0.41153 0.19227
#
# Static dielectric constant tensor:
#      x y z
#    x 3.501420 0.000000 0.000000 
#    y 0.000000 3.477210 0.000000 
#    z 0.000000 0.000000 3.883150 
# 
# 
# High freq. dielectric constant tensor:
#      x y z
#    x 1.772910 0.000000 0.000000 
#    y 0.000000 1.763420 0.000000 
#    z 0.000000 0.000000 1.791880 
# 
# From -- ./inp_files/16576.got.cif
#   From: 2010.03.12/outbox.cif.g09.slc.cpg/sg36_9_cif.got.tgz:16576.got - 2010.04.14 02:13:53.
