data_PCOD8175051
_publ_section_title
;
Structure prediction by ZEFSAII (Michael W. Deem and Ramdas Pophale) SiO2 
 PCOD8175051
Probable space group: C M C 21
;
_chemical_formula_sum "Si O2"
_cell_formula_units_Z 64
_cell_length_a 9.352359
_cell_length_b 20.539695
_cell_length_c 19.038976
_cell_angle_alpha 90.000000
_cell_angle_beta 90.000000
_cell_angle_gamma 90.000000
_cell_volume 3657.284506
_symmetry_space_group_name_H-M "C M C 21"
_symmetry_group_IT_number 36
_symmetry_cell_setting 'orthorhombic'
loop_
_space_group_symop_operation_xyz
x,y,z
-x,-y,1/2+z
x,-y,1/2+z
-x,y,z
1/2+x,1/2+y,z
1/2-x,1/2-y,1/2+z
1/2+x,1/2-y,1/2+z
1/2-x,1/2+y,z
loop_
_atom_site_type_symbol
_atom_site_label
_atom_site_fract_x
_atom_site_fract_y
_atom_site_fract_z
Si Si1 0.337528 0.989867 0.033630
Si Si2 0.834896 0.512745 0.373219
Si Si3 0.832542 0.939842 0.749097
Si Si4 0.333547 0.818940 0.228497
Si Si5 0.668616 0.435041 0.157824
Si Si6 0.666012 0.857811 0.529564
Si Si7 0.833008 0.817211 0.659378
Si Si8 0.832494 0.368148 0.376589
O O1 0.500000 0.975927 0.057555
O O2 0.303582 0.066061 0.041528
O O3 0.229442 0.948429 0.080527
O O4 0.314677 0.966245 0.953848
O O5 0.746584 0.561611 0.323907
O O6 0.769842 0.440137 0.361918
O O7 0.000000 0.516192 0.350555
O O8 0.777946 0.878284 0.704573
O O9 0.000000 0.934871 0.763337
O O10 0.789880 0.005062 0.707796
O O11 0.500000 0.836141 0.216793
O O12 0.238146 0.869689 0.186745
O O13 0.294968 0.747397 0.202297
O O14 0.295623 0.821030 0.311692
O O15 0.500000 0.425203 0.152347
O O16 0.500000 0.840921 0.539398
O O17 0.753792 0.815015 0.584808
O O18 0.722706 0.839003 0.450946
O O19 0.000000 0.823234 0.643693
O O20 0.000000 0.379323 0.387871
#
# Coordination Sequence:
#
# PCOD8175051 Si02
#       8
#     8   8   8   8   8   8   8   8
#     4   9  18  32  52  79 106 136 176 219 262 310
#     4   9  17  31  53  79 103 131 175 222 259 304
#     4  10  20  33  49  75 109 138 168 209 262 317
#     4  10  20  36  57  75 102 142 179 216 258 312
#     4  11  21  33  52  78 108 137 169 216 264 310
#     4   9  17  31  53  77 102 134 175 221 258 303
#     4  10  21  36  52  76 109 144 175 209 261 318
#     4   8  15  30  52  77  99 128 175 218 256 304
#
# _framework density 17.499321999999999
#
# number of rings (size 3 to 8) (size 9 to 14) (size 15 to 20)
#    0.000    2.500    2.500    1.875    0.000    2.000 
#    0.000    3.750    0.000    1.500    0.000    0.000 
#    0.000    0.000    0.000    0.000    0.000    0.000 
#
# Total GULP energy -396781.506405 kJ/mol
# GULP energy per Si atom -12399.422075 kJ/mol
# Density = 1.745949 g / cm^3
# Si number density = 17.499322 Si / 1000 Ang^3
#
#
#
# Elastic Constant Matrix: (Units=GPa)
#
#
# Indices 1 2 3 4 5 6 
#
# 1 56.0585 39.9072 56.3782 0.0000 0.0000 0.0000
# 2 39.9072 81.0275 58.2742 0.0000 0.0000 0.0000
# 3 56.3782 58.2742 145.0217 0.0000 0.0000 0.0000
# 4 0.0000 0.0000 0.0000 28.6376 0.0000 0.0000
# 5 0.0000 0.0000 0.0000 0.0000 32.0904 0.0000
# 6 0.0000 0.0000 0.0000 0.0000 0.0000 22.7010
#
#
#
# Elastic Compliance Matrix: (Units=1/GPa)
#
#
# Indices 1 2 3 4 5 6 
#
# 1 0.034513 -0.010336 -0.009264 0.000000 0.000000 0.000000
# 2 -0.010336 0.020453 -0.004201 0.000000 0.000000 0.000000
# 3 -0.009264 -0.004201 0.012185 0.000000 0.000000 0.000000
# 4 0.000000 0.000000 0.000000 0.034919 0.000000 0.000000
# 5 0.000000 0.000000 0.000000 0.000000 0.031162 0.000000
# 6 0.000000 0.000000 0.000000 0.000000 0.000000 0.044051
#
#
# Mechanical properties :
#
#
# Convention : Reuss Voigt Hill
#
# Bulk Modulus (GPa) = 51.14959 65.69190 58.42074
# Shear Modulus (GPa) = 21.60755 25.18899 23.39827
#
# Velocity S-wave (km/s) = 3.51773 3.79809 3.66060
# Velocity P-wave (km/s) = 6.76699 7.54024 7.16406
#
# Compressibility (1/GPa) = 0.01955050
#
# Stress axis : x y z
#
# Youngs Moduli (GPa) = 28.97444 48.89270 82.06859
#
# Poissons Ratio (x) = 0.50534 0.76029
# Poissons Ratio (y) = 0.29947 0.34474
# Poissons Ratio (z) = 0.26842 0.20538
#
# Static dielectric constant tensor:
#      x y z
#    x 3.051250 0.000000 0.000000 
#    y 0.000000 3.019400 0.000000 
#    z 0.000000 0.000000 3.403840 
# 
# 
# High freq. dielectric constant tensor:
#      x y z
#    x 1.660750 0.000000 0.000000 
#    y 0.000000 1.648800 0.000000 
#    z 0.000000 0.000000 1.690050 
# 
# From -- ./inp_files/13988.got.cif
#   From: 2010.03.12/outbox.cif.g09.slc.cpg/sg36_7_cif.got.tgz:13988.got - 2010.04.14 02:13:53.
