data_PCOD8175020
_publ_section_title
;
Structure prediction by ZEFSAII (Michael W. Deem and Ramdas Pophale) SiO2 
 PCOD8175020
Probable space group: C M C 21
;
_chemical_formula_sum "Si O2"
_cell_formula_units_Z 64
_cell_length_a 9.011613
_cell_length_b 23.895176
_cell_length_c 15.228373
_cell_angle_alpha 90.000000
_cell_angle_beta 90.000000
_cell_angle_gamma 90.000000
_cell_volume 3279.187670
_symmetry_space_group_name_H-M "C M C 21"
_symmetry_group_IT_number 36
_symmetry_cell_setting 'orthorhombic'
loop_
_space_group_symop_operation_xyz
x,y,z
-x,-y,1/2+z
x,-y,1/2+z
-x,y,z
1/2+x,1/2+y,z
1/2-x,1/2-y,1/2+z
1/2+x,1/2-y,1/2+z
1/2-x,1/2+y,z
loop_
_atom_site_type_symbol
_atom_site_label
_atom_site_fract_x
_atom_site_fract_y
_atom_site_fract_z
Si Si1 0.667200 0.262827 0.284370
Si Si2 0.325817 0.195430 0.457987
Si Si3 0.668518 0.623057 0.873619
Si Si4 0.174122 0.226543 0.116714
Si Si5 0.825597 0.988364 0.605963
Si Si6 0.825191 0.376765 0.547395
Si Si7 0.326123 0.424218 0.957354
Si Si8 0.176003 0.994731 0.303524
O O1 0.500000 0.245473 0.255673
O O2 0.716822 0.227487 0.369094
O O3 0.670799 0.328967 0.301077
O O4 0.787324 0.253555 0.209417
O O5 0.500000 0.186201 0.465854
O O6 0.268601 0.232685 0.539466
O O7 0.250569 0.135366 0.460492
O O8 0.500000 0.614559 0.909288
O O9 0.733328 0.566098 0.832839
O O10 0.774848 0.643185 0.951424
O O11 0.258006 0.167224 0.116010
O O12 0.000000 0.215558 0.108315
O O13 0.738846 0.937970 0.562261
O O14 0.000000 0.975142 0.604511
O O15 0.790587 0.043256 0.547941
O O16 0.764441 0.994725 0.705170
O O17 0.000000 0.377748 0.556755
O O18 0.500000 0.414540 0.946793
O O19 0.265479 0.458870 0.872642
O O20 0.000000 0.994338 0.302355
#
# Coordination Sequence:
#
# PCOD8175020 Si02
#       8
#     8   8   8   8   8   8   8   8
#     4  10  22  40  64  92 120 155 200 254 308 356
#     4  10  23  42  60  84 125 164 194 241 309 361
#     4  10  19  40  67  87 118 157 199 251 306 360
#     4  11  24  43  64  87 120 165 204 245 304 365
#     4  10  21  39  62  87 119 158 199 244 298 356
#     4  12  24  39  62  91 120 154 203 256 302 354
#     4  10  21  37  60  88 118 156 204 245 284 350
#     4   9  19  36  61  90 114 151 201 242 287 352
#
# _framework density 19.517028
#
# number of rings (size 3 to 8) (size 9 to 14) (size 15 to 20)
#    0.000    1.750    2.500    1.500    3.500    2.500 
#    0.000    0.625    0.000    0.000    0.000    0.000 
#    0.000    0.000    0.000    0.000    0.000    0.000 
#
# Total GULP energy -396868.048598 kJ/mol
# GULP energy per Si atom -12402.126519 kJ/mol
# Density = 1.947261 g / cm^3
# Si number density = 19.517028 Si / 1000 Ang^3
#
#
#
# Elastic Constant Matrix: (Units=GPa)
#
#
# Indices 1 2 3 4 5 6 
#
# 1 61.3632 46.4662 33.5200 0.0000 0.0000 0.0000
# 2 46.4662 124.4905 35.0862 0.0000 0.0000 0.0000
# 3 33.5200 35.0862 116.3377 0.0000 0.0000 0.0000
# 4 0.0000 0.0000 0.0000 28.1935 0.0000 0.0000
# 5 0.0000 0.0000 0.0000 0.0000 27.0257 0.0000
# 6 0.0000 0.0000 0.0000 0.0000 0.0000 30.9988
#
#
#
# Elastic Compliance Matrix: (Units=1/GPa)
#
#
# Indices 1 2 3 4 5 6 
#
# 1 0.024937 -0.007959 -0.004785 0.000000 0.000000 0.000000
# 2 -0.007959 0.011319 -0.001121 0.000000 0.000000 0.000000
# 3 -0.004785 -0.001121 0.010312 0.000000 0.000000 0.000000
# 4 0.000000 0.000000 0.000000 0.035469 0.000000 0.000000
# 5 0.000000 0.000000 0.000000 0.000000 0.037002 0.000000
# 6 0.000000 0.000000 0.000000 0.000000 0.000000 0.032259
#
#
# Mechanical properties :
#
#
# Convention : Reuss Voigt Hill
#
# Bulk Modulus (GPa) = 53.07916 59.14847 56.11382
# Shear Modulus (GPa) = 26.98217 29.71821 28.35019
#
# Velocity S-wave (km/s) = 3.72222 3.90639 3.81542
# Velocity P-wave (km/s) = 6.76230 7.12168 6.94431
#
# Compressibility (1/GPa) = 0.01883979
#
# Stress axis : x y z
#
# Youngs Moduli (GPa) = 40.10095 88.34426 96.97282
#
# Poissons Ratio (x) = 0.70316 0.46398
# Poissons Ratio (y) = 0.31918 0.10866
# Poissons Ratio (z) = 0.19187 0.09899
#
# Static dielectric constant tensor:
#      x y z
#    x 3.308510 0.000000 0.000000 
#    y 0.000000 3.625940 0.000000 
#    z 0.000000 0.000000 3.757470 
# 
# 
# High freq. dielectric constant tensor:
#      x y z
#    x 1.734360 0.000000 0.000000 
#    y 0.000000 1.773330 0.000000 
#    z 0.000000 0.000000 1.767480 
# 
# From -- ./inp_files/11064.got.cif
#   From: 2010.03.12/outbox.cif.g09.slc.cpg/sg36_6_cif.got.tgz:11064.got - 2010.04.14 02:13:53.
