data_PCOD8175389
_publ_section_title
;
Structure prediction by ZEFSAII (Michael W. Deem and Ramdas Pophale) SiO2 
 PCOD8175389
Probable space group: C M C 21
;
_chemical_formula_sum "Si O2"
_cell_formula_units_Z 64
_cell_length_a 16.230253
_cell_length_b 12.000835
_cell_length_c 14.778688
_cell_angle_alpha 90.000000
_cell_angle_beta 90.000000
_cell_angle_gamma 90.000000
_cell_volume 2878.542428
_symmetry_space_group_name_H-M "C M C 21"
_symmetry_group_IT_number 36
_symmetry_cell_setting 'orthorhombic'
loop_
_space_group_symop_operation_xyz
x,y,z
-x,-y,1/2+z
x,-y,1/2+z
-x,y,z
1/2+x,1/2+y,z
1/2-x,1/2-y,1/2+z
1/2+x,1/2-y,1/2+z
1/2-x,1/2+y,z
loop_
_atom_site_type_symbol
_atom_site_label
_atom_site_fract_x
_atom_site_fract_y
_atom_site_fract_z
Si Si1 0.097273 0.384343 0.759080
Si Si2 0.406674 0.405949 0.646946
Si Si3 0.906469 0.985428 0.973542
Si Si4 0.334475 0.904353 0.366972
Si Si5 0.595258 0.055185 0.059796
Si Si6 0.597089 0.674531 0.329552
Si Si7 0.408105 0.806871 0.033532
Si Si8 0.844943 0.811124 0.374259
O O1 0.143148 0.478959 0.819082
O O2 0.123407 0.387671 0.653549
O O3 0.122700 0.259167 0.788429
O O4 0.000000 0.404655 0.770589
O O5 0.500000 0.448592 0.656870
O O6 0.362154 0.484793 0.570497
O O7 0.363654 0.397949 0.745684
O O8 0.405371 0.278778 0.615115
O O9 0.865473 0.879446 0.922294
O O10 0.000000 0.956254 0.996441
O O11 0.907173 0.092118 0.906656
O O12 0.351293 0.905116 0.474512
O O13 0.386487 0.804976 0.322020
O O14 0.240062 0.871908 0.351742
O O15 0.500000 0.082263 0.038146
O O16 0.611756 0.925379 0.076557
O O17 0.500000 0.654543 0.326260
O O18 0.500000 0.808218 0.988551
O O19 0.340828 0.778160 0.956482
#
# Coordination Sequence:
#
# PCOD8175389 Si02
#       8
#     8   8   8   8   8   8   8   8
#     4  11  23  45  72  95 126 177 233 275 322 403
#     4   8  15  31  56  88 111 150 210 250 290 365
#     4   9  19  37  60  85 116 163 215 253 298 381
#     4  12  25  40  63  97 137 160 211 276 344 387
#     4  10  21  40  68  99 126 168 228 280 328 391
#     4  10  20  36  60  87 122 159 198 254 315 375
#     4   9  16  34  65  90 116 162 221 265 307 384
#     4  11  23  39  62  89 129 167 210 265 335 386
#
# _framework density 22.233474999999999
#
# number of rings (size 3 to 8) (size 9 to 14) (size 15 to 20)
#    0.000    2.000    1.250    3.750    1.750    2.000 
#    9.000    0.000    0.000    0.000    0.000    0.000 
#    0.000    0.000    0.000    0.000    0.000    0.000 
#
# Total GULP energy -396423.139681 kJ/mol
# GULP energy per Si atom -12388.223115 kJ/mol
# Density = 2.218287 g / cm^3
# Si number density = 22.233475 Si / 1000 Ang^3
#
#
#
# Elastic Constant Matrix: (Units=GPa)
#
#
# Indices 1 2 3 4 5 6 
#
# 1 49.6455 10.7519 23.1388 0.0000 0.0000 0.0000
# 2 10.7519 41.7024 5.5663 0.0000 0.0000 0.0000
# 3 23.1388 5.5663 106.9072 0.0000 0.0000 0.0000
# 4 0.0000 0.0000 0.0000 31.2224 0.0000 0.0000
# 5 0.0000 0.0000 0.0000 0.0000 14.1467 0.0000
# 6 0.0000 0.0000 0.0000 0.0000 0.0000 28.0324
#
#
#
# Elastic Compliance Matrix: (Units=1/GPa)
#
#
# Indices 1 2 3 4 5 6 
#
# 1 0.023565 -0.005433 -0.004817 0.000000 0.000000 0.000000
# 2 -0.005433 0.025400 -0.000147 0.000000 0.000000 0.000000
# 3 -0.004817 -0.000147 0.010404 0.000000 0.000000 0.000000
# 4 0.000000 0.000000 0.000000 0.032028 0.000000 0.000000
# 5 0.000000 0.000000 0.000000 0.000000 0.070688 0.000000
# 6 0.000000 0.000000 0.000000 0.000000 0.000000 0.035673
#
#
# Mechanical properties :
#
#
# Convention : Reuss Voigt Hill
#
# Bulk Modulus (GPa) = 25.92335 30.79657 28.35996
# Shear Modulus (GPa) = 21.60671 25.26683 23.43677
#
# Velocity S-wave (km/s) = 3.12077 3.37476 3.25024
# Velocity P-wave (km/s) = 4.96694 5.39137 5.18350
#
# Compressibility (1/GPa) = 0.03857526
#
# Stress axis : x y z
#
# Youngs Moduli (GPa) = 42.43644 39.37060 96.11485
#
# Poissons Ratio (x) = 0.21388 0.46303
# Poissons Ratio (y) = 0.23054 0.01410
# Poissons Ratio (z) = 0.20443 0.00577
#
# Static dielectric constant tensor:
#      x y z
#    x 3.600230 0.000000 0.000000 
#    y 0.000000 4.062810 0.000000 
#    z 0.000000 0.000000 4.331490 
# 
# 
# High freq. dielectric constant tensor:
#      x y z
#    x 1.832140 0.000000 0.000000 
#    y 0.000000 1.874380 0.000000 
#    z 0.000000 0.000000 1.884130 
# 
# From -- ./inp_files/12645.got.cif
#   From: 2010.03.12/outbox.cif.g09.slc.cpg/sg36_7_cif.got.tgz:12645.got - 2010.04.14 02:13:53.
