data_PCOD8175859
_publ_section_title
;
Structure prediction by ZEFSAII (Michael W. Deem and Ramdas Pophale) SiO2 
 PCOD8175859
Probable space group: C M C 21
;
_chemical_formula_sum "Si O2"
_cell_formula_units_Z 48
_cell_length_a 17.528185
_cell_length_b 13.791936
_cell_length_c 9.039114
_cell_angle_alpha 90.000000
_cell_angle_beta 90.000000
_cell_angle_gamma 90.000000
_cell_volume 2185.184167
_symmetry_space_group_name_H-M "C M C 21"
_symmetry_group_IT_number 36
_symmetry_cell_setting 'orthorhombic'
loop_
_space_group_symop_operation_xyz
x,y,z
-x,-y,1/2+z
x,-y,1/2+z
-x,y,z
1/2+x,1/2+y,z
1/2-x,1/2-y,1/2+z
1/2+x,1/2-y,1/2+z
1/2-x,1/2+y,z
loop_
_atom_site_type_symbol
_atom_site_label
_atom_site_fract_x
_atom_site_fract_y
_atom_site_fract_z
Si Si1 0.000000 0.523228 0.486210
Si Si2 0.089477 0.785777 0.154293
Si Si3 0.144557 0.356047 0.889748
Si Si4 0.117723 0.784177 0.642229
Si Si5 0.000000 0.362137 0.270068
Si Si6 0.814298 0.115051 0.406067
Si Si7 0.080998 0.064842 0.914813
O O1 0.076253 0.571761 0.424659
O O2 0.000000 0.409231 0.435951
O O3 0.000000 0.542521 0.662658
O O4 0.123580 0.688806 0.229872
O O5 0.146902 0.810308 0.020786
O O6 0.095088 0.872894 0.269305
O O7 0.000000 0.771427 0.104877
O O8 0.157693 0.272032 0.009697
O O9 0.224833 0.410516 0.907437
O O10 0.070256 0.868629 0.560808
O O11 0.071189 0.707769 0.742033
O O12 0.177887 0.837186 0.745489
O O13 0.852158 0.011391 0.429501
O O14 0.000000 0.008716 0.898826
#
# Coordination Sequence:
#
# PCOD8175859 Si02
#       7
#     4   8   8   8   4   8   8
#     4  10  22  46  66  86 116 168 222 266 318 386
#     4  10  21  39  66  91 126 173 216 262 325 393
#     4  10  22  45  62  87 129 174 210 268 337 377
#     4  10  22  42  64  89 130 168 206 267 328 383
#     4  10  22  42  68  88 120 166 218 264 320 378
#     4  12  23  35  62 102 127 161 219 272 315 390
#     4  10  21  40  63  89 130 170 202 254 333 400
#
# _framework density 21.966113
#
# number of rings (size 3 to 8) (size 9 to 14) (size 15 to 20)
#    0.000    1.667    1.667    2.500    2.333    2.667 
#   18.000    0.000    0.000    0.000    0.000    0.000 
#    0.000    0.000    0.000    0.000    0.000    0.000 
#
# Total GULP energy -297323.199161 kJ/mol
# GULP energy per Si atom -12388.466632 kJ/mol
# Density = 2.191612 g / cm^3
# Si number density = 21.966113 Si / 1000 Ang^3
#
#
#
# Elastic Constant Matrix: (Units=GPa)
#
#
# Indices 1 2 3 4 5 6 
#
# 1 166.5504 35.5189 24.6922 0.0000 0.0000 0.0000
# 2 35.5189 79.9081 9.8383 0.0000 0.0000 0.0000
# 3 24.6922 9.8383 62.4240 0.0000 0.0000 0.0000
# 4 0.0000 0.0000 0.0000 25.4448 0.0000 0.0000
# 5 0.0000 0.0000 0.0000 0.0000 37.3538 0.0000
# 6 0.0000 0.0000 0.0000 0.0000 0.0000 47.8275
#
#
#
# Elastic Compliance Matrix: (Units=1/GPa)
#
#
# Indices 1 2 3 4 5 6 
#
# 1 0.006944 -0.002803 -0.002305 0.000000 0.000000 0.000000
# 2 -0.002803 0.013893 -0.001081 0.000000 0.000000 0.000000
# 3 -0.002305 -0.001081 0.017102 0.000000 0.000000 0.000000
# 4 0.000000 0.000000 0.000000 0.039301 0.000000 0.000000
# 5 0.000000 0.000000 0.000000 0.000000 0.026771 0.000000
# 6 0.000000 0.000000 0.000000 0.000000 0.000000 0.020908
#
#
# Mechanical properties :
#
#
# Convention : Reuss Voigt Hill
#
# Bulk Modulus (GPa) = 39.12163 49.88681 44.50422
# Shear Modulus (GPa) = 34.28974 38.04743 36.16858
#
# Velocity S-wave (km/s) = 3.95527 4.16636 4.06219
# Velocity P-wave (km/s) = 6.22154 6.77531 6.50432
#
# Compressibility (1/GPa) = 0.02556131
#
# Stress axis : x y z
#
# Youngs Moduli (GPa) = 144.01758 71.97753 58.47421
#
# Poissons Ratio (x) = 0.20173 0.13478
# Poissons Ratio (y) = 0.40363 0.06321
# Poissons Ratio (z) = 0.33194 0.07781
#
# Static dielectric constant tensor:
#      x y z
#    x 3.701080 0.000000 0.000000 
#    y 0.000000 3.825980 0.000000 
#    z 0.000000 0.000000 4.138960 
# 
# 
# High freq. dielectric constant tensor:
#      x y z
#    x 1.858650 0.000000 0.000000 
#    y 0.000000 1.856460 0.000000 
#    z 0.000000 0.000000 1.870290 
# 
# From -- ./inp_files/4682.got.cif
#   From: 2010.03.12/outbox.cif.g09.slc.cpg/sg36_3_cif.got.tgz:4682.got - 2010.04.14 02:13:53.
