data_PCOD8175818
_publ_section_title
;
Structure prediction by ZEFSAII (Michael W. Deem and Ramdas Pophale) SiO2 
 PCOD8175818
Probable space group: C M C 21
;
_chemical_formula_sum "Si O2"
_cell_formula_units_Z 56
_cell_length_a 29.584478
_cell_length_b 5.268277
_cell_length_c 15.591409
_cell_angle_alpha 90.000000
_cell_angle_beta 90.000000
_cell_angle_gamma 90.000000
_cell_volume 2430.064923
_symmetry_space_group_name_H-M "C M C 21"
_symmetry_group_IT_number 36
_symmetry_cell_setting 'orthorhombic'
loop_
_space_group_symop_operation_xyz
x,y,z
-x,-y,1/2+z
x,-y,1/2+z
-x,y,z
1/2+x,1/2+y,z
1/2-x,1/2-y,1/2+z
1/2+x,1/2-y,1/2+z
1/2-x,1/2+y,z
loop_
_atom_site_type_symbol
_atom_site_label
_atom_site_fract_x
_atom_site_fract_y
_atom_site_fract_z
Si Si1 0.082236 0.090082 0.695680
Si Si2 0.222950 0.406500 0.405930
Si Si3 0.275024 0.905247 0.203402
Si Si4 0.548999 0.787020 0.864299
Si Si5 0.379259 0.042443 0.962437
Si Si6 0.951895 0.924062 0.018130
Si Si7 0.628023 0.109561 0.644322
O O1 0.057476 0.086123 0.787842
O O2 0.049083 0.000886 0.618970
O O3 0.098352 0.378497 0.681286
O O4 0.120623 0.871285 0.697275
O O5 0.248821 0.660640 0.437600
O O6 0.217873 0.414120 0.304578
O O7 0.172375 0.390652 0.442511
O O8 0.258822 0.627703 0.173947
O O9 0.320608 0.972561 0.154905
O O10 0.500000 0.923351 0.846234
O O11 0.593571 0.962889 0.875647
O O12 0.545136 0.665572 0.957660
O O13 0.405331 0.286965 0.996688
O O14 0.380919 0.843633 0.042373
O O15 0.000000 0.771749 0.004769
#
# Coordination Sequence:
#
# PCOD8175818 Si02
#       7
#     8   8   8   8   8   8   8
#     4  11  24  43  66  98 134 180 224 277 338 406
#     4  10  24  40  65  97 133 174 225 281 341 404
#     4  10  21  39  60  90 126 168 218 280 335 397
#     4  11  24  42  69 100 134 184 230 279 345 412
#     4  11  24  42  68  97 140 177 232 284 348 409
#     4  10  23  44  66  99 140 179 228 284 339 408
#     4  11  24  42  66  95 131 178 225 279 341 408
#
# _framework density 23.044653
#
# number of rings (size 3 to 8) (size 9 to 14) (size 15 to 20)
#    0.000    1.429    1.429    2.571    6.000    2.286 
#    0.000    1.429    0.000    0.000    0.000    0.000 
#    0.000    0.000    0.000    0.000    0.000    0.000 
#
# Total GULP energy -346908.017796 kJ/mol
# GULP energy per Si atom -12389.572064 kJ/mol
# Density = 2.299220 g / cm^3
# Si number density = 23.044653 Si / 1000 Ang^3
#
#
#
# Elastic Constant Matrix: (Units=GPa)
#
#
# Indices 1 2 3 4 5 6 
#
# 1 173.4166 31.8653 31.0101 0.0000 0.0000 0.0000
# 2 31.8653 98.5356 19.0156 0.0000 0.0000 0.0000
# 3 31.0101 19.0156 74.0218 0.0000 0.0000 0.0000
# 4 0.0000 0.0000 0.0000 23.5005 0.0000 0.0000
# 5 0.0000 0.0000 0.0000 0.0000 17.4204 0.0000
# 6 0.0000 0.0000 0.0000 0.0000 0.0000 22.6114
#
#
#
# Elastic Compliance Matrix: (Units=1/GPa)
#
#
# Indices 1 2 3 4 5 6 
#
# 1 0.006480 -0.001654 -0.002290 0.000000 0.000000 0.000000
# 2 -0.001654 0.011100 -0.002159 0.000000 0.000000 0.000000
# 3 -0.002290 -0.002159 0.015023 0.000000 0.000000 0.000000
# 4 0.000000 0.000000 0.000000 0.042552 0.000000 0.000000
# 5 0.000000 0.000000 0.000000 0.000000 0.057404 0.000000
# 6 0.000000 0.000000 0.000000 0.000000 0.000000 0.044225
#
#
# Mechanical properties :
#
#
# Convention : Reuss Voigt Hill
#
# Bulk Modulus (GPa) = 49.02240 56.63956 52.83098
# Shear Modulus (GPa) = 25.53777 30.31202 27.92489
#
# Velocity S-wave (km/s) = 3.33255 3.63072 3.48483
# Velocity P-wave (km/s) = 6.01056 6.49675 6.25838
#
# Compressibility (1/GPa) = 0.02039884
#
# Stress axis : x y z
#
# Youngs Moduli (GPa) = 154.32664 90.09035 66.56305
#
# Poissons Ratio (x) = 0.14897 0.15241
# Poissons Ratio (y) = 0.25519 0.14369
# Poissons Ratio (z) = 0.35337 0.19448
#
# Static dielectric constant tensor:
#      x y z
#    x 4.421070 0.000000 0.000000 
#    y 0.000000 3.854600 0.000000 
#    z 0.000000 0.000000 4.381210 
# 
# 
# High freq. dielectric constant tensor:
#      x y z
#    x 1.922650 0.000000 0.000000 
#    y 0.000000 1.890020 0.000000 
#    z 0.000000 0.000000 1.918590 
# 
# From -- ./inp_files/13149.got.cif
#   From: 2010.03.12/outbox.cif.g09.slc.cpg/sg36_7_cif.got.tgz:13149.got - 2010.04.14 02:13:53.
