data_PCOD8175727
_publ_section_title
;
Structure prediction by ZEFSAII (Michael W. Deem and Ramdas Pophale) SiO2 
 PCOD8175727
Probable space group: C M C 21
;
_chemical_formula_sum "Si O2"
_cell_formula_units_Z 56
_cell_length_a 13.197666
_cell_length_b 20.020754
_cell_length_c 10.231034
_cell_angle_alpha 90.000000
_cell_angle_beta 90.000000
_cell_angle_gamma 90.000000
_cell_volume 2703.317716
_symmetry_space_group_name_H-M "C M C 21"
_symmetry_group_IT_number 36
_symmetry_cell_setting 'orthorhombic'
loop_
_space_group_symop_operation_xyz
x,y,z
-x,-y,1/2+z
x,-y,1/2+z
-x,y,z
1/2+x,1/2+y,z
1/2-x,1/2-y,1/2+z
1/2+x,1/2-y,1/2+z
1/2-x,1/2+y,z
loop_
_atom_site_type_symbol
_atom_site_label
_atom_site_fract_x
_atom_site_fract_y
_atom_site_fract_z
Si Si1 0.116478 0.986447 0.747270
Si Si2 0.756969 0.994607 0.998895
Si Si3 0.882722 0.368882 0.986386
Si Si4 0.886177 0.722511 0.241774
Si Si5 0.188077 0.704889 0.742684
Si Si6 0.387797 0.339287 0.657185
Si Si7 0.693791 0.861049 0.512434
O O1 0.165190 0.010883 0.882169
O O2 0.124807 0.906237 0.741622
O O3 0.000000 0.010192 0.741592
O O4 0.177459 0.020706 0.628385
O O5 0.685009 0.933720 0.962072
O O6 0.685235 0.058917 0.019795
O O7 0.856722 0.336575 0.124097
O O8 0.000000 0.390242 0.982350
O O9 0.857616 0.315487 0.874831
O O10 0.809111 0.784449 0.224467
O O11 0.877884 0.669909 0.123164
O O12 0.000000 0.751208 0.245679
O O13 0.134687 0.777276 0.752666
O O14 0.159213 0.664801 0.872050
O O15 0.500000 0.333543 0.596864
O O16 0.310368 0.338420 0.536076
#
# Coordination Sequence:
#
# PCOD8175727 Si02
#       7
#     8   8   8   8   8   8   8
#     4  10  21  37  60  87 117 154 195 242 295 350
#     4  11  21  40  60  84 119 158 197 240 289 347
#     4  11  24  41  61  85 118 160 198 237 290 353
#     4  10  22  40  60  84 117 154 191 236 295 353
#     4  11  21  37  60  88 115 143 191 246 290 341
#     4   9  19  36  57  81 113 152 187 230 294 351
#     4  10  22  37  58  85 115 149 191 239 283 339
#
# _framework density 20.715285000000002
#
# number of rings (size 3 to 8) (size 9 to 14) (size 15 to 20)
#    0.000    1.714    0.000    6.000    0.000    4.000 
#    0.000    7.857    0.000    0.000    0.000    0.000 
#    0.000    0.000    0.000    0.000    0.000    0.000 
#
# Total GULP energy -347298.470753 kJ/mol
# GULP energy per Si atom -12403.516813 kJ/mol
# Density = 2.066814 g / cm^3
# Si number density = 20.715285 Si / 1000 Ang^3
#
#
#
# Elastic Constant Matrix: (Units=GPa)
#
#
# Indices 1 2 3 4 5 6 
#
# 1 89.6785 6.2943 11.5515 0.0000 0.0000 0.0000
# 2 6.2943 29.5218 -5.1897 0.0000 0.0000 0.0000
# 3 11.5515 -5.1897 118.9712 0.0000 0.0000 0.0000
# 4 0.0000 0.0000 0.0000 21.4400 0.0000 0.0000
# 5 0.0000 0.0000 0.0000 0.0000 26.5171 0.0000
# 6 0.0000 0.0000 0.0000 0.0000 0.0000 17.1430
#
#
#
# Elastic Compliance Matrix: (Units=1/GPa)
#
#
# Indices 1 2 3 4 5 6 
#
# 1 0.011497 -0.002668 -0.001233 0.000000 0.000000 0.000000
# 2 -0.002668 0.034754 0.001775 0.000000 0.000000 0.000000
# 3 -0.001233 0.001775 0.008603 0.000000 0.000000 0.000000
# 4 0.000000 0.000000 0.000000 0.046642 0.000000 0.000000
# 5 0.000000 0.000000 0.000000 0.000000 0.037712 0.000000
# 6 0.000000 0.000000 0.000000 0.000000 0.000000 0.058333
#
#
# Mechanical properties :
#
#
# Convention : Reuss Voigt Hill
#
# Bulk Modulus (GPa) = 19.76183 29.27594 24.51888
# Shear Modulus (GPa) = 22.86671 28.05438 25.46054
#
# Velocity S-wave (km/s) = 3.32604 3.68405 3.50961
# Velocity P-wave (km/s) = 4.93057 5.67975 5.31837
#
# Compressibility (1/GPa) = 0.05060261
#
# Stress axis : x y z
#
# Youngs Moduli (GPa) = 86.97937 28.77350 116.24505
#
# Poissons Ratio (x) = 0.07677 0.14329
# Poissons Ratio (y) = 0.23206 -0.20635
# Poissons Ratio (z) = 0.10722 -0.05108
#
# Static dielectric constant tensor:
#      x y z
#    x 3.847090 0.000000 0.000000 
#    y 0.000000 3.761050 0.000000 
#    z 0.000000 0.000000 3.673970 
# 
# 
# High freq. dielectric constant tensor:
#      x y z
#    x 1.813750 0.000000 0.000000 
#    y 0.000000 1.804180 0.000000 
#    z 0.000000 0.000000 1.812710 
# 
# From -- ./inp_files/4178.got.cif
#   From: 2010.03.12/outbox.cif.g09.slc.cpg/sg36_3_cif.got.tgz:4178.got - 2010.04.14 02:13:53.
