data_PCOD8175074
_publ_section_title
;
Structure prediction by ZEFSAII (Michael W. Deem and Ramdas Pophale) SiO2 
 PCOD8175074
Probable space group: C M C 21
;
_chemical_formula_sum "Si O2"
_cell_formula_units_Z 64
_cell_length_a 8.548310
_cell_length_b 22.627221
_cell_length_c 16.578490
_cell_angle_alpha 90.000000
_cell_angle_beta 90.000000
_cell_angle_gamma 90.000000
_cell_volume 3206.686131
_symmetry_space_group_name_H-M "C M C 21"
_symmetry_group_IT_number 36
_symmetry_cell_setting 'orthorhombic'
loop_
_space_group_symop_operation_xyz
x,y,z
-x,-y,1/2+z
x,-y,1/2+z
-x,y,z
1/2+x,1/2+y,z
1/2-x,1/2-y,1/2+z
1/2+x,1/2-y,1/2+z
1/2-x,1/2+y,z
loop_
_atom_site_type_symbol
_atom_site_label
_atom_site_fract_x
_atom_site_fract_y
_atom_site_fract_z
Si Si1 0.818139 0.784443 0.491770
Si Si2 0.817653 0.035612 0.169132
Si Si3 0.681861 0.715557 0.689831
Si Si4 0.682347 0.464388 0.012469
Si Si5 0.676708 0.160038 0.535821
Si Si6 0.186658 0.988282 0.340800
Si Si7 0.823292 0.660038 0.145780
Si Si8 0.685289 0.644184 0.840800
O O1 0.797288 0.714098 0.472648
O O2 0.707269 0.807604 0.561864
O O3 0.752504 0.820702 0.417094
O O4 0.000000 0.798302 0.511594
O O5 0.791573 0.105477 0.160096
O O6 0.000000 0.021545 0.170694
O O7 0.747183 0.016896 0.257013
O O8 0.746197 0.000000 0.090800
O O9 0.500000 0.701698 0.670008
O O10 0.792730 0.692396 0.619738
O O11 0.702712 0.785902 0.708953
O O12 0.747497 0.679298 0.764508
O O13 0.500000 0.478455 0.010906
O O14 0.752816 0.483104 0.924588
O O15 0.708427 0.394523 0.021505
O O16 0.500000 0.135601 0.532299
O O17 0.251424 0.921847 0.340801
O O18 0.000000 0.992396 0.340800
O O19 0.000000 0.635601 0.149302
O O20 0.500000 0.642622 0.840800
#
# Coordination Sequence:
#
# PCOD8175074 Si02
#       8
#     8   8   8   8   8   8   8   8
#     4   9  18  33  54  77 101 133 172 214 258 309
#     4  10  20  35  55  76 102 139 179 218 260 308
#     4   9  18  33  54  77 101 133 172 214 258 309
#     4  10  20  35  55  76 102 139 179 218 260 308
#     4  10  20  33  51  77 107 137 170 209 259 313
#     4   9  18  31  51  79 101 127 176 225 260 303
#     4  10  20  33  51  77 107 137 170 209 259 313
#     4   9  16  31  55  77  97 127 174 221 256 301
#
# _framework density 19.958299
#
# number of rings (size 3 to 8) (size 9 to 14) (size 15 to 20)
#    0.000    2.500    0.000    2.250    0.000    6.500 
#    0.000    2.500    0.000    1.500    0.000    0.000 
#    0.000    0.000    0.000    0.000    0.000    0.000 
#
# Total GULP energy -396503.837012 kJ/mol
# GULP energy per Si atom -12390.744907 kJ/mol
# Density = 1.991287 g / cm^3
# Si number density = 19.958299 Si / 1000 Ang^3
#
#
#
# Elastic Constant Matrix: (Units=GPa)
#
#
# Indices 1 2 3 4 5 6 
#
# 1 11.6242 4.7703 6.3864 0.0000 0.0000 0.0000
# 2 4.7703 147.8194 61.7219 0.0000 0.0000 0.0000
# 3 6.3864 61.7219 119.2530 0.0000 0.0000 0.0000
# 4 0.0000 0.0000 0.0000 35.9286 0.0000 0.0000
# 5 0.0000 0.0000 0.0000 0.0000 10.3429 0.0000
# 6 0.0000 0.0000 0.0000 0.0000 0.0000 25.2575
#
#
#
# Elastic Compliance Matrix: (Units=1/GPa)
#
#
# Indices 1 2 3 4 5 6 
#
# 1 0.088781 -0.001122 -0.004174 0.000000 0.000000 0.000000
# 2 -0.001122 0.008644 -0.004414 0.000000 0.000000 0.000000
# 3 -0.004174 -0.004414 0.010894 0.000000 0.000000 0.000000
# 4 0.000000 0.000000 0.000000 0.027833 0.000000 0.000000
# 5 0.000000 0.000000 0.000000 0.000000 0.096685 0.000000
# 6 0.000000 0.000000 0.000000 0.000000 0.000000 0.039592
#
#
# Mechanical properties :
#
#
# Convention : Reuss Voigt Hill
#
# Bulk Modulus (GPa) = 11.24874 47.16156 29.20515
# Shear Modulus (GPa) = 15.55299 28.02699 21.78999
#
# Velocity S-wave (km/s) = 2.79458 3.75143 3.30779
# Velocity P-wave (km/s) = 4.00765 6.51504 5.40865
#
# Compressibility (1/GPa) = 0.08889881
#
# Stress axis : x y z
#
# Youngs Moduli (GPa) = 11.26369 115.68365 91.79736
#
# Poissons Ratio (x) = 0.12984 0.38313
# Poissons Ratio (y) = 0.01264 0.40519
# Poissons Ratio (z) = 0.04701 0.51062
#
# Static dielectric constant tensor:
#      x y z
#    x 3.142790 0.000000 0.000000 
#    y 0.000000 3.823400 0.000000 
#    z 0.000000 0.000000 3.894220 
# 
# 
# High freq. dielectric constant tensor:
#      x y z
#    x 1.736660 0.000000 0.000000 
#    y 0.000000 1.792870 0.000000 
#    z 0.000000 0.000000 1.777390 
# 
# From -- ./inp_files/13774.got.cif
#   From: 2010.03.12/outbox.cif.g09.slc.cpg/sg36_7_cif.got.tgz:13774.got - 2010.04.14 02:13:53.
