data_PCOD8175685
_publ_section_title
;
Structure prediction by ZEFSAII (Michael W. Deem and Ramdas Pophale) SiO2 
 PCOD8175685
Probable space group: C M C 21
;
_chemical_formula_sum "Si O2"
_cell_formula_units_Z 64
_cell_length_a 9.292773
_cell_length_b 20.663383
_cell_length_c 18.387550
_cell_angle_alpha 90.000000
_cell_angle_beta 90.000000
_cell_angle_gamma 90.000000
_cell_volume 3530.779698
_symmetry_space_group_name_H-M "C M C 21"
_symmetry_group_IT_number 36
_symmetry_cell_setting 'orthorhombic'
loop_
_space_group_symop_operation_xyz
x,y,z
-x,-y,1/2+z
x,-y,1/2+z
-x,y,z
1/2+x,1/2+y,z
1/2-x,1/2-y,1/2+z
1/2+x,1/2-y,1/2+z
1/2-x,1/2+y,z
loop_
_atom_site_type_symbol
_atom_site_label
_atom_site_fract_x
_atom_site_fract_y
_atom_site_fract_z
Si Si1 0.333694 0.614385 0.889490
Si Si2 0.666217 0.236154 0.889472
Si Si3 0.663266 0.387794 0.559234
Si Si4 0.328923 0.003555 0.138577
Si Si5 0.666433 0.621348 0.382990
Si Si6 0.332035 0.502364 0.286812
Si Si7 0.664992 0.107543 0.531225
Si Si8 0.661927 0.249303 0.531561
O O1 0.500000 0.629346 0.879730
O O2 0.251978 0.676209 0.854078
O O3 0.287798 0.550104 0.847265
O O4 0.294337 0.605241 0.974314
O O5 0.500000 0.217822 0.886425
O O6 0.697550 0.306065 0.852277
O O7 0.714836 0.244683 0.972148
O O8 0.500000 0.412272 0.572270
O O9 0.771804 0.428594 0.607872
O O10 0.678104 0.311956 0.584076
O O11 0.500000 0.006282 0.144620
O O12 0.263594 0.989267 0.216871
O O13 0.273907 0.945791 0.086441
O O14 0.500000 0.613783 0.404927
O O15 0.707580 0.572686 0.318502
O O16 0.754143 0.603930 0.454954
O O17 0.500000 0.497738 0.266284
O O18 0.500000 0.091967 0.513989
O O19 0.681382 0.178938 0.569207
O O20 0.500000 0.252841 0.496472
#
# Coordination Sequence:
#
# PCOD8175685 Si02
#       8
#     8   8   8   8   8   8   8   8
#     4   9  18  33  54  77  99 128 166 203 241 292
#     4   9  16  27  48  78 105 124 150 199 253 292
#     4   9  17  32  55  77  97 127 164 200 240 290
#     4  11  23  35  48  72 104 133 164 205 251 294
#     4   9  18  33  54  78  99 125 166 207 242 288
#     4  10  21  37  53  69  96 135 174 206 238 286
#     4   9  18  33  53  76 101 129 161 201 249 295
#     4   8  15  30  51  73  97 127 163 199 238 289
#
# _framework density 18.126308999999999
#
# number of rings (size 3 to 8) (size 9 to 14) (size 15 to 20)
#    0.000    2.750    0.000    2.250    0.000    5.500 
#    0.000    1.250    0.000    6.000    0.000    0.000 
#    0.000    0.000    0.000    0.000    0.000    0.000 
#
# Total GULP energy -396579.620757 kJ/mol
# GULP energy per Si atom -12393.113149 kJ/mol
# Density = 1.808505 g / cm^3
# Si number density = 18.126309 Si / 1000 Ang^3
#
#
#
# Elastic Constant Matrix: (Units=GPa)
#
#
# Indices 1 2 3 4 5 6 
#
# 1 54.1392 30.6680 23.5114 0.0000 0.0000 0.0000
# 2 30.6680 101.5052 17.2926 0.0000 0.0000 0.0000
# 3 23.5114 17.2926 46.5755 0.0000 0.0000 0.0000
# 4 0.0000 0.0000 0.0000 8.8511 0.0000 0.0000
# 5 0.0000 0.0000 0.0000 0.0000 25.6802 0.0000
# 6 0.0000 0.0000 0.0000 0.0000 0.0000 29.9315
#
#
#
# Elastic Compliance Matrix: (Units=1/GPa)
#
#
# Indices 1 2 3 4 5 6 
#
# 1 0.026875 -0.006201 -0.011264 0.000000 0.000000 0.000000
# 2 -0.006201 0.011948 -0.001306 0.000000 0.000000 0.000000
# 3 -0.011264 -0.001306 0.027642 0.000000 0.000000 0.000000
# 4 0.000000 0.000000 0.000000 0.112980 0.000000 0.000000
# 5 0.000000 0.000000 0.000000 0.000000 0.038941 0.000000
# 6 0.000000 0.000000 0.000000 0.000000 0.000000 0.033410
#
#
# Mechanical properties :
#
#
# Convention : Reuss Voigt Hill
#
# Bulk Modulus (GPa) = 34.57513 38.35153 36.46333
# Shear Modulus (GPa) = 16.72363 21.60909 19.16636
#
# Velocity S-wave (km/s) = 3.04076 3.45648 3.25526
# Velocity P-wave (km/s) = 5.60751 6.09373 5.85567
#
# Compressibility (1/GPa) = 0.02892252
#
# Stress axis : x y z
#
# Youngs Moduli (GPa) = 37.20881 83.69852 36.17736
#
# Poissons Ratio (x) = 0.51901 0.40752
# Poissons Ratio (y) = 0.23073 0.04724
# Poissons Ratio (z) = 0.41914 0.10929
#
# Static dielectric constant tensor:
#      x y z
#    x 3.333560 0.000000 0.000000 
#    y 0.000000 3.896250 0.000000 
#    z 0.000000 0.000000 2.958110 
# 
# 
# High freq. dielectric constant tensor:
#      x y z
#    x 1.701920 0.000000 0.000000 
#    y 0.000000 1.727910 0.000000 
#    z 0.000000 0.000000 1.652900 
# 
# From -- ./inp_files/13773.got.cif
#   From: 2010.03.12/outbox.cif.g09.slc.cpg/sg36_7_cif.got.tgz:13773.got - 2010.04.14 02:13:53.
