data_PCOD8175132
_publ_section_title
;
Structure prediction by ZEFSAII (Michael W. Deem and Ramdas Pophale) SiO2 
 PCOD8175132
Probable space group: C M C 21
;
_chemical_formula_sum "Si O2"
_cell_formula_units_Z 64
_cell_length_a 8.879267
_cell_length_b 19.987289
_cell_length_c 19.860770
_cell_angle_alpha 90.000000
_cell_angle_beta 90.000000
_cell_angle_gamma 90.000000
_cell_volume 3524.740020
_symmetry_space_group_name_H-M "C M C 21"
_symmetry_group_IT_number 36
_symmetry_cell_setting 'orthorhombic'
loop_
_space_group_symop_operation_xyz
x,y,z
-x,-y,1/2+z
x,-y,1/2+z
-x,y,z
1/2+x,1/2+y,z
1/2-x,1/2-y,1/2+z
1/2+x,1/2-y,1/2+z
1/2-x,1/2+y,z
loop_
_atom_site_type_symbol
_atom_site_label
_atom_site_fract_x
_atom_site_fract_y
_atom_site_fract_z
Si Si1 0.323315 0.173665 0.206020
Si Si2 0.678717 0.066386 0.466159
Si Si3 0.329006 0.673752 0.716977
Si Si4 0.675700 0.686420 0.066356
Si Si5 0.175937 0.421064 0.319244
Si Si6 0.825332 0.174354 0.560877
Si Si7 0.676712 0.928336 0.815751
Si Si8 0.675592 0.572997 0.958569
O O1 0.500000 0.162270 0.191856
O O2 0.294780 0.248726 0.232073
O O3 0.235212 0.159310 0.137447
O O4 0.253999 0.123453 0.261941
O O5 0.500000 0.063337 0.469414
O O6 0.738070 0.119155 0.519135
O O7 0.735350 0.086949 0.391253
O O8 0.740699 0.993295 0.484228
O O9 0.500000 0.655943 0.737072
O O10 0.215346 0.629644 0.760019
O O11 0.299768 0.657932 0.639038
O O12 0.500000 0.702708 0.072196
O O13 0.761054 0.753053 0.043016
O O14 0.711033 0.630745 0.011385
O O15 0.220476 0.495946 0.295576
O O16 0.265325 0.401759 0.386485
O O17 0.000000 0.417217 0.335895
O O18 0.000000 0.173209 0.541628
O O19 0.500000 0.917497 0.814290
O O20 0.500000 0.557158 0.953299
#
# Coordination Sequence:
#
# PCOD8175132 Si02
#       8
#     8   8   8   8   8   8   8   8
#     4   9  18  35  56  75 101 137 174 214 263 316
#     4  10  20  35  56  81 109 141 179 222 264 313
#     4   9  19  34  52  75 104 138 171 209 261 319
#     4  10  21  36  54  78 106 137 178 223 264 311
#     4  10  20  34  54  79 105 135 175 221 264 313
#     4  10  21  37  56  79 108 141 177 217 266 321
#     4   8  17  34  53  75 102 133 171 212 257 308
#     4  10  21  37  55  76 107 144 179 220 269 319
#
# _framework density 18.157368000000002
#
# number of rings (size 3 to 8) (size 9 to 14) (size 15 to 20)
#    0.000    2.500    0.000    3.375    0.000    6.500 
#    0.000    8.750    0.000    0.000    0.000    0.000 
#    0.000    0.000    0.000    0.000    0.000    0.000 
#
# Total GULP energy -396841.886483 kJ/mol
# GULP energy per Si atom -12401.308953 kJ/mol
# Density = 1.811604 g / cm^3
# Si number density = 18.157368 Si / 1000 Ang^3
#
#
#
# Elastic Constant Matrix: (Units=GPa)
#
#
# Indices 1 2 3 4 5 6 
#
# 1 78.4963 55.0372 47.9956 0.0000 0.0000 0.0000
# 2 55.0372 113.9753 81.5447 0.0000 0.0000 0.0000
# 3 47.9956 81.5447 97.8375 0.0000 0.0000 0.0000
# 4 0.0000 0.0000 0.0000 39.2517 0.0000 0.0000
# 5 0.0000 0.0000 0.0000 0.0000 32.5821 0.0000
# 6 0.0000 0.0000 0.0000 0.0000 0.0000 31.8972
#
#
#
# Elastic Compliance Matrix: (Units=1/GPa)
#
#
# Indices 1 2 3 4 5 6 
#
# 1 0.019984 -0.006530 -0.004361 0.000000 0.000000 0.000000
# 2 -0.006530 0.023868 -0.016690 0.000000 0.000000 0.000000
# 3 -0.004361 -0.016690 0.026271 0.000000 0.000000 0.000000
# 4 0.000000 0.000000 0.000000 0.025477 0.000000 0.000000
# 5 0.000000 0.000000 0.000000 0.000000 0.030692 0.000000
# 6 0.000000 0.000000 0.000000 0.000000 0.000000 0.031351
#
#
# Mechanical properties :
#
#
# Convention : Reuss Voigt Hill
#
# Bulk Modulus (GPa) = 66.83855 73.27379 70.05617
# Shear Modulus (GPa) = 22.95772 27.79499 25.37635
#
# Velocity S-wave (km/s) = 3.55966 3.91677 3.74248
# Velocity P-wave (km/s) = 7.33386 7.80367 7.57241
#
# Compressibility (1/GPa) = 0.01496143
#
# Stress axis : x y z
#
# Youngs Moduli (GPa) = 50.03882 41.89696 38.06491
#
# Poissons Ratio (x) = 0.27359 0.16600
# Poissons Ratio (y) = 0.32676 0.63530
# Poissons Ratio (z) = 0.21822 0.69926
#
# Static dielectric constant tensor:
#      x y z
#    x 3.320530 0.000000 0.000000 
#    y 0.000000 3.271740 0.000000 
#    z 0.000000 0.000000 3.428260 
# 
# 
# High freq. dielectric constant tensor:
#      x y z
#    x 1.702890 0.000000 0.000000 
#    y 0.000000 1.707250 0.000000 
#    z 0.000000 0.000000 1.705020 
# 
# From -- ./inp_files/15701.got.cif
#   From: 2010.03.12/outbox.cif.g09.slc.cpg/sg36_8_cif.got.tgz:15701.got - 2010.04.14 02:13:53.
