data_PCOD8175693
_publ_section_title
;
Structure prediction by ZEFSAII (Michael W. Deem and Ramdas Pophale) SiO2 
 PCOD8175693
Probable space group: C M C 21
;
_chemical_formula_sum "Si O2"
_cell_formula_units_Z 48
_cell_length_a 9.043718
_cell_length_b 29.953328
_cell_length_c 8.881460
_cell_angle_alpha 90.000000
_cell_angle_beta 90.000000
_cell_angle_gamma 90.000000
_cell_volume 2405.893829
_symmetry_space_group_name_H-M "C M C 21"
_symmetry_group_IT_number 36
_symmetry_cell_setting 'orthorhombic'
loop_
_space_group_symop_operation_xyz
x,y,z
-x,-y,1/2+z
x,-y,1/2+z
-x,y,z
1/2+x,1/2+y,z
1/2-x,1/2-y,1/2+z
1/2+x,1/2-y,1/2+z
1/2-x,1/2+y,z
loop_
_atom_site_type_symbol
_atom_site_label
_atom_site_fract_x
_atom_site_fract_y
_atom_site_fract_z
Si Si1 0.670187 0.556696 0.674600
Si Si2 0.327613 0.111823 0.174546
Si Si3 0.329448 0.300867 0.604670
Si Si4 0.329378 0.278198 0.950188
Si Si5 0.327737 0.866077 0.015253
Si Si6 0.170723 0.033390 0.014890
O O1 0.500000 0.571301 0.661673
O O2 0.770314 0.599396 0.639523
O O3 0.706982 0.517578 0.556679
O O4 0.709218 0.539525 0.840593
O O5 0.500000 0.117952 0.142497
O O6 0.240803 0.150293 0.084852
O O7 0.291531 0.114226 0.351241
O O8 0.273591 0.064311 0.116453
O O9 0.500000 0.303684 0.558572
O O10 0.306951 0.283629 0.773101
O O11 0.247219 0.268020 0.491634
O O12 0.500000 0.276878 0.997099
O O13 0.253305 0.318919 0.038967
O O14 0.500000 0.857714 0.040259
O O15 0.000000 0.044582 0.050884
#
# Coordination Sequence:
#
# PCOD8175693 Si02
#       6
#     8   8   8   8   8   8
#     4  10  21  37  58  83 110 143 183 226 273 325
#     4  10  21  37  57  81 110 145 184 226 273 324
#     4  10  21  37  58  83 111 145 184 226 273 324
#     4  10  21  37  58  83 111 145 184 226 273 324
#     4  10  21  37  57  81 110 145 184 226 273 324
#     4  10  21  37  58  83 110 143 183 226 273 325
#
# _framework density 19.951003
#
# number of rings (size 3 to 8) (size 9 to 14) (size 15 to 20)
#    0.000    2.000    0.000    3.000    0.000    8.000 
#    0.000    0.000    0.000    0.000    0.000    0.000 
#    0.000    0.000    0.000    0.000    0.000    0.000 
#
# Total GULP energy -297759.267311 kJ/mol
# GULP energy per Si atom -12406.636138 kJ/mol
# Density = 1.990559 g / cm^3
# Si number density = 19.951003 Si / 1000 Ang^3
#
#
#
# Elastic Constant Matrix: (Units=GPa)
#
#
# Indices 1 2 3 4 5 6 
#
# 1 91.3977 20.8935 14.7608 0.0000 0.0000 0.0000
# 2 20.8935 48.0885 -4.5445 0.0000 0.0000 0.0000
# 3 14.7608 -4.5445 29.8753 0.0000 0.0000 0.0000
# 4 0.0000 0.0000 0.0000 38.4635 0.0000 0.0000
# 5 0.0000 0.0000 0.0000 0.0000 31.0439 0.0000
# 6 0.0000 0.0000 0.0000 0.0000 0.0000 40.1709
#
#
#
# Elastic Compliance Matrix: (Units=1/GPa)
#
#
# Indices 1 2 3 4 5 6 
#
# 1 0.013735 -0.006705 -0.007806 0.000000 0.000000 0.000000
# 2 -0.006705 0.024372 0.007020 0.000000 0.000000 0.000000
# 3 -0.007806 0.007020 0.038397 0.000000 0.000000 0.000000
# 4 0.000000 0.000000 0.000000 0.025999 0.000000 0.000000
# 5 0.000000 0.000000 0.000000 0.000000 0.032212 0.000000
# 6 0.000000 0.000000 0.000000 0.000000 0.000000 0.024894
#
#
# Mechanical properties :
#
#
# Convention : Reuss Voigt Hill
#
# Bulk Modulus (GPa) = 16.25445 25.73122 20.99283
# Shear Modulus (GPa) = 25.62825 31.15245 28.39035
#
# Velocity S-wave (km/s) = 3.58796 3.95580 3.77636
# Velocity P-wave (km/s) = 5.03284 5.81289 5.43687
#
# Compressibility (1/GPa) = 0.06152163
#
# Stress axis : x y z
#
# Youngs Moduli (GPa) = 72.80863 41.03129 26.04360
#
# Poissons Ratio (x) = 0.27512 0.20330
# Poissons Ratio (y) = 0.48819 -0.18283
# Poissons Ratio (z) = 0.56834 -0.28805
#
# Static dielectric constant tensor:
#      x y z
#    x 3.641560 0.000000 0.000000 
#    y 0.000000 3.613630 0.000000 
#    z 0.000000 0.000000 3.511870 
# 
# 
# High freq. dielectric constant tensor:
#      x y z
#    x 1.783670 0.000000 0.000000 
#    y 0.000000 1.786780 0.000000 
#    z 0.000000 0.000000 1.770780 
# 
# From -- ./inp_files/2642.got.cif
#   From: 2010.03.12/outbox.cif.g09.slc.cpg/sg36_2_cif.got.tgz:2642.got - 2010.04.14 02:13:53.
