data_PCOD8175123
_publ_section_title
;
Structure prediction by ZEFSAII (Michael W. Deem and Ramdas Pophale) SiO2 
 PCOD8175123
Probable space group: C M C 21
;
_chemical_formula_sum "Si O2"
_cell_formula_units_Z 64
_cell_length_a 8.993732
_cell_length_b 28.048298
_cell_length_c 13.966500
_cell_angle_alpha 90.000000
_cell_angle_beta 90.000000
_cell_angle_gamma 90.000000
_cell_volume 3523.173581
_symmetry_space_group_name_H-M "C M C 21"
_symmetry_group_IT_number 36
_symmetry_cell_setting 'orthorhombic'
loop_
_space_group_symop_operation_xyz
x,y,z
-x,-y,1/2+z
x,-y,1/2+z
-x,y,z
1/2+x,1/2+y,z
1/2-x,1/2-y,1/2+z
1/2+x,1/2-y,1/2+z
1/2-x,1/2+y,z
loop_
_atom_site_type_symbol
_atom_site_label
_atom_site_fract_x
_atom_site_fract_y
_atom_site_fract_z
Si Si1 0.173653 0.758979 0.572980
Si Si2 0.826590 0.323650 0.929736
Si Si3 0.325960 0.504867 0.084712
Si Si4 0.673193 0.257298 0.790759
Si Si5 0.674988 0.174086 0.932680
Si Si6 0.173291 0.497989 0.783396
Si Si7 0.174495 0.073190 0.910781
Si Si8 0.327000 0.930198 0.958417
O O1 0.213374 0.710026 0.519092
O O2 0.223088 0.751208 0.681709
O O3 0.268130 0.802831 0.531439
O O4 0.000000 0.771505 0.562872
O O5 0.752357 0.303640 0.833779
O O6 0.766433 0.376357 0.952086
O O7 0.000000 0.325923 0.909254
O O8 0.500000 0.499697 0.103802
O O9 0.244435 0.517486 0.183158
O O10 0.289285 0.547245 0.010841
O O11 0.265281 0.455360 0.042306
O O12 0.500000 0.266651 0.800743
O O13 0.719095 0.209334 0.846217
O O14 0.500000 0.164627 0.939188
O O15 0.759281 0.125471 0.913957
O O16 0.250027 0.545746 0.822620
O O17 0.201928 0.454782 0.856352
O O18 0.000000 0.508527 0.769217
O O19 0.000000 0.075398 0.891167
O O20 0.500000 0.932379 0.986830
#
# Coordination Sequence:
#
# PCOD8175123 Si02
#       8
#     8   8   8   8   8   8   8   8
#     4   9  18  34  53  73 102 138 171 207 256 309
#     4   9  18  33  53  76 102 133 170 212 257 304
#     4  10  21  36  54  77 105 137 173 213 259 312
#     4   9  19  34  51  74 104 137 173 212 257 309
#     4  10  20  34  53  78 105 134 173 218 261 306
#     4  10  20  35  55  78 106 138 174 217 261 307
#     4  10  21  37  55  77 107 141 177 216 261 312
#     4   9  19  35  54  77 103 134 173 215 260 307
#
# _framework density 18.165441000000001
#
# number of rings (size 3 to 8) (size 9 to 14) (size 15 to 20)
#    0.000    2.500    0.000    1.500    0.000    5.500 
#    0.000    5.000    0.000    0.000    0.000    0.000 
#    0.000    0.000    0.000    0.000    0.000    0.000 
#
# Total GULP energy -396912.984080 kJ/mol
# GULP energy per Si atom -12403.530752 kJ/mol
# Density = 1.812410 g / cm^3
# Si number density = 18.165441 Si / 1000 Ang^3
#
#
#
# Elastic Constant Matrix: (Units=GPa)
#
#
# Indices 1 2 3 4 5 6 
#
# 1 57.1938 13.6325 22.0298 0.0000 0.0000 0.0000
# 2 13.6325 70.9194 -2.9916 0.0000 0.0000 0.0000
# 3 22.0298 -2.9916 83.4854 0.0000 0.0000 0.0000
# 4 0.0000 0.0000 0.0000 14.4279 0.0000 0.0000
# 5 0.0000 0.0000 0.0000 0.0000 34.2646 0.0000
# 6 0.0000 0.0000 0.0000 0.0000 0.0000 30.9410
#
#
#
# Elastic Compliance Matrix: (Units=1/GPa)
#
#
# Indices 1 2 3 4 5 6 
#
# 1 0.020643 -0.004204 -0.005598 0.000000 0.000000 0.000000
# 2 -0.004204 0.014978 0.001646 0.000000 0.000000 0.000000
# 3 -0.005598 0.001646 0.013514 0.000000 0.000000 0.000000
# 4 0.000000 0.000000 0.000000 0.069310 0.000000 0.000000
# 5 0.000000 0.000000 0.000000 0.000000 0.029185 0.000000
# 6 0.000000 0.000000 0.000000 0.000000 0.000000 0.032320
#
#
# Mechanical properties :
#
#
# Convention : Reuss Voigt Hill
#
# Bulk Modulus (GPa) = 30.46612 30.77111 30.61861
# Shear Modulus (GPa) = 24.13102 27.85522 25.99312
#
# Velocity S-wave (km/s) = 3.64868 3.92014 3.78684
# Velocity P-wave (km/s) = 5.87864 6.12096 6.00102
#
# Compressibility (1/GPa) = 0.03282335
#
# Stress axis : x y z
#
# Youngs Moduli (GPa) = 48.44342 66.76416 73.99600
#
# Poissons Ratio (x) = 0.28069 0.41421
# Poissons Ratio (y) = 0.20366 -0.12180
# Poissons Ratio (z) = 0.27117 -0.10990
#
# Static dielectric constant tensor:
#      x y z
#    x 3.375140 0.000000 0.000000 
#    y 0.000000 3.398840 0.000000 
#    z 0.000000 0.000000 3.452560 
# 
# 
# High freq. dielectric constant tensor:
#      x y z
#    x 1.708150 0.000000 0.000000 
#    y 0.000000 1.704740 0.000000 
#    z 0.000000 0.000000 1.705190 
# 
# From -- ./inp_files/11204.got.cif
#   From: 2010.03.12/outbox.cif.g09.slc.cpg/sg36_6_cif.got.tgz:11204.got - 2010.04.14 02:13:53.
