data_PCOD8175646
_publ_section_title
;
Structure prediction by ZEFSAII (Michael W. Deem and Ramdas Pophale) SiO2 
 PCOD8175646
Probable space group: C M C 21
;
_chemical_formula_sum "Si O2"
_cell_formula_units_Z 48
_cell_length_a 9.623963
_cell_length_b 30.337459
_cell_length_c 9.099695
_cell_angle_alpha 90.000000
_cell_angle_beta 90.000000
_cell_angle_gamma 90.000000
_cell_volume 2656.806855
_symmetry_space_group_name_H-M "C M C 21"
_symmetry_group_IT_number 36
_symmetry_cell_setting 'orthorhombic'
loop_
_space_group_symop_operation_xyz
x,y,z
-x,-y,1/2+z
x,-y,1/2+z
-x,y,z
1/2+x,1/2+y,z
1/2-x,1/2-y,1/2+z
1/2+x,1/2-y,1/2+z
1/2-x,1/2+y,z
loop_
_atom_site_type_symbol
_atom_site_label
_atom_site_fract_x
_atom_site_fract_y
_atom_site_fract_z
Si Si1 0.661239 0.868737 0.431270
Si Si2 0.339246 0.791706 0.926683
Si Si3 0.340740 0.119360 0.267929
Si Si4 0.340294 0.450624 0.401551
Si Si5 0.340541 0.461855 0.742740
Si Si6 0.162464 0.719391 0.766155
O O1 0.500000 0.878336 0.401022
O O2 0.694555 0.863941 0.603764
O O3 0.747941 0.908513 0.359666
O O4 0.709645 0.823976 0.353707
O O5 0.500000 0.780171 0.897200
O O6 0.307137 0.841810 0.881368
O O7 0.246650 0.760472 0.826820
O O8 0.299362 0.786445 0.096136
O O9 0.500000 0.104280 0.278032
O O10 0.247546 0.077743 0.313349
O O11 0.500000 0.438970 0.367325
O O12 0.318323 0.463807 0.569638
O O13 0.287685 0.491694 0.305585
O O14 0.500000 0.453758 0.787295
O O15 0.000000 0.728630 0.789277
#
# Coordination Sequence:
#
# PCOD8175646 Si02
#       6
#     8   8   8   8   8   8
#     4   9  18  33  51  71  98 131 165 203 248 296
#     4  10  21  36  54  77 104 134 169 209 253 302
#     4   9  18  33  51  71  98 131 165 203 248 296
#     4   9  18  32  49  70  97 128 162 201 245 293
#     4   9  18  32  49  70  97 128 162 201 245 293
#     4  10  21  36  54  77 104 134 169 209 253 302
#
# _framework density 18.066801000000002
#
# number of rings (size 3 to 8) (size 9 to 14) (size 15 to 20)
#    0.000    2.667    0.000    1.000    0.000    5.333 
#    0.000    3.333    0.000    0.000    0.000    0.000 
#    0.000    0.000    0.000    0.000    0.000    0.000 
#
# Total GULP energy -297681.747325 kJ/mol
# GULP energy per Si atom -12403.406139 kJ/mol
# Density = 1.802568 g / cm^3
# Si number density = 18.066801 Si / 1000 Ang^3
#
#
#
# Elastic Constant Matrix: (Units=GPa)
#
#
# Indices 1 2 3 4 5 6 
#
# 1 46.7256 29.1871 13.4415 0.0000 0.0000 0.0000
# 2 29.1871 53.4336 2.9413 0.0000 0.0000 0.0000
# 3 13.4415 2.9413 36.5817 0.0000 0.0000 0.0000
# 4 0.0000 0.0000 0.0000 37.7096 0.0000 0.0000
# 5 0.0000 0.0000 0.0000 0.0000 23.5535 0.0000
# 6 0.0000 0.0000 0.0000 0.0000 0.0000 41.9450
#
#
#
# Elastic Compliance Matrix: (Units=1/GPa)
#
#
# Indices 1 2 3 4 5 6 
#
# 1 0.037124 -0.019614 -0.012064 0.000000 0.000000 0.000000
# 2 -0.019614 0.029161 0.004862 0.000000 0.000000 0.000000
# 3 -0.012064 0.004862 0.031378 0.000000 0.000000 0.000000
# 4 0.000000 0.000000 0.000000 0.026518 0.000000 0.000000
# 5 0.000000 0.000000 0.000000 0.000000 0.042456 0.000000
# 6 0.000000 0.000000 0.000000 0.000000 0.000000 0.023841
#
#
# Mechanical properties :
#
#
# Convention : Reuss Voigt Hill
#
# Bulk Modulus (GPa) = 22.71089 25.32005 24.01547
# Shear Modulus (GPa) = 19.32094 26.71970 23.02032
#
# Velocity S-wave (km/s) = 3.27374 3.84987 3.57344
# Velocity P-wave (km/s) = 5.18533 5.81439 5.50885
#
# Compressibility (1/GPa) = 0.04403174
#
# Stress axis : x y z
#
# Youngs Moduli (GPa) = 26.93686 34.29234 31.86964
#
# Poissons Ratio (x) = 0.67261 0.38447
# Poissons Ratio (y) = 0.52834 -0.15496
# Poissons Ratio (z) = 0.32496 -0.16674
#
# Static dielectric constant tensor:
#      x y z
#    x 3.334610 0.000000 0.000000 
#    y 0.000000 3.386810 0.000000 
#    z 0.000000 0.000000 3.325240 
# 
# 
# High freq. dielectric constant tensor:
#      x y z
#    x 1.695180 0.000000 0.000000 
#    y 0.000000 1.705130 0.000000 
#    z 0.000000 0.000000 1.697880 
# 
# From -- ./inp_files/2687.got.cif
#   From: 2010.03.12/outbox.cif.g09.slc.cpg/sg36_2_cif.got.tgz:2687.got - 2010.04.14 02:13:53.
