data_PCOD8175359
_publ_section_title
;
Structure prediction by ZEFSAII (Michael W. Deem and Ramdas Pophale) SiO2 
 PCOD8175359
Probable space group: C M C 21
;
_chemical_formula_sum "Si O2"
_cell_formula_units_Z 64
_cell_length_a 8.689966
_cell_length_b 22.783749
_cell_length_c 16.357622
_cell_angle_alpha 90.000000
_cell_angle_beta 90.000000
_cell_angle_gamma 90.000000
_cell_volume 3238.645648
_symmetry_space_group_name_H-M "C M C 21"
_symmetry_group_IT_number 36
_symmetry_cell_setting 'orthorhombic'
loop_
_space_group_symop_operation_xyz
x,y,z
-x,-y,1/2+z
x,-y,1/2+z
-x,y,z
1/2+x,1/2+y,z
1/2-x,1/2-y,1/2+z
1/2+x,1/2-y,1/2+z
1/2-x,1/2+y,z
loop_
_atom_site_type_symbol
_atom_site_label
_atom_site_fract_x
_atom_site_fract_y
_atom_site_fract_z
Si Si1 0.319333 0.963893 0.163990
Si Si2 0.816957 0.593287 0.214885
Si Si3 0.668707 0.548133 0.945559
Si Si4 0.824687 0.120138 0.787083
Si Si5 0.677504 0.139182 0.046431
Si Si6 0.817852 0.285402 0.397104
Si Si7 0.819863 0.659066 0.378199
Si Si8 0.825577 0.925190 0.997313
O O1 0.500000 0.966316 0.147341
O O2 0.280096 0.905893 0.215722
O O3 0.261236 0.025473 0.204540
O O4 0.229333 0.953577 0.080937
O O5 0.754421 0.634136 0.138936
O O6 0.758635 0.622074 0.299736
O O7 0.000000 0.593199 0.213963
O O8 0.500000 0.564538 0.981789
O O9 0.686860 0.571237 0.855353
O O10 0.685927 0.478784 0.933939
O O11 0.797232 0.575639 0.004931
O O12 0.756909 0.181033 0.820447
O O13 0.000000 0.130560 0.757236
O O14 0.500000 0.152925 0.054916
O O15 0.747976 0.188913 0.984688
O O16 0.774746 0.218469 0.385336
O O17 0.000000 0.294298 0.394074
O O18 0.785439 0.624930 0.462375
O O19 0.000000 0.672714 0.371581
O O20 0.000000 0.900978 0.005365
#
# Coordination Sequence:
#
# PCOD8175359 Si02
#       8
#     8   8   8   8   8   8   8   8
#     4  11  21  36  59  89 120 148 191 240 291 355
#     4   9  19  36  60  89 116 148 193 243 297 356
#     4   9  18  32  54  84 116 147 184 229 285 347
#     4  10  20  36  58  85 116 152 190 235 291 348
#     4   9  17  34  60  85 111 147 191 240 290 346
#     4  10  21  39  61  84 114 153 202 249 293 348
#     4  11  23  40  60  83 117 159 202 247 297 351
#     4  11  22  37  56  83 120 156 189 233 294 353
#
# _framework density 19.761346
#
# number of rings (size 3 to 8) (size 9 to 14) (size 15 to 20)
#    0.000    2.000    1.250    2.625    0.000    1.500 
#    2.250    3.125    0.000    0.000    0.000    0.000 
#    0.000    0.000    0.000    0.000    0.000    0.000 
#
# Total GULP energy -396575.842880 kJ/mol
# GULP energy per Si atom -12392.995090 kJ/mol
# Density = 1.971637 g / cm^3
# Si number density = 19.761346 Si / 1000 Ang^3
#
#
#
# Elastic Constant Matrix: (Units=GPa)
#
#
# Indices 1 2 3 4 5 6 
#
# 1 42.3199 15.5186 16.3336 0.0000 0.0000 0.0000
# 2 15.5186 100.6259 43.9323 0.0000 0.0000 0.0000
# 3 16.3336 43.9323 71.6129 0.0000 0.0000 0.0000
# 4 0.0000 0.0000 0.0000 27.7890 0.0000 0.0000
# 5 0.0000 0.0000 0.0000 0.0000 25.1453 0.0000
# 6 0.0000 0.0000 0.0000 0.0000 0.0000 31.0024
#
#
#
# Elastic Compliance Matrix: (Units=1/GPa)
#
#
# Indices 1 2 3 4 5 6 
#
# 1 0.026189 -0.001955 -0.004774 0.000000 0.000000 0.000000
# 2 -0.001955 0.013719 -0.007970 0.000000 0.000000 0.000000
# 3 -0.004774 -0.007970 0.019942 0.000000 0.000000 0.000000
# 4 0.000000 0.000000 0.000000 0.035985 0.000000 0.000000
# 5 0.000000 0.000000 0.000000 0.000000 0.039769 0.000000
# 6 0.000000 0.000000 0.000000 0.000000 0.000000 0.032256
#
#
# Mechanical properties :
#
#
# Convention : Reuss Voigt Hill
#
# Bulk Modulus (GPa) = 32.83836 40.68085 36.75960
# Shear Modulus (GPa) = 24.10692 26.03894 25.07293
#
# Velocity S-wave (km/s) = 3.49650 3.63391 3.56587
# Velocity P-wave (km/s) = 5.74058 6.18368 5.96624
#
# Compressibility (1/GPa) = 0.03045219
#
# Stress axis : x y z
#
# Youngs Moduli (GPa) = 38.18414 72.89140 50.14420
#
# Poissons Ratio (x) = 0.14247 0.23940
# Poissons Ratio (y) = 0.07463 0.39967
# Poissons Ratio (z) = 0.18230 0.58098
#
# Static dielectric constant tensor:
#      x y z
#    x 3.517290 0.000000 0.000000 
#    y 0.000000 3.555990 0.000000 
#    z 0.000000 0.000000 3.853150 
# 
# 
# High freq. dielectric constant tensor:
#      x y z
#    x 1.758830 0.000000 0.000000 
#    y 0.000000 1.762580 0.000000 
#    z 0.000000 0.000000 1.770770 
# 
# From -- ./inp_files/11006.got.cif
#   From: 2010.03.12/outbox.cif.g09.slc.cpg/sg36_6_cif.got.tgz:11006.got - 2010.04.14 02:13:53.
