data_PCOD8175446
_publ_section_title
;
Structure prediction by ZEFSAII (Michael W. Deem and Ramdas Pophale) SiO2 
 PCOD8175446
Probable space group: C M C 21
;
_chemical_formula_sum "Si O2"
_cell_formula_units_Z 48
_cell_length_a 8.483580
_cell_length_b 30.464402
_cell_length_c 9.369535
_cell_angle_alpha 90.000000
_cell_angle_beta 90.000000
_cell_angle_gamma 90.000000
_cell_volume 2421.530007
_symmetry_space_group_name_H-M "C M C 21"
_symmetry_group_IT_number 36
_symmetry_cell_setting 'orthorhombic'
loop_
_space_group_symop_operation_xyz
x,y,z
-x,-y,1/2+z
x,-y,1/2+z
-x,y,z
1/2+x,1/2+y,z
1/2-x,1/2-y,1/2+z
1/2+x,1/2-y,1/2+z
1/2-x,1/2+y,z
loop_
_atom_site_type_symbol
_atom_site_label
_atom_site_fract_x
_atom_site_fract_y
_atom_site_fract_z
Si Si1 0.183016 0.137202 0.246570
Si Si2 0.821577 0.536694 0.933983
Si Si3 0.180755 0.456832 0.761028
Si Si4 0.683503 0.706977 0.751169
Si Si5 0.814415 0.633262 0.940703
Si Si6 0.316527 0.210532 0.440200
O O1 0.216698 0.086640 0.282405
O O2 0.279922 0.165505 0.359828
O O3 0.000000 0.147610 0.265015
O O4 0.233903 0.150208 0.086076
O O5 0.738980 0.496065 0.852845
O O6 0.746874 0.584711 0.901208
O O7 0.000000 0.537490 0.877230
O O8 0.811347 0.526564 0.100114
O O9 0.000000 0.446559 0.806168
O O10 0.500000 0.697498 0.771646
O O11 0.779385 0.665370 0.810208
O O12 0.737113 0.749692 0.838599
O O13 0.719750 0.714171 0.585852
O O14 0.000000 0.629811 0.971990
O O15 0.500000 0.212817 0.477477
#
# Coordination Sequence:
#
# PCOD8175446 Si02
#       6
#     8   8   8   8   8   8
#     4  11  22  37  57  83 115 149 189 238 287 330
#     4   8  16  30  52  79 106 142 187 230 269 326
#     4   9  17  33  54  77 107 144 187 230 276 331
#     4  11  24  40  60  88 117 145 184 234 282 328
#     4  10  20  37  60  85 114 151 192 230 278 338
#     4  11  24  41  61  84 113 151 189 226 276 339
#
# _framework density 19.822178000000001
#
# number of rings (size 3 to 8) (size 9 to 14) (size 15 to 20)
#    0.000    2.000    0.000    5.000    0.000    6.667 
#    0.000    7.500    0.000    0.000    0.000    0.000 
#    0.000    0.000    0.000    0.000    0.000    0.000 
#
# Total GULP energy -297636.897075 kJ/mol
# GULP energy per Si atom -12401.537378 kJ/mol
# Density = 1.977706 g / cm^3
# Si number density = 19.822178 Si / 1000 Ang^3
#
#
#
# Elastic Constant Matrix: (Units=GPa)
#
#
# Indices 1 2 3 4 5 6 
#
# 1 43.2588 14.0109 5.3488 0.0000 0.0000 0.0000
# 2 14.0109 109.9288 63.1245 0.0000 0.0000 0.0000
# 3 5.3488 63.1245 98.9602 0.0000 0.0000 0.0000
# 4 0.0000 0.0000 0.0000 45.9696 0.0000 0.0000
# 5 0.0000 0.0000 0.0000 0.0000 29.0908 0.0000
# 6 0.0000 0.0000 0.0000 0.0000 0.0000 23.4600
#
#
#
# Elastic Compliance Matrix: (Units=1/GPa)
#
#
# Indices 1 2 3 4 5 6 
#
# 1 0.024180 -0.003679 0.001040 0.000000 0.000000 0.000000
# 2 -0.003679 0.014915 -0.009315 0.000000 0.000000 0.000000
# 3 0.001040 -0.009315 0.015991 0.000000 0.000000 0.000000
# 4 0.000000 0.000000 0.000000 0.021754 0.000000 0.000000
# 5 0.000000 0.000000 0.000000 0.000000 0.034375 0.000000
# 6 0.000000 0.000000 0.000000 0.000000 0.000000 0.042626
#
#
# Mechanical properties :
#
#
# Convention : Reuss Voigt Hill
#
# Bulk Modulus (GPa) = 32.07501 46.34625 39.21063
# Shear Modulus (GPa) = 26.57606 31.01499 28.79552
#
# Velocity S-wave (km/s) = 3.66556 3.95987 3.81555
# Velocity P-wave (km/s) = 5.84223 6.65877 6.26382
#
# Compressibility (1/GPa) = 0.03117692
#
# Stress axis : x y z
#
# Youngs Moduli (GPa) = 41.35712 67.04872 62.53680
#
# Poissons Ratio (x) = 0.24666 -0.06502
# Poissons Ratio (y) = 0.15215 0.58252
# Poissons Ratio (z) = -0.04300 0.62455
#
# Static dielectric constant tensor:
#      x y z
#    x 3.378680 0.000000 0.000000 
#    y 0.000000 3.792650 0.000000 
#    z 0.000000 0.000000 3.546800 
# 
# 
# High freq. dielectric constant tensor:
#      x y z
#    x 1.754860 0.000000 0.000000 
#    y 0.000000 1.787250 0.000000 
#    z 0.000000 0.000000 1.770900 
# 
# From -- ./inp_files/2702.got.cif
#   From: 2010.03.12/outbox.cif.g09.slc.cpg/sg36_2_cif.got.tgz:2702.got - 2010.04.14 02:13:53.
