data_PCOD8175211
_publ_section_title
;
Structure prediction by ZEFSAII (Michael W. Deem and Ramdas Pophale) SiO2 
 PCOD8175211
Probable space group: C M C 21
;
_chemical_formula_sum "Si O2"
_cell_formula_units_Z 64
_cell_length_a 9.004058
_cell_length_b 14.455888
_cell_length_c 26.819495
_cell_angle_alpha 90.000000
_cell_angle_beta 90.000000
_cell_angle_gamma 90.000000
_cell_volume 3490.869828
_symmetry_space_group_name_H-M "C M C 21"
_symmetry_group_IT_number 36
_symmetry_cell_setting 'orthorhombic'
loop_
_space_group_symop_operation_xyz
x,y,z
-x,-y,1/2+z
x,-y,1/2+z
-x,y,z
1/2+x,1/2+y,z
1/2-x,1/2-y,1/2+z
1/2+x,1/2-y,1/2+z
1/2-x,1/2+y,z
loop_
_atom_site_type_symbol
_atom_site_label
_atom_site_fract_x
_atom_site_fract_y
_atom_site_fract_z
Si Si1 0.324003 0.144031 0.500000
Si Si2 0.331124 0.533138 0.984133
Si Si3 0.325173 0.733285 0.725201
Si Si4 0.675517 0.625904 0.293250
Si Si5 0.827793 0.384940 0.645761
Si Si6 0.675234 0.476078 0.213339
Si Si7 0.831168 0.893538 0.905383
Si Si8 0.826055 0.315209 0.537541
O O1 0.500000 0.139525 0.503243
O O2 0.270800 0.167752 0.442936
O O3 0.259589 0.218373 0.538438
O O4 0.251760 0.046389 0.516736
O O5 0.500000 0.546812 0.002882
O O6 0.328086 0.500158 0.925995
O O7 0.238698 0.626755 0.991060
O O8 0.500000 0.731762 0.734704
O O9 0.249189 0.780174 0.773161
O O10 0.281913 0.792987 0.676499
O O11 0.263953 0.628676 0.718731
O O12 0.500000 0.638004 0.291043
O O13 0.725457 0.536483 0.261253
O O14 0.732247 0.609668 0.349590
O O15 0.740893 0.475736 0.664035
O O16 0.787800 0.368193 0.588392
O O17 0.000000 0.405561 0.653465
O O18 0.500000 0.474488 0.207199
O O19 0.000000 0.855387 0.907514
O O20 0.000000 0.297750 0.530612
#
# Coordination Sequence:
#
# PCOD8175211 Si02
#       8
#     8   8   8   8   8   8   8   8
#     4  10  20  35  54  77 105 139 179 221 264 314
#     4   9  19  36  54  74 104 141 177 222 265 310
#     4   9  18  34  52  76 106 135 171 214 259 311
#     4   9  17  33  54  76 105 137 170 212 260 308
#     4   9  20  35  52  74 105 138 170 214 263 309
#     4   9  18  33  54  78 103 134 173 214 257 312
#     4   8  17  35  54  73 107 143 172 217 268 312
#     4  11  21  35  54  78 107 143 182 222 266 318
#
# _framework density 18.333538999999998
#
# number of rings (size 3 to 8) (size 9 to 14) (size 15 to 20)
#    0.750    2.000    0.000    1.500    0.000    3.000 
#    2.250    1.250    0.000    0.000    0.000    0.000 
#    0.000    0.000    0.000    0.000    0.000    0.000 
#
# Total GULP energy -396602.904304 kJ/mol
# GULP energy per Si atom -12393.840760 kJ/mol
# Density = 1.829181 g / cm^3
# Si number density = 18.333539 Si / 1000 Ang^3
#
#
#
# Elastic Constant Matrix: (Units=GPa)
#
#
# Indices 1 2 3 4 5 6 
#
# 1 62.9930 19.5779 17.2596 0.0000 0.0000 0.0000
# 2 19.5779 92.6811 7.3054 0.0000 0.0000 0.0000
# 3 17.2596 7.3054 55.4389 0.0000 0.0000 0.0000
# 4 0.0000 0.0000 0.0000 20.0307 0.0000 0.0000
# 5 0.0000 0.0000 0.0000 0.0000 26.1624 0.0000
# 6 0.0000 0.0000 0.0000 0.0000 0.0000 31.2119
#
#
#
# Elastic Compliance Matrix: (Units=1/GPa)
#
#
# Indices 1 2 3 4 5 6 
#
# 1 0.018398 -0.003471 -0.005270 0.000000 0.000000 0.000000
# 2 -0.003471 0.011558 -0.000442 0.000000 0.000000 0.000000
# 3 -0.005270 -0.000442 0.019737 0.000000 0.000000 0.000000
# 4 0.000000 0.000000 0.000000 0.049923 0.000000 0.000000
# 5 0.000000 0.000000 0.000000 0.000000 0.038223 0.000000
# 6 0.000000 0.000000 0.000000 0.000000 0.000000 0.032039
#
#
# Mechanical properties :
#
#
# Convention : Reuss Voigt Hill
#
# Bulk Modulus (GPa) = 31.92330 33.26654 32.59492
# Shear Modulus (GPa) = 25.16530 26.61235 25.88882
#
# Velocity S-wave (km/s) = 3.70893 3.81408 3.76187
# Velocity P-wave (km/s) = 5.98263 6.13032 6.05692
#
# Compressibility (1/GPa) = 0.03132508
#
# Stress axis : x y z
#
# Youngs Moduli (GPa) = 54.35511 86.52212 50.66633
#
# Poissons Ratio (x) = 0.30031 0.26703
# Poissons Ratio (y) = 0.18866 0.02242
# Poissons Ratio (z) = 0.28647 0.03828
#
# Static dielectric constant tensor:
#      x y z
#    x 3.252540 0.000000 0.000000 
#    y 0.000000 3.336530 0.000000 
#    z 0.000000 0.000000 3.297200 
# 
# 
# High freq. dielectric constant tensor:
#      x y z
#    x 1.708590 0.000000 0.000000 
#    y 0.000000 1.704160 0.000000 
#    z 0.000000 0.000000 1.695880 
# 
# From -- ./inp_files/17334.got.cif
#   From: 2010.03.12/outbox.cif.g09.slc.cpg/sg36_9_cif.got.tgz:17334.got - 2010.04.14 02:13:53.
