data_PCOD8175029
_publ_section_title
;
Structure prediction by ZEFSAII (Michael W. Deem and Ramdas Pophale) SiO2 
 PCOD8175029
Probable space group: C M C 21
;
_chemical_formula_sum "Si O2"
_cell_formula_units_Z 64
_cell_length_a 9.026706
_cell_length_b 22.905798
_cell_length_c 17.565591
_cell_angle_alpha 90.000000
_cell_angle_beta 90.000000
_cell_angle_gamma 90.000000
_cell_volume 3631.930175
_symmetry_space_group_name_H-M "C M C 21"
_symmetry_group_IT_number 36
_symmetry_cell_setting 'orthorhombic'
loop_
_space_group_symop_operation_xyz
x,y,z
-x,-y,1/2+z
x,-y,1/2+z
-x,y,z
1/2+x,1/2+y,z
1/2-x,1/2-y,1/2+z
1/2+x,1/2-y,1/2+z
1/2-x,1/2+y,z
loop_
_atom_site_type_symbol
_atom_site_label
_atom_site_fract_x
_atom_site_fract_y
_atom_site_fract_z
Si Si1 0.325210 0.938810 0.990990
Si Si2 0.670792 0.270951 0.608425
Si Si3 0.176305 0.939280 0.521742
Si Si4 0.330823 0.387320 0.682632
Si Si5 0.662627 0.721805 0.391634
Si Si6 0.326144 0.832664 0.470189
Si Si7 0.328828 0.881387 0.831286
Si Si8 0.833576 0.166657 0.557676
O O1 0.500000 0.948660 0.002271
O O2 0.286431 0.919118 0.905131
O O3 0.268588 0.890532 0.050988
O O4 0.232214 0.996097 0.007258
O O5 0.500000 0.253806 0.596277
O O6 0.690136 0.316707 0.677736
O O7 0.726171 0.305450 0.535487
O O8 0.763202 0.210991 0.620347
O O9 0.226529 0.920026 0.606749
O O10 0.259669 0.897787 0.459556
O O11 0.000000 0.935002 0.510824
O O12 0.500000 0.404246 0.694814
O O13 0.244794 0.410112 0.756909
O O14 0.500000 0.710424 0.356046
O O15 0.695642 0.791786 0.394773
O O16 0.779370 0.685993 0.342005
O O17 0.664322 0.700619 0.478475
O O18 0.500000 0.834950 0.492533
O O19 0.500000 0.880860 0.815729
O O20 0.000000 0.149239 0.582855
#
# Coordination Sequence:
#
# PCOD8175029 Si02
#       8
#     8   8   8   8   8   8   8   8
#     4  10  20  33  49  72 100 131 168 210 249 293
#     4   9  16  27  44  68  95 122 152 189 234 285
#     4  10  20  33  50  73  98 130 170 210 249 294
#     4   9  19  33  49  70  98 129 161 199 248 300
#     4   8  15  27  44  66  93 122 150 183 231 284
#     4   9  16  27  45  69  94 122 153 190 236 283
#     4  10  20  31  48  73  98 126 162 202 248 297
#     4   9  16  27  45  69  94 122 154 191 235 282
#
# _framework density 17.621483000000001
#
# number of rings (size 3 to 8) (size 9 to 14) (size 15 to 20)
#    0.000    2.750    0.000    3.750    0.000    8.000 
#    0.000    0.000    0.000    1.500    0.000    8.750 
#    0.000    0.000    0.000    0.000    0.000    0.000 
#
# Total GULP energy -396542.140349 kJ/mol
# GULP energy per Si atom -12391.941886 kJ/mol
# Density = 1.758138 g / cm^3
# Si number density = 17.621483 Si / 1000 Ang^3
#
#
#
# Elastic Constant Matrix: (Units=GPa)
#
#
# Indices 1 2 3 4 5 6 
#
# 1 84.0516 36.4755 35.7741 0.0000 0.0000 0.0000
# 2 36.4755 101.2423 28.0996 0.0000 0.0000 0.0000
# 3 35.7741 28.0996 47.7316 0.0000 0.0000 0.0000
# 4 0.0000 0.0000 0.0000 13.3865 0.0000 0.0000
# 5 0.0000 0.0000 0.0000 0.0000 22.8619 0.0000
# 6 0.0000 0.0000 0.0000 0.0000 0.0000 33.8603
#
#
#
# Elastic Compliance Matrix: (Units=1/GPa)
#
#
# Indices 1 2 3 4 5 6 
#
# 1 0.018371 -0.003343 -0.011800 0.000000 0.000000 0.000000
# 2 -0.003343 0.012415 -0.004803 0.000000 0.000000 0.000000
# 3 -0.011800 -0.004803 0.032622 0.000000 0.000000 0.000000
# 4 0.000000 0.000000 0.000000 0.074702 0.000000 0.000000
# 5 0.000000 0.000000 0.000000 0.000000 0.043741 0.000000
# 6 0.000000 0.000000 0.000000 0.000000 0.000000 0.029533
#
#
# Mechanical properties :
#
#
# Convention : Reuss Voigt Hill
#
# Bulk Modulus (GPa) = 42.52680 48.19154 45.35917
# Shear Modulus (GPa) = 19.29642 22.86683 21.08163
#
# Velocity S-wave (km/s) = 3.31275 3.60622 3.46260
# Velocity P-wave (km/s) = 6.23043 6.68935 6.46396
#
# Compressibility (1/GPa) = 0.02351459
#
# Stress axis : x y z
#
# Youngs Moduli (GPa) = 54.43390 80.54848 30.65407
#
# Poissons Ratio (x) = 0.26931 0.36173
# Poissons Ratio (y) = 0.18200 0.14722
# Poissons Ratio (z) = 0.64234 0.38686
#
# Static dielectric constant tensor:
#      x y z
#    x 3.394380 0.000000 0.000000 
#    y 0.000000 3.485890 0.000000 
#    z 0.000000 0.000000 2.990410 
# 
# 
# High freq. dielectric constant tensor:
#      x y z
#    x 1.695760 0.000000 0.000000 
#    y 0.000000 1.675490 0.000000 
#    z 0.000000 0.000000 1.633790 
# 
# From -- ./inp_files/14105.got.cif
#   From: 2010.03.12/outbox.cif.g09.slc.cpg/sg36_8_cif.got.tgz:14105.got - 2010.04.14 02:13:53.
