data_PCOD8175781
_publ_section_title
;
Structure prediction by ZEFSAII (Michael W. Deem and Ramdas Pophale) SiO2 
 PCOD8175781
Probable space group: C M C 21
;
_chemical_formula_sum "Si O2"
_cell_formula_units_Z 40
_cell_length_a 15.583392
_cell_length_b 12.683084
_cell_length_c 8.377913
_cell_angle_alpha 90.000000
_cell_angle_beta 90.000000
_cell_angle_gamma 90.000000
_cell_volume 1655.856550
_symmetry_space_group_name_H-M "C M C 21"
_symmetry_group_IT_number 36
_symmetry_cell_setting 'orthorhombic'
loop_
_space_group_symop_operation_xyz
x,y,z
-x,-y,1/2+z
x,-y,1/2+z
-x,y,z
1/2+x,1/2+y,z
1/2-x,1/2-y,1/2+z
1/2+x,1/2-y,1/2+z
1/2-x,1/2+y,z
loop_
_atom_site_type_symbol
_atom_site_label
_atom_site_fract_x
_atom_site_fract_y
_atom_site_fract_z
Si Si1 0.805164 0.099396 0.509270
Si Si2 0.298100 0.284450 0.430610
Si Si3 0.095713 0.625845 0.219159
Si Si4 0.832000 0.555287 0.908720
Si Si5 0.101981 0.928348 0.676686
O O1 0.768084 0.216826 0.542241
O O2 0.850788 0.103231 0.337268
O O3 0.722240 0.024676 0.517394
O O4 0.874163 0.051047 0.634706
O O5 0.343387 0.209057 0.304508
O O6 0.238604 0.366340 0.328481
O O7 0.365827 0.348711 0.538206
O O8 0.111039 0.506239 0.280954
O O9 0.108516 0.622979 0.028829
O O10 0.000000 0.661212 0.258745
O O11 0.000000 0.918246 0.695252
#
# Coordination Sequence:
#
# PCOD8175781 Si02
#       5
#     8   8   8   8   8
#     4  10  22  40  63  90 122 165 206 245 303 374
#     4  10  21  38  61  88 122 164 202 240 299 374
#     4  11  23  41  64  94 125 158 204 261 308 353
#     4  10  22  40  63  90 122 165 206 245 303 374
#     4  11  23  41  64  94 125 158 204 261 308 353
#
# _framework density 24.156680000000001
#
# number of rings (size 3 to 8) (size 9 to 14) (size 15 to 20)
#    0.000    1.600    0.000    6.600    0.000   12.800 
#    0.000   12.000    0.000    0.000    0.000    0.000 
#    0.000    0.000    0.000    0.000    0.000    0.000 
#
# Total GULP energy -247859.918997 kJ/mol
# GULP energy per Si atom -12392.995950 kJ/mol
# Density = 2.410170 g / cm^3
# Si number density = 24.156680 Si / 1000 Ang^3
#
#
#
# Elastic Constant Matrix: (Units=GPa)
#
#
# Indices 1 2 3 4 5 6 
#
# 1 120.5967 38.0429 22.3666 0.0000 0.0000 0.0000
# 2 38.0429 81.5727 -14.2575 0.0000 0.0000 0.0000
# 3 22.3666 -14.2575 50.5709 0.0000 0.0000 0.0000
# 4 0.0000 0.0000 0.0000 25.4431 0.0000 0.0000
# 5 0.0000 0.0000 0.0000 0.0000 29.0972 0.0000
# 6 0.0000 0.0000 0.0000 0.0000 0.0000 32.3057
#
#
#
# Elastic Compliance Matrix: (Units=1/GPa)
#
#
# Indices 1 2 3 4 5 6 
#
# 1 0.011717 -0.006701 -0.007071 0.000000 0.000000 0.000000
# 2 -0.006701 0.016726 0.007679 0.000000 0.000000 0.000000
# 3 -0.007071 0.007679 0.025067 0.000000 0.000000 0.000000
# 4 0.000000 0.000000 0.000000 0.039303 0.000000 0.000000
# 5 0.000000 0.000000 0.000000 0.000000 0.034368 0.000000
# 6 0.000000 0.000000 0.000000 0.000000 0.000000 0.030954
#
#
# Mechanical properties :
#
#
# Convention : Reuss Voigt Hill
#
# Bulk Modulus (GPa) = 24.19873 38.33827 31.26850
# Shear Modulus (GPa) = 27.15972 31.14174 29.15073
#
# Velocity S-wave (km/s) = 3.35672 3.59438 3.47758
# Velocity P-wave (km/s) = 5.00625 5.75597 5.39415
#
# Compressibility (1/GPa) = 0.04132448
#
# Stress axis : x y z
#
# Youngs Moduli (GPa) = 85.34351 59.78678 39.89337
#
# Poissons Ratio (x) = 0.40061 0.28211
# Poissons Ratio (y) = 0.57185 -0.30635
# Poissons Ratio (z) = 0.60351 -0.45911
#
# Static dielectric constant tensor:
#      x y z
#    x 4.321520 0.000000 0.000000 
#    y 0.000000 4.889210 0.000000 
#    z 0.000000 0.000000 4.083290 
# 
# 
# High freq. dielectric constant tensor:
#      x y z
#    x 1.950480 0.000000 0.000000 
#    y 0.000000 1.970070 0.000000 
#    z 0.000000 0.000000 1.956560 
# 
# From -- ./inp_files/4518.got.cif
#   From: 2010.03.12/outbox.cif.g09.slc.cpg/sg36_3_cif.got.tgz:4518.got - 2010.04.14 02:13:53.
