data_PCOD8175104
_publ_section_title
;
Structure prediction by ZEFSAII (Michael W. Deem and Ramdas Pophale) SiO2 
 PCOD8175104
Probable space group: C M C 21
;
_chemical_formula_sum "Si O2"
_cell_formula_units_Z 64
_cell_length_a 8.613582
_cell_length_b 29.445336
_cell_length_c 12.725283
_cell_angle_alpha 90.000000
_cell_angle_beta 90.000000
_cell_angle_gamma 90.000000
_cell_volume 3227.511188
_symmetry_space_group_name_H-M "C M C 21"
_symmetry_group_IT_number 36
_symmetry_cell_setting 'orthorhombic'
loop_
_space_group_symop_operation_xyz
x,y,z
-x,-y,1/2+z
x,-y,1/2+z
-x,y,z
1/2+x,1/2+y,z
1/2-x,1/2-y,1/2+z
1/2+x,1/2-y,1/2+z
1/2-x,1/2+y,z
loop_
_atom_site_type_symbol
_atom_site_label
_atom_site_fract_x
_atom_site_fract_y
_atom_site_fract_z
Si Si1 0.329273 0.316450 0.465020
Si Si2 0.816201 0.224555 0.751225
Si Si3 0.816593 0.085229 0.242593
Si Si4 0.820519 0.679569 0.177553
Si Si5 0.315826 0.430688 0.975589
Si Si6 0.313909 0.367752 0.157397
Si Si7 0.814455 0.971804 0.544681
Si Si8 0.829983 0.087357 0.861144
O O1 0.500000 0.300175 0.505697
O O2 0.268360 0.284723 0.371073
O O3 0.198502 0.315272 0.553193
O O4 0.349730 0.366990 0.425629
O O5 0.748194 0.273919 0.724275
O O6 0.752109 0.183894 0.675000
O O7 0.000000 0.225583 0.737917
O O8 0.775200 0.137288 0.220988
O O9 0.747068 0.071636 0.357193
O O10 0.748687 0.051755 0.151599
O O11 0.000000 0.080586 0.244356
O O12 0.000000 0.672754 0.206389
O O13 0.500000 0.430161 0.968362
O O14 0.258695 0.387339 0.044722
O O15 0.260938 0.475952 0.037117
O O16 0.500000 0.368079 0.168539
O O17 0.246271 0.401108 0.249986
O O18 0.743024 0.947742 0.439532
O O19 0.000000 0.966360 0.543988
O O20 0.000000 0.066559 0.835424
#
# Coordination Sequence:
#
# PCOD8175104 Si02
#       8
#     8   8   8   8   8   8   8   8
#     4   9  16  32  52  71  94 129 172 212 257 304
#     4   8  17  31  48  69  97 135 176 208 248 307
#     4  10  20  34  50  74 107 136 167 210 261 310
#     4  11  21  33  51  76 104 136 173 214 254 300
#     4   9  18  27  43  73 106 134 162 206 258 305
#     4   8  14  26  42  65  97 130 163 204 255 299
#     4   9  16  26  43  70  99 127 162 204 252 304
#     4   8  13  23  44  66  90 125 159 198 249 299
#
# _framework density 19.829519999999999
#
# number of rings (size 3 to 8) (size 9 to 14) (size 15 to 20)
#    0.000    3.000    1.250    1.875    1.750    1.000 
#    0.000    2.500    0.000    0.750    0.000    3.500 
#    0.000    0.000    0.000    0.000    0.000    0.000 
#
# Total GULP energy -396420.615104 kJ/mol
# GULP energy per Si atom -12388.144222 kJ/mol
# Density = 1.978439 g / cm^3
# Si number density = 19.829520 Si / 1000 Ang^3
#
#
#
# Elastic Constant Matrix: (Units=GPa)
#
#
# Indices 1 2 3 4 5 6 
#
# 1 4.9924 0.4849 2.8297 0.0000 0.0000 0.0000
# 2 0.4849 125.7028 72.7375 0.0000 0.0000 0.0000
# 3 2.8297 72.7375 127.2248 0.0000 0.0000 0.0000
# 4 0.0000 0.0000 0.0000 20.4739 0.0000 0.0000
# 5 0.0000 0.0000 0.0000 0.0000 4.1777 0.0000
# 6 0.0000 0.0000 0.0000 0.0000 0.0000 17.1251
#
#
#
# Elastic Compliance Matrix: (Units=1/GPa)
#
#
# Indices 1 2 3 4 5 6 
#
# 1 0.203493 0.002741 -0.006093 0.000000 0.000000 0.000000
# 2 0.002741 0.011925 -0.006879 0.000000 0.000000 0.000000
# 3 -0.006093 -0.006879 0.011928 0.000000 0.000000 0.000000
# 4 0.000000 0.000000 0.000000 0.048843 0.000000 0.000000
# 5 0.000000 0.000000 0.000000 0.000000 0.239367 0.000000
# 6 0.000000 0.000000 0.000000 0.000000 0.000000 0.058394
#
#
# Mechanical properties :
#
#
# Convention : Reuss Voigt Hill
#
# Bulk Modulus (GPa) = 4.83361 45.55823 25.19592
# Shear Modulus (GPa) = 7.53724 20.47988 14.00856
#
# Velocity S-wave (km/s) = 1.95174 3.21720 2.66080
# Velocity P-wave (km/s) = 2.74261 6.06839 4.70889
#
# Compressibility (1/GPa) = 0.20688451
#
# Stress axis : x y z
#
# Youngs Moduli (GPa) = 4.91417 83.85673 83.83353
#
# Poissons Ratio (x) = -0.22982 0.51079
# Poissons Ratio (y) = -0.01347 0.57668
# Poissons Ratio (z) = 0.02994 0.57684
#
# Static dielectric constant tensor:
#      x y z
#    x 2.865940 0.000000 0.000000 
#    y 0.000000 3.815350 0.000000 
#    z 0.000000 0.000000 4.037490 
# 
# 
# High freq. dielectric constant tensor:
#      x y z
#    x 1.689670 0.000000 0.000000 
#    y 0.000000 1.777640 0.000000 
#    z 0.000000 0.000000 1.782440 
# 
# From -- ./inp_files/7175.got.cif
#   From: 2010.03.12/outbox.cif.g09.slc.cpg/sg36_4_cif.got.tgz:7175.got - 2010.04.14 02:13:53.
