data_PCOD8175748
_publ_section_title
;
Structure prediction by ZEFSAII (Michael W. Deem and Ramdas Pophale) SiO2 
 PCOD8175748
Probable space group: C M C 21
;
_chemical_formula_sum "Si O2"
_cell_formula_units_Z 64
_cell_length_a 13.519044
_cell_length_b 25.042686
_cell_length_c 9.636213
_cell_angle_alpha 90.000000
_cell_angle_beta 90.000000
_cell_angle_gamma 90.000000
_cell_volume 3262.370496
_symmetry_space_group_name_H-M "C M C 21"
_symmetry_group_IT_number 36
_symmetry_cell_setting 'orthorhombic'
loop_
_space_group_symop_operation_xyz
x,y,z
-x,-y,1/2+z
x,-y,1/2+z
-x,y,z
1/2+x,1/2+y,z
1/2-x,1/2-y,1/2+z
1/2+x,1/2-y,1/2+z
1/2-x,1/2+y,z
loop_
_atom_site_type_symbol
_atom_site_label
_atom_site_fract_x
_atom_site_fract_y
_atom_site_fract_z
Si Si1 0.689506 0.553449 0.220680
Si Si2 0.888815 0.529661 0.117166
Si Si3 0.751555 0.666319 0.845182
Si Si4 0.113320 0.157501 0.598488
Si Si5 0.614873 0.462392 0.016680
Si Si6 0.610732 0.933935 0.312623
Si Si7 0.386191 0.267172 0.849015
Si Si8 0.388001 0.342195 0.604019
O O1 0.805348 0.566935 0.188905
O O2 0.653341 0.507577 0.118034
O O3 0.677221 0.532239 0.375993
O O4 0.624130 0.606216 0.202012
O O5 0.871065 0.469967 0.176230
O O6 0.000000 0.549516 0.157632
O O7 0.874879 0.530109 0.951019
O O8 0.680457 0.682001 0.719209
O O9 0.814453 0.614724 0.806250
O O10 0.821698 0.715542 0.879311
O O11 0.686800 0.653123 0.978455
O O12 0.132678 0.094634 0.587116
O O13 0.143493 0.186399 0.456227
O O14 0.000000 0.169332 0.636952
O O15 0.500000 0.471449 0.981644
O O16 0.500000 0.910237 0.310003
O O17 0.500000 0.250713 0.867612
O O18 0.366621 0.289429 0.694571
O O19 0.500000 0.341005 0.547238
#
# Coordination Sequence:
#
# PCOD8175748 Si02
#       8
#     8   8   8   8   8   8   8   8
#     4  12  22  38  60  89 122 163 199 243 295 357
#     4  10  21  38  57  82 118 157 196 242 295 348
#     4  12  22  38  61  93 113 153 203 250 289 357
#     4  10  22  40  59  86 122 158 194 243 300 354
#     4  11  23  37  58  88 125 161 201 242 292 360
#     4  10  21  38  59  86 118 154 197 244 292 350
#     4  10  22  43  65  83 114 158 199 247 300 351
#     4  11  23  40  61  89 124 158 193 243 303 359
#
# _framework density 19.617637999999999
#
# number of rings (size 3 to 8) (size 9 to 14) (size 15 to 20)
#    0.000    1.250    2.500    4.125    1.750    0.000 
#    0.000    0.000    0.000    1.500    0.000    0.000 
#    0.000    0.000    0.000    0.000    0.000    0.000 
#
# Total GULP energy -396887.242237 kJ/mol
# GULP energy per Si atom -12402.726320 kJ/mol
# Density = 1.957299 g / cm^3
# Si number density = 19.617638 Si / 1000 Ang^3
#
#
#
# Elastic Constant Matrix: (Units=GPa)
#
#
# Indices 1 2 3 4 5 6 
#
# 1 92.2868 36.8994 27.3720 0.0000 0.0000 0.0000
# 2 36.8994 81.6464 21.2643 0.0000 0.0000 0.0000
# 3 27.3720 21.2643 66.8538 0.0000 0.0000 0.0000
# 4 0.0000 0.0000 0.0000 24.8595 0.0000 0.0000
# 5 0.0000 0.0000 0.0000 0.0000 30.5129 0.0000
# 6 0.0000 0.0000 0.0000 0.0000 0.0000 33.7366
#
#
#
# Elastic Compliance Matrix: (Units=1/GPa)
#
#
# Indices 1 2 3 4 5 6 
#
# 1 0.014191 -0.005343 -0.004111 0.000000 0.000000 0.000000
# 2 -0.005343 0.015366 -0.002700 0.000000 0.000000 0.000000
# 3 -0.004111 -0.002700 0.017500 0.000000 0.000000 0.000000
# 4 0.000000 0.000000 0.000000 0.040226 0.000000 0.000000
# 5 0.000000 0.000000 0.000000 0.000000 0.032773 0.000000
# 6 0.000000 0.000000 0.000000 0.000000 0.000000 0.029641
#
#
# Mechanical properties :
#
#
# Convention : Reuss Voigt Hill
#
# Bulk Modulus (GPa) = 43.95695 45.76207 44.85951
# Shear Modulus (GPa) = 27.53481 28.17189 27.85335
#
# Velocity S-wave (km/s) = 3.75049 3.79363 3.77213
# Velocity P-wave (km/s) = 6.41954 6.52430 6.47213
#
# Compressibility (1/GPa) = 0.02274953
#
# Stress axis : x y z
#
# Youngs Moduli (GPa) = 70.46517 65.07942 57.14321
#
# Poissons Ratio (x) = 0.34772 0.23491
# Poissons Ratio (y) = 0.37650 0.15428
# Poissons Ratio (z) = 0.28968 0.17570
#
# Static dielectric constant tensor:
#      x y z
#    x 3.882060 0.000000 0.000000 
#    y 0.000000 3.363740 0.000000 
#    z 0.000000 0.000000 3.544680 
# 
# 
# High freq. dielectric constant tensor:
#      x y z
#    x 1.782680 0.000000 0.000000 
#    y 0.000000 1.747860 0.000000 
#    z 0.000000 0.000000 1.769230 
# 
# From -- ./inp_files/4359.got.cif
#   From: 2010.03.12/outbox.cif.g09.slc.cpg/sg36_3_cif.got.tgz:4359.got - 2010.04.14 02:13:53.
