data_PCOD8175482
_publ_section_title
;
Structure prediction by ZEFSAII (Michael W. Deem and Ramdas Pophale) SiO2 
 PCOD8175482
Probable space group: C M C 21
;
_chemical_formula_sum "Si O2"
_cell_formula_units_Z 64
_cell_length_a 8.673321
_cell_length_b 23.443183
_cell_length_c 15.385516
_cell_angle_alpha 90.000000
_cell_angle_beta 90.000000
_cell_angle_gamma 90.000000
_cell_volume 3128.340837
_symmetry_space_group_name_H-M "C M C 21"
_symmetry_group_IT_number 36
_symmetry_cell_setting 'orthorhombic'
loop_
_space_group_symop_operation_xyz
x,y,z
-x,-y,1/2+z
x,-y,1/2+z
-x,y,z
1/2+x,1/2+y,z
1/2-x,1/2-y,1/2+z
1/2+x,1/2-y,1/2+z
1/2-x,1/2+y,z
loop_
_atom_site_type_symbol
_atom_site_label
_atom_site_fract_x
_atom_site_fract_y
_atom_site_fract_z
Si Si1 0.177318 0.254486 0.235650
Si Si2 0.179896 0.132004 0.675497
Si Si3 0.822519 0.870988 0.678293
Si Si4 0.681118 0.135732 0.497091
Si Si5 0.181369 0.626569 0.997310
Si Si6 0.318906 0.250527 0.933483
Si Si7 0.681237 0.440052 0.340578
Si Si8 0.818989 0.562477 0.333441
O O1 0.281230 0.301950 0.190597
O O2 0.200878 0.196889 0.181823
O O3 0.234486 0.244491 0.333802
O O4 0.000000 0.275088 0.235058
O O5 0.259333 0.109346 0.587542
O O6 0.239635 0.094518 0.756177
O O7 0.000000 0.124464 0.662810
O O8 0.770892 0.892283 0.583776
O O9 0.713621 0.899912 0.749022
O O10 0.000000 0.887843 0.695627
O O11 0.500000 0.136684 0.498224
O O12 0.738326 0.200482 0.488877
O O13 0.740673 0.096825 0.417888
O O14 0.000000 0.624091 0.014542
O O15 0.235269 0.689565 0.969373
O O16 0.224888 0.581937 0.923130
O O17 0.500000 0.259266 0.942375
O O18 0.500000 0.431056 0.355796
O O19 0.719220 0.505720 0.326085
O O20 0.000000 0.548373 0.339049
#
# Coordination Sequence:
#
# PCOD8175482 Si02
#       8
#     8   8   8   8   8   8   8   8
#     4  10  20  37  63  94 127 164 201 246 306 367
#     4  11  24  40  63  93 125 162 204 251 307 367
#     4  11  23  40  64  93 127 164 205 252 307 368
#     4  11  24  40  63  93 125 162 204 251 307 367
#     4  11  23  40  64  93 127 164 205 252 307 368
#     4  10  20  37  63  94 127 164 201 246 306 367
#     4  11  25  44  65  90 121 162 210 260 311 365
#     4  11  25  44  65  90 121 162 210 260 311 365
#
# _framework density 20.458127999999999
#
# number of rings (size 3 to 8) (size 9 to 14) (size 15 to 20)
#    0.000    1.250    2.500    3.000    0.000    8.500 
#    0.000    2.500    0.000    0.000    0.000    0.000 
#    0.000    0.000    0.000    0.000    0.000    0.000 
#
# Total GULP energy -397037.858124 kJ/mol
# GULP energy per Si atom -12407.433066 kJ/mol
# Density = 2.041156 g / cm^3
# Si number density = 20.458128 Si / 1000 Ang^3
#
#
#
# Elastic Constant Matrix: (Units=GPa)
#
#
# Indices 1 2 3 4 5 6 
#
# 1 41.8614 20.7851 21.0319 0.0000 0.0000 0.0000
# 2 20.7851 90.2265 31.9814 0.0000 0.0000 0.0000
# 3 21.0319 31.9814 136.6700 0.0000 0.0000 0.0000
# 4 0.0000 0.0000 0.0000 9.6057 0.0000 0.0000
# 5 0.0000 0.0000 0.0000 0.0000 31.7626 0.0000
# 6 0.0000 0.0000 0.0000 0.0000 0.0000 31.7959
#
#
#
# Elastic Compliance Matrix: (Units=1/GPa)
#
#
# Indices 1 2 3 4 5 6 
#
# 1 0.028103 -0.005388 -0.003064 0.000000 0.000000 0.000000
# 2 -0.005388 0.013119 -0.002241 0.000000 0.000000 0.000000
# 3 -0.003064 -0.002241 0.008313 0.000000 0.000000 0.000000
# 4 0.000000 0.000000 0.000000 0.104105 0.000000 0.000000
# 5 0.000000 0.000000 0.000000 0.000000 0.031484 0.000000
# 6 0.000000 0.000000 0.000000 0.000000 0.000000 0.031451
#
#
# Mechanical properties :
#
#
# Convention : Reuss Voigt Hill
#
# Bulk Modulus (GPa) = 35.52493 46.26165 40.89329
# Shear Modulus (GPa) = 20.21494 27.63015 23.92254
#
# Velocity S-wave (km/s) = 3.14684 3.67900 3.42327
# Velocity P-wave (km/s) = 5.53225 6.38033 5.97137
#
# Compressibility (1/GPa) = 0.02814925
#
# Stress axis : x y z
#
# Youngs Moduli (GPa) = 35.58350 76.22746 120.29751
#
# Poissons Ratio (x) = 0.41071 0.36858
# Poissons Ratio (y) = 0.19172 0.26955
# Poissons Ratio (z) = 0.10902 0.17080
#
# Static dielectric constant tensor:
#      x y z
#    x 3.598160 0.000000 0.000000 
#    y 0.000000 3.642990 0.000000 
#    z 0.000000 0.000000 3.963200 
# 
# 
# High freq. dielectric constant tensor:
#      x y z
#    x 1.800560 0.000000 0.000000 
#    y 0.000000 1.793390 0.000000 
#    z 0.000000 0.000000 1.816980 
# 
# From -- ./inp_files/11090.got.cif
#   From: 2010.03.12/outbox.cif.g09.slc.cpg/sg36_6_cif.got.tgz:11090.got - 2010.04.14 02:13:53.
