data_PCOD8175968
_publ_section_title
;
Structure prediction by ZEFSAII (Michael W. Deem and Ramdas Pophale) SiO2 
 PCOD8175968
Probable space group: C M C 21
;
_chemical_formula_sum "Si O2"
_cell_formula_units_Z 64
_cell_length_a 23.580653
_cell_length_b 9.474739
_cell_length_c 13.761446
_cell_angle_alpha 90.000000
_cell_angle_beta 90.000000
_cell_angle_gamma 90.000000
_cell_volume 3074.589595
_symmetry_space_group_name_H-M "C M C 21"
_symmetry_group_IT_number 36
_symmetry_cell_setting 'orthorhombic'
loop_
_space_group_symop_operation_xyz
x,y,z
-x,-y,1/2+z
x,-y,1/2+z
-x,y,z
1/2+x,1/2+y,z
1/2-x,1/2-y,1/2+z
1/2+x,1/2-y,1/2+z
1/2-x,1/2+y,z
loop_
_atom_site_type_symbol
_atom_site_label
_atom_site_fract_x
_atom_site_fract_y
_atom_site_fract_z
Si Si1 0.176312 0.147792 0.910710
Si Si2 0.437261 0.155317 0.245175
Si Si3 0.125429 0.439848 0.118953
Si Si4 0.769066 0.138911 0.389242
Si Si5 0.796095 0.677487 0.054952
Si Si6 0.812804 0.834519 0.672654
Si Si7 0.640740 0.380914 0.194189
Si Si8 0.064506 0.269304 0.966361
O O1 0.205306 0.303606 0.911261
O O2 0.159423 0.106380 0.803933
O O3 0.117482 0.156681 0.974779
O O4 0.220255 0.017501 0.935630
O O5 0.500000 0.122151 0.211075
O O6 0.420473 0.304426 0.193581
O O7 0.431195 0.159877 0.360918
O O8 0.398229 0.030416 0.207498
O O9 0.170684 0.530478 0.057830
O O10 0.155970 0.313093 0.173792
O O11 0.075101 0.388295 0.047899
O O12 0.807664 0.251038 0.449797
O O13 0.779665 0.146921 0.274055
O O14 0.728810 0.654718 0.078668
O O15 0.814447 0.786486 0.137577
O O16 0.859378 0.958576 0.655460
O O17 0.000000 0.205967 0.980244
#
# Coordination Sequence:
#
# PCOD8175968 Si02
#       8
#     8   8   8   8   8   8   8   8
#     4  10  22  39  61  92 120 169 196 259 313 376
#     4   9  20  41  66  86 115 161 209 259 310 362
#     4  11  24  37  65  89 126 160 214 257 314 370
#     4  11  25  36  63  90 134 160 209 252 323 379
#     4  11  23  37  56  88 124 165 197 247 307 378
#     4  11  23  39  57  94 129 164 196 261 311 385
#     4   9  20  39  57  83 122 153 203 239 310 369
#     4  10  22  42  67  92 123 164 217 260 306 375
#
# _framework density 20.815785999999999
#
# number of rings (size 3 to 8) (size 9 to 14) (size 15 to 20)
#    0.000    1.750    1.250    1.875   10.500    0.000 
#    0.000    1.250    0.000    2.250    0.000    0.000 
#    0.000    0.000    0.000    0.000    0.000    0.000 
#
# Total GULP energy -396477.973476 kJ/mol
# GULP energy per Si atom -12389.936671 kJ/mol
# Density = 2.076841 g / cm^3
# Si number density = 20.815786 Si / 1000 Ang^3
#
#
#
# Elastic Constant Matrix: (Units=GPa)
#
#
# Indices 1 2 3 4 5 6 
#
# 1 113.6129 45.2544 -0.2313 0.0000 0.0000 0.0000
# 2 45.2544 121.9125 19.8618 0.0000 0.0000 0.0000
# 3 -0.2313 19.8618 46.3608 0.0000 0.0000 0.0000
# 4 0.0000 0.0000 0.0000 27.3507 0.0000 0.0000
# 5 0.0000 0.0000 0.0000 0.0000 10.3967 0.0000
# 6 0.0000 0.0000 0.0000 0.0000 0.0000 28.3630
#
#
#
# Elastic Compliance Matrix: (Units=1/GPa)
#
#
# Indices 1 2 3 4 5 6 
#
# 1 0.010474 -0.004189 0.001847 0.000000 0.000000 0.000000
# 2 -0.004189 0.010493 -0.004516 0.000000 0.000000 0.000000
# 3 0.001847 -0.004516 0.023514 0.000000 0.000000 0.000000
# 4 0.000000 0.000000 0.000000 0.036562 0.000000 0.000000
# 5 0.000000 0.000000 0.000000 0.000000 0.096184 0.000000
# 6 0.000000 0.000000 0.000000 0.000000 0.000000 0.035257
#
#
# Mechanical properties :
#
#
# Convention : Reuss Voigt Hill
#
# Bulk Modulus (GPa) = 32.50496 45.73956 39.12226
# Shear Modulus (GPa) = 21.14549 27.68884 24.41716
#
# Velocity S-wave (km/s) = 3.19068 3.65113 3.42864
# Velocity P-wave (km/s) = 5.40586 6.30837 5.87447
#
# Compressibility (1/GPa) = 0.03076453
#
# Stress axis : x y z
#
# Youngs Moduli (GPa) = 95.47355 95.29839 42.52775
#
# Poissons Ratio (x) = 0.39920 -0.07854
# Poissons Ratio (y) = 0.39993 0.19207
# Poissons Ratio (z) = -0.17633 0.43041
#
# Static dielectric constant tensor:
#      x y z
#    x 3.915620 0.000000 0.000000 
#    y 0.000000 4.014660 0.000000 
#    z 0.000000 0.000000 3.912130 
# 
# 
# High freq. dielectric constant tensor:
#      x y z
#    x 1.794320 0.000000 0.000000 
#    y 0.000000 1.813510 0.000000 
#    z 0.000000 0.000000 1.836360 
# 
# From -- ./inp_files/12976.got.cif
#   From: 2010.03.12/outbox.cif.g09.slc.cpg/sg36_7_cif.got.tgz:12976.got - 2010.04.14 02:13:53.
