data_PCOD8175965
_publ_section_title
;
Structure prediction by ZEFSAII (Michael W. Deem and Ramdas Pophale) SiO2 
 PCOD8175965
Probable space group: C M C 21
;
_chemical_formula_sum "Si O2"
_cell_formula_units_Z 64
_cell_length_a 17.971454
_cell_length_b 9.935099
_cell_length_c 18.983442
_cell_angle_alpha 90.000000
_cell_angle_beta 90.000000
_cell_angle_gamma 90.000000
_cell_volume 3389.458918
_symmetry_space_group_name_H-M "C M C 21"
_symmetry_group_IT_number 36
_symmetry_cell_setting 'orthorhombic'
loop_
_space_group_symop_operation_xyz
x,y,z
-x,-y,1/2+z
x,-y,1/2+z
-x,y,z
1/2+x,1/2+y,z
1/2-x,1/2-y,1/2+z
1/2+x,1/2-y,1/2+z
1/2-x,1/2+y,z
loop_
_atom_site_type_symbol
_atom_site_label
_atom_site_fract_x
_atom_site_fract_y
_atom_site_fract_z
Si Si1 0.311350 0.507204 0.834870
Si Si2 0.083258 0.976380 0.458862
Si Si3 0.411206 0.856339 0.629881
Si Si4 0.586080 0.779747 0.477200
Si Si5 0.332435 0.595537 0.682469
Si Si6 0.326884 0.195254 0.838247
Si Si7 0.843118 0.625181 0.683934
Si Si8 0.085797 0.136341 0.104922
O O1 0.365208 0.564080 0.894535
O O2 0.348307 0.543520 0.760875
O O3 0.296243 0.347596 0.840554
O O4 0.235288 0.583626 0.845530
O O5 0.090937 0.866225 0.520238
O O6 0.000000 0.981161 0.428662
O O7 0.104588 0.122887 0.489596
O O8 0.500000 0.866208 0.636112
O O9 0.385403 0.856063 0.547617
O O10 0.384088 0.722662 0.668608
O O11 0.371291 0.975468 0.671122
O O12 0.500000 0.806886 0.468572
O O13 0.620666 0.833821 0.404737
O O14 0.245659 0.632686 0.671923
O O15 0.357472 0.475412 0.632309
O O16 0.366593 0.171503 0.762804
O O17 0.886149 0.718454 0.628763
O O18 0.000000 0.110410 0.128909
#
# Coordination Sequence:
#
# PCOD8175965 Si02
#       8
#     8   8   8   8   8   8   8   8
#     4  10  22  39  61  87 120 155 200 245 298 351
#     4   9  19  38  61  86 116 153 201 248 289 348
#     4  11  23  41  62  90 124 159 199 249 301 356
#     4   9  19  39  62  85 115 156 200 242 293 354
#     4  11  22  39  62  88 118 158 201 243 295 359
#     4  10  22  40  62  86 119 158 197 246 294 356
#     4  11  24  39  60  91 125 156 198 249 307 348
#     4  11  21  39  62  89 119 155 200 246 293 354
#
# _framework density 18.882069000000001
#
# number of rings (size 3 to 8) (size 9 to 14) (size 15 to 20)
#    0.000    1.750    2.500    1.500    5.250    4.000 
#    2.250    0.000    0.000    0.000    0.000    0.000 
#    0.000    0.000    0.000    0.000    0.000    0.000 
#
# Total GULP energy -396773.749638 kJ/mol
# GULP energy per Si atom -12399.179676 kJ/mol
# Density = 1.883909 g / cm^3
# Si number density = 18.882069 Si / 1000 Ang^3
#
#
#
# Elastic Constant Matrix: (Units=GPa)
#
#
# Indices 1 2 3 4 5 6 
#
# 1 46.7749 -3.6921 48.0887 0.0000 0.0000 0.0000
# 2 -3.6921 47.7245 49.6203 0.0000 0.0000 0.0000
# 3 48.0887 49.6203 95.6119 0.0000 0.0000 0.0000
# 4 0.0000 0.0000 0.0000 32.6879 0.0000 0.0000
# 5 0.0000 0.0000 0.0000 0.0000 33.1011 0.0000
# 6 0.0000 0.0000 0.0000 0.0000 0.0000 29.4016
#
#
#
# Elastic Compliance Matrix: (Units=1/GPa)
#
#
# Indices 1 2 3 4 5 6 
#
# 1 -0.067725 -0.088303 0.079890 0.000000 0.000000 0.000000
# 2 -0.088303 -0.069622 0.080545 0.000000 0.000000 0.000000
# 3 0.079890 0.080545 -0.071523 0.000000 0.000000 0.000000
# 4 0.000000 0.000000 0.000000 0.030592 0.000000 0.000000
# 5 0.000000 0.000000 0.000000 0.000000 0.030210 0.000000
# 6 0.000000 0.000000 0.000000 0.000000 0.000000 0.034012
#
#
# Mechanical properties :
#
#
# Convention : Reuss Voigt Hill
#
# Bulk Modulus (GPa) = -15.47836 42.01612 13.26888
# Shear Modulus (GPa) = -17.86644 25.44440 3.78898
#
# Velocity S-wave (km/s) = -3.07939 3.67487 1.41810
# Velocity P-wave (km/s) = 4.56714 6.34873 3.11831
#
# Compressibility (1/GPa) = -0.06460634
#
# Stress axis : x y z
#
# Youngs Moduli (GPa) = -14.76566 -14.36324 -13.98151
#
# Poissons Ratio (x) = -1.26831 1.11698
# Poissons Ratio (y) = -1.30385 1.12614
# Poissons Ratio (z) = 1.17962 1.15688
#
# Static dielectric constant tensor:
#      x y z
#    x 3.485970 0.000000 0.000000 
#    y 0.000000 3.423370 0.000000 
#    z 0.000000 0.000000 3.780530 
# 
# 
# High freq. dielectric constant tensor:
#      x y z
#    x 1.731110 0.000000 0.000000 
#    y 0.000000 1.731450 0.000000 
#    z 0.000000 0.000000 1.746210 
# 
# From -- ./inp_files/15022.got.cif
#   From: 2010.03.12/outbox.cif.g09.slc.cpg/sg36_8_cif.got.tgz:15022.got - 2010.04.14 02:13:53.
