data_PCOD8175254
_publ_section_title
;
Structure prediction by ZEFSAII (Michael W. Deem and Ramdas Pophale) SiO2 
 PCOD8175254
Probable space group: C M C 21
;
_chemical_formula_sum "Si O2"
_cell_formula_units_Z 64
_cell_length_a 8.808304
_cell_length_b 29.546326
_cell_length_c 12.315802
_cell_angle_alpha 90.000000
_cell_angle_beta 90.000000
_cell_angle_gamma 90.000000
_cell_volume 3205.224683
_symmetry_space_group_name_H-M "C M C 21"
_symmetry_group_IT_number 36
_symmetry_cell_setting 'orthorhombic'
loop_
_space_group_symop_operation_xyz
x,y,z
-x,-y,1/2+z
x,-y,1/2+z
-x,y,z
1/2+x,1/2+y,z
1/2-x,1/2-y,1/2+z
1/2+x,1/2-y,1/2+z
1/2-x,1/2+y,z
loop_
_atom_site_type_symbol
_atom_site_label
_atom_site_fract_x
_atom_site_fract_y
_atom_site_fract_z
Si Si1 0.824977 0.664390 0.071440
Si Si2 0.167823 0.917254 0.654725
Si Si3 0.675786 0.468396 0.442238
Si Si4 0.320556 0.316891 0.184662
Si Si5 0.320669 0.725040 0.239991
Si Si6 0.828479 0.065154 0.396805
Si Si7 0.820368 0.381283 0.348841
Si Si8 0.319797 0.336243 0.941055
O O1 0.796085 0.620985 0.147202
O O2 0.729394 0.705307 0.122897
O O3 0.000000 0.678623 0.074022
O O4 0.771972 0.651344 0.949701
O O5 0.194930 0.955794 0.567114
O O6 0.178334 0.941425 0.768561
O O7 0.000000 0.894535 0.639578
O O8 0.500000 0.469002 0.404470
O O9 0.750033 0.518796 0.438127
O O10 0.763727 0.432467 0.366985
O O11 0.500000 0.315826 0.196589
O O12 0.249429 0.274804 0.248999
O O13 0.256970 0.362407 0.240020
O O14 0.272474 0.315919 0.057564
O O15 0.500000 0.729358 0.244773
O O16 0.258994 0.695299 0.342261
O O17 0.749903 0.112709 0.431612
O O18 0.000000 0.066311 0.441615
O O19 0.000000 0.381861 0.335522
O O20 0.500000 0.339609 0.927883
#
# Coordination Sequence:
#
# PCOD8175254 Si02
#       8
#     8   8   8   8   8   8   8   8
#     4  10  20  35  57  82 109 146 192 244 289 335
#     4   9  16  30  52  79 110 147 190 237 288 343
#     4   9  18  31  55  87 113 146 198 245 285 343
#     4  11  24  40  60  88 120 155 197 240 292 354
#     4  11  22  39  62  87 116 152 191 237 296 353
#     4   9  16  31  56  85 114 148 191 239 293 348
#     4  10  22  40  58  80 118 159 195 238 295 345
#     4   9  20  38  60  86 118 151 188 240 296 349
#
# _framework density 19.967400999999999
#
# number of rings (size 3 to 8) (size 9 to 14) (size 15 to 20)
#    0.000    2.250    1.250    1.500    1.750    2.500 
#    0.000    6.250    0.000    3.000    0.000    0.000 
#    0.000    0.000    0.000    0.000    0.000    0.000 
#
# Total GULP energy -396650.214630 kJ/mol
# GULP energy per Si atom -12395.319207 kJ/mol
# Density = 1.992195 g / cm^3
# Si number density = 19.967401 Si / 1000 Ang^3
#
#
#
# Elastic Constant Matrix: (Units=GPa)
#
#
# Indices 1 2 3 4 5 6 
#
# 1 53.2056 29.8580 25.7760 0.0000 0.0000 0.0000
# 2 29.8580 140.3130 51.7619 0.0000 0.0000 0.0000
# 3 25.7760 51.7619 78.7883 0.0000 0.0000 0.0000
# 4 0.0000 0.0000 0.0000 27.7778 0.0000 0.0000
# 5 0.0000 0.0000 0.0000 0.0000 19.7454 0.0000
# 6 0.0000 0.0000 0.0000 0.0000 0.0000 27.4696
#
#
#
# Elastic Compliance Matrix: (Units=1/GPa)
#
#
# Indices 1 2 3 4 5 6 
#
# 1 0.023147 -0.002814 -0.005724 0.000000 0.000000 0.000000
# 2 -0.002814 0.009749 -0.005484 0.000000 0.000000 0.000000
# 3 -0.005724 -0.005484 0.018168 0.000000 0.000000 0.000000
# 4 0.000000 0.000000 0.000000 0.036000 0.000000 0.000000
# 5 0.000000 0.000000 0.000000 0.000000 0.050645 0.000000
# 6 0.000000 0.000000 0.000000 0.000000 0.000000 0.036404
#
#
# Mechanical properties :
#
#
# Convention : Reuss Voigt Hill
#
# Bulk Modulus (GPa) = 43.44127 54.12210 48.78169
# Shear Modulus (GPa) = 23.82883 25.99264 24.91073
#
# Velocity S-wave (km/s) = 3.45829 3.61190 3.53593
# Velocity P-wave (km/s) = 6.14408 6.67521 6.41514
#
# Compressibility (1/GPa) = 0.02301959
#
# Stress axis : x y z
#
# Youngs Moduli (GPa) = 43.20168 102.57627 55.04241
#
# Poissons Ratio (x) = 0.28865 0.31506
# Poissons Ratio (y) = 0.12157 0.30186
# Poissons Ratio (z) = 0.24729 0.56254
#
# Static dielectric constant tensor:
#      x y z
#    x 3.372380 0.000000 0.000000 
#    y 0.000000 3.755010 0.000000 
#    z 0.000000 0.000000 3.690850 
# 
# 
# High freq. dielectric constant tensor:
#      x y z
#    x 1.745450 0.000000 0.000000 
#    y 0.000000 1.784860 0.000000 
#    z 0.000000 0.000000 1.778790 
# 
# From -- ./inp_files/7265.got.cif
#   From: 2010.03.12/outbox.cif.g09.slc.cpg/sg36_4_cif.got.tgz:7265.got - 2010.04.14 02:13:53.
