data_PCOD8175989
_publ_section_title
;
Structure prediction by ZEFSAII (Michael W. Deem and Ramdas Pophale) SiO2 
 PCOD8175989
Probable space group: C M C 21
;
_chemical_formula_sum "Si O2"
_cell_formula_units_Z 48
_cell_length_a 8.721713
_cell_length_b 10.157435
_cell_length_c 26.408211
_cell_angle_alpha 90.000000
_cell_angle_beta 90.000000
_cell_angle_gamma 90.000000
_cell_volume 2339.509563
_symmetry_space_group_name_H-M "C M C 21"
_symmetry_group_IT_number 36
_symmetry_cell_setting 'orthorhombic'
loop_
_space_group_symop_operation_xyz
x,y,z
-x,-y,1/2+z
x,-y,1/2+z
-x,y,z
1/2+x,1/2+y,z
1/2-x,1/2-y,1/2+z
1/2+x,1/2-y,1/2+z
1/2-x,1/2+y,z
loop_
_atom_site_type_symbol
_atom_site_label
_atom_site_fract_x
_atom_site_fract_y
_atom_site_fract_z
Si Si1 0.176974 0.116562 0.582390
Si Si2 0.822763 0.903597 0.416503
Si Si3 0.819033 0.603883 0.244421
Si Si4 0.678388 0.139859 0.358190
Si Si5 0.822545 0.618286 0.023458
Si Si6 0.179679 0.654930 0.689326
O O1 0.213345 0.241025 0.547520
O O2 0.280253 0.120574 0.631985
O O3 0.000000 0.112038 0.598635
O O4 0.217098 0.987742 0.550789
O O5 0.793648 0.788939 0.375752
O O6 0.719427 0.872963 0.464779
O O7 0.000000 0.910097 0.432857
O O8 0.775411 0.042502 0.392962
O O9 0.758134 0.629492 0.301007
O O10 0.761086 0.461361 0.226040
O O11 0.757284 0.710044 0.205186
O O12 0.000000 0.613200 0.242582
O O13 0.500000 0.100074 0.361519
O O14 0.000000 0.578601 0.029364
O O15 0.000000 0.672592 0.694323
#
# Coordination Sequence:
#
# PCOD8175989 Si02
#       6
#     8   8   8   8   8   8
#     4  11  24  41  62  88 118 154 196 242 292 348
#     4  11  23  38  60  89 117 151 195 239 289 348
#     4  10  22  40  60  86 120 156 197 243 291 345
#     4  10  22  40  61  86 119 157 196 242 292 344
#     4  11  24  41  61  86 117 153 193 239 291 347
#     4  11  23  38  60  89 119 155 197 241 293 350
#
# _framework density 20.517119999999998
#
# number of rings (size 3 to 8) (size 9 to 14) (size 15 to 20)
#    0.000    1.333    0.000    5.000    0.000   12.667 
#    0.000    0.000    0.000    0.000    0.000    0.000 
#    0.000    0.000    0.000    0.000    0.000    0.000 
#
# Total GULP energy -297784.311851 kJ/mol
# GULP energy per Si atom -12407.679660 kJ/mol
# Density = 2.047042 g / cm^3
# Si number density = 20.517120 Si / 1000 Ang^3
#
#
#
# Elastic Constant Matrix: (Units=GPa)
#
#
# Indices 1 2 3 4 5 6 
#
# 1 25.7397 35.0902 9.7677 0.0000 0.0000 0.0000
# 2 35.0902 111.2343 16.0125 0.0000 0.0000 0.0000
# 3 9.7677 16.0125 97.9235 0.0000 0.0000 0.0000
# 4 0.0000 0.0000 0.0000 43.8428 0.0000 0.0000
# 5 0.0000 0.0000 0.0000 0.0000 33.4760 0.0000
# 6 0.0000 0.0000 0.0000 0.0000 0.0000 26.6461
#
#
#
# Elastic Compliance Matrix: (Units=1/GPa)
#
#
# Indices 1 2 3 4 5 6 
#
# 1 0.069264 -0.021358 -0.003416 0.000000 0.000000 0.000000
# 2 -0.021358 0.015793 -0.000452 0.000000 0.000000 0.000000
# 3 -0.003416 -0.000452 0.010627 0.000000 0.000000 0.000000
# 4 0.000000 0.000000 0.000000 0.022809 0.000000 0.000000
# 5 0.000000 0.000000 0.000000 0.000000 0.029872 0.000000
# 6 0.000000 0.000000 0.000000 0.000000 0.000000 0.037529
#
#
# Mechanical properties :
#
#
# Convention : Reuss Voigt Hill
#
# Bulk Modulus (GPa) = 22.10916 39.62648 30.86782
# Shear Modulus (GPa) = 19.88673 32.39480 26.14076
#
# Velocity S-wave (km/s) = 3.11670 3.97787 3.57332
# Velocity P-wave (km/s) = 4.87351 6.36032 5.66590
#
# Compressibility (1/GPa) = 0.04523012
#
# Stress axis : x y z
#
# Youngs Moduli (GPa) = 14.43748 63.31972 94.10215
#
# Poissons Ratio (x) = 1.35241 0.32149
# Poissons Ratio (y) = 0.30836 0.04253
# Poissons Ratio (z) = 0.04932 0.02862
#
# Static dielectric constant tensor:
#      x y z
#    x 3.677900 0.000000 0.000000 
#    y 0.000000 3.809870 0.000000 
#    z 0.000000 0.000000 3.873060 
# 
# 
# High freq. dielectric constant tensor:
#      x y z
#    x 1.803010 0.000000 0.000000 
#    y 0.000000 1.817110 0.000000 
#    z 0.000000 0.000000 1.816690 
# 
# From -- ./inp_files/16444.got.cif
#   From: 2010.03.12/outbox.cif.g09.slc.cpg/sg36_9_cif.got.tgz:16444.got - 2010.04.14 02:13:53.
