data_PCOD8175630
_publ_section_title
;
Structure prediction by ZEFSAII (Michael W. Deem and Ramdas Pophale) SiO2 
 PCOD8175630
Probable space group: C M C 21
;
_chemical_formula_sum "Si O2"
_cell_formula_units_Z 64
_cell_length_a 9.333578
_cell_length_b 24.338726
_cell_length_c 14.367622
_cell_angle_alpha 90.000000
_cell_angle_beta 90.000000
_cell_angle_gamma 90.000000
_cell_volume 3263.855299
_symmetry_space_group_name_H-M "C M C 21"
_symmetry_group_IT_number 36
_symmetry_cell_setting 'orthorhombic'
loop_
_space_group_symop_operation_xyz
x,y,z
-x,-y,1/2+z
x,-y,1/2+z
-x,y,z
1/2+x,1/2+y,z
1/2-x,1/2-y,1/2+z
1/2+x,1/2-y,1/2+z
1/2-x,1/2+y,z
loop_
_atom_site_type_symbol
_atom_site_label
_atom_site_fract_x
_atom_site_fract_y
_atom_site_fract_z
Si Si1 0.161588 0.617211 0.794990
Si Si2 0.834191 0.302104 0.773583
Si Si3 0.334261 0.692809 0.659864
Si Si4 0.334701 0.099664 0.144965
Si Si5 0.669498 0.578227 0.961470
Si Si6 0.667764 0.544648 0.493854
Si Si7 0.343384 0.978369 0.167286
Si Si8 0.167341 0.165066 0.448694
O O1 0.229021 0.651924 0.712244
O O2 0.261098 0.618305 0.885308
O O3 0.158987 0.554031 0.763533
O O4 0.000000 0.638010 0.817288
O O5 0.802588 0.252124 0.703864
O O6 0.782401 0.355894 0.718918
O O7 0.748201 0.298873 0.870689
O O8 0.000000 0.304985 0.800708
O O9 0.500000 0.675629 0.674820
O O10 0.296541 0.690916 0.550038
O O11 0.500000 0.110039 0.114570
O O12 0.312398 0.041140 0.194427
O O13 0.231274 0.101663 0.056820
O O14 0.500000 0.585946 0.959462
O O15 0.712219 0.513520 0.946034
O O16 0.500000 0.547132 0.507538
O O17 0.729019 0.546974 0.597454
O O18 0.717192 0.600575 0.441446
O O19 0.500000 0.973759 0.118874
O O20 0.000000 0.170337 0.427874
#
# Coordination Sequence:
#
# PCOD8175630 Si02
#       8
#     8   8   8   8   8   8   8   8
#     4  11  22  35  56  87 117 154 197 238 292 350
#     4  10  23  40  62  89 116 153 197 241 294 348
#     4  10  22  42  62  83 116 156 198 244 291 342
#     4   9  19  38  57  81 119 155 191 240 293 348
#     4  10  21  35  55  86 122 159 197 241 291 349
#     4   9  18  34  55  82 115 154 195 234 287 344
#     4   9  18  32  53  81 113 149 189 236 289 342
#     4  10  21  38  60  85 116 154 194 242 293 345
#
# _framework density 19.608713999999999
#
# number of rings (size 3 to 8) (size 9 to 14) (size 15 to 20)
#    0.000    2.250    1.250    0.750    1.750    4.000 
#    0.000    1.250    0.000    0.000    0.000    0.000 
#    0.000    0.000    0.000    0.000    0.000    0.000 
#
# Total GULP energy -396662.272226 kJ/mol
# GULP energy per Si atom -12395.696007 kJ/mol
# Density = 1.956408 g / cm^3
# Si number density = 19.608714 Si / 1000 Ang^3
#
#
#
# Elastic Constant Matrix: (Units=GPa)
#
#
# Indices 1 2 3 4 5 6 
#
# 1 71.6697 40.0627 57.1461 0.0000 0.0000 0.0000
# 2 40.0627 83.3696 56.8847 0.0000 0.0000 0.0000
# 3 57.1461 56.8847 116.3533 0.0000 0.0000 0.0000
# 4 0.0000 0.0000 0.0000 24.3434 0.0000 0.0000
# 5 0.0000 0.0000 0.0000 0.0000 35.6817 0.0000
# 6 0.0000 0.0000 0.0000 0.0000 0.0000 22.8452
#
#
#
# Elastic Compliance Matrix: (Units=1/GPa)
#
#
# Indices 1 2 3 4 5 6 
#
# 1 0.024416 -0.005328 -0.009387 0.000000 0.000000 0.000000
# 2 -0.005328 0.019162 -0.006751 0.000000 0.000000 0.000000
# 3 -0.009387 -0.006751 0.016505 0.000000 0.000000 0.000000
# 4 0.000000 0.000000 0.000000 0.041079 0.000000 0.000000
# 5 0.000000 0.000000 0.000000 0.000000 0.028026 0.000000
# 6 0.000000 0.000000 0.000000 0.000000 0.000000 0.043773
#
#
# Mechanical properties :
#
#
# Convention : Reuss Voigt Hill
#
# Bulk Modulus (GPa) = 58.30656 64.39776 61.35216
# Shear Modulus (GPa) = 22.56223 24.39399 23.47811
#
# Velocity S-wave (km/s) = 3.39576 3.53092 3.46400
# Velocity P-wave (km/s) = 6.72120 7.03817 6.88151
#
# Compressibility (1/GPa) = 0.01715073
#
# Stress axis : x y z
#
# Youngs Moduli (GPa) = 40.95698 52.18760 60.58622
#
# Poissons Ratio (x) = 0.27806 0.56871
# Poissons Ratio (y) = 0.21822 0.40903
# Poissons Ratio (z) = 0.38445 0.35233
#
# Static dielectric constant tensor:
#      x y z
#    x 3.571950 0.000000 0.000000 
#    y 0.000000 3.735530 0.000000 
#    z 0.000000 0.000000 3.377590 
# 
# 
# High freq. dielectric constant tensor:
#      x y z
#    x 1.762790 0.000000 0.000000 
#    y 0.000000 1.763660 0.000000 
#    z 0.000000 0.000000 1.753250 
# 
# From -- ./inp_files/10974.got.cif
#   From: 2010.03.12/outbox.cif.g09.slc.cpg/sg36_6_cif.got.tgz:10974.got - 2010.04.14 02:13:53.
