data_PCOD8175638
_publ_section_title
;
Structure prediction by ZEFSAII (Michael W. Deem and Ramdas Pophale) SiO2 
 PCOD8175638
Probable space group: C M C 21
;
_chemical_formula_sum "Si O2"
_cell_formula_units_Z 64
_cell_length_a 8.638602
_cell_length_b 24.518703
_cell_length_c 14.516328
_cell_angle_alpha 90.000000
_cell_angle_beta 90.000000
_cell_angle_gamma 90.000000
_cell_volume 3074.664483
_symmetry_space_group_name_H-M "C M C 21"
_symmetry_group_IT_number 36
_symmetry_cell_setting 'orthorhombic'
loop_
_space_group_symop_operation_xyz
x,y,z
-x,-y,1/2+z
x,-y,1/2+z
-x,y,z
1/2+x,1/2+y,z
1/2-x,1/2-y,1/2+z
1/2+x,1/2-y,1/2+z
1/2-x,1/2+y,z
loop_
_atom_site_type_symbol
_atom_site_label
_atom_site_fract_x
_atom_site_fract_y
_atom_site_fract_z
Si Si1 0.821318 0.455917 0.541630
Si Si2 0.819966 0.300855 0.771415
Si Si3 0.678458 0.398770 0.869636
Si Si4 0.816035 0.663072 0.074010
Si Si5 0.818233 0.700454 0.873908
Si Si6 0.181430 0.423465 0.060193
Si Si7 0.326169 0.382843 0.233062
Si Si8 0.671801 0.479825 0.359547
O O1 0.746293 0.399217 0.579951
O O2 0.757943 0.514148 0.580570
O O3 0.795389 0.456575 0.431745
O O4 0.000000 0.452984 0.564306
O O5 0.792030 0.360325 0.812659
O O6 0.763685 0.302198 0.663990
O O7 0.721495 0.259550 0.833482
O O8 0.000000 0.285230 0.777667
O O9 0.500000 0.380485 0.858709
O O10 0.710359 0.458765 0.828862
O O11 0.723441 0.397933 0.976552
O O12 0.000000 0.658911 0.072961
O O13 0.760212 0.693491 0.980088
O O14 0.732710 0.656701 0.811684
O O15 0.000000 0.690434 0.868008
O O16 0.215662 0.382672 0.144431
O O17 0.000000 0.423752 0.036966
O O18 0.500000 0.365246 0.205174
O O19 0.322228 0.444565 0.268041
O O20 0.500000 0.477817 0.405140
#
# Coordination Sequence:
#
# PCOD8175638 Si02
#       8
#     8   8   8   8   8   8   8   8
#     4   9  17  34  58  86 117 154 202 250 299 356
#     4  11  24  42  64  91 122 159 208 259 314 370
#     4  10  21  40  60  86 125 164 202 249 308 368
#     4   9  20  39  63  88 116 155 199 252 308 361
#     4  11  23  43  66  88 119 161 213 262 309 365
#     4  10  21  35  58  91 125 164 208 252 302 365
#     4  11  22  37  58  89 126 164 202 249 310 368
#     4   9  19  34  55  85 122 159 194 241 304 365
#
# _framework density 20.815280000000001
#
# number of rings (size 3 to 8) (size 9 to 14) (size 15 to 20)
#    0.000    2.000    1.250    1.875    1.750    2.500 
#    0.000    7.500    0.000    0.000    0.000    0.000 
#    0.000    0.000    0.000    0.000    0.000    0.000 
#
# Total GULP energy -396639.589941 kJ/mol
# GULP energy per Si atom -12394.987186 kJ/mol
# Density = 2.076790 g / cm^3
# Si number density = 20.815280 Si / 1000 Ang^3
#
#
#
# Elastic Constant Matrix: (Units=GPa)
#
#
# Indices 1 2 3 4 5 6 
#
# 1 42.2501 10.9827 12.5627 0.0000 0.0000 0.0000
# 2 10.9827 84.1277 47.0017 0.0000 0.0000 0.0000
# 3 12.5627 47.0017 98.0756 0.0000 0.0000 0.0000
# 4 0.0000 0.0000 0.0000 24.7099 0.0000 0.0000
# 5 0.0000 0.0000 0.0000 0.0000 28.9474 0.0000
# 6 0.0000 0.0000 0.0000 0.0000 0.0000 26.1595
#
#
#
# Elastic Compliance Matrix: (Units=1/GPa)
#
#
# Indices 1 2 3 4 5 6 
#
# 1 0.024850 -0.002002 -0.002224 0.000000 0.000000 0.000000
# 2 -0.002002 0.016394 -0.007600 0.000000 0.000000 0.000000
# 3 -0.002224 -0.007600 0.014123 0.000000 0.000000 0.000000
# 4 0.000000 0.000000 0.000000 0.040470 0.000000 0.000000
# 5 0.000000 0.000000 0.000000 0.000000 0.034545 0.000000
# 6 0.000000 0.000000 0.000000 0.000000 0.000000 0.038227
#
#
# Mechanical properties :
#
#
# Convention : Reuss Voigt Hill
#
# Bulk Modulus (GPa) = 31.52973 40.61640 36.07306
# Shear Modulus (GPa) = 24.65073 26.22379 25.43726
#
# Velocity S-wave (km/s) = 3.44504 3.55326 3.49957
# Velocity P-wave (km/s) = 5.56819 6.03236 5.80492
#
# Compressibility (1/GPa) = 0.03171610
#
# Stress axis : x y z
#
# Youngs Moduli (GPa) = 40.24120 60.99673 70.80405
#
# Poissons Ratio (x) = 0.12210 0.15745
# Poissons Ratio (y) = 0.08055 0.53814
# Poissons Ratio (z) = 0.08949 0.46360
#
# Static dielectric constant tensor:
#      x y z
#    x 3.592150 0.000000 0.000000 
#    y 0.000000 3.892810 0.000000 
#    z 0.000000 0.000000 3.811230 
# 
# 
# High freq. dielectric constant tensor:
#      x y z
#    x 1.799760 0.000000 0.000000 
#    y 0.000000 1.815460 0.000000 
#    z 0.000000 0.000000 1.810330 
# 
# From -- ./inp_files/11022.got.cif
#   From: 2010.03.12/outbox.cif.g09.slc.cpg/sg36_6_cif.got.tgz:11022.got - 2010.04.14 02:13:53.
