data_PCOD8175970
_publ_section_title
;
Structure prediction by ZEFSAII (Michael W. Deem and Ramdas Pophale) SiO2 
 PCOD8175970
Probable space group: C M C 21
;
_chemical_formula_sum "Si O2"
_cell_formula_units_Z 64
_cell_length_a 8.589483
_cell_length_b 19.698868
_cell_length_c 18.606225
_cell_angle_alpha 90.000000
_cell_angle_beta 90.000000
_cell_angle_gamma 90.000000
_cell_volume 3148.230797
_symmetry_space_group_name_H-M "C M C 21"
_symmetry_group_IT_number 36
_symmetry_cell_setting 'orthorhombic'
loop_
_space_group_symop_operation_xyz
x,y,z
-x,-y,1/2+z
x,-y,1/2+z
-x,y,z
1/2+x,1/2+y,z
1/2-x,1/2-y,1/2+z
1/2+x,1/2-y,1/2+z
1/2-x,1/2+y,z
loop_
_atom_site_type_symbol
_atom_site_label
_atom_site_fract_x
_atom_site_fract_y
_atom_site_fract_z
Si Si1 0.319404 0.946661 0.534090
Si Si2 0.814955 0.877317 0.205488
Si Si3 0.817024 0.379089 0.801387
Si Si4 0.184353 0.166776 0.552291
Si Si5 0.183588 0.943937 0.939682
Si Si6 0.316715 0.726257 0.823322
Si Si7 0.318830 0.800503 0.476244
Si Si8 0.681941 0.471033 0.685851
O O1 0.500000 0.958314 0.551224
O O2 0.282099 0.868664 0.518707
O O3 0.268985 0.987176 0.462874
O O4 0.217676 0.971420 0.601225
O O5 0.743732 0.851560 0.129707
O O6 0.745368 0.829006 0.267829
O O7 0.767306 0.955764 0.218315
O O8 0.000000 0.871734 0.202803
O O9 0.729252 0.425627 0.858923
O O10 0.752624 0.301829 0.805627
O O11 0.778802 0.410977 0.723723
O O12 0.000000 0.380911 0.815997
O O13 0.245879 0.114763 0.492414
O O14 0.239772 0.241362 0.529221
O O15 0.000000 0.162443 0.556156
O O16 0.000000 0.954821 0.944317
O O17 0.500000 0.727132 0.814185
O O18 0.274764 0.702646 0.902609
O O19 0.500000 0.792480 0.457071
O O20 0.500000 0.458083 0.697706
#
# Coordination Sequence:
#
# PCOD8175970 Si02
#       8
#     8   8   8   8   8   8   8   8
#     4  11  24  40  61  92 127 159 198 256 315 360
#     4   9  19  37  61  87 112 151 204 249 295 354
#     4  11  24  40  60  90 127 160 197 254 313 361
#     4   9  17  35  63  86 109 148 201 249 291 350
#     4  11  21  39  66  88 114 160 208 250 295 363
#     4  10  22  39  62  88 119 157 200 251 303 361
#     4  10  22  39  62  88 120 159 199 247 304 363
#     4  11  23  41  63  89 120 162 211 250 294 366
#
# _framework density 20.328878
#
# number of rings (size 3 to 8) (size 9 to 14) (size 15 to 20)
#    0.000    1.750    2.500    1.500    3.500    1.500 
#    0.000    0.625    0.000    0.000    0.000    0.000 
#    0.000    0.000    0.000    0.000    0.000    0.000 
#
# Total GULP energy -396899.947043 kJ/mol
# GULP energy per Si atom -12403.123345 kJ/mol
# Density = 2.028261 g / cm^3
# Si number density = 20.328878 Si / 1000 Ang^3
#
#
#
# Elastic Constant Matrix: (Units=GPa)
#
#
# Indices 1 2 3 4 5 6 
#
# 1 31.0425 37.7465 14.1065 0.0000 0.0000 0.0000
# 2 37.7465 99.5137 30.0158 0.0000 0.0000 0.0000
# 3 14.1065 30.0158 81.6862 0.0000 0.0000 0.0000
# 4 0.0000 0.0000 0.0000 40.1259 0.0000 0.0000
# 5 0.0000 0.0000 0.0000 0.0000 32.7190 0.0000
# 6 0.0000 0.0000 0.0000 0.0000 0.0000 23.3025
#
#
#
# Elastic Compliance Matrix: (Units=1/GPa)
#
#
# Indices 1 2 3 4 5 6 
#
# 1 0.060158 -0.022139 -0.002254 0.000000 0.000000 0.000000
# 2 -0.022139 0.019449 -0.003323 0.000000 0.000000 0.000000
# 3 -0.002254 -0.003323 0.013852 0.000000 0.000000 0.000000
# 4 0.000000 0.000000 0.000000 0.024922 0.000000 0.000000
# 5 0.000000 0.000000 0.000000 0.000000 0.030563 0.000000
# 6 0.000000 0.000000 0.000000 0.000000 0.000000 0.042914
#
#
# Mechanical properties :
#
#
# Convention : Reuss Voigt Hill
#
# Bulk Modulus (GPa) = 26.29687 41.77553 34.03620
# Shear Modulus (GPa) = 19.23337 27.92106 23.57721
#
# Velocity S-wave (km/s) = 3.07923 3.71005 3.40926
# Velocity P-wave (km/s) = 5.06024 6.24076 5.68125
#
# Compressibility (1/GPa) = 0.03802734
#
# Stress axis : x y z
#
# Youngs Moduli (GPa) = 16.62291 51.41741 72.18992
#
# Poissons Ratio (x) = 1.13831 0.16270
# Poissons Ratio (y) = 0.36801 0.23991
# Poissons Ratio (z) = 0.03747 0.17088
#
# Static dielectric constant tensor:
#      x y z
#    x 3.337240 0.000000 0.000000 
#    y 0.000000 3.952650 0.000000 
#    z 0.000000 0.000000 3.704030 
# 
# 
# High freq. dielectric constant tensor:
#      x y z
#    x 1.766160 0.000000 0.000000 
#    y 0.000000 1.810170 0.000000 
#    z 0.000000 0.000000 1.799460 
# 
# From -- ./inp_files/13876.got.cif
#   From: 2010.03.12/outbox.cif.g09.slc.cpg/sg36_7_cif.got.tgz:13876.got - 2010.04.14 02:13:53.
