data_PCOD8175972
_publ_section_title
;
Structure prediction by ZEFSAII (Michael W. Deem and Ramdas Pophale) SiO2 
 PCOD8175972
Probable space group: C M C 21
;
_chemical_formula_sum "Si O2"
_cell_formula_units_Z 40
_cell_length_a 23.447253
_cell_length_b 16.006881
_cell_length_c 5.209858
_cell_angle_alpha 90.000000
_cell_angle_beta 90.000000
_cell_angle_gamma 90.000000
_cell_volume 1955.350299
_symmetry_space_group_name_H-M "C M C 21"
_symmetry_group_IT_number 36
_symmetry_cell_setting 'orthorhombic'
loop_
_space_group_symop_operation_xyz
x,y,z
-x,-y,1/2+z
x,-y,1/2+z
-x,y,z
1/2+x,1/2+y,z
1/2-x,1/2-y,1/2+z
1/2+x,1/2-y,1/2+z
1/2-x,1/2+y,z
loop_
_atom_site_type_symbol
_atom_site_label
_atom_site_fract_x
_atom_site_fract_y
_atom_site_fract_z
Si Si1 0.251986 0.945552 0.696820
Si Si2 0.434478 0.460161 0.275564
Si Si3 0.169055 0.204718 0.255417
Si Si4 0.665479 0.802112 0.743308
Si Si5 0.065056 0.782517 0.058935
O O1 0.198368 0.884281 0.722785
O O2 0.312030 0.896495 0.729987
O O3 0.249142 0.984406 0.414388
O O4 0.404182 0.493203 0.534380
O O5 0.500000 0.490093 0.285068
O O6 0.429528 0.360558 0.253410
O O7 0.195049 0.248653 0.512583
O O8 0.100182 0.194100 0.298830
O O9 0.182367 0.263051 0.014562
O O10 0.596396 0.796326 0.698427
O O11 0.000000 0.760753 0.988846
#
# Coordination Sequence:
#
# PCOD8175972 Si02
#       5
#     8   8   8   8   8
#     4  12  24  40  66  93 123 160 207 260 319 367
#     4   9  18  30  46  71 108 149 188 230 275 332
#     4  10  22  39  62  89 126 159 203 254 307 367
#     4  10  22  41  62  89 126 160 205 259 304 368
#     4   9  22  38  62  88 121 168 208 245 303 374
#
# _framework density 20.456693999999999
#
# number of rings (size 3 to 8) (size 9 to 14) (size 15 to 20)
#    1.200    0.800    0.000    3.600    2.800    2.400 
#    0.000    0.000    0.000    1.200    0.000    0.000 
#    0.000    0.000    0.000    0.000    0.000    0.000 
#
# Total GULP energy -247797.919109 kJ/mol
# GULP energy per Si atom -12389.895955 kJ/mol
# Density = 2.041013 g / cm^3
# Si number density = 20.456694 Si / 1000 Ang^3
#
#
#
# Elastic Constant Matrix: (Units=GPa)
#
#
# Indices 1 2 3 4 5 6 
#
# 1 99.2281 24.0391 4.3761 0.0000 0.0000 0.0000
# 2 24.0391 58.0647 13.1296 0.0000 0.0000 0.0000
# 3 4.3761 13.1296 110.1570 0.0000 0.0000 0.0000
# 4 0.0000 0.0000 0.0000 15.9472 0.0000 0.0000
# 5 0.0000 0.0000 0.0000 0.0000 3.3525 0.0000
# 6 0.0000 0.0000 0.0000 0.0000 0.0000 28.4199
#
#
#
# Elastic Compliance Matrix: (Units=1/GPa)
#
#
# Indices 1 2 3 4 5 6 
#
# 1 0.011203 -0.004663 0.000111 0.000000 0.000000 0.000000
# 2 -0.004663 0.019640 -0.002156 0.000000 0.000000 0.000000
# 3 0.000111 -0.002156 0.009330 0.000000 0.000000 0.000000
# 4 0.000000 0.000000 0.000000 0.062707 0.000000 0.000000
# 5 0.000000 0.000000 0.000000 0.000000 0.298289 0.000000
# 6 0.000000 0.000000 0.000000 0.000000 0.000000 0.035187
#
#
# Mechanical properties :
#
#
# Convention : Reuss Voigt Hill
#
# Bulk Modulus (GPa) = 37.37287 38.94884 38.16085
# Shear Modulus (GPa) = 10.90059 24.60424 17.75242
#
# Velocity S-wave (km/s) = 2.31088 3.47183 2.94905
# Velocity P-wave (km/s) = 5.04273 5.92895 5.50371
#
# Compressibility (1/GPa) = 0.02675738
#
# Stress axis : x y z
#
# Youngs Moduli (GPa) = 89.26531 50.91623 107.17553
#
# Poissons Ratio (x) = 0.23742 -0.01187
# Poissons Ratio (y) = 0.41624 0.23103
# Poissons Ratio (z) = -0.00989 0.10976
#
# Static dielectric constant tensor:
#      x y z
#    x 3.715480 0.000000 0.000000 
#    y 0.000000 3.390060 0.000000 
#    z 0.000000 0.000000 3.924160 
# 
# 
# High freq. dielectric constant tensor:
#      x y z
#    x 1.786060 0.000000 0.000000 
#    y 0.000000 1.766140 0.000000 
#    z 0.000000 0.000000 1.818460 
# 
# From -- ./inp_files/1694.got.cif
#   From: 2010.03.12/outbox.cif.g09.slc.cpg/sg36_1_cif.got.tgz:1694.got - 2010.04.14 02:13:53.
