data_PCOD8175796
_publ_section_title
;
Structure prediction by ZEFSAII (Michael W. Deem and Ramdas Pophale) SiO2 
 PCOD8175796
Probable space group: C M C 21
;
_chemical_formula_sum "Si O2"
_cell_formula_units_Z 64
_cell_length_a 17.174183
_cell_length_b 9.621150
_cell_length_c 19.243724
_cell_angle_alpha 90.000000
_cell_angle_beta 90.000000
_cell_angle_gamma 90.000000
_cell_volume 3179.744255
_symmetry_space_group_name_H-M "C M C 21"
_symmetry_group_IT_number 36
_symmetry_cell_setting 'orthorhombic'
loop_
_space_group_symop_operation_xyz
x,y,z
-x,-y,1/2+z
x,-y,1/2+z
-x,y,z
1/2+x,1/2+y,z
1/2-x,1/2-y,1/2+z
1/2+x,1/2-y,1/2+z
1/2-x,1/2+y,z
loop_
_atom_site_type_symbol
_atom_site_label
_atom_site_fract_x
_atom_site_fract_y
_atom_site_fract_z
Si Si1 0.129484 0.354153 0.608650
Si Si2 0.700756 0.488978 0.967170
Si Si3 0.318511 0.476774 0.316224
Si Si4 0.158215 0.319792 0.460793
Si Si5 0.586955 0.856370 0.165887
Si Si6 0.184572 0.874261 0.605851
Si Si7 0.335514 0.203751 0.807514
Si Si8 0.088598 0.915928 0.192139
O O1 0.101122 0.338000 0.527523
O O2 0.089677 0.484158 0.644412
O O3 0.222849 0.363779 0.612373
O O4 0.097799 0.225883 0.651626
O O5 0.655485 0.532455 0.896952
O O6 0.788107 0.544516 0.961988
O O7 0.706621 0.322392 0.975425
O O8 0.657740 0.559871 0.032480
O O9 0.306687 0.638625 0.295986
O O10 0.238297 0.396891 0.302571
O O11 0.387392 0.401956 0.273034
O O12 0.120946 0.311186 0.383329
O O13 0.500000 0.798980 0.153585
O O14 0.647903 0.777758 0.115920
O O15 0.605067 0.839218 0.247486
O O16 0.149443 0.970368 0.665436
O O17 0.000000 0.968969 0.186372
#
# Coordination Sequence:
#
# PCOD8175796 Si02
#       8
#     8   8   8   8   8   8   8   8
#     4  11  23  41  64  91 116 159 206 246 298 357
#     4   9  19  35  60  93 119 149 200 257 298 347
#     4  10  21  38  62  91 119 157 204 249 299 355
#     4   9  19  36  61  92 119 149 200 256 298 346
#     4  12  26  41  58  89 129 163 197 246 303 357
#     4  11  21  39  66  90 115 153 205 246 296 353
#     4  10  21  39  63  90 119 157 204 249 296 358
#     4  12  24  39  58  88 126 157 194 247 300 351
#
# _framework density 20.127406000000001
#
# number of rings (size 3 to 8) (size 9 to 14) (size 15 to 20)
#    0.000    1.500    2.500    3.000    7.000    0.000 
#    0.000    2.500    0.000    0.000    0.000    0.000 
#    0.000    0.000    0.000    0.000    0.000    0.000 
#
# Total GULP energy -396630.462544 kJ/mol
# GULP energy per Si atom -12394.701955 kJ/mol
# Density = 2.008160 g / cm^3
# Si number density = 20.127406 Si / 1000 Ang^3
#
#
#
# Elastic Constant Matrix: (Units=GPa)
#
#
# Indices 1 2 3 4 5 6 
#
# 1 75.5000 7.8543 28.4741 0.0000 0.0000 0.0000
# 2 7.8543 68.7624 27.1655 0.0000 0.0000 0.0000
# 3 28.4741 27.1655 129.4405 0.0000 0.0000 0.0000
# 4 0.0000 0.0000 0.0000 35.2329 0.0000 0.0000
# 5 0.0000 0.0000 0.0000 0.0000 2.2995 0.0000
# 6 0.0000 0.0000 0.0000 0.0000 0.0000 15.4430
#
#
#
# Elastic Compliance Matrix: (Units=1/GPa)
#
#
# Indices 1 2 3 4 5 6 
#
# 1 0.014455 -0.000431 -0.003089 0.000000 0.000000 0.000000
# 2 -0.000431 0.015870 -0.003236 0.000000 0.000000 0.000000
# 3 -0.003089 -0.003236 0.009084 0.000000 0.000000 0.000000
# 4 0.000000 0.000000 0.000000 0.028383 0.000000 0.000000
# 5 0.000000 0.000000 0.000000 0.000000 0.434870 0.000000
# 6 0.000000 0.000000 0.000000 0.000000 0.000000 0.064754
#
#
# Mechanical properties :
#
#
# Convention : Reuss Voigt Hill
#
# Bulk Modulus (GPa) = 38.61342 44.52117 41.56730
# Shear Modulus (GPa) = 8.48089 24.60904 16.54496
#
# Velocity S-wave (km/s) = 2.05493 3.50045 2.87018
# Velocity P-wave (km/s) = 4.98563 6.20526 5.62858
#
# Compressibility (1/GPa) = 0.02589773
#
# Stress axis : x y z
#
# Youngs Moduli (GPa) = 69.18041 63.01027 110.08018
#
# Poissons Ratio (x) = 0.02713 0.34008
# Poissons Ratio (y) = 0.02979 0.35622
# Poissons Ratio (z) = 0.21373 0.20390
#
# Static dielectric constant tensor:
#      x y z
#    x 3.209050 0.000000 0.000000 
#    y 0.000000 3.830260 0.000000 
#    z 0.000000 0.000000 4.310250 
# 
# 
# High freq. dielectric constant tensor:
#      x y z
#    x 1.737640 0.000000 0.000000 
#    y 0.000000 1.800450 0.000000 
#    z 0.000000 0.000000 1.812650 
# 
# From -- ./inp_files/16224.got.cif
#   From: 2010.03.12/outbox.cif.g09.slc.cpg/sg36_9_cif.got.tgz:16224.got - 2010.04.14 02:13:53.
