data_PCOD8175979
_publ_section_title
;
Structure prediction by ZEFSAII (Michael W. Deem and Ramdas Pophale) SiO2 
 PCOD8175979
Probable space group: C M C 21
;
_chemical_formula_sum "Si O2"
_cell_formula_units_Z 32
_cell_length_a 20.745847
_cell_length_b 4.783010
_cell_length_c 11.877830
_cell_angle_alpha 90.000000
_cell_angle_beta 90.000000
_cell_angle_gamma 90.000000
_cell_volume 1178.608489
_symmetry_space_group_name_H-M "C M C 21"
_symmetry_group_IT_number 36
_symmetry_cell_setting 'orthorhombic'
loop_
_space_group_symop_operation_xyz
x,y,z
-x,-y,1/2+z
x,-y,1/2+z
-x,y,z
1/2+x,1/2+y,z
1/2-x,1/2-y,1/2+z
1/2+x,1/2-y,1/2+z
1/2-x,1/2+y,z
loop_
_atom_site_type_symbol
_atom_site_label
_atom_site_fract_x
_atom_site_fract_y
_atom_site_fract_z
Si Si1 0.896263 0.347898 0.429880
Si Si2 0.500000 0.939421 0.614829
Si Si3 0.703436 0.242581 0.323708
Si Si4 0.207882 0.890708 0.074232
Si Si5 0.500000 0.419470 0.770240
O O1 0.937829 0.420946 0.537892
O O2 0.862774 0.628597 0.380158
O O3 0.842965 0.136678 0.475067
O O4 0.935893 0.167331 0.338543
O O5 0.500000 0.743238 0.728389
O O6 0.500000 0.257648 0.653476
O O7 0.735538 0.542064 0.352838
O O8 0.681769 0.278887 0.193451
O O9 0.275009 0.718339 0.058468
#
# Coordination Sequence:
#
# PCOD8175979 Si02
#       5
#     8   4   8   8   4
#     4  11  24  44  72  94 132 181 222 272 340 403
#     4  11  28  47  66  96 130 173 230 285 330 388
#     4  10  22  39  64 100 135 168 211 265 326 397
#     4  10  22  39  64 100 135 168 211 265 326 397
#     4  11  28  47  66  96 130 173 230 285 330 388
#
# _framework density 27.150662000000001
#
# number of rings (size 3 to 8) (size 9 to 14) (size 15 to 20)
#    0.000    1.500    0.000    3.000    0.000   18.000 
#    0.000    0.000    0.000    0.000    0.000    0.000 
#    0.000    0.000    0.000    0.000    0.000    0.000 
#
# Total GULP energy -198238.279881 kJ/mol
# GULP energy per Si atom -12389.892493 kJ/mol
# Density = 2.708887 g / cm^3
# Si number density = 27.150662 Si / 1000 Ang^3
#
#
#
# Elastic Constant Matrix: (Units=GPa)
#
#
# Indices 1 2 3 4 5 6 
#
# 1 117.9297 27.9955 86.2081 0.0000 0.0000 0.0000
# 2 27.9955 108.6295 33.6074 0.0000 0.0000 0.0000
# 3 86.2081 33.6074 124.8461 0.0000 0.0000 0.0000
# 4 0.0000 0.0000 0.0000 41.9847 0.0000 0.0000
# 5 0.0000 0.0000 0.0000 0.0000 38.1499 0.0000
# 6 0.0000 0.0000 0.0000 0.0000 0.0000 5.9450
#
#
#
# Elastic Compliance Matrix: (Units=1/GPa)
#
#
# Indices 1 2 3 4 5 6 
#
# 1 0.017191 -0.000827 -0.011648 0.000000 0.000000 0.000000
# 2 -0.000827 0.010082 -0.002143 0.000000 0.000000 0.000000
# 3 -0.011648 -0.002143 0.016630 0.000000 0.000000 0.000000
# 4 0.000000 0.000000 0.000000 0.023818 0.000000 0.000000
# 5 0.000000 0.000000 0.000000 0.000000 0.026212 0.000000
# 6 0.000000 0.000000 0.000000 0.000000 0.000000 0.168210
#
#
# Mechanical properties :
#
#
# Convention : Reuss Voigt Hill
#
# Bulk Modulus (GPa) = 68.18089 71.89192 70.03640
# Shear Modulus (GPa) = 16.87670 30.78886 23.83278
#
# Velocity S-wave (km/s) = 2.49588 3.37115 2.96598
# Velocity P-wave (km/s) = 5.78554 6.45672 6.13032
#
# Compressibility (1/GPa) = 0.01466687
#
# Stress axis : x y z
#
# Youngs Moduli (GPa) = 58.17137 99.18993 60.13326
#
# Poissons Ratio (x) = 0.08200 0.70042
# Poissons Ratio (y) = 0.04809 0.12887
# Poissons Ratio (z) = 0.67757 0.21257
#
# Static dielectric constant tensor:
#      x y z
#    x 5.138300 0.000000 0.000000 
#    y 0.000000 4.868590 0.000000 
#    z 0.000000 0.000000 5.621850 
# 
# 
# High freq. dielectric constant tensor:
#      x y z
#    x 2.096070 0.000000 0.000000 
#    y 0.000000 2.099320 0.000000 
#    z 0.000000 0.000000 2.132280 
# 
# From -- ./inp_files/12733.got.cif
#   From: 2010.03.12/outbox.cif.g09.slc.cpg/sg36_7_cif.got.tgz:12733.got - 2010.04.14 02:13:53.
