data_PCOD8175738
_publ_section_title
;
Structure prediction by ZEFSAII (Michael W. Deem and Ramdas Pophale) SiO2 
 PCOD8175738
Probable space group: C M C 21
;
_chemical_formula_sum "Si O2"
_cell_formula_units_Z 64
_cell_length_a 22.776240
_cell_length_b 9.181775
_cell_length_c 14.947939
_cell_angle_alpha 90.000000
_cell_angle_beta 90.000000
_cell_angle_gamma 90.000000
_cell_volume 3126.007341
_symmetry_space_group_name_H-M "C M C 21"
_symmetry_group_IT_number 36
_symmetry_cell_setting 'orthorhombic'
loop_
_space_group_symop_operation_xyz
x,y,z
-x,-y,1/2+z
x,-y,1/2+z
-x,y,z
1/2+x,1/2+y,z
1/2-x,1/2-y,1/2+z
1/2+x,1/2-y,1/2+z
1/2-x,1/2+y,z
loop_
_atom_site_type_symbol
_atom_site_label
_atom_site_fract_x
_atom_site_fract_y
_atom_site_fract_z
Si Si1 0.843388 0.086478 0.274180
Si Si2 0.310806 0.798686 0.612789
Si Si3 0.140081 0.843203 0.406989
Si Si4 0.433365 0.947477 0.629916
Si Si5 0.119839 0.591983 0.796963
Si Si6 0.800145 0.979388 0.576212
Si Si7 0.215636 0.632624 0.302579
Si Si8 0.434639 0.915953 0.946426
O O1 0.880060 0.234391 0.287334
O O2 0.832724 0.056953 0.169623
O O3 0.782235 0.099451 0.327391
O O4 0.875602 0.954813 0.326263
O O5 0.380677 0.832953 0.611533
O O6 0.267466 0.923013 0.572339
O O7 0.298596 0.651591 0.558861
O O8 0.290303 0.768021 0.714233
O O9 0.159583 0.916856 0.498345
O O10 0.189675 0.724437 0.383585
O O11 0.081638 0.749177 0.421406
O O12 0.500000 0.878037 0.627648
O O13 0.425195 0.025682 0.724895
O O14 0.427448 0.067838 0.552704
O O15 0.184263 0.522474 0.781075
O O16 0.101846 0.542678 0.896381
O O17 0.500000 0.940849 0.913603
#
# Coordination Sequence:
#
# PCOD8175738 Si02
#       8
#     8   8   8   8   8   8   8   8
#     4  11  22  38  58  93 126 155 196 255 307 368
#     4  10  23  40  61  92 127 163 201 255 305 364
#     4  11  23  38  61  89 123 162 199 249 310 370
#     4  10  22  41  67  88 117 163 212 251 296 365
#     4  10  21  37  64  88 118 159 207 248 295 367
#     4  11  25  38  61  94 129 163 198 252 313 371
#     4   9  20  37  57  86 126 163 192 240 307 363
#     4  10  23  43  63  86 116 160 208 256 307 364
#
# _framework density 20.473400999999999
#
# number of rings (size 3 to 8) (size 9 to 14) (size 15 to 20)
#    0.000    1.750    1.250    1.875   14.000    1.000 
#    0.000    1.875    0.000    2.250    0.000    0.000 
#    0.000    0.000    0.000    0.000    0.000    0.000 
#
# Total GULP energy -396699.857845 kJ/mol
# GULP energy per Si atom -12396.870558 kJ/mol
# Density = 2.042680 g / cm^3
# Si number density = 20.473401 Si / 1000 Ang^3
#
#
#
# Elastic Constant Matrix: (Units=GPa)
#
#
# Indices 1 2 3 4 5 6 
#
# 1 85.9429 37.2682 12.1572 0.0000 0.0000 0.0000
# 2 37.2682 119.5633 21.5728 0.0000 0.0000 0.0000
# 3 12.1572 21.5728 78.9146 0.0000 0.0000 0.0000
# 4 0.0000 0.0000 0.0000 32.2277 0.0000 0.0000
# 5 0.0000 0.0000 0.0000 0.0000 21.5289 0.0000
# 6 0.0000 0.0000 0.0000 0.0000 0.0000 20.9185
#
#
#
# Elastic Compliance Matrix: (Units=1/GPa)
#
#
# Indices 1 2 3 4 5 6 
#
# 1 0.013526 -0.004039 -0.000980 0.000000 0.000000 0.000000
# 2 -0.004039 0.010004 -0.002112 0.000000 0.000000 0.000000
# 3 -0.000980 -0.002112 0.013400 0.000000 0.000000 0.000000
# 4 0.000000 0.000000 0.000000 0.031029 0.000000 0.000000
# 5 0.000000 0.000000 0.000000 0.000000 0.046449 0.000000
# 6 0.000000 0.000000 0.000000 0.000000 0.000000 0.047805
#
#
# Mechanical properties :
#
#
# Convention : Reuss Voigt Hill
#
# Bulk Modulus (GPa) = 44.11602 47.37967 45.74785
# Shear Modulus (GPa) = 27.16924 29.16318 28.16621
#
# Velocity S-wave (km/s) = 3.64682 3.77827 3.71313
# Velocity P-wave (km/s) = 6.27114 6.49816 6.38566
#
# Compressibility (1/GPa) = 0.02266750
#
# Stress axis : x y z
#
# Youngs Moduli (GPa) = 73.93282 99.96014 74.62512
#
# Poissons Ratio (x) = 0.40377 0.07310
# Poissons Ratio (y) = 0.29864 0.15765
# Poissons Ratio (z) = 0.07242 0.21117
#
# Static dielectric constant tensor:
#      x y z
#    x 3.612530 0.000000 0.000000 
#    y 0.000000 3.649740 0.000000 
#    z 0.000000 0.000000 3.736850 
# 
# 
# High freq. dielectric constant tensor:
#      x y z
#    x 1.780940 0.000000 0.000000 
#    y 0.000000 1.792410 0.000000 
#    z 0.000000 0.000000 1.811680 
# 
# From -- ./inp_files/12975.got.cif
#   From: 2010.03.12/outbox.cif.g09.slc.cpg/sg36_7_cif.got.tgz:12975.got - 2010.04.14 02:13:53.
