data_PCOD8175171
_publ_section_title
;
Structure prediction by ZEFSAII (Michael W. Deem and Ramdas Pophale) SiO2 
 PCOD8175171
Probable space group: C M C 21
;
_chemical_formula_sum "Si O2"
_cell_formula_units_Z 64
_cell_length_a 21.201919
_cell_length_b 18.905064
_cell_length_c 8.904242
_cell_angle_alpha 90.000000
_cell_angle_beta 90.000000
_cell_angle_gamma 90.000000
_cell_volume 3569.030651
_symmetry_space_group_name_H-M "C M C 21"
_symmetry_group_IT_number 36
_symmetry_cell_setting 'orthorhombic'
loop_
_space_group_symop_operation_xyz
x,y,z
-x,-y,1/2+z
x,-y,1/2+z
-x,y,z
1/2+x,1/2+y,z
1/2-x,1/2-y,1/2+z
1/2+x,1/2-y,1/2+z
1/2-x,1/2+y,z
loop_
_atom_site_type_symbol
_atom_site_label
_atom_site_fract_x
_atom_site_fract_y
_atom_site_fract_z
Si Si1 0.182486 0.711727 0.854870
Si Si2 0.240915 0.436233 0.849234
Si Si3 0.767936 0.417398 0.194490
Si Si4 0.782596 0.297658 0.692498
Si Si5 0.139040 0.835663 0.232479
Si Si6 0.927371 0.069831 0.952519
Si Si7 0.385668 0.436166 0.775629
Si Si8 0.428850 0.695463 0.433558
O O1 0.182676 0.639163 0.761480
O O2 0.215170 0.772968 0.756564
O O3 0.111078 0.735545 0.886240
O O4 0.220039 0.702596 0.011857
O O5 0.220097 0.511250 0.785100
O O6 0.204763 0.376383 0.752633
O O7 0.315796 0.427301 0.839832
O O8 0.218040 0.429453 0.019972
O O9 0.696897 0.390117 0.216897
O O10 0.836143 0.244299 0.754524
O O11 0.097004 0.858265 0.374046
O O12 0.096255 0.840292 0.085427
O O13 0.000000 0.079451 0.999085
O O14 0.920577 0.004447 0.840225
O O15 0.883811 0.054692 0.096404
O O16 0.425714 0.365878 0.809539
O O17 0.500000 0.722036 0.454243
#
# Coordination Sequence:
#
# PCOD8175171 Si02
#       8
#     8   8   8   8   8   8   8   8
#     4  10  21  36  55  84 107 147 183 231 281 329
#     4  12  21  37  55  82 109 148 175 232 287 339
#     4  11  22  35  56  80 112 141 185 229 287 334
#     4  10  20  34  56  78 110 140 184 228 285 328
#     4  10  21  36  54  80 106 149 185 230 273 323
#     4  12  24  36  50  73 109 155 194 231 266 317
#     4  12  23  36  50  76 107 148 195 223 271 329
#     4  11  21  38  57  79 113 150 190 226 270 333
#
# _framework density 17.932041000000002
#
# number of rings (size 3 to 8) (size 9 to 14) (size 15 to 20)
#    0.000    1.000    3.750    5.250    3.500    1.000 
#    0.000    0.000    0.000    0.000    0.000    8.750 
#    0.000    0.000    0.000    0.000    0.000    0.000 
#
# Total GULP energy -396943.735384 kJ/mol
# GULP energy per Si atom -12404.491731 kJ/mol
# Density = 1.789123 g / cm^3
# Si number density = 17.932041 Si / 1000 Ang^3
#
#
#
# Elastic Constant Matrix: (Units=GPa)
#
#
# Indices 1 2 3 4 5 6 
#
# 1 62.2432 38.6868 32.3148 0.0000 0.0000 0.0000
# 2 38.6868 124.3775 53.1777 0.0000 0.0000 0.0000
# 3 32.3148 53.1777 121.8169 0.0000 0.0000 0.0000
# 4 0.0000 0.0000 0.0000 34.7816 0.0000 0.0000
# 5 0.0000 0.0000 0.0000 0.0000 19.5924 0.0000
# 6 0.0000 0.0000 0.0000 0.0000 0.0000 22.6651
#
#
#
# Elastic Compliance Matrix: (Units=1/GPa)
#
#
# Indices 1 2 3 4 5 6 
#
# 1 0.020965 -0.005094 -0.003338 0.000000 0.000000 0.000000
# 2 -0.005094 0.011123 -0.003504 0.000000 0.000000 0.000000
# 3 -0.003338 -0.003504 0.010624 0.000000 0.000000 0.000000
# 4 0.000000 0.000000 0.000000 0.028751 0.000000 0.000000
# 5 0.000000 0.000000 0.000000 0.000000 0.051040 0.000000
# 6 0.000000 0.000000 0.000000 0.000000 0.000000 0.044121
#
#
# Mechanical properties :
#
#
# Convention : Reuss Voigt Hill
#
# Bulk Modulus (GPa) = 53.07841 61.86623 57.47232
# Shear Modulus (GPa) = 25.40966 27.69170 26.55068
#
# Velocity S-wave (km/s) = 3.76839 3.93397 3.85207
# Velocity P-wave (km/s) = 6.97125 7.43035 7.20446
#
# Compressibility (1/GPa) = 0.01884005
#
# Stress axis : x y z
#
# Youngs Moduli (GPa) = 47.69861 89.90624 94.12502
#
# Poissons Ratio (x) = 0.45798 0.31417
# Poissons Ratio (y) = 0.24297 0.32983
# Poissons Ratio (z) = 0.15921 0.31505
#
# Static dielectric constant tensor:
#      x y z
#    x 3.019900 0.000000 0.000000 
#    y 0.000000 3.378320 0.000000 
#    z 0.000000 0.000000 3.458170 
# 
# 
# High freq. dielectric constant tensor:
#      x y z
#    x 1.655250 0.000000 0.000000 
#    y 0.000000 1.695490 0.000000 
#    z 0.000000 0.000000 1.711780 
# 
# From -- ./inp_files/5320.got.cif
#   From: 2010.03.12/outbox.cif.g09.slc.cpg/sg36_3_cif.got.tgz:5320.got - 2010.04.14 02:13:53.
