data_PCOD8175001
_publ_section_title
;
Structure prediction by ZEFSAII (Michael W. Deem and Ramdas Pophale) SiO2 
 PCOD8175001
Probable space group: C M C 21
;
_chemical_formula_sum "Si O2"
_cell_formula_units_Z 64
_cell_length_a 8.754959
_cell_length_b 24.191355
_cell_length_c 15.454164
_cell_angle_alpha 90.000000
_cell_angle_beta 90.000000
_cell_angle_gamma 90.000000
_cell_volume 3273.104174
_symmetry_space_group_name_H-M "C M C 21"
_symmetry_group_IT_number 36
_symmetry_cell_setting 'orthorhombic'
loop_
_space_group_symop_operation_xyz
x,y,z
-x,-y,1/2+z
x,-y,1/2+z
-x,y,z
1/2+x,1/2+y,z
1/2-x,1/2-y,1/2+z
1/2+x,1/2-y,1/2+z
1/2-x,1/2+y,z
loop_
_atom_site_type_symbol
_atom_site_label
_atom_site_fract_x
_atom_site_fract_y
_atom_site_fract_z
Si Si1 0.680437 0.759078 0.462160
Si Si2 0.819154 0.060155 0.313222
Si Si3 0.680586 0.991757 0.467453
Si Si4 0.319822 0.124582 0.906802
Si Si5 0.327024 0.241206 0.641775
Si Si6 0.322269 0.513786 0.649792
Si Si7 0.818334 0.186580 0.302940
Si Si8 0.672336 0.119137 0.711593
O O1 0.500000 0.760310 0.450831
O O2 0.750238 0.820539 0.450179
O O3 0.722243 0.741478 0.557948
O O4 0.746630 0.717040 0.389172
O O5 0.750936 0.036503 0.402041
O O6 0.760316 0.123182 0.301084
O O7 0.000000 0.058454 0.322163
O O8 0.765900 0.024160 0.230234
O O9 0.500000 0.994753 0.455472
O O10 0.723578 0.001208 0.565992
O O11 0.748826 0.931148 0.447237
O O12 0.500000 0.124598 0.919031
O O13 0.271021 0.126550 0.808242
O O14 0.500000 0.259187 0.619214
O O15 0.259962 0.281238 0.716957
O O16 0.321832 0.178258 0.669034
O O17 0.500000 0.503955 0.630668
O O18 0.291961 0.577945 0.668090
O O19 0.000000 0.189023 0.303770
O O20 0.500000 0.094592 0.706890
#
# Coordination Sequence:
#
# PCOD8175001 Si02
#       8
#     8   8   8   8   8   8   8   8
#     4  10  20  37  60  85 113 150 191 232 283 342
#     4  10  22  40  59  84 118 155 194 238 290 349
#     4  11  23  39  61  86 115 153 197 243 292 341
#     4   9  18  36  61  84 109 147 194 240 286 338
#     4  10  21  37  60  87 114 149 191 235 284 341
#     4  11  24  39  58  86 119 154 194 238 291 348
#     4   9  19  38  60  80 113 155 186 224 285 346
#     4  10  19  38  63  84 111 147 195 244 287 339
#
# _framework density 19.553305000000002
#
# number of rings (size 3 to 8) (size 9 to 14) (size 15 to 20)
#    0.000    2.000    2.500    0.750    3.500    1.000 
#    0.000    2.500    0.000    0.000    0.000    0.000 
#    0.000    0.000    0.000    0.000    0.000    0.000 
#
# Total GULP energy -396730.794794 kJ/mol
# GULP energy per Si atom -12397.837337 kJ/mol
# Density = 1.950880 g / cm^3
# Si number density = 19.553305 Si / 1000 Ang^3
#
#
#
# Elastic Constant Matrix: (Units=GPa)
#
#
# Indices 1 2 3 4 5 6 
#
# 1 26.0268 23.1281 17.4226 0.0000 0.0000 0.0000
# 2 23.1281 135.0884 55.8903 0.0000 0.0000 0.0000
# 3 17.4226 55.8903 131.1260 0.0000 0.0000 0.0000
# 4 0.0000 0.0000 0.0000 31.4618 0.0000 0.0000
# 5 0.0000 0.0000 0.0000 0.0000 19.7034 0.0000
# 6 0.0000 0.0000 0.0000 0.0000 0.0000 -46.3993
#
#
#
# Elastic Compliance Matrix: (Units=1/GPa)
#
#
# Indices 1 2 3 4 5 6 
#
# 1 0.046520 -0.006565 -0.003383 0.000000 0.000000 0.000000
# 2 -0.006565 0.009914 -0.003353 0.000000 0.000000 0.000000
# 3 -0.003383 -0.003353 0.009505 0.000000 0.000000 0.000000
# 4 0.000000 0.000000 0.000000 0.031785 0.000000 0.000000
# 5 0.000000 0.000000 0.000000 0.000000 0.050753 0.000000
# 6 0.000000 0.000000 0.000000 0.000000 0.000000 -0.021552
#
#
# Mechanical properties :
#
#
# Convention : Reuss Voigt Hill
#
# Bulk Modulus (GPa) = 25.42151 53.90257 39.66204
# Shear Modulus (GPa) = 30.00493 14.00652 22.00572
#
# Velocity S-wave (km/s) = 3.92154 2.67933 3.35837
# Velocity P-wave (km/s) = 5.79086 6.09906 5.94696
#
# Compressibility (1/GPa) = 0.03933677
#
# Stress axis : x y z
#
# Youngs Moduli (GPa) = 21.49600 100.86816 105.20726
#
# Poissons Ratio (x) = 0.66220 0.35590
# Poissons Ratio (y) = 0.14112 0.35280
# Poissons Ratio (z) = 0.07272 0.33825
#
# Static dielectric constant tensor:
#      x y z
#    x 3.246800 0.000000 0.000000 
#    y 0.000000 3.848350 0.000000 
#    z 0.000000 0.000000 3.639730 
# 
# 
# High freq. dielectric constant tensor:
#      x y z
#    x 1.726700 0.000000 0.000000 
#    y 0.000000 1.778920 0.000000 
#    z 0.000000 0.000000 1.772470 
# 
# From -- ./inp_files/10953.got.cif
#   From: 2010.03.12/outbox.cif.g09.slc.cpg/sg36_6_cif.got.tgz:10953.got - 2010.04.14 02:13:53.
