data_PCOD8175725
_publ_section_title
;
Structure prediction by ZEFSAII (Michael W. Deem and Ramdas Pophale) SiO2 
 PCOD8175725
Probable space group: C M C 21
;
_chemical_formula_sum "Si O2"
_cell_formula_units_Z 64
_cell_length_a 18.113513
_cell_length_b 14.016420
_cell_length_c 11.934839
_cell_angle_alpha 90.000000
_cell_angle_beta 90.000000
_cell_angle_gamma 90.000000
_cell_volume 3030.095765
_symmetry_space_group_name_H-M "C M C 21"
_symmetry_group_IT_number 36
_symmetry_cell_setting 'orthorhombic'
loop_
_space_group_symop_operation_xyz
x,y,z
-x,-y,1/2+z
x,-y,1/2+z
-x,y,z
1/2+x,1/2+y,z
1/2-x,1/2-y,1/2+z
1/2+x,1/2-y,1/2+z
1/2-x,1/2+y,z
loop_
_atom_site_type_symbol
_atom_site_label
_atom_site_fract_x
_atom_site_fract_y
_atom_site_fract_z
Si Si1 0.917859 0.326004 0.877020
Si Si2 0.413528 0.896197 0.105633
Si Si3 0.584335 0.602934 0.877165
Si Si4 0.194356 0.899047 0.176714
Si Si5 0.826840 0.733975 0.749881
Si Si6 0.194380 0.898503 0.578255
Si Si7 0.913528 0.397059 0.648811
Si Si8 0.672937 0.234196 0.005458
O O1 0.923096 0.214712 0.875027
O O2 0.875358 0.360930 0.765021
O O3 0.000000 0.370991 0.877721
O O4 0.875385 0.358948 0.989876
O O5 0.500000 0.900083 0.089740
O O6 0.396673 0.826631 0.207992
O O7 0.379369 0.999695 0.126422
O O8 0.500000 0.559369 0.877602
O O9 0.628499 0.574514 0.763859
O O10 0.628144 0.576210 0.991340
O O11 0.256683 0.836295 0.238327
O O12 0.170942 0.833200 0.072495
O O13 0.223301 0.000109 0.127041
O O14 0.828662 0.832996 0.682915
O O15 0.837607 0.763178 0.877611
O O16 0.256808 0.835876 0.516827
O O17 0.896845 0.326561 0.547245
O O18 0.000000 0.401213 0.665078
#
# Coordination Sequence:
#
# PCOD8175725 Si02
#       8
#     8   8   8   8   8   8   8   8
#     4   9  18  36  59  84 122 169 211 253 306 376
#     4  10  21  37  59  91 129 172 214 258 316 380
#     4  11  22  44  71  92 125 173 221 267 321 382
#     4  11  25  45  67  94 127 168 215 268 320 385
#     4  11  24  41  64  96 130 169 209 261 324 382
#     4  11  25  45  67  94 127 168 215 268 320 385
#     4  10  21  37  59  91 129 172 214 258 316 380
#     4  11  24  41  64  96 130 169 209 261 324 382
#
# _framework density 21.121444
#
# number of rings (size 3 to 8) (size 9 to 14) (size 15 to 20)
#    0.000    1.500    3.750    0.750    3.500    1.000 
#    0.000    0.000    0.000    0.000    0.000    0.000 
#    0.000    0.000    0.000    0.000    0.000    0.000 
#
# Total GULP energy -396525.407844 kJ/mol
# GULP energy per Si atom -12391.418995 kJ/mol
# Density = 2.107337 g / cm^3
# Si number density = 21.121444 Si / 1000 Ang^3
#
#
#
# Elastic Constant Matrix: (Units=GPa)
#
#
# Indices 1 2 3 4 5 6 
#
# 1 46.9423 11.2561 25.3702 0.0000 0.0000 0.0000
# 2 11.2561 107.1273 38.8887 0.0000 0.0000 0.0000
# 3 25.3702 38.8887 164.6687 0.0000 0.0000 0.0000
# 4 0.0000 0.0000 0.0000 25.1207 0.0000 0.0000
# 5 0.0000 0.0000 0.0000 0.0000 31.3311 0.0000
# 6 0.0000 0.0000 0.0000 0.0000 0.0000 17.5272
#
#
#
# Elastic Compliance Matrix: (Units=1/GPa)
#
#
# Indices 1 2 3 4 5 6 
#
# 1 0.023392 -0.001257 -0.003307 0.000000 0.000000 0.000000
# 2 -0.001257 0.010278 -0.002233 0.000000 0.000000 0.000000
# 3 -0.003307 -0.002233 0.007110 0.000000 0.000000 0.000000
# 4 0.000000 0.000000 0.000000 0.039808 0.000000 0.000000
# 5 0.000000 0.000000 0.000000 0.000000 0.031917 0.000000
# 6 0.000000 0.000000 0.000000 0.000000 0.000000 0.057054
#
#
# Mechanical properties :
#
#
# Convention : Reuss Voigt Hill
#
# Bulk Modulus (GPa) = 36.78724 52.19648 44.49186
# Shear Modulus (GPa) = 26.01259 31.01068 28.51163
#
# Velocity S-wave (km/s) = 3.51318 3.83588 3.67807
# Velocity P-wave (km/s) = 5.82335 6.66219 6.25685
#
# Compressibility (1/GPa) = 0.02718334
#
# Stress axis : x y z
#
# Youngs Moduli (GPa) = 42.75055 97.29914 140.65166
#
# Poissons Ratio (x) = 0.12234 0.46513
# Poissons Ratio (y) = 0.05375 0.31414
# Poissons Ratio (z) = 0.14137 0.21732
#
# Static dielectric constant tensor:
#      x y z
#    x 3.896260 0.000000 0.000000 
#    y 0.000000 3.835630 0.000000 
#    z 0.000000 0.000000 6.585010 
# 
# 
# High freq. dielectric constant tensor:
#      x y z
#    x 1.809640 0.000000 0.000000 
#    y 0.000000 1.826470 0.000000 
#    z 0.000000 0.000000 1.840260 
# 
# From -- ./inp_files/8996.got.cif
#   From: 2010.03.12/outbox.cif.g09.slc.cpg/sg36_5_cif.got.tgz:8996.got - 2010.04.14 02:13:53.
