data_PCOD8175245
_publ_section_title
;
Structure prediction by ZEFSAII (Michael W. Deem and Ramdas Pophale) SiO2 
 PCOD8175245
Probable space group: C M C 21
;
_chemical_formula_sum "Si O2"
_cell_formula_units_Z 64
_cell_length_a 8.862885
_cell_length_b 24.085353
_cell_length_c 15.400404
_cell_angle_alpha 90.000000
_cell_angle_beta 90.000000
_cell_angle_gamma 90.000000
_cell_volume 3287.458233
_symmetry_space_group_name_H-M "C M C 21"
_symmetry_group_IT_number 36
_symmetry_cell_setting 'orthorhombic'
loop_
_space_group_symop_operation_xyz
x,y,z
-x,-y,1/2+z
x,-y,1/2+z
-x,y,z
1/2+x,1/2+y,z
1/2-x,1/2-y,1/2+z
1/2+x,1/2-y,1/2+z
1/2-x,1/2+y,z
loop_
_atom_site_type_symbol
_atom_site_label
_atom_site_fract_x
_atom_site_fract_y
_atom_site_fract_z
Si Si1 0.322335 0.251738 0.929850
Si Si2 0.320550 0.935879 0.331007
Si Si3 0.676593 0.860676 0.682793
Si Si4 0.676631 0.864612 0.489919
Si Si5 0.677229 0.247553 0.729721
Si Si6 0.678630 0.060885 0.337915
Si Si7 0.674650 0.370117 0.985642
Si Si8 0.325816 0.364369 0.182550
O O1 0.500000 0.253241 0.943340
O O2 0.253790 0.197373 0.977557
O O3 0.276162 0.247790 0.829908
O O4 0.255114 0.308581 0.969659
O O5 0.500000 0.935208 0.329910
O O6 0.255499 0.906933 0.418593
O O7 0.265582 0.903565 0.246650
O O8 0.258240 0.998566 0.327904
O O9 0.500000 0.847038 0.695001
O O10 0.708317 0.886614 0.587272
O O11 0.771521 0.804764 0.687373
O O12 0.735293 0.903749 0.755042
O O13 0.500000 0.860247 0.471212
O O14 0.500000 0.239122 0.716903
O O15 0.764467 0.198065 0.682916
O O16 0.500000 0.060708 0.341900
O O17 0.738752 0.085636 0.427328
O O18 0.500000 0.370687 0.957880
O O19 0.696173 0.387721 0.085375
O O20 0.500000 0.363998 0.209799
#
# Coordination Sequence:
#
# PCOD8175245 Si02
#       8
#     8   8   8   8   8   8   8   8
#     4   9  16  30  55  81 103 141 187 222 270 340
#     4  10  21  39  60  82 113 154 195 236 283 335
#     4  10  20  35  56  84 115 145 184 234 284 337
#     4   9  17  33  57  79 106 148 187 221 275 343
#     4  11  20  34  59  86 112 148 188 229 284 346
#     4  10  22  37  57  87 116 147 192 242 284 324
#     4  10  21  38  59  82 113 153 191 229 284 349
#     4  11  23  38  59  87 116 150 190 235 286 338
#
# _framework density 19.467925999999999
#
# number of rings (size 3 to 8) (size 9 to 14) (size 15 to 20)
#    0.000    2.000    2.500    1.500    0.000    4.500 
#    0.000    3.125    0.000    0.000    0.000    0.000 
#    0.000    0.000    0.000    0.000    0.000    0.000 
#
# Total GULP energy -396807.171778 kJ/mol
# GULP energy per Si atom -12400.224118 kJ/mol
# Density = 1.942362 g / cm^3
# Si number density = 19.467926 Si / 1000 Ang^3
#
#
#
# Elastic Constant Matrix: (Units=GPa)
#
#
# Indices 1 2 3 4 5 6 
#
# 1 10.6763 14.9578 19.1444 0.0000 0.0000 0.0000
# 2 14.9578 145.3169 53.4141 0.0000 0.0000 0.0000
# 3 19.1444 53.4141 104.4369 0.0000 0.0000 0.0000
# 4 0.0000 0.0000 0.0000 14.5041 0.0000 0.0000
# 5 0.0000 0.0000 0.0000 0.0000 25.9946 0.0000
# 6 0.0000 0.0000 0.0000 0.0000 0.0000 21.8117
#
#
#
# Elastic Compliance Matrix: (Units=1/GPa)
#
#
# Indices 1 2 3 4 5 6 
#
# 1 0.144076 -0.006308 -0.023184 0.000000 0.000000 0.000000
# 2 -0.006308 0.008751 -0.003319 0.000000 0.000000 0.000000
# 3 -0.023184 -0.003319 0.015523 0.000000 0.000000 0.000000
# 4 0.000000 0.000000 0.000000 0.068946 0.000000 0.000000
# 5 0.000000 0.000000 0.000000 0.000000 0.038470 0.000000
# 6 0.000000 0.000000 0.000000 0.000000 0.000000 0.045847
#
#
# Mechanical properties :
#
#
# Convention : Reuss Voigt Hill
#
# Bulk Modulus (GPa) = 9.73463 48.38476 29.05969
# Shear Modulus (GPa) = 11.86301 23.98965 17.92633
#
# Velocity S-wave (km/s) = 2.47120 3.51417 3.03778
# Velocity P-wave (km/s) = 3.62680 6.43222 5.22145
#
# Compressibility (1/GPa) = 0.10272609
#
# Stress axis : x y z
#
# Youngs Moduli (GPa) = 6.94077 114.27397 64.42173
#
# Poissons Ratio (x) = 0.72087 1.49357
# Poissons Ratio (y) = 0.04378 0.21383
# Poissons Ratio (z) = 0.16092 0.37931
#
# Static dielectric constant tensor:
#      x y z
#    x 3.224690 0.000000 0.000000 
#    y 0.000000 3.728600 0.000000 
#    z 0.000000 0.000000 3.698390 
# 
# 
# High freq. dielectric constant tensor:
#      x y z
#    x 1.724110 0.000000 0.000000 
#    y 0.000000 1.758770 0.000000 
#    z 0.000000 0.000000 1.772120 
# 
# From -- ./inp_files/10940.got.cif
#   From: 2010.03.12/outbox.cif.g09.slc.cpg/sg36_6_cif.got.tgz:10940.got - 2010.04.14 02:13:53.
