data_PCOD8175319
_publ_section_title
;
Structure prediction by ZEFSAII (Michael W. Deem and Ramdas Pophale) SiO2 
 PCOD8175319
Probable space group: C M C 21
;
_chemical_formula_sum "Si O2"
_cell_formula_units_Z 64
_cell_length_a 8.855697
_cell_length_b 15.445302
_cell_length_c 23.468015
_cell_angle_alpha 90.000000
_cell_angle_beta 90.000000
_cell_angle_gamma 90.000000
_cell_volume 3209.929619
_symmetry_space_group_name_H-M "C M C 21"
_symmetry_group_IT_number 36
_symmetry_cell_setting 'orthorhombic'
loop_
_space_group_symop_operation_xyz
x,y,z
-x,-y,1/2+z
x,-y,1/2+z
-x,y,z
1/2+x,1/2+y,z
1/2-x,1/2-y,1/2+z
1/2+x,1/2-y,1/2+z
1/2-x,1/2+y,z
loop_
_atom_site_type_symbol
_atom_site_label
_atom_site_fract_x
_atom_site_fract_y
_atom_site_fract_z
Si Si1 0.821833 0.122929 0.823330
Si Si2 0.327651 0.452016 0.754907
Si Si3 0.178554 0.363206 0.444713
Si Si4 0.829374 0.960308 0.140277
Si Si5 0.324963 0.520080 0.510997
Si Si6 0.325627 0.215479 0.638161
Si Si7 0.176293 0.281500 0.745550
Si Si8 0.821114 0.294957 0.009219
O O1 0.722598 0.124758 0.879524
O O2 0.767184 0.201835 0.783754
O O3 0.000000 0.128539 0.837406
O O4 0.779115 0.035457 0.790567
O O5 0.500000 0.428595 0.767364
O O6 0.300112 0.466952 0.687531
O O7 0.228759 0.370621 0.774942
O O8 0.232298 0.447379 0.478484
O O9 0.260546 0.276968 0.466468
O O10 0.000000 0.352689 0.451589
O O11 0.806613 0.001059 0.077959
O O12 0.712714 0.883754 0.151555
O O13 0.000000 0.922849 0.146849
O O14 0.500000 0.516970 0.492357
O O15 0.258863 0.614052 0.495413
O O16 0.500000 0.231702 0.648583
O O17 0.239466 0.277894 0.681403
O O18 0.279730 0.236344 0.573074
O O19 0.000000 0.279712 0.741029
O O20 0.000000 0.306888 0.001726
#
# Coordination Sequence:
#
# PCOD8175319 Si02
#       8
#     8   8   8   8   8   8   8   8
#     4  10  23  45  65  83 121 167 207 256 310 363
#     4  10  21  39  62  90 122 160 203 248 303 366
#     4  12  26  42  64  92 124 165 213 259 307 369
#     4   9  18  36  61  89 125 162 198 245 304 365
#     4  10  21  39  64  93 127 164 204 253 310 369
#     4  10  20  35  60  91 126 162 200 250 306 364
#     4  11  23  39  61  91 123 161 204 252 307 365
#     4  10  22  41  63  91 126 165 209 257 309 365
#
# _framework density 19.938132
#
# number of rings (size 3 to 8) (size 9 to 14) (size 15 to 20)
#    0.000    1.750    1.250    2.625    1.750    5.000 
#    0.000    2.500    0.000    0.000    0.000    0.000 
#    0.000    0.000    0.000    0.000    0.000    0.000 
#
# Total GULP energy -396893.019107 kJ/mol
# GULP energy per Si atom -12402.906847 kJ/mol
# Density = 1.989275 g / cm^3
# Si number density = 19.938132 Si / 1000 Ang^3
#
#
#
# Elastic Constant Matrix: (Units=GPa)
#
#
# Indices 1 2 3 4 5 6 
#
# 1 56.0659 30.4012 37.8596 0.0000 0.0000 0.0000
# 2 30.4012 106.1881 36.1572 0.0000 0.0000 0.0000
# 3 37.8596 36.1572 80.2579 0.0000 0.0000 0.0000
# 4 0.0000 0.0000 0.0000 -1.6841 0.0000 0.0000
# 5 0.0000 0.0000 0.0000 0.0000 31.3696 0.0000
# 6 0.0000 0.0000 0.0000 0.0000 0.0000 38.8856
#
#
#
# Elastic Compliance Matrix: (Units=1/GPa)
#
#
# Indices 1 2 3 4 5 6 
#
# 1 0.027605 -0.004098 -0.011176 0.000000 0.000000 0.000000
# 2 -0.004098 0.011732 -0.003352 0.000000 0.000000 0.000000
# 3 -0.011176 -0.003352 0.019242 0.000000 0.000000 0.000000
# 4 0.000000 0.000000 0.000000 -0.593777 0.000000 0.000000
# 5 0.000000 0.000000 0.000000 0.000000 0.031878 0.000000
# 6 0.000000 0.000000 0.000000 0.000000 0.000000 0.025716
#
#
# Mechanical properties :
#
#
# Convention : Reuss Voigt Hill
#
# Bulk Modulus (GPa) = 46.88910 50.14977 48.51944
# Shear Modulus (GPa) = -11.54086 22.92047 5.68981
#
# Velocity S-wave (km/s) = -2.40851 3.39422 1.69113
# Velocity P-wave (km/s) = 3.97917 6.36933 5.31047
#
# Compressibility (1/GPa) = 0.02132692
#
# Stress axis : x y z
#
# Youngs Moduli (GPa) = 36.22563 85.23764 51.96974
#
# Poissons Ratio (x) = 0.34928 0.58080
# Poissons Ratio (y) = 0.14844 0.17422
# Poissons Ratio (z) = 0.40485 0.28575
#
# Static dielectric constant tensor:
#      x y z
#    x 3.634470 0.000000 0.000000 
#    y 0.000000 3.637470 0.000000 
#    z 0.000000 0.000000 3.716930 
# 
# 
# High freq. dielectric constant tensor:
#      x y z
#    x 1.779350 0.000000 0.000000 
#    y 0.000000 1.782100 0.000000 
#    z 0.000000 0.000000 1.777710 
# 
# From -- ./inp_files/16681.got.cif
#   From: 2010.03.12/outbox.cif.g09.slc.cpg/sg36_9_cif.got.tgz:16681.got - 2010.04.14 02:13:53.
