data_PCOD8175553
_publ_section_title
;
Structure prediction by ZEFSAII (Michael W. Deem and Ramdas Pophale) SiO2 
 PCOD8175553
Probable space group: C M C 21
;
_chemical_formula_sum "Si O2"
_cell_formula_units_Z 56
_cell_length_a 17.815620
_cell_length_b 10.230680
_cell_length_c 14.912891
_cell_angle_alpha 90.000000
_cell_angle_beta 90.000000
_cell_angle_gamma 90.000000
_cell_volume 2718.111607
_symmetry_space_group_name_H-M "C M C 21"
_symmetry_group_IT_number 36
_symmetry_cell_setting 'orthorhombic'
loop_
_space_group_symop_operation_xyz
x,y,z
-x,-y,1/2+z
x,-y,1/2+z
-x,y,z
1/2+x,1/2+y,z
1/2-x,1/2-y,1/2+z
1/2+x,1/2-y,1/2+z
1/2-x,1/2+y,z
loop_
_atom_site_type_symbol
_atom_site_label
_atom_site_fract_x
_atom_site_fract_y
_atom_site_fract_z
Si Si1 0.914319 0.456469 0.961240
Si Si2 0.188974 0.454748 0.318981
Si Si3 0.412089 0.614628 0.747069
Si Si4 0.857003 0.867787 0.634129
Si Si5 0.916421 0.406807 0.160179
Si Si6 0.275940 0.784760 0.749870
Si Si7 0.585150 0.656640 0.946878
O O1 0.861416 0.557709 0.908003
O O2 0.000000 0.499082 0.945507
O O3 0.892061 0.466064 0.064900
O O4 0.900800 0.309378 0.925734
O O5 0.137660 0.469177 0.231665
O O6 0.243917 0.333355 0.310536
O O7 0.231591 0.593094 0.317502
O O8 0.500000 0.645547 0.726554
O O9 0.382742 0.493432 0.689426
O O10 0.360360 0.740581 0.720982
O O11 0.401244 0.581058 0.853140
O O12 0.913972 0.750727 0.656895
O O13 0.773510 0.818304 0.661562
O O14 0.860384 0.896161 0.526567
O O15 0.000000 0.448811 0.185589
O O16 0.500000 0.636148 0.980915
#
# Coordination Sequence:
#
# PCOD8175553 Si02
#       7
#     8   8   8   8   8   8   8
#     4   9  17  34  60  88 114 151 202 253 310 376
#     4  11  21  38  57  84 124 157 200 252 307 363
#     4  11  21  37  64  93 124 166 216 265 313 376
#     4  10  20  39  60  87 129 163 205 263 319 381
#     4   9  19  35  62  91 115 153 203 253 315 377
#     4  11  23  39  57  91 121 162 206 253 310 378
#     4   9  18  34  61  92 121 166 216 255 315 387
#
# _framework density 20.602540000000001
#
# number of rings (size 3 to 8) (size 9 to 14) (size 15 to 20)
#    0.000    2.000    2.857    2.571    0.000    0.571 
#    2.571    1.429    3.143    0.000    0.000    0.000 
#    0.000    0.000    0.000    0.000    0.000    0.000 
#
# Total GULP energy -347075.256516 kJ/mol
# GULP energy per Si atom -12395.544876 kJ/mol
# Density = 2.055565 g / cm^3
# Si number density = 20.602540 Si / 1000 Ang^3
#
#
#
# Elastic Constant Matrix: (Units=GPa)
#
#
# Indices 1 2 3 4 5 6 
#
# 1 96.0535 24.1886 30.3543 0.0000 0.0000 0.0000
# 2 24.1886 70.4600 14.1352 0.0000 0.0000 0.0000
# 3 30.3543 14.1352 72.6422 0.0000 0.0000 0.0000
# 4 0.0000 0.0000 0.0000 25.5616 0.0000 0.0000
# 5 0.0000 0.0000 0.0000 0.0000 24.4088 0.0000
# 6 0.0000 0.0000 0.0000 0.0000 0.0000 22.3254
#
#
#
# Elastic Compliance Matrix: (Units=1/GPa)
#
#
# Indices 1 2 3 4 5 6 
#
# 1 0.012750 -0.003443 -0.004658 0.000000 0.000000 0.000000
# 2 -0.003443 0.015698 -0.001616 0.000000 0.000000 0.000000
# 3 -0.004658 -0.001616 0.016027 0.000000 0.000000 0.000000
# 4 0.000000 0.000000 0.000000 0.039121 0.000000 0.000000
# 5 0.000000 0.000000 0.000000 0.000000 0.040969 0.000000
# 6 0.000000 0.000000 0.000000 0.000000 0.000000 0.044792
#
#
# Mechanical properties :
#
#
# Convention : Reuss Voigt Hill
#
# Bulk Modulus (GPa) = 39.93273 41.83467 40.88370
# Shear Modulus (GPa) = 25.36304 25.82434 25.59369
#
# Velocity S-wave (km/s) = 3.51246 3.54426 3.52839
# Velocity P-wave (km/s) = 5.98952 6.09087 6.04041
#
# Compressibility (1/GPa) = 0.02504212
#
# Stress axis : x y z
#
# Youngs Moduli (GPa) = 78.43339 63.70039 62.39526
#
# Poissons Ratio (x) = 0.21929 0.29062
# Poissons Ratio (y) = 0.27001 0.10085
# Poissons Ratio (z) = 0.36532 0.10295
#
# Static dielectric constant tensor:
#      x y z
#    x 3.920140 0.000000 0.000000 
#    y 0.000000 3.495250 0.000000 
#    z 0.000000 0.000000 3.660280 
# 
# 
# High freq. dielectric constant tensor:
#      x y z
#    x 1.812280 0.000000 0.000000 
#    y 0.000000 1.784210 0.000000 
#    z 0.000000 0.000000 1.798650 
# 
# From -- ./inp_files/14904.got.cif
#   From: 2010.03.12/outbox.cif.g09.slc.cpg/sg36_8_cif.got.tgz:14904.got - 2010.04.14 02:13:53.
