data_PCOD8175149
_publ_section_title
;
Structure prediction by ZEFSAII (Michael W. Deem and Ramdas Pophale) SiO2 
 PCOD8175149
Probable space group: C M C 21
;
_chemical_formula_sum "Si O2"
_cell_formula_units_Z 48
_cell_length_a 17.679144
_cell_length_b 9.250393
_cell_length_c 13.808562
_cell_angle_alpha 90.000000
_cell_angle_beta 90.000000
_cell_angle_gamma 90.000000
_cell_volume 2258.238834
_symmetry_space_group_name_H-M "C M C 21"
_symmetry_group_IT_number 36
_symmetry_cell_setting 'orthorhombic'
loop_
_space_group_symop_operation_xyz
x,y,z
-x,-y,1/2+z
x,-y,1/2+z
-x,y,z
1/2+x,1/2+y,z
1/2-x,1/2-y,1/2+z
1/2+x,1/2-y,1/2+z
1/2-x,1/2+y,z
loop_
_atom_site_type_symbol
_atom_site_label
_atom_site_fract_x
_atom_site_fract_y
_atom_site_fract_z
Si Si1 0.417816 0.072941 0.021620
Si Si2 0.648479 0.651357 0.145808
Si Si3 0.917816 0.427059 0.227177
Si Si4 0.148479 0.151357 0.602990
Si Si5 0.796485 0.649069 0.482417
Si Si6 0.296485 0.149069 0.266380
O O1 0.500000 0.061033 0.968921
O O2 0.398747 0.242805 0.033486
O O3 0.424241 1.000000 0.124399
O O4 0.351029 0.990218 0.965904
O O5 0.601253 0.757195 0.215312
O O6 0.604946 0.500000 0.124399
O O7 0.724629 0.603996 0.202409
O O8 0.662174 0.723647 0.041009
O O9 0.851029 0.509782 0.282893
O O10 0.000000 0.438968 0.279876
O O11 0.224629 0.103996 0.546388
O O12 0.162174 0.223646 0.707789
O O13 0.774309 0.703697 0.374399
#
# Coordination Sequence:
#
# PCOD8175149 Si02
#       6
#     8   8   8   8   8   8
#     4   9  19  36  56  78 107 144 183 223 271 331
#     4  10  20  34  54  83 114 143 184 233 282 334
#     4   9  19  36  56  78 107 144 183 223 271 331
#     4  10  20  34  54  83 114 143 184 233 282 334
#     4  10  20  35  55  79 111 151 190 229 275 332
#     4  10  20  35  55  79 111 151 190 229 275 332
#
# _framework density 21.255503000000001
#
# number of rings (size 3 to 8) (size 9 to 14) (size 15 to 20)
#    0.000    2.333    0.000    5.000    0.000    6.667 
#    0.000    0.000    0.000    0.000    0.000    4.667 
#    0.000    0.000    0.000    0.000    0.000    0.000 
#
# Total GULP energy -297345.182953 kJ/mol
# GULP energy per Si atom -12389.382623 kJ/mol
# Density = 2.120712 g / cm^3
# Si number density = 21.255503 Si / 1000 Ang^3
#
#
#
# Elastic Constant Matrix: (Units=GPa)
#
#
# Indices 1 2 3 4 5 6 
#
# 1 97.2361 39.0004 10.0313 0.0000 0.0000 0.0000
# 2 39.0004 151.1092 20.4957 0.0000 0.0000 0.0000
# 3 10.0313 20.4957 120.0918 0.0000 0.0000 0.0000
# 4 0.0000 0.0000 0.0000 14.1217 0.0000 0.0000
# 5 0.0000 0.0000 0.0000 0.0000 -38.7099 0.0000
# 6 0.0000 0.0000 0.0000 0.0000 0.0000 11.7256
#
#
#
# Elastic Compliance Matrix: (Units=1/GPa)
#
#
# Indices 1 2 3 4 5 6 
#
# 1 0.011497 -0.002904 -0.000465 0.000000 0.000000 0.000000
# 2 -0.002904 0.007508 -0.001039 0.000000 0.000000 0.000000
# 3 -0.000465 -0.001039 0.008543 0.000000 0.000000 0.000000
# 4 0.000000 0.000000 0.000000 0.070813 0.000000 0.000000
# 5 0.000000 0.000000 0.000000 0.000000 -0.025833 0.000000
# 6 0.000000 0.000000 0.000000 0.000000 0.000000 0.085283
#
#
# Mechanical properties :
#
#
# Convention : Reuss Voigt Hill
#
# Bulk Modulus (GPa) = 53.38240 56.38799 54.88520
# Shear Modulus (GPa) = 28.92324 17.35480 23.13902
#
# Velocity S-wave (km/s) = 3.69282 2.86052 3.30299
# Velocity P-wave (km/s) = 6.58420 6.12343 6.35799
#
# Compressibility (1/GPa) = 0.01873276
#
# Stress axis : x y z
#
# Youngs Moduli (GPa) = 86.97867 133.18746 117.05398
#
# Poissons Ratio (x) = 0.38682 0.05439
# Poissons Ratio (y) = 0.25261 0.12160
# Poissons Ratio (z) = 0.04042 0.13836
#
# Static dielectric constant tensor:
#      x y z
#    x 4.151620 0.000000 0.000000 
#    y 0.000000 3.911540 0.000000 
#    z 0.000000 0.000000 3.592080 
# 
# 
# High freq. dielectric constant tensor:
#      x y z
#    x 1.809660 0.000000 0.000000 
#    y 0.000000 1.833520 0.000000 
#    z 0.000000 0.000000 1.822920 
# 
# From -- ./inp_files/12764.got.cif
#   From: 2010.03.12/outbox.cif.g09.slc.cpg/sg36_7_cif.got.tgz:12764.got - 2010.04.14 02:13:53.
