data_PCOD8175839
_publ_section_title
;
Structure prediction by ZEFSAII (Michael W. Deem and Ramdas Pophale) SiO2 
 PCOD8175839
Probable space group: C M C 21
;
_chemical_formula_sum "Si O2"
_cell_formula_units_Z 64
_cell_length_a 8.858683
_cell_length_b 23.743952
_cell_length_c 15.351914
_cell_angle_alpha 90.000000
_cell_angle_beta 90.000000
_cell_angle_gamma 90.000000
_cell_volume 3229.123800
_symmetry_space_group_name_H-M "C M C 21"
_symmetry_group_IT_number 36
_symmetry_cell_setting 'orthorhombic'
loop_
_space_group_symop_operation_xyz
x,y,z
-x,-y,1/2+z
x,-y,1/2+z
-x,y,z
1/2+x,1/2+y,z
1/2-x,1/2-y,1/2+z
1/2+x,1/2-y,1/2+z
1/2-x,1/2+y,z
loop_
_atom_site_type_symbol
_atom_site_label
_atom_site_fract_x
_atom_site_fract_y
_atom_site_fract_z
Si Si1 0.171380 0.253100 0.609540
Si Si2 0.322391 0.446592 0.694634
Si Si3 0.821805 0.251799 0.290888
Si Si4 0.177444 0.566904 0.698153
Si Si5 0.821326 0.131101 0.350169
Si Si6 0.328008 0.631674 0.543854
Si Si7 0.828072 0.860718 0.544313
Si Si8 0.672953 0.636608 0.847773
O O1 0.282655 0.242938 0.689647
O O2 0.182654 0.199242 0.546702
O O3 0.220331 0.307240 0.554708
O O4 0.000000 0.261122 0.642832
O O5 0.500000 0.458959 0.699983
O O6 0.234417 0.504171 0.684690
O O7 0.262454 0.414973 0.781332
O O8 0.280118 0.409392 0.610883
O O9 0.756586 0.192569 0.325963
O O10 0.742992 0.301436 0.343855
O O11 0.000000 0.257511 0.303250
O O12 0.221637 0.603850 0.614997
O O13 0.244150 0.592444 0.786309
O O14 0.000000 0.567287 0.707472
O O15 0.772360 0.113166 0.447530
O O16 0.000000 0.135357 0.343008
O O17 0.500000 0.611714 0.560584
O O18 0.812111 0.885154 0.446853
O O19 0.000000 0.841749 0.563534
O O20 0.500000 0.639973 0.817158
#
# Coordination Sequence:
#
# PCOD8175839 Si02
#       8
#     8   8   8   8   8   8   8   8
#     4  11  21  34  59  92 128 163 196 239 297 357
#     4  10  21  42  65  85 114 157 203 249 297 357
#     4  11  20  36  62  92 125 159 197 244 298 358
#     4  12  26  42  60  85 117 158 201 254 307 355
#     4   9  19  37  64  91 118 156 198 239 293 354
#     4  10  21  39  62  89 120 157 199 242 291 358
#     4  10  22  40  64  91 122 159 202 247 298 358
#     4  11  23  40  62  91 122 159 202 248 299 359
#
# _framework density 19.819617999999998
#
# number of rings (size 3 to 8) (size 9 to 14) (size 15 to 20)
#    0.000    1.500    2.500    3.000    0.000    4.000 
#    0.000    6.875    0.000    0.000    0.000    0.000 
#    0.000    0.000    0.000    0.000    0.000    0.000 
#
# Total GULP energy -396919.585328 kJ/mol
# GULP energy per Si atom -12403.737041 kJ/mol
# Density = 1.977451 g / cm^3
# Si number density = 19.819618 Si / 1000 Ang^3
#
#
#
# Elastic Constant Matrix: (Units=GPa)
#
#
# Indices 1 2 3 4 5 6 
#
# 1 99.8327 56.5444 42.9408 0.0000 0.0000 0.0000
# 2 56.5444 122.6120 50.3306 0.0000 0.0000 0.0000
# 3 42.9408 50.3306 130.7538 0.0000 0.0000 0.0000
# 4 0.0000 0.0000 0.0000 12.9253 0.0000 0.0000
# 5 0.0000 0.0000 0.0000 0.0000 18.0078 0.0000
# 6 0.0000 0.0000 0.0000 0.0000 0.0000 31.7669
#
#
#
# Elastic Compliance Matrix: (Units=1/GPa)
#
#
# Indices 1 2 3 4 5 6 
#
# 1 0.014241 -0.005520 -0.002552 0.000000 0.000000 0.000000
# 2 -0.005520 0.011826 -0.002739 0.000000 0.000000 0.000000
# 3 -0.002552 -0.002739 0.009541 0.000000 0.000000 0.000000
# 4 0.000000 0.000000 0.000000 0.077367 0.000000 0.000000
# 5 0.000000 0.000000 0.000000 0.000000 0.055532 0.000000
# 6 0.000000 0.000000 0.000000 0.000000 0.000000 0.031479
#
#
# Mechanical properties :
#
#
# Convention : Reuss Voigt Hill
#
# Bulk Modulus (GPa) = 71.50643 72.53668 72.02155
# Shear Modulus (GPa) = 22.09755 26.09886 24.09820
#
# Velocity S-wave (km/s) = 3.34268 3.63274 3.49072
# Velocity P-wave (km/s) = 7.14528 7.36706 7.25702
#
# Compressibility (1/GPa) = 0.01398476
#
# Stress axis : x y z
#
# Youngs Moduli (GPa) = 70.22055 84.56100 104.81596
#
# Poissons Ratio (x) = 0.46676 0.26750
# Poissons Ratio (y) = 0.38760 0.28712
# Poissons Ratio (z) = 0.17921 0.23164
#
# Static dielectric constant tensor:
#      x y z
#    x 3.531480 0.000000 0.000000 
#    y 0.000000 3.612070 0.000000 
#    z 0.000000 0.000000 3.789670 
# 
# 
# High freq. dielectric constant tensor:
#      x y z
#    x 1.759550 0.000000 0.000000 
#    y 0.000000 1.770180 0.000000 
#    z 0.000000 0.000000 1.786610 
# 
# From -- ./inp_files/10914.got.cif
#   From: 2010.03.12/outbox.cif.g09.slc.cpg/sg36_6_cif.got.tgz:10914.got - 2010.04.14 02:13:53.
