data_PCOD8175667
_publ_section_title
;
Structure prediction by ZEFSAII (Michael W. Deem and Ramdas Pophale) SiO2 
 PCOD8175667
Probable space group: C M C 21
;
_chemical_formula_sum "Si O2"
_cell_formula_units_Z 48
_cell_length_a 8.825005
_cell_length_b 23.909056
_cell_length_c 11.902029
_cell_angle_alpha 90.000000
_cell_angle_beta 90.000000
_cell_angle_gamma 90.000000
_cell_volume 2511.298825
_symmetry_space_group_name_H-M "C M C 21"
_symmetry_group_IT_number 36
_symmetry_cell_setting 'orthorhombic'
loop_
_space_group_symop_operation_xyz
x,y,z
-x,-y,1/2+z
x,-y,1/2+z
-x,y,z
1/2+x,1/2+y,z
1/2-x,1/2-y,1/2+z
1/2+x,1/2-y,1/2+z
1/2-x,1/2+y,z
loop_
_atom_site_type_symbol
_atom_site_label
_atom_site_fract_x
_atom_site_fract_y
_atom_site_fract_z
Si Si1 0.822913 0.291585 0.440570
Si Si2 0.323348 0.860818 0.227073
Si Si3 0.821578 0.891718 0.566952
Si Si4 0.679349 0.960319 0.376214
Si Si5 0.675635 0.082796 0.300015
Si Si6 0.323143 0.825367 0.987609
O O1 0.786492 0.311117 0.313834
O O2 0.740404 0.331443 0.529492
O O3 0.766361 0.228928 0.449743
O O4 0.000000 0.295241 0.466669
O O5 0.500000 0.868558 0.207743
O O6 0.260136 0.919207 0.277326
O O7 0.252119 0.846207 0.106219
O O8 0.753566 0.942302 0.493679
O O9 0.778138 0.900980 0.695523
O O10 0.000000 0.891608 0.553580
O O11 0.500000 0.954047 0.391923
O O12 0.728174 0.022786 0.346518
O O13 0.500000 0.081530 0.263620
O O14 0.706272 0.126666 0.397875
O O15 0.500000 0.810338 0.998316
#
# Coordination Sequence:
#
# PCOD8175667 Si02
#       6
#     8   8   8   8   8   8
#     4  10  21  39  60  83 113 154 197 238 292 355
#     4   8  17  35  58  82 111 146 186 233 290 346
#     4  11  23  39  60  85 120 158 195 242 294 347
#     4   9  19  38  64  88 114 152 197 241 290 350
#     4  10  22  37  61  91 120 153 196 242 287 350
#     4  10  21  36  57  89 118 147 189 242 295 346
#
# _framework density 19.113614999999999
#
# number of rings (size 3 to 8) (size 9 to 14) (size 15 to 20)
#    0.000    2.333    0.000    3.000    4.667    1.333 
#    0.000    3.333    0.000    0.000    0.000    0.000 
#    0.000    0.000    0.000    0.000    0.000    0.000 
#
# Total GULP energy -297633.521104 kJ/mol
# GULP energy per Si atom -12401.396713 kJ/mol
# Density = 1.907011 g / cm^3
# Si number density = 19.113615 Si / 1000 Ang^3
#
#
#
# Elastic Constant Matrix: (Units=GPa)
#
#
# Indices 1 2 3 4 5 6 
#
# 1 69.8007 43.4689 48.4982 0.0000 0.0000 0.0000
# 2 43.4689 136.8201 61.8062 0.0000 0.0000 0.0000
# 3 48.4982 61.8062 134.0000 0.0000 0.0000 0.0000
# 4 0.0000 0.0000 0.0000 22.3979 0.0000 0.0000
# 5 0.0000 0.0000 0.0000 0.0000 22.6839 0.0000
# 6 0.0000 0.0000 0.0000 0.0000 0.0000 26.5847
#
#
#
# Elastic Compliance Matrix: (Units=1/GPa)
#
#
# Indices 1 2 3 4 5 6 
#
# 1 0.020774 -0.004047 -0.005652 0.000000 0.000000 0.000000
# 2 -0.004047 0.010021 -0.003157 0.000000 0.000000 0.000000
# 3 -0.005652 -0.003157 0.010965 0.000000 0.000000 0.000000
# 4 0.000000 0.000000 0.000000 0.044647 0.000000 0.000000
# 5 0.000000 0.000000 0.000000 0.000000 0.044084 0.000000
# 6 0.000000 0.000000 0.000000 0.000000 0.000000 0.037616
#
#
# Mechanical properties :
#
#
# Convention : Reuss Voigt Hill
#
# Bulk Modulus (GPa) = 62.31764 72.01861 67.16813
# Shear Modulus (GPa) = 25.10450 26.78979 25.94714
#
# Velocity S-wave (km/s) = 3.62807 3.74787 3.68845
# Velocity P-wave (km/s) = 7.08696 7.51596 7.30461
#
# Compressibility (1/GPa) = 0.01604682
#
# Stress axis : x y z
#
# Youngs Moduli (GPa) = 48.13763 99.79181 91.20236
#
# Poissons Ratio (x) = 0.40384 0.51548
# Poissons Ratio (y) = 0.19480 0.28796
# Poissons Ratio (z) = 0.27208 0.31508
#
# Static dielectric constant tensor:
#      x y z
#    x 3.280450 0.000000 0.000000 
#    y 0.000000 3.694040 0.000000 
#    z 0.000000 0.000000 3.661610 
# 
# 
# High freq. dielectric constant tensor:
#      x y z
#    x 1.720490 0.000000 0.000000 
#    y 0.000000 1.753010 0.000000 
#    z 0.000000 0.000000 1.752700 
# 
# From -- ./inp_files/6705.got.cif
#   From: 2010.03.12/outbox.cif.g09.slc.cpg/sg36_4_cif.got.tgz:6705.got - 2010.04.14 02:13:53.
