data_PCOD8175745
_publ_section_title
;
Structure prediction by ZEFSAII (Michael W. Deem and Ramdas Pophale) SiO2 
 PCOD8175745
Probable space group: C M C 21
;
_chemical_formula_sum "Si O2"
_cell_formula_units_Z 64
_cell_length_a 8.743942
_cell_length_b 28.028090
_cell_length_c 14.189000
_cell_angle_alpha 90.000000
_cell_angle_beta 90.000000
_cell_angle_gamma 90.000000
_cell_volume 3477.383269
_symmetry_space_group_name_H-M "C M C 21"
_symmetry_group_IT_number 36
_symmetry_cell_setting 'orthorhombic'
loop_
_space_group_symop_operation_xyz
x,y,z
-x,-y,1/2+z
x,-y,1/2+z
-x,y,z
1/2+x,1/2+y,z
1/2-x,1/2-y,1/2+z
1/2+x,1/2-y,1/2+z
1/2-x,1/2+y,z
loop_
_atom_site_type_symbol
_atom_site_label
_atom_site_fract_x
_atom_site_fract_y
_atom_site_fract_z
Si Si1 0.178871 0.422272 0.465700
Si Si2 0.324974 0.675719 0.437623
Si Si3 0.181084 0.493439 0.304902
Si Si4 0.321942 0.238847 0.801203
Si Si5 0.319199 0.008482 0.597565
Si Si6 0.679355 0.679047 0.963932
Si Si7 0.820302 0.752637 0.098690
Si Si8 0.819344 0.574810 0.437248
O O1 0.223425 0.447305 0.366980
O O2 0.222072 0.457968 0.550390
O O3 0.282228 0.376052 0.478673
O O4 0.000000 0.408552 0.468131
O O5 0.500000 0.659922 0.440834
O O6 0.292360 0.710150 0.349450
O O7 0.278159 0.701703 0.534633
O O8 0.224821 0.629184 0.423369
O O9 0.255616 0.488351 0.201334
O O10 0.245334 0.542041 0.352269
O O11 0.000000 0.497684 0.297413
O O12 0.500000 0.230408 0.780702
O O13 0.265024 0.197446 0.870628
O O14 0.229563 0.236381 0.704480
O O15 0.500000 0.013275 0.604569
O O16 0.255064 0.052569 0.535154
O O17 0.500000 0.686503 0.950375
O O18 0.733257 0.706732 0.057658
O O19 0.000000 0.741963 0.093652
O O20 0.000000 0.570752 0.438033
#
# Coordination Sequence:
#
# PCOD8175745 Si02
#       8
#     8   8   8   8   8   8   8   8
#     4   9  17  31  51  73  99 132 172 216 259 303
#     4   9  20  36  52  74 107 138 164 206 261 312
#     4   8  15  29  48  71  99 130 167 212 256 300
#     4  10  21  38  57  78 105 138 177 219 266 316
#     4   8  15  29  48  71  99 130 167 212 256 300
#     4  11  22  36  54  78 109 142 178 218 261 314
#     4  10  21  38  57  78 105 138 177 219 266 316
#     4   9  17  29  49  75  97 126 172 212 245 299
#
# _framework density 18.404641999999999
#
# number of rings (size 3 to 8) (size 9 to 14) (size 15 to 20)
#    0.000    2.750    0.000    4.125    0.000    5.000 
#    0.000    5.000    0.000    1.500    0.000    0.000 
#    0.000    0.000    0.000    0.000    0.000    0.000 
#
# Total GULP energy -396738.446577 kJ/mol
# GULP energy per Si atom -12398.076456 kJ/mol
# Density = 1.836275 g / cm^3
# Si number density = 18.404642 Si / 1000 Ang^3
#
#
#
# Elastic Constant Matrix: (Units=GPa)
#
#
# Indices 1 2 3 4 5 6 
#
# 1 39.5141 14.4901 2.6168 0.0000 0.0000 0.0000
# 2 14.4901 57.9320 -16.7456 0.0000 0.0000 0.0000
# 3 2.6168 -16.7456 62.4781 0.0000 0.0000 0.0000
# 4 0.0000 0.0000 0.0000 14.0268 0.0000 0.0000
# 5 0.0000 0.0000 0.0000 0.0000 22.7251 0.0000
# 6 0.0000 0.0000 0.0000 0.0000 0.0000 30.6883
#
#
#
# Elastic Compliance Matrix: (Units=1/GPa)
#
#
# Indices 1 2 3 4 5 6 
#
# 1 0.028501 -0.008102 -0.003365 0.000000 0.000000 0.000000
# 2 -0.008102 0.021014 0.005972 0.000000 0.000000 0.000000
# 3 -0.003365 0.005972 0.017747 0.000000 0.000000 0.000000
# 4 0.000000 0.000000 0.000000 0.071292 0.000000 0.000000
# 5 0.000000 0.000000 0.000000 0.000000 0.044004 0.000000
# 6 0.000000 0.000000 0.000000 0.000000 0.000000 0.032586
#
#
# Mechanical properties :
#
#
# Convention : Reuss Voigt Hill
#
# Bulk Modulus (GPa) = 17.77073 17.84965 17.81019
# Shear Modulus (GPa) = 20.41714 24.12554 22.27134
#
# Velocity S-wave (km/s) = 3.33430 3.62448 3.48241
# Velocity P-wave (km/s) = 4.94974 5.21875 5.08602
#
# Compressibility (1/GPa) = 0.05627231
#
# Stress axis : x y z
#
# Youngs Moduli (GPa) = 35.08624 47.58704 56.34729
#
# Poissons Ratio (x) = 0.38553 0.18962
# Poissons Ratio (y) = 0.28425 -0.33648
# Poissons Ratio (z) = 0.11807 -0.28417
#
# Static dielectric constant tensor:
#      x y z
#    x 3.072660 0.000000 0.000000 
#    y 0.000000 3.306230 0.000000 
#    z 0.000000 0.000000 3.826070 
# 
# 
# High freq. dielectric constant tensor:
#      x y z
#    x 1.687490 0.000000 0.000000 
#    y 0.000000 1.713840 0.000000 
#    z 0.000000 0.000000 1.721270 
# 
# From -- ./inp_files/11198.got.cif
#   From: 2010.03.12/outbox.cif.g09.slc.cpg/sg36_6_cif.got.tgz:11198.got - 2010.04.14 02:13:53.
