data_PCOD8175124
_publ_section_title
;
Structure prediction by ZEFSAII (Michael W. Deem and Ramdas Pophale) SiO2 
 PCOD8175124
Probable space group: C M C 21
;
_chemical_formula_sum "Si O2"
_cell_formula_units_Z 64
_cell_length_a 9.156212
_cell_length_b 25.281019
_cell_length_c 14.295344
_cell_angle_alpha 90.000000
_cell_angle_beta 90.000000
_cell_angle_gamma 90.000000
_cell_volume 3309.062921
_symmetry_space_group_name_H-M "C M C 21"
_symmetry_group_IT_number 36
_symmetry_cell_setting 'orthorhombic'
loop_
_space_group_symop_operation_xyz
x,y,z
-x,-y,1/2+z
x,-y,1/2+z
-x,y,z
1/2+x,1/2+y,z
1/2-x,1/2-y,1/2+z
1/2+x,1/2-y,1/2+z
1/2-x,1/2+y,z
loop_
_atom_site_type_symbol
_atom_site_label
_atom_site_fract_x
_atom_site_fract_y
_atom_site_fract_z
Si Si1 0.332147 0.887206 0.447880
Si Si2 0.830172 0.345250 0.250550
Si Si3 0.827864 0.484833 0.570738
Si Si4 0.327994 0.761498 0.739521
Si Si5 0.336022 0.322663 0.589645
Si Si6 0.671581 0.897018 0.062197
Si Si7 0.836470 0.075910 0.220452
Si Si8 0.329948 0.860851 0.863930
O O1 0.500000 0.876941 0.475319
O O2 0.309243 0.886328 0.336207
O O3 0.282035 0.944452 0.487535
O O4 0.239584 0.839340 0.492745
O O5 0.739091 0.293109 0.274816
O O6 0.763014 0.371850 0.156997
O O7 0.000000 0.329839 0.238464
O O8 0.771208 0.543334 0.544407
O O9 0.751868 0.470029 0.668472
O O10 0.000000 0.483021 0.587874
O O11 0.500000 0.756445 0.724398
O O12 0.255330 0.776522 0.640162
O O13 0.289208 0.804454 0.819395
O O14 0.500000 0.301997 0.568992
O O15 0.338438 0.372910 0.655968
O O16 0.500000 0.899872 0.076324
O O17 0.713595 0.860492 0.973530
O O18 0.756896 0.090937 0.316624
O O19 0.000000 0.056169 0.242222
O O20 0.500000 0.873520 0.850055
#
# Coordination Sequence:
#
# PCOD8175124 Si02
#       8
#     8   8   8   8   8   8   8   8
#     4   9  18  32  51  77 107 138 175 218 261 310
#     4  10  21  36  52  75 109 143 175 214 262 315
#     4   9  17  32  55  79 104 137 176 217 261 307
#     4  10  20  34  53  78 107 139 176 219 267 314
#     4   9  17  31  53  77 101 132 172 217 262 310
#     4   9  19  35  55  79 105 137 178 219 258 306
#     4   9  17  30  50  78 107 133 167 211 260 311
#     4   9  18  34  55  77 102 135 179 223 259 305
#
# _framework density 19.340823
#
# number of rings (size 3 to 8) (size 9 to 14) (size 15 to 20)
#    0.000    2.750    0.000    1.125    0.000    6.000 
#    0.000    6.875    0.000    3.000    0.000    0.000 
#    0.000    0.000    0.000    0.000    0.000    0.000 
#
# Total GULP energy -396760.300445 kJ/mol
# GULP energy per Si atom -12398.759389 kJ/mol
# Density = 1.929680 g / cm^3
# Si number density = 19.340823 Si / 1000 Ang^3
#
#
#
# Elastic Constant Matrix: (Units=GPa)
#
#
# Indices 1 2 3 4 5 6 
#
# 1 71.2109 36.6524 40.2853 0.0000 0.0000 0.0000
# 2 36.6524 101.7101 53.9992 0.0000 0.0000 0.0000
# 3 40.2853 53.9992 137.4901 0.0000 0.0000 0.0000
# 4 0.0000 0.0000 0.0000 26.4824 0.0000 0.0000
# 5 0.0000 0.0000 0.0000 0.0000 18.0478 0.0000
# 6 0.0000 0.0000 0.0000 0.0000 0.0000 22.0522
#
#
#
# Elastic Compliance Matrix: (Units=1/GPa)
#
#
# Indices 1 2 3 4 5 6 
#
# 1 0.018513 -0.004790 -0.003543 0.000000 0.000000 0.000000
# 2 -0.004790 0.013662 -0.003962 0.000000 0.000000 0.000000
# 3 -0.003543 -0.003962 0.009867 0.000000 0.000000 0.000000
# 4 0.000000 0.000000 0.000000 0.037761 0.000000 0.000000
# 5 0.000000 0.000000 0.000000 0.000000 0.055408 0.000000
# 6 0.000000 0.000000 0.000000 0.000000 0.000000 0.045347
#
#
# Mechanical properties :
#
#
# Convention : Reuss Voigt Hill
#
# Bulk Modulus (GPa) = 57.30244 63.58719 60.44482
# Shear Modulus (GPa) = 23.70057 25.28142 24.49100
#
# Velocity S-wave (km/s) = 3.50439 3.61938 3.56235
# Velocity P-wave (km/s) = 6.78722 7.10036 6.94556
#
# Compressibility (1/GPa) = 0.01745126
#
# Stress axis : x y z
#
# Youngs Moduli (GPa) = 54.01714 73.19799 101.34357
#
# Poissons Ratio (x) = 0.35064 0.35905
# Poissons Ratio (y) = 0.25876 0.40152
# Poissons Ratio (z) = 0.19138 0.29001
#
# Static dielectric constant tensor:
#      x y z
#    x 3.480820 0.000000 0.000000 
#    y 0.000000 3.445640 0.000000 
#    z 0.000000 0.000000 3.552330 
# 
# 
# High freq. dielectric constant tensor:
#      x y z
#    x 1.736240 0.000000 0.000000 
#    y 0.000000 1.738130 0.000000 
#    z 0.000000 0.000000 1.750370 
# 
# From -- ./inp_files/11111.got.cif
#   From: 2010.03.12/outbox.cif.g09.slc.cpg/sg36_6_cif.got.tgz:11111.got - 2010.04.14 02:13:53.
