data_PCOD8175806
_publ_section_title
;
Structure prediction by ZEFSAII (Michael W. Deem and Ramdas Pophale) SiO2 
 PCOD8175806
Probable space group: C M C 21
;
_chemical_formula_sum "Si O2"
_cell_formula_units_Z 40
_cell_length_a 10.814872
_cell_length_b 23.783975
_cell_length_c 7.445702
_cell_angle_alpha 90.000000
_cell_angle_beta 90.000000
_cell_angle_gamma 90.000000
_cell_volume 1915.188273
_symmetry_space_group_name_H-M "C M C 21"
_symmetry_group_IT_number 36
_symmetry_cell_setting 'orthorhombic'
loop_
_space_group_symop_operation_xyz
x,y,z
-x,-y,1/2+z
x,-y,1/2+z
-x,y,z
1/2+x,1/2+y,z
1/2-x,1/2-y,1/2+z
1/2+x,1/2-y,1/2+z
1/2-x,1/2+y,z
loop_
_atom_site_type_symbol
_atom_site_label
_atom_site_fract_x
_atom_site_fract_y
_atom_site_fract_z
Si Si1 0.636471 0.281473 0.053990
Si Si2 0.357195 0.048882 0.728361
Si Si3 0.362312 0.623794 0.827998
Si Si4 0.361379 0.924137 0.817378
Si Si5 0.795575 0.821815 0.675378
O O1 0.500000 0.265465 0.119068
O O2 0.683141 0.333736 0.172724
O O3 0.718445 0.227315 0.083130
O O4 0.630330 0.297483 0.843914
O O5 0.500000 0.058226 0.801404
O O6 0.250065 0.078857 0.847130
O O7 0.344413 0.072094 0.529643
O O8 0.324238 0.983028 0.725650
O O9 0.500000 0.598254 0.780572
O O10 0.382785 0.655314 0.017483
O O11 0.500000 0.909344 0.765322
O O12 0.283915 0.873538 0.742474
#
# Coordination Sequence:
#
# PCOD8175806 Si02
#       5
#     8   8   8   8   8
#     4  11  24  41  62  91 130 170 214 267 319 380
#     4  10  21  41  66  98 132 168 214 266 321 384
#     4  11  24  43  65  95 131 170 214 265 321 385
#     4  10  21  38  66  98 130 167 217 270 319 379
#     4  12  22  43  65  94 126 173 218 264 321 382
#
# _framework density 20.885674000000002
#
# number of rings (size 3 to 8) (size 9 to 14) (size 15 to 20)
#    0.000    1.200    4.000    2.400    0.000    3.200 
#    0.000    5.000    0.000    0.000    0.000    0.000 
#    0.000    0.000    0.000    0.000    0.000    0.000 
#
# Total GULP energy -247887.355764 kJ/mol
# GULP energy per Si atom -12394.367788 kJ/mol
# Density = 2.083814 g / cm^3
# Si number density = 20.885674 Si / 1000 Ang^3
#
#
#
# Elastic Constant Matrix: (Units=GPa)
#
#
# Indices 1 2 3 4 5 6 
#
# 1 111.8663 61.4300 10.1863 0.0000 0.0000 0.0000
# 2 61.4300 91.9330 15.9657 0.0000 0.0000 0.0000
# 3 10.1863 15.9657 86.8245 0.0000 0.0000 0.0000
# 4 0.0000 0.0000 0.0000 41.5763 0.0000 0.0000
# 5 0.0000 0.0000 0.0000 0.0000 -292.0138 0.0000
# 6 0.0000 0.0000 0.0000 0.0000 0.0000 47.4444
#
#
#
# Elastic Compliance Matrix: (Units=1/GPa)
#
#
# Indices 1 2 3 4 5 6 
#
# 1 0.014121 -0.009450 0.000081 0.000000 0.000000 0.000000
# 2 -0.009450 0.017560 -0.002120 0.000000 0.000000 0.000000
# 3 0.000081 -0.002120 0.011898 0.000000 0.000000 0.000000
# 4 0.000000 0.000000 0.000000 0.024052 0.000000 0.000000
# 5 0.000000 0.000000 0.000000 0.000000 -0.003424 0.000000
# 6 0.000000 0.000000 0.000000 0.000000 0.000000 0.021077
#
#
# Mechanical properties :
#
#
# Convention : Reuss Voigt Hill
#
# Bulk Modulus (GPa) = 48.54211 51.75419 50.14815
# Shear Modulus (GPa) = 43.42931 -27.06250 8.18340
#
# Velocity S-wave (km/s) = 4.56497 -3.60355 1.98159
# Velocity P-wave (km/s) = 7.14686 2.74216 5.41281
#
# Compressibility (1/GPa) = 0.02060067
#
# Stress axis : x y z
#
# Youngs Moduli (GPa) = 70.81573 56.94702 84.04855
#
# Poissons Ratio (x) = 0.53814 -0.00681
# Poissons Ratio (y) = 0.66920 0.17821
# Poissons Ratio (z) = -0.00573 0.12075
#
# Static dielectric constant tensor:
#      x y z
#    x 3.673760 0.000000 0.000000 
#    y 0.000000 3.730710 0.000000 
#    z 0.000000 0.000000 4.055550 
# 
# 
# High freq. dielectric constant tensor:
#      x y z
#    x 1.813090 0.000000 0.000000 
#    y 0.000000 1.814150 0.000000 
#    z 0.000000 0.000000 1.833740 
# 
# From -- ./inp_files/2416.got.cif
#   From: 2010.03.12/outbox.cif.g09.slc.cpg/sg36_2_cif.got.tgz:2416.got - 2010.04.14 02:13:53.
