data_PCOD8175179
_publ_section_title
;
Structure prediction by ZEFSAII (Michael W. Deem and Ramdas Pophale) SiO2 
 PCOD8175179
Probable space group: C M C 21
;
_chemical_formula_sum "Si O2"
_cell_formula_units_Z 56
_cell_length_a 20.942666
_cell_length_b 10.508153
_cell_length_c 13.514080
_cell_angle_alpha 90.000000
_cell_angle_beta 90.000000
_cell_angle_gamma 90.000000
_cell_volume 2974.026538
_symmetry_space_group_name_H-M "C M C 21"
_symmetry_group_IT_number 36
_symmetry_cell_setting 'orthorhombic'
loop_
_space_group_symop_operation_xyz
x,y,z
-x,-y,1/2+z
x,-y,1/2+z
-x,y,z
1/2+x,1/2+y,z
1/2-x,1/2-y,1/2+z
1/2+x,1/2-y,1/2+z
1/2-x,1/2+y,z
loop_
_atom_site_type_symbol
_atom_site_label
_atom_site_fract_x
_atom_site_fract_y
_atom_site_fract_z
Si Si1 0.692757 0.268409 0.317450
Si Si2 0.365011 0.897867 0.243832
Si Si3 0.573121 0.236992 0.556589
Si Si4 0.833495 0.047118 0.986794
Si Si5 0.230940 0.970606 0.180138
Si Si6 0.816994 0.146823 0.335625
Si Si7 0.928205 0.376469 0.848790
O O1 0.702454 0.373262 0.402742
O O2 0.714710 0.324706 0.210862
O O3 0.739911 0.155860 0.353003
O O4 0.620119 0.225103 0.301583
O O5 0.399677 0.833670 0.151469
O O6 0.306354 0.986425 0.205212
O O7 0.344311 0.786788 0.318478
O O8 0.413260 0.983276 0.308040
O O9 0.500000 0.275206 0.575316
O O10 0.609079 0.370530 0.533307
O O11 0.579817 0.135218 0.467419
O O12 0.781132 0.000412 0.065788
O O13 0.854826 0.918156 0.927819
O O14 0.179993 0.059831 0.237565
O O15 0.000000 0.339186 0.817184
#
# Coordination Sequence:
#
# PCOD8175179 Si02
#       7
#     8   8   8   8   8   8   8
#     4   9  20  35  54  84 114 143 187 231 279 341
#     4  11  21  36  61  86 117 146 189 235 290 341
#     4  10  22  40  60  81 111 155 198 231 281 344
#     4  10  21  36  59  81 112 150 185 230 291 333
#     4  10  20  34  56  85 113 140 182 233 285 337
#     4  10  20  36  55  88 111 141 184 234 286 333
#     4  10  21  39  57  79 113 153 189 230 280 341
#
# _framework density 18.829689999999999
#
# number of rings (size 3 to 8) (size 9 to 14) (size 15 to 20)
#    0.000    2.000    2.857    0.429    4.000    0.000 
#    2.571    2.143    0.000    0.000    0.000    0.000 
#    0.000    0.000    0.000    0.000    0.000    0.000 
#
# Total GULP energy -346928.467113 kJ/mol
# GULP energy per Si atom -12390.302397 kJ/mol
# Density = 1.878683 g / cm^3
# Si number density = 18.829690 Si / 1000 Ang^3
#
#
#
# Elastic Constant Matrix: (Units=GPa)
#
#
# Indices 1 2 3 4 5 6 
#
# 1 108.8337 42.9631 44.7514 0.0000 0.0000 0.0000
# 2 42.9631 87.8645 49.7828 0.0000 0.0000 0.0000
# 3 44.7514 49.7828 95.0731 0.0000 0.0000 0.0000
# 4 0.0000 0.0000 0.0000 34.5685 0.0000 0.0000
# 5 0.0000 0.0000 0.0000 0.0000 23.1995 0.0000
# 6 0.0000 0.0000 0.0000 0.0000 0.0000 25.9298
#
#
#
# Elastic Compliance Matrix: (Units=1/GPa)
#
#
# Indices 1 2 3 4 5 6 
#
# 1 0.012255 -0.003873 -0.003741 0.000000 0.000000 0.000000
# 2 -0.003873 0.017406 -0.007291 0.000000 0.000000 0.000000
# 3 -0.003741 -0.007291 0.016097 0.000000 0.000000 0.000000
# 4 0.000000 0.000000 0.000000 0.028928 0.000000 0.000000
# 5 0.000000 0.000000 0.000000 0.000000 0.043104 0.000000
# 6 0.000000 0.000000 0.000000 0.000000 0.000000 0.038566
#
#
# Mechanical properties :
#
#
# Convention : Reuss Voigt Hill
#
# Bulk Modulus (GPa) = 62.70207 62.97398 62.83802
# Shear Modulus (GPa) = 26.11208 27.02451 26.56829
#
# Velocity S-wave (km/s) = 3.72795 3.79252 3.76037
# Velocity P-wave (km/s) = 7.20431 7.25908 7.23174
#
# Compressibility (1/GPa) = 0.01594844
#
# Stress axis : x y z
#
# Youngs Moduli (GPa) = 81.59674 57.45120 62.12422
#
# Poissons Ratio (x) = 0.22252 0.23238
# Poissons Ratio (y) = 0.31604 0.45296
# Poissons Ratio (z) = 0.30522 0.41889
#
# Static dielectric constant tensor:
#      x y z
#    x 3.419220 0.000000 0.000000 
#    y 0.000000 3.593050 0.000000 
#    z 0.000000 0.000000 3.424890 
# 
# 
# High freq. dielectric constant tensor:
#      x y z
#    x 1.715140 0.000000 0.000000 
#    y 0.000000 1.734280 0.000000 
#    z 0.000000 0.000000 1.727530 
# 
# From -- ./inp_files/9235.got.cif
#   From: 2010.03.12/outbox.cif.g09.slc.cpg/sg36_5_cif.got.tgz:9235.got - 2010.04.14 02:13:53.
