data_PCOD8175450
_publ_section_title
;
Structure prediction by ZEFSAII (Michael W. Deem and Ramdas Pophale) SiO2 
 PCOD8175450
Probable space group: C M C 21
;
_chemical_formula_sum "Si O2"
_cell_formula_units_Z 48
_cell_length_a 9.169931
_cell_length_b 27.719668
_cell_length_c 9.903788
_cell_angle_alpha 90.000000
_cell_angle_beta 90.000000
_cell_angle_gamma 90.000000
_cell_volume 2517.418547
_symmetry_space_group_name_H-M "C M C 21"
_symmetry_group_IT_number 36
_symmetry_cell_setting 'orthorhombic'
loop_
_space_group_symop_operation_xyz
x,y,z
-x,-y,1/2+z
x,-y,1/2+z
-x,y,z
1/2+x,1/2+y,z
1/2-x,1/2-y,1/2+z
1/2+x,1/2-y,1/2+z
1/2-x,1/2+y,z
loop_
_atom_site_type_symbol
_atom_site_label
_atom_site_fract_x
_atom_site_fract_y
_atom_site_fract_z
Si Si1 0.172564 0.859772 0.468220
Si Si2 0.668860 0.294955 0.218779
Si Si3 0.326997 0.041724 0.903846
Si Si4 0.669025 0.146402 0.506669
Si Si5 0.172186 0.543036 0.596090
Si Si6 0.166840 0.315866 0.715567
O O1 0.224671 0.826522 0.344461
O O2 0.250053 0.910853 0.457920
O O3 0.221443 0.833929 0.604389
O O4 0.000000 0.866892 0.470384
O O5 0.500000 0.304244 0.192596
O O6 0.701899 0.239432 0.251189
O O7 0.752397 0.310317 0.084099
O O8 0.500000 0.048759 0.917595
O O9 0.281481 0.031035 0.749303
O O10 0.267383 0.997893 0.995539
O O11 0.500000 0.149760 0.544872
O O12 0.736353 0.094965 0.552474
O O13 0.693953 0.152091 0.347768
O O14 0.000000 0.544817 0.580576
O O15 0.000000 0.321597 0.664995
#
# Coordination Sequence:
#
# PCOD8175450 Si02
#       6
#     8   8   8   8   8   8
#     4  11  23  39  58  85 120 154 189 234 288 346
#     4  10  21  38  57  82 116 154 191 234 288 342
#     4  10  20  37  60  86 113 147 191 239 286 336
#     4  10  20  37  60  86 113 149 192 238 287 338
#     4   9  19  34  59  88 111 142 189 238 282 331
#     4  10  22  37  58  85 115 152 194 237 281 337
#
# _framework density 19.067152
#
# number of rings (size 3 to 8) (size 9 to 14) (size 15 to 20)
#    0.000    2.000    1.667    1.500    2.333    3.333 
#    0.000    1.667    0.000    0.000    0.000    0.000 
#    0.000    0.000    0.000    0.000    0.000    0.000 
#
# Total GULP energy -297687.306216 kJ/mol
# GULP energy per Si atom -12403.637759 kJ/mol
# Density = 1.902375 g / cm^3
# Si number density = 19.067152 Si / 1000 Ang^3
#
#
#
# Elastic Constant Matrix: (Units=GPa)
#
#
# Indices 1 2 3 4 5 6 
#
# 1 38.9428 28.3323 30.4304 0.0000 0.0000 0.0000
# 2 28.3323 107.2452 41.8307 0.0000 0.0000 0.0000
# 3 30.4304 41.8307 92.0159 0.0000 0.0000 0.0000
# 4 0.0000 0.0000 0.0000 42.7637 0.0000 0.0000
# 5 0.0000 0.0000 0.0000 0.0000 28.2620 0.0000
# 6 0.0000 0.0000 0.0000 0.0000 0.0000 21.9696
#
#
#
# Elastic Compliance Matrix: (Units=1/GPa)
#
#
# Indices 1 2 3 4 5 6 
#
# 1 0.037741 -0.006202 -0.009662 0.000000 0.000000 0.000000
# 2 -0.006202 0.012353 -0.003565 0.000000 0.000000 0.000000
# 3 -0.009662 -0.003565 0.015683 0.000000 0.000000 0.000000
# 4 0.000000 0.000000 0.000000 0.023384 0.000000 0.000000
# 5 0.000000 0.000000 0.000000 0.000000 0.035383 0.000000
# 6 0.000000 0.000000 0.000000 0.000000 0.000000 0.045517
#
#
# Mechanical properties :
#
#
# Convention : Reuss Voigt Hill
#
# Bulk Modulus (GPa) = 37.14644 48.82120 42.98382
# Shear Modulus (GPa) = 22.94706 27.77308 25.36007
#
# Velocity S-wave (km/s) = 3.47289 3.82067 3.65093
# Velocity P-wave (km/s) = 5.96704 6.71743 6.35332
#
# Compressibility (1/GPa) = 0.02692048
#
# Stress axis : x y z
#
# Youngs Moduli (GPa) = 26.49667 80.94990 63.76135
#
# Poissons Ratio (x) = 0.50204 0.61604
# Poissons Ratio (y) = 0.16433 0.22730
# Poissons Ratio (z) = 0.25600 0.28857
#
# Static dielectric constant tensor:
#      x y z
#    x 3.248220 0.000000 0.000000 
#    y 0.000000 3.700180 0.000000 
#    z 0.000000 0.000000 3.569540 
# 
# 
# High freq. dielectric constant tensor:
#      x y z
#    x 1.714550 0.000000 0.000000 
#    y 0.000000 1.754250 0.000000 
#    z 0.000000 0.000000 1.752050 
# 
# From -- ./inp_files/2674.got.cif
#   From: 2010.03.12/outbox.cif.g09.slc.cpg/sg36_2_cif.got.tgz:2674.got - 2010.04.14 02:13:53.
