data_PCOD8175634
_publ_section_title
;
Structure prediction by ZEFSAII (Michael W. Deem and Ramdas Pophale) SiO2 
 PCOD8175634
Probable space group: C M C 21
;
_chemical_formula_sum "Si O2"
_cell_formula_units_Z 48
_cell_length_a 9.170652
_cell_length_b 23.707811
_cell_length_c 11.975163
_cell_angle_alpha 90.000000
_cell_angle_beta 90.000000
_cell_angle_gamma 90.000000
_cell_volume 2603.593049
_symmetry_space_group_name_H-M "C M C 21"
_symmetry_group_IT_number 36
_symmetry_cell_setting 'orthorhombic'
loop_
_space_group_symop_operation_xyz
x,y,z
-x,-y,1/2+z
x,-y,1/2+z
-x,y,z
1/2+x,1/2+y,z
1/2-x,1/2-y,1/2+z
1/2+x,1/2-y,1/2+z
1/2-x,1/2+y,z
loop_
_atom_site_type_symbol
_atom_site_label
_atom_site_fract_x
_atom_site_fract_y
_atom_site_fract_z
Si Si1 0.827066 0.331313 0.750000
Si Si2 0.329776 0.291467 0.182443
Si Si3 0.172206 0.416089 0.560060
Si Si4 0.330739 0.039462 0.641397
Si Si5 0.329662 0.145986 0.496115
Si Si6 0.170808 0.898533 0.329324
O O1 0.769478 0.268481 0.724858
O O2 0.770372 0.374234 0.656174
O O3 0.000000 0.332230 0.752044
O O4 0.767780 0.351385 0.870339
O O5 0.500000 0.288908 0.155532
O O6 0.249175 0.306089 0.067829
O O7 0.294643 0.337552 0.276851
O O8 0.215937 0.478967 0.595463
O O9 0.255215 0.399341 0.448863
O O10 0.000000 0.410522 0.539517
O O11 0.500000 0.040911 0.675829
O O12 0.295218 0.084068 0.543937
O O13 0.238087 0.052658 0.751738
O O14 0.500000 0.159689 0.500010
O O15 0.000000 0.909784 0.341181
#
# Coordination Sequence:
#
# PCOD8175634 Si02
#       6
#     8   8   8   8   8   8
#     4   9  19  34  54  79 107 138 174 219 267 311
#     4   9  19  36  54  75 106 143 175 212 265 319
#     4  10  21  35  57  83 107 137 179 226 265 310
#     4   9  19  35  58  82 104 136 179 223 265 313
#     4   9  18  34  56  79 102 135 176 219 264 312
#     4  10  21  36  55  78 110 145 175 215 268 323
#
# _framework density 18.436062
#
# number of rings (size 3 to 8) (size 9 to 14) (size 15 to 20)
#    0.000    2.667    0.000    0.500    4.667    1.333 
#    0.000    1.667    0.000    0.000    0.000    0.000 
#    0.000    0.000    0.000    0.000    0.000    0.000 
#
# Total GULP energy -297656.611041 kJ/mol
# GULP energy per Si atom -12402.358793 kJ/mol
# Density = 1.839410 g / cm^3
# Si number density = 18.436062 Si / 1000 Ang^3
#
#
#
# Elastic Constant Matrix: (Units=GPa)
#
#
# Indices 1 2 3 4 5 6 
#
# 1 45.4489 36.3496 56.2938 0.0000 0.0000 0.0000
# 2 36.3496 130.8130 82.1545 0.0000 0.0000 0.0000
# 3 56.2938 82.1545 191.3068 0.0000 0.0000 0.0000
# 4 0.0000 0.0000 0.0000 22.6457 0.0000 0.0000
# 5 0.0000 0.0000 0.0000 0.0000 29.0132 0.0000
# 6 0.0000 0.0000 0.0000 0.0000 0.0000 21.6153
#
#
#
# Elastic Compliance Matrix: (Units=1/GPa)
#
#
# Indices 1 2 3 4 5 6 
#
# 1 0.036587 -0.004663 -0.008764 0.000000 0.000000 0.000000
# 2 -0.004663 0.011062 -0.003378 0.000000 0.000000 0.000000
# 3 -0.008764 -0.003378 0.009257 0.000000 0.000000 0.000000
# 4 0.000000 0.000000 0.000000 0.044159 0.000000 0.000000
# 5 0.000000 0.000000 0.000000 0.000000 0.034467 0.000000
# 6 0.000000 0.000000 0.000000 0.000000 0.000000 0.046263
#
#
# Mechanical properties :
#
#
# Convention : Reuss Voigt Hill
#
# Bulk Modulus (GPa) = 42.92585 79.68496 61.30540
# Shear Modulus (GPa) = 22.40454 27.50622 24.95538
#
# Velocity S-wave (km/s) = 3.48983 3.86681 3.68315
# Velocity P-wave (km/s) = 6.29069 7.95314 7.17026
#
# Compressibility (1/GPa) = 0.02329599
#
# Stress axis : x y z
#
# Youngs Moduli (GPa) = 27.33233 90.40080 108.02885
#
# Poissons Ratio (x) = 0.42151 0.94673
# Poissons Ratio (y) = 0.12744 0.36496
# Poissons Ratio (z) = 0.23953 0.30541
#
# Static dielectric constant tensor:
#      x y z
#    x 3.182550 0.000000 0.000000 
#    y 0.000000 3.588350 0.000000 
#    z 0.000000 0.000000 3.527400 
# 
# 
# High freq. dielectric constant tensor:
#      x y z
#    x 1.691540 0.000000 0.000000 
#    y 0.000000 1.722700 0.000000 
#    z 0.000000 0.000000 1.724110 
# 
# From -- ./inp_files/6706.got.cif
#   From: 2010.03.12/outbox.cif.g09.slc.cpg/sg36_4_cif.got.tgz:6706.got - 2010.04.14 02:13:53.
