data_PCOD8175183
_publ_section_title
;
Structure prediction by ZEFSAII (Michael W. Deem and Ramdas Pophale) SiO2 
 PCOD8175183
Probable space group: C M C 21
;
_chemical_formula_sum "Si O2"
_cell_formula_units_Z 64
_cell_length_a 13.531619
_cell_length_b 12.950136
_cell_length_c 17.636944
_cell_angle_alpha 90.000000
_cell_angle_beta 90.000000
_cell_angle_gamma 90.000000
_cell_volume 3090.632922
_symmetry_space_group_name_H-M "C M C 21"
_symmetry_group_IT_number 36
_symmetry_cell_setting 'orthorhombic'
loop_
_space_group_symop_operation_xyz
x,y,z
-x,-y,1/2+z
x,-y,1/2+z
-x,y,z
1/2+x,1/2+y,z
1/2-x,1/2-y,1/2+z
1/2+x,1/2-y,1/2+z
1/2-x,1/2+y,z
loop_
_atom_site_type_symbol
_atom_site_label
_atom_site_fract_x
_atom_site_fract_y
_atom_site_fract_z
Si Si1 0.607840 0.659142 0.628040
Si Si2 0.612079 0.323635 0.659647
Si Si3 0.702085 0.775079 0.414579
Si Si4 0.385645 0.654448 0.983865
Si Si5 0.760568 0.504399 0.174247
Si Si6 0.113463 0.631993 0.765973
Si Si7 0.391721 0.423420 0.959779
Si Si8 0.385210 0.873836 0.564304
O O1 0.500000 0.641378 0.667272
O O2 0.695292 0.599589 0.669364
O O3 0.599673 0.618816 0.543540
O O4 0.631593 0.781164 0.624937
O O5 0.500000 0.366339 0.668344
O O6 0.639114 0.317746 0.570710
O O7 0.687249 0.403549 0.699618
O O8 0.621786 0.211373 0.695934
O O9 0.819898 0.773976 0.429420
O O10 0.676607 0.827553 0.335823
O O11 0.673427 0.654337 0.409801
O O12 0.647502 0.839189 0.480757
O O13 0.500000 0.672809 0.965198
O O14 0.349225 0.538590 0.964549
O O15 0.841451 0.477919 0.238830
O O16 0.818789 0.531459 0.095958
O O17 0.000000 0.615856 0.790468
O O18 0.500000 0.425685 0.921783
O O19 0.500000 0.907077 0.560866
#
# Coordination Sequence:
#
# PCOD8175183 Si02
#       8
#     8   8   8   8   8   8   8   8
#     4   9  17  31  54  85 110 139 187 244 292 339
#     4  10  21  39  61  91 123 156 200 251 309 369
#     4  11  21  39  62  86 118 162 204 244 301 366
#     4  10  20  37  64  95 119 147 199 263 306 352
#     4  12  20  35  60  87 118 154 199 245 303 350
#     4  11  26  41  56  85 129 168 197 245 311 376
#     4   9  17  32  60  88 113 146 193 244 292 352
#     4  10  20  34  57  85 112 148 203 250 282 344
#
# _framework density 20.707733000000001
#
# number of rings (size 3 to 8) (size 9 to 14) (size 15 to 20)
#    0.000    1.750    2.500    3.375    1.750    1.000 
#    0.000    2.500    0.000    4.500    0.000    0.000 
#    0.000    0.000    0.000    0.000    0.000    0.000 
#
# Total GULP energy -396692.903600 kJ/mol
# GULP energy per Si atom -12396.653238 kJ/mol
# Density = 2.066060 g / cm^3
# Si number density = 20.707733 Si / 1000 Ang^3
#
#
#
# Elastic Constant Matrix: (Units=GPa)
#
#
# Indices 1 2 3 4 5 6 
#
# 1 119.9258 37.9950 30.9414 0.0000 0.0000 0.0000
# 2 37.9950 54.3502 21.4354 0.0000 0.0000 0.0000
# 3 30.9414 21.4354 48.6000 0.0000 0.0000 0.0000
# 4 0.0000 0.0000 0.0000 22.9903 0.0000 0.0000
# 5 0.0000 0.0000 0.0000 0.0000 29.5337 0.0000
# 6 0.0000 0.0000 0.0000 0.0000 0.0000 37.0158
#
#
#
# Elastic Compliance Matrix: (Units=1/GPa)
#
#
# Indices 1 2 3 4 5 6 
#
# 1 0.011491 -0.006232 -0.004567 0.000000 0.000000 0.000000
# 2 -0.006232 0.025653 -0.007347 0.000000 0.000000 0.000000
# 3 -0.004567 -0.007347 0.026724 0.000000 0.000000 0.000000
# 4 0.000000 0.000000 0.000000 0.043497 0.000000 0.000000
# 5 0.000000 0.000000 0.000000 0.000000 0.033860 0.000000
# 6 0.000000 0.000000 0.000000 0.000000 0.000000 0.027016
#
#
# Mechanical properties :
#
#
# Convention : Reuss Voigt Hill
#
# Bulk Modulus (GPa) = 36.26279 44.84663 40.55471
# Shear Modulus (GPa) = 23.39448 26.74158 25.06803
#
# Velocity S-wave (km/s) = 3.36482 3.59748 3.48309
# Velocity P-wave (km/s) = 5.71364 6.24178 5.98354
#
# Compressibility (1/GPa) = 0.02757648
#
# Stress axis : x y z
#
# Youngs Moduli (GPa) = 87.02238 38.98111 37.41901
#
# Poissons Ratio (x) = 0.24293 0.17090
# Poissons Ratio (y) = 0.54232 0.27492
# Poissons Ratio (z) = 0.39746 0.28640
#
# Static dielectric constant tensor:
#      x y z
#    x 4.092260 0.000000 0.000000 
#    y 0.000000 3.940310 0.000000 
#    z 0.000000 0.000000 3.270480 
# 
# 
# High freq. dielectric constant tensor:
#      x y z
#    x 1.833420 0.000000 0.000000 
#    y 0.000000 1.800490 0.000000 
#    z 0.000000 0.000000 1.765740 
# 
# From -- ./inp_files/14718.got.cif
#   From: 2010.03.12/outbox.cif.g09.slc.cpg/sg36_8_cif.got.tgz:14718.got - 2010.04.14 02:13:53.
