data_PCOD8175570
_publ_section_title
;
Structure prediction by ZEFSAII (Michael W. Deem and Ramdas Pophale) SiO2 
 PCOD8175570
Probable space group: C M C 21
;
_chemical_formula_sum "Si O2"
_cell_formula_units_Z 56
_cell_length_a 13.571294
_cell_length_b 17.327461
_cell_length_c 11.598302
_cell_angle_alpha 90.000000
_cell_angle_beta 90.000000
_cell_angle_gamma 90.000000
_cell_volume 2727.411088
_symmetry_space_group_name_H-M "C M C 21"
_symmetry_group_IT_number 36
_symmetry_cell_setting 'orthorhombic'
loop_
_space_group_symop_operation_xyz
x,y,z
-x,-y,1/2+z
x,-y,1/2+z
-x,y,z
1/2+x,1/2+y,z
1/2-x,1/2-y,1/2+z
1/2+x,1/2-y,1/2+z
1/2-x,1/2+y,z
loop_
_atom_site_type_symbol
_atom_site_label
_atom_site_fract_x
_atom_site_fract_y
_atom_site_fract_z
Si Si1 0.110462 0.048048 0.789620
Si Si2 0.196438 0.275681 0.050958
Si Si3 0.754354 0.887072 0.467547
Si Si4 0.789597 0.476871 0.686446
Si Si5 0.891321 0.791990 0.159573
Si Si6 0.884325 0.633167 0.753688
Si Si7 0.385313 0.152348 0.325847
O O1 0.164602 0.055430 0.912824
O O2 0.108922 0.133128 0.737870
O O3 0.000000 0.014850 0.804398
O O4 0.173060 0.991790 0.707172
O O5 0.187649 0.185108 0.022880
O O6 0.145339 0.326866 0.954534
O O7 0.312427 0.298631 0.057017
O O8 0.143282 0.293915 0.172836
O O9 0.695488 0.934331 0.564935
O O10 0.674542 0.858905 0.373589
O O11 0.850932 0.556124 0.686110
O O12 0.828403 0.424528 0.790506
O O13 0.857846 0.721224 0.239637
O O14 0.000000 0.778496 0.106017
O O15 0.000000 0.631886 0.780026
O O16 0.500000 0.134075 0.323271
#
# Coordination Sequence:
#
# PCOD8175570 Si02
#       7
#     8   8   8   8   8   8   8
#     4  10  22  43  64  92 129 172 218 263 323 385
#     4  12  21  42  66  95 130 172 219 273 320 389
#     4  11  24  42  69  93 134 175 216 277 323 386
#     4  11  24  42  66  95 134 175 212 273 330 392
#     4  10  20  39  64  91 124 168 216 260 316 382
#     4  11  26  43  64 101 136 171 218 272 332 397
#     4  11  23  39  65  95 125 171 221 264 328 391
#
# _framework density 20.532291000000001
#
# number of rings (size 3 to 8) (size 9 to 14) (size 15 to 20)
#    0.000    1.143    5.714    0.857    4.000    2.857 
#    0.000    2.143    0.000    0.000    0.000    0.000 
#    0.000    0.000    0.000    0.000    0.000    0.000 
#
# Total GULP energy -347268.863666 kJ/mol
# GULP energy per Si atom -12402.459417 kJ/mol
# Density = 2.048556 g / cm^3
# Si number density = 20.532291 Si / 1000 Ang^3
#
#
#
# Elastic Constant Matrix: (Units=GPa)
#
#
# Indices 1 2 3 4 5 6 
#
# 1 144.8508 25.5599 36.4783 0.0000 0.0000 0.0000
# 2 25.5599 76.5180 40.5158 0.0000 0.0000 0.0000
# 3 36.4783 40.5158 87.5794 0.0000 0.0000 0.0000
# 4 0.0000 0.0000 0.0000 26.7397 0.0000 0.0000
# 5 0.0000 0.0000 0.0000 0.0000 27.4644 0.0000
# 6 0.0000 0.0000 0.0000 0.0000 0.0000 21.7861
#
#
#
# Elastic Compliance Matrix: (Units=1/GPa)
#
#
# Indices 1 2 3 4 5 6 
#
# 1 0.007791 -0.001171 -0.002703 0.000000 0.000000 0.000000
# 2 -0.001171 0.017485 -0.007601 0.000000 0.000000 0.000000
# 3 -0.002703 -0.007601 0.016061 0.000000 0.000000 0.000000
# 4 0.000000 0.000000 0.000000 0.037398 0.000000 0.000000
# 5 0.000000 0.000000 0.000000 0.000000 0.036411 0.000000
# 6 0.000000 0.000000 0.000000 0.000000 0.000000 0.045901
#
#
# Mechanical properties :
#
#
# Convention : Reuss Voigt Hill
#
# Bulk Modulus (GPa) = 54.39068 57.11737 55.75402
# Shear Modulus (GPa) = 26.29851 28.95764 27.62807
#
# Velocity S-wave (km/s) = 3.58276 3.75953 3.67221
# Velocity P-wave (km/s) = 6.60778 6.83551 6.72261
#
# Compressibility (1/GPa) = 0.01838550
#
# Stress axis : x y z
#
# Youngs Moduli (GPa) = 128.35156 57.19294 62.26440
#
# Poissons Ratio (x) = 0.06698 0.16832
# Poissons Ratio (y) = 0.15031 0.47327
# Poissons Ratio (z) = 0.34698 0.43472
#
# Static dielectric constant tensor:
#      x y z
#    x 4.004680 0.000000 0.000000 
#    y 0.000000 3.734620 0.000000 
#    z 0.000000 0.000000 3.637720 
# 
# 
# High freq. dielectric constant tensor:
#      x y z
#    x 1.808270 0.000000 0.000000 
#    y 0.000000 1.800300 0.000000 
#    z 0.000000 0.000000 1.796680 
# 
# From -- ./inp_files/8478.got.cif
#   From: 2010.03.12/outbox.cif.g09.slc.cpg/sg36_5_cif.got.tgz:8478.got - 2010.04.14 02:13:53.
