data_PCOD8175118
_publ_section_title
;
Structure prediction by ZEFSAII (Michael W. Deem and Ramdas Pophale) SiO2 
 PCOD8175118
Probable space group: C M C 21
;
_chemical_formula_sum "Si O2"
_cell_formula_units_Z 48
_cell_length_a 9.096461
_cell_length_b 30.355186
_cell_length_c 9.085959
_cell_angle_alpha 90.000000
_cell_angle_beta 90.000000
_cell_angle_gamma 90.000000
_cell_volume 2508.858299
_symmetry_space_group_name_H-M "C M C 21"
_symmetry_group_IT_number 36
_symmetry_cell_setting 'orthorhombic'
loop_
_space_group_symop_operation_xyz
x,y,z
-x,-y,1/2+z
x,-y,1/2+z
-x,y,z
1/2+x,1/2+y,z
1/2-x,1/2-y,1/2+z
1/2+x,1/2-y,1/2+z
1/2-x,1/2+y,z
loop_
_atom_site_type_symbol
_atom_site_label
_atom_site_fract_x
_atom_site_fract_y
_atom_site_fract_z
Si Si1 0.328990 0.777010 0.603450
Si Si2 0.165598 0.138147 0.168937
Si Si3 0.328926 0.799413 0.265484
Si Si4 0.670083 0.054073 0.226338
Si Si5 0.665872 0.615476 0.827189
Si Si6 0.329621 0.031728 0.893539
O O1 0.500000 0.775060 0.643430
O O2 0.258258 0.817482 0.694026
O O3 0.302161 0.782275 0.430230
O O4 0.250765 0.732304 0.650860
O O5 0.237014 0.098020 0.260333
O O6 0.000000 0.146060 0.225439
O O7 0.168901 0.125813 0.998960
O O8 0.500000 0.801818 0.226838
O O9 0.259846 0.847712 0.242263
O O10 0.500000 0.066979 0.240715
O O11 0.717612 0.016993 0.342885
O O12 0.704694 0.034843 0.065543
O O13 0.500000 0.615316 0.765828
O O14 0.738327 0.567793 0.801188
O O15 0.500000 0.040339 0.857845
#
# Coordination Sequence:
#
# PCOD8175118 Si02
#       6
#     8   8   8   8   8   8
#     4  10  20  34  53  76 101 130 165 204 246 293
#     4   9  17  30  49  71  95 126 163 199 237 286
#     4  10  20  34  53  76 101 130 165 204 246 293
#     4   9  17  30  48  69  93 122 157 196 238 285
#     4   9  17  30  49  71  95 126 163 199 237 286
#     4   9  17  30  48  69  93 122 157 196 238 285
#
# _framework density 19.132207999999999
#
# number of rings (size 3 to 8) (size 9 to 14) (size 15 to 20)
#    0.000    2.667    0.000    2.000    0.000    6.667 
#    0.000    1.667    0.000    6.000    0.000    0.000 
#    0.000    0.000    0.000    0.000    0.000    0.000 
#
# Total GULP energy -297634.081403 kJ/mol
# GULP energy per Si atom -12401.420058 kJ/mol
# Density = 1.908866 g / cm^3
# Si number density = 19.132208 Si / 1000 Ang^3
#
#
#
# Elastic Constant Matrix: (Units=GPa)
#
#
# Indices 1 2 3 4 5 6 
#
# 1 99.4402 11.5005 9.0977 0.0000 0.0000 0.0000
# 2 11.5005 27.4610 -6.2017 0.0000 0.0000 0.0000
# 3 9.0977 -6.2017 12.0709 0.0000 0.0000 0.0000
# 4 0.0000 0.0000 0.0000 30.1100 0.0000 0.0000
# 5 0.0000 0.0000 0.0000 0.0000 19.7077 0.0000
# 6 0.0000 0.0000 0.0000 0.0000 0.0000 41.9686
#
#
#
# Elastic Compliance Matrix: (Units=1/GPa)
#
#
# Indices 1 2 3 4 5 6 
#
# 1 0.012224 -0.008145 -0.013398 0.000000 0.000000 0.000000
# 2 -0.008145 0.046622 0.030092 0.000000 0.000000 0.000000
# 3 -0.013398 0.030092 0.108402 0.000000 0.000000 0.000000
# 4 0.000000 0.000000 0.000000 0.033212 0.000000 0.000000
# 5 0.000000 0.000000 0.000000 0.000000 0.050742 0.000000
# 6 0.000000 0.000000 0.000000 0.000000 0.000000 0.023827
#
#
# Mechanical properties :
#
#
# Convention : Reuss Voigt Hill
#
# Bulk Modulus (GPa) = 5.42460 18.64060 12.03260
# Shear Modulus (GPa) = 15.65539 26.66230 21.15884
#
# Velocity S-wave (km/s) = 2.86365 3.73712 3.32916
# Velocity P-wave (km/s) = 3.71153 5.32782 4.59136
#
# Compressibility (1/GPa) = 0.18434549
#
# Stress axis : x y z
#
# Youngs Moduli (GPa) = 81.80589 21.44905 9.22496
#
# Poissons Ratio (x) = 0.17470 0.12359
# Poissons Ratio (y) = 0.66631 -0.27760
# Poissons Ratio (z) = 1.09602 -0.64544
#
# Static dielectric constant tensor:
#      x y z
#    x 3.632960 0.000000 0.000000 
#    y 0.000000 3.647840 0.000000 
#    z 0.000000 0.000000 3.082780 
# 
# 
# High freq. dielectric constant tensor:
#      x y z
#    x 1.751840 0.000000 0.000000 
#    y 0.000000 1.755590 0.000000 
#    z 0.000000 0.000000 1.698470 
# 
# From -- ./inp_files/2648.got.cif
#   From: 2010.03.12/outbox.cif.g09.slc.cpg/sg36_2_cif.got.tgz:2648.got - 2010.04.14 02:13:53.
