data_PCOD8175216
_publ_section_title
;
Structure prediction by ZEFSAII (Michael W. Deem and Ramdas Pophale) SiO2 
 PCOD8175216
Probable space group: C M C 21
;
_chemical_formula_sum "Si O2"
_cell_formula_units_Z 64
_cell_length_a 8.840598
_cell_length_b 20.627205
_cell_length_c 19.138919
_cell_angle_alpha 90.000000
_cell_angle_beta 90.000000
_cell_angle_gamma 90.000000
_cell_volume 3490.112546
_symmetry_space_group_name_H-M "C M C 21"
_symmetry_group_IT_number 36
_symmetry_cell_setting 'orthorhombic'
loop_
_space_group_symop_operation_xyz
x,y,z
-x,-y,1/2+z
x,-y,1/2+z
-x,y,z
1/2+x,1/2+y,z
1/2-x,1/2-y,1/2+z
1/2+x,1/2-y,1/2+z
1/2-x,1/2+y,z
loop_
_atom_site_type_symbol
_atom_site_label
_atom_site_fract_x
_atom_site_fract_y
_atom_site_fract_z
Si Si1 0.178487 0.618456 0.859950
Si Si2 0.678658 0.684920 0.487392
Si Si3 0.322788 0.432158 0.493594
Si Si4 0.320429 0.439472 0.070117
Si Si5 0.674988 0.700243 0.070259
Si Si6 0.824420 0.891015 0.216322
Si Si7 0.176567 0.742272 0.359920
Si Si8 0.672259 0.759610 0.702592
O O1 0.235216 0.570017 0.920182
O O2 0.229597 0.590318 0.784961
O O3 0.248280 0.688639 0.875009
O O4 0.000000 0.624147 0.861806
O O5 0.500000 0.682430 0.478207
O O6 0.742429 0.620723 0.524993
O O7 0.721368 0.747580 0.532076
O O8 0.754891 0.688483 0.411189
O O9 0.500000 0.438675 0.477725
O O10 0.261191 0.494010 0.536575
O O11 0.285876 0.370042 0.540540
O O12 0.500000 0.436027 0.070281
O O13 0.266394 0.434072 0.150925
O O14 0.500000 0.717724 0.059092
O O15 0.715802 0.700848 0.152324
O O16 0.797366 0.816683 0.195022
O O17 0.000000 0.902835 0.233890
O O18 0.207763 0.718071 0.281495
O O19 0.000000 0.752012 0.374388
O O20 0.500000 0.775721 0.682155
#
# Coordination Sequence:
#
# PCOD8175216 Si02
#       8
#     8   8   8   8   8   8   8   8
#     4  11  21  33  53  82 111 143 183 228 275 327
#     4  11  20  34  57  83 109 138 180 231 277 323
#     4  10  21  38  57  79 110 149 189 225 268 327
#     4   9  19  37  59  81 107 146 189 225 269 327
#     4  11  21  32  53  82 111 141 179 226 274 325
#     4   9  17  34  57  79 105 140 183 230 276 326
#     4  10  20  35  54  80 111 146 183 225 278 331
#     4   9  18  33  54  78 108 141 178 224 275 326
#
# _framework density 18.337516999999998
#
# number of rings (size 3 to 8) (size 9 to 14) (size 15 to 20)
#    0.000    2.000    2.500    3.000    0.000    3.000 
#    0.000    3.125    0.000    6.000    0.000    0.000 
#    0.000    0.000    0.000    0.000    0.000    0.000 
#
# Total GULP energy -396854.336828 kJ/mol
# GULP energy per Si atom -12401.698026 kJ/mol
# Density = 1.829578 g / cm^3
# Si number density = 18.337517 Si / 1000 Ang^3
#
#
#
# Elastic Constant Matrix: (Units=GPa)
#
#
# Indices 1 2 3 4 5 6 
#
# 1 76.3390 34.3675 52.5681 0.0000 0.0000 0.0000
# 2 34.3675 91.7475 61.8129 0.0000 0.0000 0.0000
# 3 52.5681 61.8129 153.2389 0.0000 0.0000 0.0000
# 4 0.0000 0.0000 0.0000 30.8274 0.0000 0.0000
# 5 0.0000 0.0000 0.0000 0.0000 35.2095 0.0000
# 6 0.0000 0.0000 0.0000 0.0000 0.0000 19.0404
#
#
#
# Elastic Compliance Matrix: (Units=1/GPa)
#
#
# Indices 1 2 3 4 5 6 
#
# 1 0.017949 -0.003536 -0.004731 0.000000 0.000000 0.000000
# 2 -0.003536 0.015664 -0.005105 0.000000 0.000000 0.000000
# 3 -0.004731 -0.005105 0.010208 0.000000 0.000000 0.000000
# 4 0.000000 0.000000 0.000000 0.032439 0.000000 0.000000
# 5 0.000000 0.000000 0.000000 0.000000 0.028401 0.000000
# 6 0.000000 0.000000 0.000000 0.000000 0.000000 0.052520
#
#
# Mechanical properties :
#
#
# Convention : Reuss Voigt Hill
#
# Bulk Modulus (GPa) = 58.56150 68.75807 63.65978
# Shear Modulus (GPa) = 26.36882 28.52059 27.44470
#
# Velocity S-wave (km/s) = 3.79617 3.94802 3.87284
# Velocity P-wave (km/s) = 7.15676 7.63936 7.40199
#
# Compressibility (1/GPa) = 0.01707607
#
# Stress axis : x y z
#
# Youngs Moduli (GPa) = 55.71250 63.84211 97.96155
#
# Poissons Ratio (x) = 0.22575 0.46346
# Poissons Ratio (y) = 0.19701 0.50012
# Poissons Ratio (z) = 0.26358 0.32593
#
# Static dielectric constant tensor:
#      x y z
#    x 3.236320 0.000000 0.000000 
#    y 0.000000 3.225260 0.000000 
#    z 0.000000 0.000000 3.717920 
# 
# 
# High freq. dielectric constant tensor:
#      x y z
#    x 1.700670 0.000000 0.000000 
#    y 0.000000 1.678310 0.000000 
#    z 0.000000 0.000000 1.730890 
# 
# From -- ./inp_files/15652.got.cif
#   From: 2010.03.12/outbox.cif.g09.slc.cpg/sg36_8_cif.got.tgz:15652.got - 2010.04.14 02:13:53.
