data_PCOD8175033
_publ_section_title
;
Structure prediction by ZEFSAII (Michael W. Deem and Ramdas Pophale) SiO2 
 PCOD8175033
Probable space group: C M C 21
;
_chemical_formula_sum "Si O2"
_cell_formula_units_Z 64
_cell_length_a 9.095186
_cell_length_b 28.526686
_cell_length_c 14.169464
_cell_angle_alpha 90.000000
_cell_angle_beta 90.000000
_cell_angle_gamma 90.000000
_cell_volume 3676.345581
_symmetry_space_group_name_H-M "C M C 21"
_symmetry_group_IT_number 36
_symmetry_cell_setting 'orthorhombic'
loop_
_space_group_symop_operation_xyz
x,y,z
-x,-y,1/2+z
x,-y,1/2+z
-x,y,z
1/2+x,1/2+y,z
1/2-x,1/2-y,1/2+z
1/2+x,1/2-y,1/2+z
1/2-x,1/2+y,z
loop_
_atom_site_type_symbol
_atom_site_label
_atom_site_fract_x
_atom_site_fract_y
_atom_site_fract_z
Si Si1 0.172823 0.053768 0.029790
Si Si2 0.827248 0.873762 0.196240
Si Si3 0.327322 0.878655 0.393929
Si Si4 0.172449 0.870655 0.683428
Si Si5 0.327124 0.803296 0.548917
Si Si6 0.824671 0.876947 0.894684
Si Si7 0.674298 0.448837 0.046012
Si Si8 0.826719 0.801305 0.037679
O O1 0.210020 0.083088 0.123523
O O2 0.000000 0.053560 0.007902
O O3 0.236140 0.001630 0.047327
O O4 0.253409 0.075495 0.939358
O O5 0.734885 0.870071 0.290752
O O6 0.777555 0.920526 0.139681
O O7 0.786592 0.828170 0.134197
O O8 0.000000 0.875213 0.219875
O O9 0.500000 0.887304 0.388778
O O10 0.287728 0.832951 0.455788
O O11 0.251287 0.825530 0.640274
O O12 0.235998 0.878640 0.788391
O O13 0.000000 0.860331 0.684677
O O14 0.500000 0.802593 0.567880
O O15 0.260693 0.751073 0.536934
O O16 0.000000 0.877191 0.894837
O O17 0.767087 0.922377 0.952207
O O18 0.765539 0.830240 0.947621
O O19 0.500000 0.449905 0.043554
O O20 0.000000 0.797983 0.027447
#
# Coordination Sequence:
#
# PCOD8175033 Si02
#       8
#     8   8   8   8   8   8   8   8
#     4   9  17  30  48  70  94 119 151 189 227 268
#     4   9  17  31  51  72  93 118 152 194 235 273
#     4  10  20  32  46  67  96 128 158 187 225 273
#     4   9  17  28  45  69  92 114 145 187 227 262
#     4   9  18  32  47  63  89 124 156 184 220 272
#     4   8  14  26  45  69  93 114 143 185 228 269
#     4   8  15  28  48  72  93 116 149 189 230 271
#     4   8  15  29  48  68  90 119 152 185 226 274
#
# _framework density 17.408591999999999
#
# number of rings (size 3 to 8) (size 9 to 14) (size 15 to 20)
#    0.000    3.250    0.000    1.875    0.000    2.500 
#    0.000    6.250    0.000    7.500    0.000    0.000 
#    0.000    0.000    0.000    0.000    0.000    0.000 
#
# Total GULP energy -396683.243407 kJ/mol
# GULP energy per Si atom -12396.351356 kJ/mol
# Density = 1.736897 g / cm^3
# Si number density = 17.408592 Si / 1000 Ang^3
#
#
#
# Elastic Constant Matrix: (Units=GPa)
#
#
# Indices 1 2 3 4 5 6 
#
# 1 25.7174 26.0041 30.8210 0.0000 0.0000 0.0000
# 2 26.0041 163.1155 69.2580 0.0000 0.0000 0.0000
# 3 30.8210 69.2580 144.4048 0.0000 0.0000 0.0000
# 4 0.0000 0.0000 0.0000 15.2418 0.0000 0.0000
# 5 0.0000 0.0000 0.0000 0.0000 17.9461 0.0000
# 6 0.0000 0.0000 0.0000 0.0000 0.0000 18.0704
#
#
#
# Elastic Compliance Matrix: (Units=1/GPa)
#
#
# Indices 1 2 3 4 5 6 
#
# 1 0.055037 -0.004755 -0.009466 0.000000 0.000000 0.000000
# 2 -0.004755 0.008109 -0.002874 0.000000 0.000000 0.000000
# 3 -0.009466 -0.002874 0.010324 0.000000 0.000000 0.000000
# 4 0.000000 0.000000 0.000000 0.065609 0.000000 0.000000
# 5 0.000000 0.000000 0.000000 0.000000 0.055722 0.000000
# 6 0.000000 0.000000 0.000000 0.000000 0.000000 0.055339
#
#
# Mechanical properties :
#
#
# Convention : Reuss Voigt Hill
#
# Bulk Modulus (GPa) = 25.45892 65.04487 45.25189
# Shear Modulus (GPa) = 16.81102 24.06198 20.43650
#
# Velocity S-wave (km/s) = 3.11090 3.72181 3.42999
# Velocity P-wave (km/s) = 5.24973 7.47757 6.46041
#
# Compressibility (1/GPa) = 0.03927897
#
# Stress axis : x y z
#
# Youngs Moduli (GPa) = 18.16971 123.31880 96.86157
#
# Poissons Ratio (x) = 0.58634 0.91693
# Poissons Ratio (y) = 0.08639 0.27842
# Poissons Ratio (z) = 0.17200 0.35447
#
# Static dielectric constant tensor:
#      x y z
#    x 2.830610 0.000000 0.000000 
#    y 0.000000 3.692190 0.000000 
#    z 0.000000 0.000000 3.338140 
# 
# 
# High freq. dielectric constant tensor:
#      x y z
#    x 1.629680 0.000000 0.000000 
#    y 0.000000 1.679380 0.000000 
#    z 0.000000 0.000000 1.676640 
# 
# From -- ./inp_files/11212.got.cif
#   From: 2010.03.12/outbox.cif.g09.slc.cpg/sg36_6_cif.got.tgz:11212.got - 2010.04.14 02:13:53.
