data_PCOD8175971
_publ_section_title
;
Structure prediction by ZEFSAII (Michael W. Deem and Ramdas Pophale) SiO2 
 PCOD8175971
Probable space group: C M C 21
;
_chemical_formula_sum "Si O2"
_cell_formula_units_Z 64
_cell_length_a 8.691144
_cell_length_b 15.246163
_cell_length_c 23.728945
_cell_angle_alpha 90.000000
_cell_angle_beta 90.000000
_cell_angle_gamma 90.000000
_cell_volume 3144.241778
_symmetry_space_group_name_H-M "C M C 21"
_symmetry_group_IT_number 36
_symmetry_cell_setting 'orthorhombic'
loop_
_space_group_symop_operation_xyz
x,y,z
-x,-y,1/2+z
x,-y,1/2+z
-x,y,z
1/2+x,1/2+y,z
1/2-x,1/2-y,1/2+z
1/2+x,1/2-y,1/2+z
1/2-x,1/2+y,z
loop_
_atom_site_type_symbol
_atom_site_label
_atom_site_fract_x
_atom_site_fract_y
_atom_site_fract_z
Si Si1 0.816912 0.994462 0.053220
Si Si2 0.674353 0.719214 0.669387
Si Si3 0.678841 0.956030 0.790045
Si Si4 0.320952 0.722390 0.277954
Si Si5 0.824943 0.986965 0.178703
Si Si6 0.318931 0.620515 0.846166
Si Si7 0.318244 0.352846 0.473854
Si Si8 0.317905 0.299172 0.043082
O O1 0.765092 0.016476 0.117054
O O2 0.756067 0.898492 0.034578
O O3 0.000000 0.991288 0.051996
O O4 0.748545 0.067922 0.011474
O O5 0.500000 0.752595 0.678035
O O6 0.784595 0.772912 0.711170
O O7 0.683335 0.617177 0.684197
O O8 0.729542 0.735267 0.605250
O O9 0.500000 0.969843 0.802522
O O10 0.713064 0.969673 0.724039
O O11 0.776913 0.022349 0.828044
O O12 0.729209 0.857720 0.806744
O O13 0.500000 0.706414 0.286789
O O14 0.270841 0.812236 0.306884
O O15 0.000000 0.018728 0.189674
O O16 0.500000 0.635558 0.838804
O O17 0.263625 0.634288 0.910069
O O18 0.500000 0.354498 0.478503
O O19 0.258462 0.259824 0.495407
O O20 0.500000 0.295899 0.036432
#
# Coordination Sequence:
#
# PCOD8175971 Si02
#       8
#     8   8   8   8   8   8   8   8
#     4   8  17  36  59  86 119 159 197 235 292 359
#     4   9  18  35  59  88 127 163 196 248 307 360
#     4  12  25  40  61  91 124 159 205 255 311 373
#     4  12  25  40  62  90 119 162 210 256 312 368
#     4   9  17  34  61  88 123 163 197 241 302 363
#     4  11  24  44  63  86 125 166 210 260 307 360
#     4  10  22  39  62  89 119 159 204 251 299 357
#     4   9  19  36  59  88 122 161 199 242 296 356
#
# _framework density 20.354668
#
# number of rings (size 3 to 8) (size 9 to 14) (size 15 to 20)
#    0.000    2.000    1.250    4.125    1.750    2.500 
#    0.000    3.750    0.000    0.000    0.000    0.000 
#    0.000    0.000    0.000    0.000    0.000    0.000 
#
# Total GULP energy -396872.749692 kJ/mol
# GULP energy per Si atom -12402.273428 kJ/mol
# Density = 2.030834 g / cm^3
# Si number density = 20.354668 Si / 1000 Ang^3
#
#
#
# Elastic Constant Matrix: (Units=GPa)
#
#
# Indices 1 2 3 4 5 6 
#
# 1 50.3776 10.2338 22.1622 0.0000 0.0000 0.0000
# 2 10.2338 54.9367 13.6876 0.0000 0.0000 0.0000
# 3 22.1622 13.6876 87.1833 0.0000 0.0000 0.0000
# 4 0.0000 0.0000 0.0000 26.0942 0.0000 0.0000
# 5 0.0000 0.0000 0.0000 0.0000 25.5179 0.0000
# 6 0.0000 0.0000 0.0000 0.0000 0.0000 28.8373
#
#
#
# Elastic Compliance Matrix: (Units=1/GPa)
#
#
# Indices 1 2 3 4 5 6 
#
# 1 0.022790 -0.002916 -0.005335 0.000000 0.000000 0.000000
# 2 -0.002916 0.019317 -0.002291 0.000000 0.000000 0.000000
# 3 -0.005335 -0.002291 0.013186 0.000000 0.000000 0.000000
# 4 0.000000 0.000000 0.000000 0.038323 0.000000 0.000000
# 5 0.000000 0.000000 0.000000 0.000000 0.039188 0.000000
# 6 0.000000 0.000000 0.000000 0.000000 0.000000 0.034677
#
#
# Mechanical properties :
#
#
# Convention : Reuss Voigt Hill
#
# Bulk Modulus (GPa) = 29.23384 31.62943 30.43164
# Shear Modulus (GPa) = 25.00390 25.85081 25.42735
#
# Velocity S-wave (km/s) = 3.50867 3.56760 3.53826
# Velocity P-wave (km/s) = 5.55048 5.70467 5.62810
#
# Compressibility (1/GPa) = 0.03420693
#
# Stress axis : x y z
#
# Youngs Moduli (GPa) = 43.87965 51.76820 75.83739
#
# Poissons Ratio (x) = 0.15096 0.40462
# Poissons Ratio (y) = 0.12795 0.17378
# Poissons Ratio (z) = 0.23411 0.11862
#
# Static dielectric constant tensor:
#      x y z
#    x 3.383630 0.000000 0.000000 
#    y 0.000000 3.822980 0.000000 
#    z 0.000000 0.000000 3.843250 
# 
# 
# High freq. dielectric constant tensor:
#      x y z
#    x 1.772770 0.000000 0.000000 
#    y 0.000000 1.803530 0.000000 
#    z 0.000000 0.000000 1.793160 
# 
# From -- ./inp_files/16648.got.cif
#   From: 2010.03.12/outbox.cif.g09.slc.cpg/sg36_9_cif.got.tgz:16648.got - 2010.04.14 02:13:53.
