data_PCOD8175631
_publ_section_title
;
Structure prediction by ZEFSAII (Michael W. Deem and Ramdas Pophale) SiO2 
 PCOD8175631
Probable space group: C M C 21
;
_chemical_formula_sum "Si O2"
_cell_formula_units_Z 44
_cell_length_a 26.375888
_cell_length_b 17.406128
_cell_length_c 5.186373
_cell_angle_alpha 90.000000
_cell_angle_beta 90.000000
_cell_angle_gamma 90.000000
_cell_volume 2381.074646
_symmetry_space_group_name_H-M "C M C 21"
_symmetry_group_IT_number 36
_symmetry_cell_setting 'orthorhombic'
loop_
_space_group_symop_operation_xyz
x,y,z
-x,-y,1/2+z
x,-y,1/2+z
-x,y,z
1/2+x,1/2+y,z
1/2-x,1/2-y,1/2+z
1/2+x,1/2-y,1/2+z
1/2-x,1/2+y,z
loop_
_atom_site_type_symbol
_atom_site_label
_atom_site_fract_x
_atom_site_fract_y
_atom_site_fract_z
Si Si1 0.162771 0.452457 0.013950
Si Si2 0.000000 0.049189 0.037403
Si Si3 0.654149 0.699322 0.506108
Si Si4 0.635979 0.218404 0.515430
Si Si5 0.555815 0.683522 0.238163
Si Si6 0.718508 0.547483 0.506532
O O1 0.146429 0.501862 0.259988
O O2 0.132262 0.373093 0.021142
O O3 0.222199 0.433852 0.016044
O O4 0.950113 0.102033 0.087222
O O5 0.000000 0.979436 0.243268
O O6 0.661412 0.753798 0.751505
O O7 0.595124 0.672265 0.475712
O O8 0.689850 0.626904 0.539121
O O9 0.670010 0.749020 0.253514
O O10 0.578867 0.252523 0.543186
O O11 0.500000 0.710344 0.339103
O O12 0.702632 0.491221 0.738057
#
# Coordination Sequence:
#
# PCOD8175631 Si02
#       6
#     8   4   8   8   8   8
#     4  10  21  38  60  84 111 146 186 233 296 343
#     4  10  22  34  54  80 110 146 188 222 258 322
#     4  10  21  35  56  84 108 153 190 224 281 329
#     4  10  21  37  58  83 111 148 189 237 276 348
#     4   8  22  38  56  81 113 148 194 218 289 311
#     4  10  21  36  54  81 118 153 186 234 279 329
#
# _framework density 18.479050999999998
#
# number of rings (size 3 to 8) (size 9 to 14) (size 15 to 20)
#    1.636    0.727    0.000    2.182    2.545    3.636 
#    0.000    0.000    0.000    1.091    0.000    0.000 
#    0.000    0.000    0.000    0.000    0.000    0.000 
#
# Total GULP energy -272643.446102 kJ/mol
# GULP energy per Si atom -12392.883914 kJ/mol
# Density = 1.843699 g / cm^3
# Si number density = 18.479051 Si / 1000 Ang^3
#
#
#
# Elastic Constant Matrix: (Units=GPa)
#
#
# Indices 1 2 3 4 5 6 
#
# 1 35.0395 41.7826 20.1902 0.0000 0.0000 0.0000
# 2 41.7826 130.9491 28.7897 0.0000 0.0000 0.0000
# 3 20.1902 28.7897 101.6917 0.0000 0.0000 0.0000
# 4 0.0000 0.0000 0.0000 33.4280 0.0000 0.0000
# 5 0.0000 0.0000 0.0000 0.0000 0.7270 0.0000
# 6 0.0000 0.0000 0.0000 0.0000 0.0000 29.4146
#
#
#
# Elastic Compliance Matrix: (Units=1/GPa)
#
#
# Indices 1 2 3 4 5 6 
#
# 1 0.048929 -0.014371 -0.005646 0.000000 0.000000 0.000000
# 2 -0.014371 0.012364 -0.000647 0.000000 0.000000 0.000000
# 3 -0.005646 -0.000647 0.011138 0.000000 0.000000 0.000000
# 4 0.000000 0.000000 0.000000 0.029915 0.000000 0.000000
# 5 0.000000 0.000000 0.000000 0.000000 1.375490 0.000000
# 6 0.000000 0.000000 0.000000 0.000000 0.000000 0.033997
#
#
# Mechanical properties :
#
#
# Convention : Reuss Voigt Hill
#
# Bulk Modulus (GPa) = 32.15126 49.91171 41.03148
# Shear Modulus (GPa) = 3.19790 24.50843 13.85316
#
# Velocity S-wave (km/s) = 1.31693 3.64577 2.74098
# Velocity P-wave (km/s) = 4.44398 6.69258 5.68065
#
# Compressibility (1/GPa) = 0.03110298
#
# Stress axis : x y z
#
# Youngs Moduli (GPa) = 20.43790 80.87898 89.78389
#
# Poissons Ratio (x) = 1.16228 0.50692
# Poissons Ratio (y) = 0.29371 0.05811
# Poissons Ratio (z) = 0.11539 0.05234
#
# Static dielectric constant tensor:
#      x y z
#    x 3.073120 0.000000 0.000000 
#    y 0.000000 3.248490 0.000000 
#    z 0.000000 0.000000 3.501240 
# 
# 
# High freq. dielectric constant tensor:
#      x y z
#    x 1.684950 0.000000 0.000000 
#    y 0.000000 1.715270 0.000000 
#    z 0.000000 0.000000 1.726600 
# 
# From -- ./inp_files/1557.got.cif
#   From: 2010.03.12/outbox.cif.g09.slc.cpg/sg36_1_cif.got.tgz:1557.got - 2010.04.14 02:13:53.
