data_PCOD8175681
_publ_section_title
;
Structure prediction by ZEFSAII (Michael W. Deem and Ramdas Pophale) SiO2 
 PCOD8175681
Probable space group: C M C 21
;
_chemical_formula_sum "Si O2"
_cell_formula_units_Z 40
_cell_length_a 11.181400
_cell_length_b 34.111215
_cell_length_c 4.921381
_cell_angle_alpha 90.000000
_cell_angle_beta 90.000000
_cell_angle_gamma 90.000000
_cell_volume 1877.069535
_symmetry_space_group_name_H-M "C M C 21"
_symmetry_group_IT_number 36
_symmetry_cell_setting 'orthorhombic'
loop_
_space_group_symop_operation_xyz
x,y,z
-x,-y,1/2+z
x,-y,1/2+z
-x,y,z
1/2+x,1/2+y,z
1/2-x,1/2-y,1/2+z
1/2+x,1/2-y,1/2+z
1/2-x,1/2+y,z
loop_
_atom_site_type_symbol
_atom_site_label
_atom_site_fract_x
_atom_site_fract_y
_atom_site_fract_z
Si Si1 0.736210 0.274338 0.344990
Si Si2 0.500000 0.640832 0.130179
Si Si3 0.863744 0.026164 0.418740
Si Si4 0.746606 0.605085 0.291050
Si Si5 0.000000 0.191547 0.629119
Si Si6 0.139152 0.644023 0.805811
O O1 0.701712 0.256385 0.638382
O O2 0.614492 0.282641 0.188212
O O3 0.817133 0.312788 0.393171
O O4 0.616921 0.616045 0.183388
O O5 0.500000 0.679793 0.313480
O O6 0.500000 0.652426 0.813956
O O7 0.763380 0.059249 0.364883
O O8 0.000000 0.042335 0.386059
O O9 0.842731 0.010728 0.722145
O O10 0.782804 0.630455 0.550833
O O11 0.842162 0.613569 0.053480
O O12 0.000000 0.644977 0.727579
#
# Coordination Sequence:
#
# PCOD8175681 Si02
#       6
#     8   4   8   8   4   8
#     4  12  26  42  62  91 124 168 207 270 322 376
#     4  12  20  40  64  99 120 164 208 266 318 371
#     4  10  21  36  62 102 137 162 196 258 332 383
#     4  12  22  43  68  94 131 168 211 263 314 385
#     4  12  24  42  62  91 130 158 222 260 322 387
#     4  12  27  45  65  92 127 175 224 261 314 377
#
# _framework density 21.309811
#
# number of rings (size 3 to 8) (size 9 to 14) (size 15 to 20)
#    0.000    0.400    5.000    4.200    2.800    0.000 
#    0.000    0.000    0.000   12.000    0.000    0.000 
#    0.000    0.000    0.000    0.000    0.000    0.000 
#
# Total GULP energy -248075.758211 kJ/mol
# GULP energy per Si atom -12403.787911 kJ/mol
# Density = 2.126131 g / cm^3
# Si number density = 21.309811 Si / 1000 Ang^3
#
#
#
# Elastic Constant Matrix: (Units=GPa)
#
#
# Indices 1 2 3 4 5 6 
#
# 1 72.7884 24.6191 -7.2490 0.0000 0.0000 0.0000
# 2 24.6191 78.4610 4.5532 0.0000 0.0000 0.0000
# 3 -7.2490 4.5532 75.7798 0.0000 0.0000 0.0000
# 4 0.0000 0.0000 0.0000 27.4081 0.0000 0.0000
# 5 0.0000 0.0000 0.0000 0.0000 20.7699 0.0000
# 6 0.0000 0.0000 0.0000 0.0000 0.0000 253.4390
#
#
#
# Elastic Compliance Matrix: (Units=1/GPa)
#
#
# Indices 1 2 3 4 5 6 
#
# 1 0.015609 -0.005002 0.001794 0.000000 0.000000 0.000000
# 2 -0.005002 0.014393 -0.001343 0.000000 0.000000 0.000000
# 3 0.001794 -0.001343 0.013448 0.000000 0.000000 0.000000
# 4 0.000000 0.000000 0.000000 0.036486 0.000000 0.000000
# 5 0.000000 0.000000 0.000000 0.000000 0.048146 0.000000
# 6 0.000000 0.000000 0.000000 0.000000 0.000000 0.003946
#
#
# Mechanical properties :
#
#
# Convention : Reuss Voigt Hill
#
# Bulk Modulus (GPa) = 29.11452 30.09731 29.60591
# Shear Modulus (GPa) = 32.76986 73.99714 53.38350
#
# Velocity S-wave (km/s) = 3.92571 5.89914 5.01054
# Velocity P-wave (km/s) = 5.85153 7.78165 6.88457
#
# Compressibility (1/GPa) = 0.03434713
#
# Stress axis : x y z
#
# Youngs Moduli (GPa) = 64.06639 69.48034 74.35823
#
# Poissons Ratio (x) = 0.34752 -0.13337
# Poissons Ratio (y) = 0.32044 0.09988
# Poissons Ratio (z) = -0.11491 0.09333
#
# Static dielectric constant tensor:
#      x y z
#    x 3.850490 0.000000 0.000000 
#    y 0.000000 3.756330 0.000000 
#    z 0.000000 0.000000 4.024970 
# 
# 
# High freq. dielectric constant tensor:
#      x y z
#    x 1.820780 0.000000 0.000000 
#    y 0.000000 1.830150 0.000000 
#    z 0.000000 0.000000 1.856130 
# 
# From -- ./inp_files/523.got.cif
#   From: 2010.03.12/outbox.cif.g09.slc.cpg/sg36_1_cif.got.tgz:523.got - 2010.04.14 02:13:53.
