data_PCOD8175291
_publ_section_title
;
Structure prediction by ZEFSAII (Michael W. Deem and Ramdas Pophale) SiO2 
 PCOD8175291
Probable space group: C M C 21
;
_chemical_formula_sum "Si O2"
_cell_formula_units_Z 64
_cell_length_a 8.531079
_cell_length_b 18.508022
_cell_length_c 20.276752
_cell_angle_alpha 90.000000
_cell_angle_beta 90.000000
_cell_angle_gamma 90.000000
_cell_volume 3201.565270
_symmetry_space_group_name_H-M "C M C 21"
_symmetry_group_IT_number 36
_symmetry_cell_setting 'orthorhombic'
loop_
_space_group_symop_operation_xyz
x,y,z
-x,-y,1/2+z
x,-y,1/2+z
-x,y,z
1/2+x,1/2+y,z
1/2-x,1/2-y,1/2+z
1/2+x,1/2-y,1/2+z
1/2-x,1/2+y,z
loop_
_atom_site_type_symbol
_atom_site_label
_atom_site_fract_x
_atom_site_fract_y
_atom_site_fract_z
Si Si1 0.183533 0.203031 0.426860
Si Si2 0.181939 0.448991 0.321583
Si Si3 0.814972 0.197097 0.670357
Si Si4 0.816566 0.795756 0.316878
Si Si5 0.686382 0.791427 0.552381
Si Si6 0.184042 0.965377 0.181448
Si Si7 0.182143 0.036517 0.440120
Si Si8 0.184012 0.544936 0.061986
O O1 0.273713 0.227503 0.361391
O O2 0.246654 0.251931 0.486772
O O3 0.225373 0.120664 0.441816
O O4 0.000000 0.214426 0.415730
O O5 0.228098 0.367512 0.341541
O O6 0.277299 0.477916 0.258352
O O7 0.215926 0.499154 0.383888
O O8 0.000000 0.452398 0.304326
O O9 0.762724 0.224107 0.742663
O O10 0.739749 0.249148 0.615186
O O11 0.759487 0.114639 0.660115
O O12 0.000000 0.199472 0.663838
O O13 0.000000 0.812954 0.319106
O O14 0.500000 0.788562 0.556274
O O15 0.745716 0.873492 0.552418
O O16 0.000000 0.976544 0.170630
O O17 0.278427 0.021858 0.136740
O O18 0.000000 0.023896 0.424984
O O19 0.222771 0.005596 0.511724
O O20 0.000000 0.539225 0.047917
#
# Coordination Sequence:
#
# PCOD8175291 Si02
#       8
#     8   8   8   8   8   8   8   8
#     4  10  21  37  58  82 110 148 191 238 290 340
#     4  11  22  38  60  85 116 152 192 240 292 345
#     4   8  16  33  56  79 104 140 183 224 271 329
#     4  10  20  35  58  86 115 148 186 230 284 347
#     4   9  18  34  55  79 107 141 183 229 280 336
#     4  10  20  37  60  84 113 150 191 235 286 344
#     4  11  23  39  59  83 114 153 197 244 293 345
#     4  11  22  35  56  86 117 150 189 236 290 348
#
# _framework density 19.990223
#
# number of rings (size 3 to 8) (size 9 to 14) (size 15 to 20)
#    0.000    2.000    0.000    4.875    0.000    5.000 
#    0.000    1.875    0.000    9.750    0.000    0.000 
#    0.000    0.000    0.000    0.000    0.000    0.000 
#
# Total GULP energy -396909.835827 kJ/mol
# GULP energy per Si atom -12403.432370 kJ/mol
# Density = 1.994472 g / cm^3
# Si number density = 19.990223 Si / 1000 Ang^3
#
#
#
# Elastic Constant Matrix: (Units=GPa)
#
#
# Indices 1 2 3 4 5 6 
#
# 1 50.2826 26.1567 15.2776 0.0000 0.0000 0.0000
# 2 26.1567 87.2941 40.6387 0.0000 0.0000 0.0000
# 3 15.2776 40.6387 99.8814 0.0000 0.0000 0.0000
# 4 0.0000 0.0000 0.0000 43.9909 0.0000 0.0000
# 5 0.0000 0.0000 0.0000 0.0000 32.3201 0.0000
# 6 0.0000 0.0000 0.0000 0.0000 0.0000 21.5801
#
#
#
# Elastic Compliance Matrix: (Units=1/GPa)
#
#
# Indices 1 2 3 4 5 6 
#
# 1 0.023626 -0.006658 -0.000905 0.000000 0.000000 0.000000
# 2 -0.006658 0.016009 -0.005495 0.000000 0.000000 0.000000
# 3 -0.000905 -0.005495 0.012386 0.000000 0.000000 0.000000
# 4 0.000000 0.000000 0.000000 0.022732 0.000000 0.000000
# 5 0.000000 0.000000 0.000000 0.000000 0.030940 0.000000
# 6 0.000000 0.000000 0.000000 0.000000 0.000000 0.046339
#
#
# Mechanical properties :
#
#
# Convention : Reuss Voigt Hill
#
# Bulk Modulus (GPa) = 38.60273 44.62268 41.61271
# Shear Modulus (GPa) = 26.76906 29.93723 28.35315
#
# Velocity S-wave (km/s) = 3.66335 3.87407 3.77019
# Velocity P-wave (km/s) = 6.10297 6.51014 6.30984
#
# Compressibility (1/GPa) = 0.02590490
#
# Stress axis : x y z
#
# Youngs Moduli (GPa) = 42.32631 62.46617 80.73610
#
# Poissons Ratio (x) = 0.41590 0.07305
# Poissons Ratio (y) = 0.28181 0.44365
# Poissons Ratio (z) = 0.03830 0.34325
#
# Static dielectric constant tensor:
#      x y z
#    x 3.388500 0.000000 0.000000 
#    y 0.000000 3.724180 0.000000 
#    z 0.000000 0.000000 3.774440 
# 
# 
# High freq. dielectric constant tensor:
#      x y z
#    x 1.760780 0.000000 0.000000 
#    y 0.000000 1.780220 0.000000 
#    z 0.000000 0.000000 1.793160 
# 
# From -- ./inp_files/15671.got.cif
#   From: 2010.03.12/outbox.cif.g09.slc.cpg/sg36_8_cif.got.tgz:15671.got - 2010.04.14 02:13:53.
