data_PCOD8175526
_publ_section_title
;
Structure prediction by ZEFSAII (Michael W. Deem and Ramdas Pophale) SiO2 
 PCOD8175526
Probable space group: C M C 21
;
_chemical_formula_sum "Si O2"
_cell_formula_units_Z 48
_cell_length_a 8.886404
_cell_length_b 19.619814
_cell_length_c 13.937135
_cell_angle_alpha 90.000000
_cell_angle_beta 90.000000
_cell_angle_gamma 90.000000
_cell_volume 2429.933823
_symmetry_space_group_name_H-M "C M C 21"
_symmetry_group_IT_number 36
_symmetry_cell_setting 'orthorhombic'
loop_
_space_group_symop_operation_xyz
x,y,z
-x,-y,1/2+z
x,-y,1/2+z
-x,y,z
1/2+x,1/2+y,z
1/2-x,1/2-y,1/2+z
1/2+x,1/2-y,1/2+z
1/2-x,1/2+y,z
loop_
_atom_site_type_symbol
_atom_site_label
_atom_site_fract_x
_atom_site_fract_y
_atom_site_fract_z
Si Si1 0.673584 0.954696 0.125000
Si Si2 0.822456 0.391210 0.326584
Si Si3 0.328567 0.181467 0.522425
Si Si4 0.671461 0.753646 0.823765
Si Si5 0.327643 0.799586 0.618651
Si Si6 0.676549 0.423579 0.520128
O O1 0.500000 0.976886 0.131406
O O2 0.730232 0.926930 0.227945
O O3 0.698905 0.897809 0.043471
O O4 0.769518 0.019764 0.094930
O O5 0.777083 0.312069 0.327210
O O6 0.750702 0.432143 0.415463
O O7 0.000000 0.394671 0.337142
O O8 0.500000 0.201232 0.550613
O O9 0.294878 0.196078 0.411592
O O10 0.211838 0.223337 0.586441
O O11 0.500000 0.726638 0.824671
O O12 0.701496 0.801620 0.732265
O O13 0.500000 0.817193 0.592913
O O14 0.218099 0.850340 0.563325
O O15 0.500000 0.428271 0.506910
#
# Coordination Sequence:
#
# PCOD8175526 Si02
#       6
#     8   8   8   8   8   8
#     4  10  23  42  64  91 125 164 209 258 313 373
#     4  11  22  39  65  93 122 162 206 255 316 377
#     4  10  20  38  62  90 121 159 204 256 309 361
#     4  10  21  36  61  94 127 160 201 255 309 367
#     4  11  22  37  60  92 125 162 206 253 306 365
#     4  12  26  42  62  90 128 169 210 257 309 369
#
# _framework density 19.753623999999999
#
# number of rings (size 3 to 8) (size 9 to 14) (size 15 to 20)
#    0.000    1.333    3.333    2.500    0.000    4.000 
#    0.000    3.333    0.000    0.000    0.000    0.000 
#    0.000    0.000    0.000    0.000    0.000    0.000 
#
# Total GULP energy -297700.889461 kJ/mol
# GULP energy per Si atom -12404.203728 kJ/mol
# Density = 1.970866 g / cm^3
# Si number density = 19.753624 Si / 1000 Ang^3
#
#
#
# Elastic Constant Matrix: (Units=GPa)
#
#
# Indices 1 2 3 4 5 6 
#
# 1 81.8585 24.3942 40.5090 0.0000 0.0000 0.0000
# 2 24.3942 58.1013 15.3839 0.0000 0.0000 0.0000
# 3 40.5090 15.3839 111.9939 0.0000 0.0000 0.0000
# 4 0.0000 0.0000 0.0000 33.0274 0.0000 0.0000
# 5 0.0000 0.0000 0.0000 0.0000 27.7987 0.0000
# 6 0.0000 0.0000 0.0000 0.0000 0.0000 35.9831
#
#
#
# Elastic Compliance Matrix: (Units=1/GPa)
#
#
# Indices 1 2 3 4 5 6 
#
# 1 0.016428 -0.005525 -0.005183 0.000000 0.000000 0.000000
# 2 -0.005525 0.019719 -0.000710 0.000000 0.000000 0.000000
# 3 -0.005183 -0.000710 0.010901 0.000000 0.000000 0.000000
# 4 0.000000 0.000000 0.000000 0.030278 0.000000 0.000000
# 5 0.000000 0.000000 0.000000 0.000000 0.035973 0.000000
# 6 0.000000 0.000000 0.000000 0.000000 0.000000 0.027791
#
#
# Mechanical properties :
#
#
# Convention : Reuss Voigt Hill
#
# Bulk Modulus (GPa) = 41.30262 45.83644 43.56953
# Shear Modulus (GPa) = 29.07038 30.80631 29.93834
#
# Velocity S-wave (km/s) = 3.84037 3.95337 3.89728
# Velocity P-wave (km/s) = 6.37329 6.64028 6.50815
#
# Compressibility (1/GPa) = 0.02421154
#
# Stress axis : x y z
#
# Youngs Moduli (GPa) = 60.87340 50.71245 91.73161
#
# Poissons Ratio (x) = 0.28018 0.47545
# Poissons Ratio (y) = 0.33632 0.06516
# Poissons Ratio (z) = 0.31551 0.03602
#
# Static dielectric constant tensor:
#      x y z
#    x 3.563140 0.000000 0.000000 
#    y 0.000000 3.412900 0.000000 
#    z 0.000000 0.000000 3.921010 
# 
# 
# High freq. dielectric constant tensor:
#      x y z
#    x 1.768900 0.000000 0.000000 
#    y 0.000000 1.757740 0.000000 
#    z 0.000000 0.000000 1.788430 
# 
# From -- ./inp_files/10401.got.cif
#   From: 2010.03.12/outbox.cif.g09.slc.cpg/sg36_6_cif.got.tgz:10401.got - 2010.04.14 02:13:53.
