data_PCOD8175252
_publ_section_title
;
Structure prediction by ZEFSAII (Michael W. Deem and Ramdas Pophale) SiO2 
 PCOD8175252
Probable space group: C M C 21
;
_chemical_formula_sum "Si O2"
_cell_formula_units_Z 64
_cell_length_a 9.062110
_cell_length_b 29.068750
_cell_length_c 12.450132
_cell_angle_alpha 90.000000
_cell_angle_beta 90.000000
_cell_angle_gamma 90.000000
_cell_volume 3279.666187
_symmetry_space_group_name_H-M "C M C 21"
_symmetry_group_IT_number 36
_symmetry_cell_setting 'orthorhombic'
loop_
_space_group_symop_operation_xyz
x,y,z
-x,-y,1/2+z
x,-y,1/2+z
-x,y,z
1/2+x,1/2+y,z
1/2-x,1/2-y,1/2+z
1/2+x,1/2-y,1/2+z
1/2-x,1/2+y,z
loop_
_atom_site_type_symbol
_atom_site_label
_atom_site_fract_x
_atom_site_fract_y
_atom_site_fract_z
Si Si1 0.664450 0.337441 0.989930
Si Si2 0.338993 0.567199 0.599034
Si Si3 0.323893 0.727252 0.668873
Si Si4 0.172292 0.817190 0.605237
Si Si5 0.830329 0.979731 0.875134
Si Si6 0.173620 0.114215 0.284856
Si Si7 0.827678 0.432169 0.305626
Si Si8 0.674597 0.662610 0.864029
O O1 0.500000 0.320802 0.961148
O O2 0.745111 0.352687 0.878575
O O3 0.660969 0.379268 0.072818
O O4 0.740743 0.296759 0.059558
O O5 0.500000 0.554610 0.648661
O O6 0.310454 0.537141 0.495387
O O7 0.209948 0.556552 0.682393
O O8 0.500000 0.729041 0.666549
O O9 0.258584 0.778179 0.670794
O O10 0.272090 0.700017 0.776077
O O11 0.207579 0.865285 0.667323
O O12 0.225432 0.820605 0.482334
O O13 0.000000 0.805862 0.612081
O O14 0.771227 0.938683 0.795522
O O15 0.000000 0.992265 0.848676
O O16 0.728561 0.024287 0.872026
O O17 0.000000 0.112361 0.311822
O O18 0.747684 0.386229 0.343486
O O19 0.000000 0.425711 0.322175
O O20 0.500000 0.655503 0.860013
#
# Coordination Sequence:
#
# PCOD8175252 Si02
#       8
#     8   8   8   8   8   8   8   8
#     4   8  14  29  55  79 101 135 181 235 277 323
#     4   9  17  35  59  80 105 145 197 243 283 340
#     4  10  20  35  57  81 110 149 188 231 284 343
#     4  10  22  37  57  85 117 148 187 241 288 337
#     4   9  19  36  61  85 109 152 206 244 283 348
#     4   8  16  33  56  83 109 140 188 238 283 331
#     4  12  24  36  56  87 122 153 186 242 306 351
#     4  10  22  41  59  80 115 156 199 236 278 349
#
# _framework density 19.514182000000002
#
# number of rings (size 3 to 8) (size 9 to 14) (size 15 to 20)
#    0.000    2.500    1.250    2.625    1.750    2.500 
#    0.000    3.125    0.000    0.750    0.000    0.000 
#    0.000    0.000    0.000    0.000    0.000    0.000 
#
# Total GULP energy -396583.158478 kJ/mol
# GULP energy per Si atom -12393.223702 kJ/mol
# Density = 1.946977 g / cm^3
# Si number density = 19.514182 Si / 1000 Ang^3
#
#
#
# Elastic Constant Matrix: (Units=GPa)
#
#
# Indices 1 2 3 4 5 6 
#
# 1 38.4456 34.4851 27.0326 0.0000 0.0000 0.0000
# 2 34.4851 119.6077 49.3606 0.0000 0.0000 0.0000
# 3 27.0326 49.3606 95.0075 0.0000 0.0000 0.0000
# 4 0.0000 0.0000 0.0000 25.3473 0.0000 0.0000
# 5 0.0000 0.0000 0.0000 0.0000 15.2180 0.0000
# 6 0.0000 0.0000 0.0000 0.0000 0.0000 25.5763
#
#
#
# Elastic Compliance Matrix: (Units=1/GPa)
#
#
# Indices 1 2 3 4 5 6 
#
# 1 0.038012 -0.008269 -0.006519 0.000000 0.000000 0.000000
# 2 -0.008269 0.012441 -0.004111 0.000000 0.000000 0.000000
# 3 -0.006519 -0.004111 0.014516 0.000000 0.000000 0.000000
# 4 0.000000 0.000000 0.000000 0.039452 0.000000 0.000000
# 5 0.000000 0.000000 0.000000 0.000000 0.065712 0.000000
# 6 0.000000 0.000000 0.000000 0.000000 0.000000 0.039099
#
#
# Mechanical properties :
#
#
# Convention : Reuss Voigt Hill
#
# Bulk Modulus (GPa) = 36.80443 52.75749 44.78096
# Shear Modulus (GPa) = 19.52452 22.70714 21.11583
#
# Velocity S-wave (km/s) = 3.16655 3.41489 3.29306
# Velocity P-wave (km/s) = 5.68073 6.53015 6.12019
#
# Compressibility (1/GPa) = 0.02717064
#
# Stress axis : x y z
#
# Youngs Moduli (GPa) = 26.30741 80.37702 68.88779
#
# Poissons Ratio (x) = 0.66464 0.44911
# Poissons Ratio (y) = 0.21754 0.28320
# Poissons Ratio (z) = 0.17151 0.33043
#
# Static dielectric constant tensor:
#      x y z
#    x 3.139420 0.000000 0.000000 
#    y 0.000000 3.567620 0.000000 
#    z 0.000000 0.000000 3.685380 
# 
# 
# High freq. dielectric constant tensor:
#      x y z
#    x 1.711380 0.000000 0.000000 
#    y 0.000000 1.764420 0.000000 
#    z 0.000000 0.000000 1.768130 
# 
# From -- ./inp_files/7149.got.cif
#   From: 2010.03.12/outbox.cif.g09.slc.cpg/sg36_4_cif.got.tgz:7149.got - 2010.04.14 02:13:53.
