data_PCOD8175834
_publ_section_title
;
Structure prediction by ZEFSAII (Michael W. Deem and Ramdas Pophale) SiO2 
 PCOD8175834
Probable space group: C M C 21
;
_chemical_formula_sum "Si O2"
_cell_formula_units_Z 64
_cell_length_a 8.585678
_cell_length_b 15.413381
_cell_length_c 23.724930
_cell_angle_alpha 90.000000
_cell_angle_beta 90.000000
_cell_angle_gamma 90.000000
_cell_volume 3139.622625
_symmetry_space_group_name_H-M "C M C 21"
_symmetry_group_IT_number 36
_symmetry_cell_setting 'orthorhombic'
loop_
_space_group_symop_operation_xyz
x,y,z
-x,-y,1/2+z
x,-y,1/2+z
-x,y,z
1/2+x,1/2+y,z
1/2-x,1/2-y,1/2+z
1/2+x,1/2-y,1/2+z
1/2-x,1/2+y,z
loop_
_atom_site_type_symbol
_atom_site_label
_atom_site_fract_x
_atom_site_fract_y
_atom_site_fract_z
Si Si1 0.318076 0.903935 0.946790
Si Si2 0.321819 0.351684 0.834583
Si Si3 0.319276 0.411695 0.443743
Si Si4 0.817681 0.000043 0.639498
Si Si5 0.184717 0.347950 0.069510
Si Si6 0.680516 0.997901 0.760136
Si Si7 0.816139 0.844181 0.564405
Si Si8 0.320959 0.842177 0.336158
O O1 0.500000 0.882639 0.940836
O O2 0.224274 0.849452 0.900337
O O3 0.288603 0.004901 0.936071
O O4 0.253622 0.878597 0.008429
O O5 0.500000 0.382504 0.827932
O O6 0.211217 0.417295 0.801293
O O7 0.299515 0.254248 0.810548
O O8 0.500000 0.439126 0.446164
O O9 0.268287 0.361593 0.500003
O O10 0.288402 0.349710 0.390809
O O11 0.745063 0.089806 0.618452
O O12 0.000000 0.004878 0.629100
O O13 0.782957 0.986045 0.704748
O O14 0.745012 0.918861 0.604655
O O15 0.248091 0.250713 0.081784
O O16 0.000000 0.350256 0.069750
O O17 0.500000 0.999378 0.743416
O O18 0.730789 0.087824 0.789547
O O19 0.000000 0.843977 0.571119
O O20 0.500000 0.858096 0.353897
#
# Coordination Sequence:
#
# PCOD8175834 Si02
#       8
#     8   8   8   8   8   8   8   8
#     4  11  21  35  59  91 126 159 193 241 299 357
#     4  11  23  40  63  91 120 157 199 245 301 358
#     4  11  20  35  62  91 122 160 199 240 294 359
#     4  11  23  41  62  86 118 154 202 255 299 349
#     4  10  21  39  62  87 119 159 198 237 294 361
#     4  11  24  43  63  85 118 159 202 249 302 360
#     4   9  20  38  60  87 120 157 194 239 298 353
#     4  10  23  41  61  88 123 157 195 246 303 357
#
# _framework density 20.384616000000001
#
# number of rings (size 3 to 8) (size 9 to 14) (size 15 to 20)
#    0.000    1.500    2.500    2.625    0.000    4.000 
#    0.000    7.500    0.000    0.000    0.000    0.000 
#    0.000    0.000    0.000    0.000    0.000    0.000 
#
# Total GULP energy -396928.178705 kJ/mol
# GULP energy per Si atom -12404.005585 kJ/mol
# Density = 2.033822 g / cm^3
# Si number density = 20.384616 Si / 1000 Ang^3
#
#
#
# Elastic Constant Matrix: (Units=GPa)
#
#
# Indices 1 2 3 4 5 6 
#
# 1 35.8899 21.9701 13.6432 0.0000 0.0000 0.0000
# 2 21.9701 136.6162 36.7894 0.0000 0.0000 0.0000
# 3 13.6432 36.7894 96.7500 0.0000 0.0000 0.0000
# 4 0.0000 0.0000 0.0000 18.3967 0.0000 0.0000
# 5 0.0000 0.0000 0.0000 0.0000 32.8033 0.0000
# 6 0.0000 0.0000 0.0000 0.0000 0.0000 26.4402
#
#
#
# Elastic Compliance Matrix: (Units=1/GPa)
#
#
# Indices 1 2 3 4 5 6 
#
# 1 0.031576 -0.004321 -0.002810 0.000000 0.000000 0.000000
# 2 -0.004321 0.008746 -0.002716 0.000000 0.000000 0.000000
# 3 -0.002810 -0.002716 0.011765 0.000000 0.000000 0.000000
# 4 0.000000 0.000000 0.000000 0.054358 0.000000 0.000000
# 5 0.000000 0.000000 0.000000 0.000000 0.030485 0.000000
# 6 0.000000 0.000000 0.000000 0.000000 0.000000 0.037821
#
#
# Mechanical properties :
#
#
# Convention : Reuss Voigt Hill
#
# Bulk Modulus (GPa) = 30.87091 46.00684 38.43887
# Shear Modulus (GPa) = 24.36132 28.65161 26.50646
#
# Velocity S-wave (km/s) = 3.46075 3.75313 3.60990
# Velocity P-wave (km/s) = 5.58087 6.43426 6.02270
#
# Compressibility (1/GPa) = 0.03239296
#
# Stress axis : x y z
#
# Youngs Moduli (GPa) = 31.66927 114.33495 84.99780
#
# Poissons Ratio (x) = 0.49409 0.23880
# Poissons Ratio (y) = 0.13686 0.23089
# Poissons Ratio (z) = 0.08897 0.31058
#
# Static dielectric constant tensor:
#      x y z
#    x 3.482300 0.000000 0.000000 
#    y 0.000000 3.923270 0.000000 
#    z 0.000000 0.000000 3.635150 
# 
# 
# High freq. dielectric constant tensor:
#      x y z
#    x 1.782380 0.000000 0.000000 
#    y 0.000000 1.810480 0.000000 
#    z 0.000000 0.000000 1.791000 
# 
# From -- ./inp_files/16634.got.cif
#   From: 2010.03.12/outbox.cif.g09.slc.cpg/sg36_9_cif.got.tgz:16634.got - 2010.04.14 02:13:53.
