data_PCOD8175428
_publ_section_title
;
Structure prediction by ZEFSAII (Michael W. Deem and Ramdas Pophale) SiO2 
 PCOD8175428
Probable space group: C M C 21
;
_chemical_formula_sum "Si O2"
_cell_formula_units_Z 64
_cell_length_a 8.967904
_cell_length_b 22.692921
_cell_length_c 16.174225
_cell_angle_alpha 90.000000
_cell_angle_beta 90.000000
_cell_angle_gamma 90.000000
_cell_volume 3291.583162
_symmetry_space_group_name_H-M "C M C 21"
_symmetry_group_IT_number 36
_symmetry_cell_setting 'orthorhombic'
loop_
_space_group_symop_operation_xyz
x,y,z
-x,-y,1/2+z
x,-y,1/2+z
-x,y,z
1/2+x,1/2+y,z
1/2-x,1/2-y,1/2+z
1/2+x,1/2-y,1/2+z
1/2-x,1/2+y,z
loop_
_atom_site_type_symbol
_atom_site_label
_atom_site_fract_x
_atom_site_fract_y
_atom_site_fract_z
Si Si1 0.674190 0.911817 0.228330
Si Si2 0.662654 0.702760 0.279706
Si Si3 0.823369 0.035792 0.248188
Si Si4 0.324496 0.153218 0.561585
Si Si5 0.668679 0.393084 0.907487
Si Si6 0.674980 0.285249 0.521056
Si Si7 0.333940 0.819787 0.361758
Si Si8 0.673728 0.135748 0.150182
O O1 0.500000 0.927399 0.219886
O O2 0.725783 0.871794 0.150627
O O3 0.707803 0.880098 0.315660
O O4 0.770954 0.970202 0.231922
O O5 0.500000 0.683156 0.242341
O O6 0.680786 0.672314 0.368946
O O7 0.664075 0.772488 0.287859
O O8 0.796682 0.684388 0.220526
O O9 0.771316 0.059919 0.338848
O O10 0.753151 0.075054 0.175287
O O11 0.000000 0.040024 0.241825
O O12 0.500000 0.153496 0.551752
O O13 0.263464 0.108336 0.491510
O O14 0.265528 0.220558 0.549438
O O15 0.500000 0.409135 0.931963
O O16 0.500000 0.289766 0.537284
O O17 0.709460 0.298768 0.425698
O O18 0.759002 0.338369 0.566508
O O19 0.500000 0.823585 0.402258
O O20 0.500000 0.123859 0.139107
#
# Coordination Sequence:
#
# PCOD8175428 Si02
#       8
#     8   8   8   8   8   8   8   8
#     4  10  22  40  60  85 117 159 202 245 294 348
#     4   9  17  33  57  84 118 153 187 234 292 347
#     4  10  22  42  62  83 114 154 199 247 298 349
#     4  10  21  37  60  89 121 154 194 241 294 351
#     4   9  18  34  59  86 113 149 193 239 291 346
#     4  11  22  37  58  89 125 155 191 240 297 357
#     4  10  20  37  59  83 120 160 194 237 293 350
#     4  11  22  36  59  87 114 150 196 241 291 352
#
# _framework density 19.443531
#
# number of rings (size 3 to 8) (size 9 to 14) (size 15 to 20)
#    0.000    2.000    1.250    3.375    0.000    6.500 
#    2.250    1.250    0.000    0.000    0.000    0.000 
#    0.000    0.000    0.000    0.000    0.000    0.000 
#
# Total GULP energy -396689.664294 kJ/mol
# GULP energy per Si atom -12396.552009 kJ/mol
# Density = 1.939928 g / cm^3
# Si number density = 19.443531 Si / 1000 Ang^3
#
#
#
# Elastic Constant Matrix: (Units=GPa)
#
#
# Indices 1 2 3 4 5 6 
#
# 1 74.6605 44.9555 36.6509 0.0000 0.0000 0.0000
# 2 44.9555 118.8842 45.9998 0.0000 0.0000 0.0000
# 3 36.6509 45.9998 83.4664 0.0000 0.0000 0.0000
# 4 0.0000 0.0000 0.0000 26.7602 0.0000 0.0000
# 5 0.0000 0.0000 0.0000 0.0000 34.1848 0.0000
# 6 0.0000 0.0000 0.0000 0.0000 0.0000 29.0361
#
#
#
# Elastic Compliance Matrix: (Units=1/GPa)
#
#
# Indices 1 2 3 4 5 6 
#
# 1 0.019226 -0.005089 -0.005638 0.000000 0.000000 0.000000
# 2 -0.005089 0.012038 -0.004400 0.000000 0.000000 0.000000
# 3 -0.005638 -0.004400 0.016881 0.000000 0.000000 0.000000
# 4 0.000000 0.000000 0.000000 0.037369 0.000000 0.000000
# 5 0.000000 0.000000 0.000000 0.000000 0.029253 0.000000
# 6 0.000000 0.000000 0.000000 0.000000 0.000000 0.034440
#
#
# Mechanical properties :
#
#
# Convention : Reuss Voigt Hill
#
# Bulk Modulus (GPa) = 55.88944 59.13595 57.51269
# Shear Modulus (GPa) = 26.96526 27.95654 27.46090
#
# Velocity S-wave (km/s) = 3.72808 3.79599 3.76219
# Velocity P-wave (km/s) = 6.88029 7.04932 6.96532
#
# Compressibility (1/GPa) = 0.01789247
#
# Stress axis : x y z
#
# Youngs Moduli (GPa) = 52.01409 83.06814 59.23691
#
# Poissons Ratio (x) = 0.42271 0.33396
# Poissons Ratio (y) = 0.26468 0.26064
# Poissons Ratio (z) = 0.29324 0.36550
#
# Static dielectric constant tensor:
#      x y z
#    x 3.441730 0.000000 0.000000 
#    y 0.000000 3.507460 0.000000 
#    z 0.000000 0.000000 3.489630 
# 
# 
# High freq. dielectric constant tensor:
#      x y z
#    x 1.748840 0.000000 0.000000 
#    y 0.000000 1.751160 0.000000 
#    z 0.000000 0.000000 1.752840 
# 
# From -- ./inp_files/11093.got.cif
#   From: 2010.03.12/outbox.cif.g09.slc.cpg/sg36_6_cif.got.tgz:11093.got - 2010.04.14 02:13:53.
