data_PCOD8175247
_publ_section_title
;
Structure prediction by ZEFSAII (Michael W. Deem and Ramdas Pophale) SiO2 
 PCOD8175247
Probable space group: C M C 21
;
_chemical_formula_sum "Si O2"
_cell_formula_units_Z 64
_cell_length_a 8.918117
_cell_length_b 29.171865
_cell_length_c 12.306507
_cell_angle_alpha 90.000000
_cell_angle_beta 90.000000
_cell_angle_gamma 90.000000
_cell_volume 3201.637542
_symmetry_space_group_name_H-M "C M C 21"
_symmetry_group_IT_number 36
_symmetry_cell_setting 'orthorhombic'
loop_
_space_group_symop_operation_xyz
x,y,z
-x,-y,1/2+z
x,-y,1/2+z
-x,y,z
1/2+x,1/2+y,z
1/2-x,1/2-y,1/2+z
1/2+x,1/2-y,1/2+z
1/2-x,1/2+y,z
loop_
_atom_site_type_symbol
_atom_site_label
_atom_site_fract_x
_atom_site_fract_y
_atom_site_fract_z
Si Si1 0.673254 0.226019 0.958250
Si Si2 0.325838 0.060702 0.821188
Si Si3 0.666538 0.427457 0.531241
Si Si4 0.829221 0.346060 0.629940
Si Si5 0.321379 0.163520 0.761332
Si Si6 0.325339 0.885114 0.857875
Si Si7 0.331217 0.471814 0.759190
Si Si8 0.678914 0.323187 0.029660
O O1 0.500000 0.229014 0.930685
O O2 0.742506 0.195927 0.859257
O O3 0.697030 0.204054 0.078751
O O4 0.737641 0.277530 0.966523
O O5 0.500000 0.053303 0.801589
O O6 0.273348 0.111305 0.785960
O O7 0.237414 0.022312 0.755535
O O8 0.285408 0.052561 0.946739
O O9 0.500000 0.425401 0.480025
O O10 0.713370 0.376805 0.564914
O O11 0.669259 0.460024 0.633725
O O12 0.796023 0.349255 0.758716
O O13 0.000000 0.362826 0.607471
O O14 0.500000 0.167256 0.750227
O O15 0.243987 0.178569 0.650381
O O16 0.500000 0.889281 0.885569
O O17 0.265484 0.935611 0.828651
O O18 0.239846 0.866940 0.963989
O O19 0.500000 0.471941 0.806755
O O20 0.500000 0.325201 0.035906
#
# Coordination Sequence:
#
# PCOD8175247 Si02
#       8
#     8   8   8   8   8   8   8   8
#     4   9  19  38  61  86 118 157 198 248 306 361
#     4  11  22  38  63  88 117 160 204 248 301 363
#     4  10  20  35  56  85 118 152 192 247 307 358
#     4   9  17  35  61  84 110 150 198 250 297 353
#     4  10  22  42  63  86 121 161 206 253 301 366
#     4  10  21  38  62  88 120 160 207 250 297 364
#     4  10  22  39  60  88 123 158 200 252 308 362
#     4  11  24  39  60  89 127 166 203 252 313 365
#
# _framework density 19.98977
#
# number of rings (size 3 to 8) (size 9 to 14) (size 15 to 20)
#    0.000    2.000    1.250    1.875    1.750    4.000 
#    0.000    4.375    0.000    0.000    0.000    0.000 
#    0.000    0.000    0.000    0.000    0.000    0.000 
#
# Total GULP energy -396710.053852 kJ/mol
# GULP energy per Si atom -12397.189183 kJ/mol
# Density = 1.994427 g / cm^3
# Si number density = 19.989770 Si / 1000 Ang^3
#
#
#
# Elastic Constant Matrix: (Units=GPa)
#
#
# Indices 1 2 3 4 5 6 
#
# 1 68.5083 44.3661 36.8932 0.0000 0.0000 0.0000
# 2 44.3661 118.5347 43.5536 0.0000 0.0000 0.0000
# 3 36.8932 43.5536 86.6177 0.0000 0.0000 0.0000
# 4 0.0000 0.0000 0.0000 19.5277 0.0000 0.0000
# 5 0.0000 0.0000 0.0000 0.0000 31.6421 0.0000
# 6 0.0000 0.0000 0.0000 0.0000 0.0000 25.7171
#
#
#
# Elastic Compliance Matrix: (Units=1/GPa)
#
#
# Indices 1 2 3 4 5 6 
#
# 1 0.021787 -0.005820 -0.006353 0.000000 0.000000 0.000000
# 2 -0.005820 0.011903 -0.003506 0.000000 0.000000 0.000000
# 3 -0.006353 -0.003506 0.016014 0.000000 0.000000 0.000000
# 4 0.000000 0.000000 0.000000 0.051209 0.000000 0.000000
# 5 0.000000 0.000000 0.000000 0.000000 0.031603 0.000000
# 6 0.000000 0.000000 0.000000 0.000000 0.000000 0.038885
#
#
# Mechanical properties :
#
#
# Convention : Reuss Voigt Hill
#
# Bulk Modulus (GPa) = 54.51080 58.14292 56.32686
# Shear Modulus (GPa) = 23.93758 25.30057 24.61908
#
# Velocity S-wave (km/s) = 3.46423 3.56149 3.51320
# Velocity P-wave (km/s) = 6.58253 6.78688 6.68549
#
# Compressibility (1/GPa) = 0.01834499
#
# Stress axis : x y z
#
# Youngs Moduli (GPa) = 45.89798 84.01184 62.44522
#
# Poissons Ratio (x) = 0.48898 0.39674
# Poissons Ratio (y) = 0.26714 0.21894
# Poissons Ratio (z) = 0.29161 0.29455
#
# Static dielectric constant tensor:
#      x y z
#    x 3.640920 0.000000 0.000000 
#    y 0.000000 3.700620 0.000000 
#    z 0.000000 0.000000 3.737520 
# 
# 
# High freq. dielectric constant tensor:
#      x y z
#    x 1.773840 0.000000 0.000000 
#    y 0.000000 1.778730 0.000000 
#    z 0.000000 0.000000 1.779930 
# 
# From -- ./inp_files/7275.got.cif
#   From: 2010.03.12/outbox.cif.g09.slc.cpg/sg36_4_cif.got.tgz:7275.got - 2010.04.14 02:13:53.
