data_PCOD8175345
_publ_section_title
;
Structure prediction by ZEFSAII (Michael W. Deem and Ramdas Pophale) SiO2 
 PCOD8175345
Probable space group: C M C 21
;
_chemical_formula_sum "Si O2"
_cell_formula_units_Z 64
_cell_length_a 9.034319
_cell_length_b 14.618490
_cell_length_c 24.181442
_cell_angle_alpha 90.000000
_cell_angle_beta 90.000000
_cell_angle_gamma 90.000000
_cell_volume 3193.597148
_symmetry_space_group_name_H-M "C M C 21"
_symmetry_group_IT_number 36
_symmetry_cell_setting 'orthorhombic'
loop_
_space_group_symop_operation_xyz
x,y,z
-x,-y,1/2+z
x,-y,1/2+z
-x,y,z
1/2+x,1/2+y,z
1/2-x,1/2-y,1/2+z
1/2+x,1/2-y,1/2+z
1/2-x,1/2+y,z
loop_
_atom_site_type_symbol
_atom_site_label
_atom_site_fract_x
_atom_site_fract_y
_atom_site_fract_z
Si Si1 0.336796 0.391644 0.137800
Si Si2 0.676205 0.776022 0.948634
Si Si3 0.334709 0.392822 0.655945
Si Si4 0.675537 0.626861 0.036193
Si Si5 0.823964 0.224805 0.333730
Si Si6 0.175961 0.076710 0.516982
Si Si7 0.674484 0.080717 0.263261
Si Si8 0.826906 0.373500 0.244727
O O1 0.500000 0.349963 0.145146
O O2 0.342230 0.499733 0.145876
O O3 0.279425 0.374614 0.075251
O O4 0.234971 0.344989 0.184400
O O5 0.500000 0.778086 0.942374
O O6 0.750858 0.747645 0.891395
O O7 0.732336 0.702236 0.993440
O O8 0.736414 0.874427 0.967570
O O9 0.500000 0.356133 0.670683
O O10 0.271178 0.348471 0.598915
O O11 0.225342 0.369790 0.706431
O O12 0.500000 0.622336 0.038605
O O13 0.733267 0.527783 0.016500
O O14 0.759074 0.127424 0.314310
O O15 0.772176 0.302347 0.290566
O O16 0.000000 0.218630 0.339666
O O17 0.000000 0.083061 0.507138
O O18 0.500000 0.092565 0.270813
O O19 0.724624 0.974806 0.262914
O O20 0.000000 0.371080 0.238119
#
# Coordination Sequence:
#
# PCOD8175345 Si02
#       8
#     8   8   8   8   8   8   8   8
#     4   8  15  29  54  84 112 140 175 214 258 316
#     4  11  23  38  55  79 106 137 181 231 270 308
#     4   8  14  30  55  82 110 143 177 210 256 322
#     4   8  17  35  58  80 108 144 180 215 260 318
#     4  11  24  41  56  74 103 144 186 222 264 322
#     4   9  18  36  58  81 110 145 178 213 260 320
#     4  10  20  36  57  84 113 139 172 222 271 313
#     4   9  20  37  57  80 110 142 175 219 271 317
#
# _framework density 20.040099000000001
#
# number of rings (size 3 to 8) (size 9 to 14) (size 15 to 20)
#    0.000    2.750    0.000    2.625    0.000    4.000 
#    0.000   10.625    0.000    0.000    0.000    0.000 
#    0.000    0.000    0.000    0.000    0.000    0.000 
#
# Total GULP energy -396733.307952 kJ/mol
# GULP energy per Si atom -12397.915874 kJ/mol
# Density = 1.999449 g / cm^3
# Si number density = 20.040099 Si / 1000 Ang^3
#
#
#
# Elastic Constant Matrix: (Units=GPa)
#
#
# Indices 1 2 3 4 5 6 
#
# 1 54.9309 16.8427 29.3728 0.0000 0.0000 0.0000
# 2 16.8427 48.2510 21.8628 0.0000 0.0000 0.0000
# 3 29.3728 21.8628 101.4483 0.0000 0.0000 0.0000
# 4 0.0000 0.0000 0.0000 33.7547 0.0000 0.0000
# 5 0.0000 0.0000 0.0000 0.0000 38.2959 0.0000
# 6 0.0000 0.0000 0.0000 0.0000 0.0000 19.9646
#
#
#
# Elastic Compliance Matrix: (Units=1/GPa)
#
#
# Indices 1 2 3 4 5 6 
#
# 1 0.022785 -0.005502 -0.005411 0.000000 0.000000 0.000000
# 2 -0.005502 0.024296 -0.003643 0.000000 0.000000 0.000000
# 3 -0.005411 -0.003643 0.012209 0.000000 0.000000 0.000000
# 4 0.000000 0.000000 0.000000 0.029625 0.000000 0.000000
# 5 0.000000 0.000000 0.000000 0.000000 0.026112 0.000000
# 6 0.000000 0.000000 0.000000 0.000000 0.000000 0.050089
#
#
# Mechanical properties :
#
#
# Convention : Reuss Voigt Hill
#
# Bulk Modulus (GPa) = 33.13649 37.86520 35.50084
# Shear Modulus (GPa) = 24.47519 27.50651 25.99085
#
# Velocity S-wave (km/s) = 3.49852 3.70885 3.60522
# Velocity P-wave (km/s) = 5.73502 6.10544 5.92313
#
# Compressibility (1/GPa) = 0.03017822
#
# Stress axis : x y z
#
# Youngs Moduli (GPa) = 43.88820 41.15899 81.90578
#
# Poissons Ratio (x) = 0.22644 0.44323
# Poissons Ratio (y) = 0.24145 0.29839
# Poissons Ratio (z) = 0.23750 0.14995
#
# Static dielectric constant tensor:
#      x y z
#    x 3.438500 0.000000 0.000000 
#    y 0.000000 3.633140 0.000000 
#    z 0.000000 0.000000 3.865430 
# 
# 
# High freq. dielectric constant tensor:
#      x y z
#    x 1.764140 0.000000 0.000000 
#    y 0.000000 1.775250 0.000000 
#    z 0.000000 0.000000 1.786200 
# 
# From -- ./inp_files/16674.got.cif
#   From: 2010.03.12/outbox.cif.g09.slc.cpg/sg36_9_cif.got.tgz:16674.got - 2010.04.14 02:13:53.
