data_PCOD8175480
_publ_section_title
;
Structure prediction by ZEFSAII (Michael W. Deem and Ramdas Pophale) SiO2 
 PCOD8175480
Probable space group: C M C 21
;
_chemical_formula_sum "Si O2"
_cell_formula_units_Z 64
_cell_length_a 9.138740
_cell_length_b 32.199657
_cell_length_c 10.490303
_cell_angle_alpha 90.000000
_cell_angle_beta 90.000000
_cell_angle_gamma 90.000000
_cell_volume 3086.921600
_symmetry_space_group_name_H-M "C M C 21"
_symmetry_group_IT_number 36
_symmetry_cell_setting 'orthorhombic'
loop_
_space_group_symop_operation_xyz
x,y,z
-x,-y,1/2+z
x,-y,1/2+z
-x,y,z
1/2+x,1/2+y,z
1/2-x,1/2-y,1/2+z
1/2+x,1/2-y,1/2+z
1/2-x,1/2+y,z
loop_
_atom_site_type_symbol
_atom_site_label
_atom_site_fract_x
_atom_site_fract_y
_atom_site_fract_z
Si Si1 0.830457 0.965042 0.944260
Si Si2 0.326242 0.265489 0.707737
Si Si3 0.334359 0.162651 0.345930
Si Si4 0.673083 0.711365 0.920807
Si Si5 0.664774 0.378002 0.055636
Si Si6 0.840969 0.572769 0.235940
Si Si7 0.335869 0.621608 0.848262
Si Si8 0.664887 0.951128 0.457104
O O1 0.786249 0.954696 0.798847
O O2 0.000000 0.975525 0.952039
O O3 0.744024 0.005686 0.985251
O O4 0.784595 0.925979 0.033056
O O5 0.500000 0.262019 0.721221
O O6 0.270769 0.308218 0.766084
O O7 0.283272 0.265644 0.555170
O O8 0.252849 0.229968 0.795496
O O9 0.500000 0.180616 0.357448
O O10 0.270389 0.155107 0.487166
O O11 0.328831 0.119936 0.273520
O O12 0.500000 0.715414 0.897636
O O13 0.716902 0.662286 0.927632
O O14 0.500000 0.373839 0.000417
O O15 0.670358 0.365467 0.201475
O O16 0.000000 0.554501 0.276920
O O17 0.825428 0.574179 0.086293
O O18 0.500000 0.609598 0.890082
O O19 0.239777 0.579999 0.857845
O O20 0.500000 0.959837 0.411173
#
# Coordination Sequence:
#
# PCOD8175480 Si02
#       8
#     8   8   8   8   8   8   8   8
#     4  10  21  36  56  84 117 154 200 249 300 363
#     4  11  24  41  65  95 129 167 211 259 315 379
#     4  10  20  37  63  90 120 157 202 250 305 370
#     4  10  24  44  65  95 131 168 213 264 320 380
#     4   9  20  38  60  89 122 160 206 254 310 370
#     4   9  20  38  57  81 113 151 194 243 299 361
#     4  10  22  41  63  88 123 162 207 258 314 373
#     4  11  23  37  57  84 117 155 199 247 305 368
#
# _framework density 20.732627999999998
#
# number of rings (size 3 to 8) (size 9 to 14) (size 15 to 20)
#    0.000    2.000    0.000    2.250    3.500    4.000 
#    0.000    0.000    0.000    0.000    0.000    0.000 
#    0.000    0.000    0.000    0.000    0.000    0.000 
#
# Total GULP energy -396626.115756 kJ/mol
# GULP energy per Si atom -12394.566117 kJ/mol
# Density = 2.068544 g / cm^3
# Si number density = 20.732628 Si / 1000 Ang^3
#
#
#
# Elastic Constant Matrix: (Units=GPa)
#
#
# Indices 1 2 3 4 5 6 
#
# 1 87.4237 36.4427 29.6640 0.0000 0.0000 0.0000
# 2 36.4427 50.7869 45.9000 0.0000 0.0000 0.0000
# 3 29.6640 45.9000 54.5665 0.0000 0.0000 0.0000
# 4 0.0000 0.0000 0.0000 16.9628 0.0000 0.0000
# 5 0.0000 0.0000 0.0000 0.0000 32.5868 0.0000
# 6 0.0000 0.0000 0.0000 0.0000 0.0000 35.8523
#
#
#
# Elastic Compliance Matrix: (Units=1/GPa)
#
#
# Indices 1 2 3 4 5 6 
#
# 1 0.016541 -0.015608 0.004137 0.000000 0.000000 0.000000
# 2 -0.015608 0.096849 -0.072982 0.000000 0.000000 0.000000
# 3 0.004137 -0.072982 0.077468 0.000000 0.000000 0.000000
# 4 0.000000 0.000000 0.000000 0.058953 0.000000 0.000000
# 5 0.000000 0.000000 0.000000 0.000000 0.030687 0.000000
# 6 0.000000 0.000000 0.000000 0.000000 0.000000 0.027892
#
#
# Mechanical properties :
#
#
# Convention : Reuss Voigt Hill
#
# Bulk Modulus (GPa) = 45.55440 46.31004 45.93222
# Shear Modulus (GPa) = 10.31750 22.46507 16.39128
#
# Velocity S-wave (km/s) = 2.23322 3.29532 2.81482
# Velocity P-wave (km/s) = 5.35441 6.07158 5.72424
#
# Compressibility (1/GPa) = 0.02195178
#
# Stress axis : x y z
#
# Youngs Moduli (GPa) = 60.45562 10.32535 12.90856
#
# Poissons Ratio (x) = 0.16116 -0.05340
# Poissons Ratio (y) = 0.94358 0.94209
# Poissons Ratio (z) = -0.25009 0.75356
#
# Static dielectric constant tensor:
#      x y z
#    x 3.905020 0.000000 0.000000 
#    y 0.000000 3.761690 0.000000 
#    z 0.000000 0.000000 3.793740 
# 
# 
# High freq. dielectric constant tensor:
#      x y z
#    x 1.811730 0.000000 0.000000 
#    y 0.000000 1.815970 0.000000 
#    z 0.000000 0.000000 1.809230 
# 
# From -- ./inp_files/7252.got.cif
#   From: 2010.03.12/outbox.cif.g09.slc.cpg/sg36_4_cif.got.tgz:7252.got - 2010.04.14 02:13:53.
