data_PCOD8175603
_publ_section_title
;
Structure prediction by ZEFSAII (Michael W. Deem and Ramdas Pophale) SiO2 
 PCOD8175603
Probable space group: C M C 21
;
_chemical_formula_sum "Si O2"
_cell_formula_units_Z 64
_cell_length_a 8.548451
_cell_length_b 30.400602
_cell_length_c 12.076960
_cell_angle_alpha 90.000000
_cell_angle_beta 90.000000
_cell_angle_gamma 90.000000
_cell_volume 3138.536894
_symmetry_space_group_name_H-M "C M C 21"
_symmetry_group_IT_number 36
_symmetry_cell_setting 'orthorhombic'
loop_
_space_group_symop_operation_xyz
x,y,z
-x,-y,1/2+z
x,-y,1/2+z
-x,y,z
1/2+x,1/2+y,z
1/2-x,1/2-y,1/2+z
1/2+x,1/2-y,1/2+z
1/2-x,1/2+y,z
loop_
_atom_site_type_symbol
_atom_site_label
_atom_site_fract_x
_atom_site_fract_y
_atom_site_fract_z
Si Si1 0.176380 0.672281 0.186880
Si Si2 0.684294 0.198464 0.952671
Si Si3 0.180728 0.047310 0.957929
Si Si4 0.181618 0.454756 0.915659
Si Si5 0.675925 0.927887 0.678441
Si Si6 0.316365 0.625996 0.547044
Si Si7 0.185863 0.707076 0.413974
Si Si8 0.315504 0.625201 0.800952
O O1 0.182141 0.621761 0.220468
O O2 0.252582 0.697770 0.290323
O O3 0.000000 0.689457 0.174339
O O4 0.258503 0.680761 0.068569
O O5 0.500000 0.191415 0.947469
O O6 0.727093 0.249317 0.950927
O O7 0.755254 0.171055 0.851237
O O8 0.199537 0.065988 0.081396
O O9 0.000000 0.036659 0.934178
O O10 0.247860 0.083097 0.870459
O O11 0.281652 0.003287 0.957336
O O12 0.225872 0.455768 0.785672
O O13 0.000000 0.443328 0.932809
O O14 0.280601 0.419172 0.983500
O O15 0.500000 0.939959 0.637769
O O16 0.500000 0.635517 0.540886
O O17 0.226103 0.667182 0.495521
O O18 0.259718 0.620940 0.674253
O O19 0.000000 0.713678 0.414452
O O20 0.500000 0.625711 0.809998
#
# Coordination Sequence:
#
# PCOD8175603 Si02
#       8
#     8   8   8   8   8   8   8   8
#     4   9  19  39  64  86 119 158 198 253 309 358
#     4  11  23  40  64  94 123 161 208 253 306 369
#     4  11  24  41  63  93 126 161 206 256 312 370
#     4  11  24  42  65  93 124 163 209 255 311 371
#     4  10  20  41  66  90 120 159 206 256 310 368
#     4  11  24  43  64  90 126 166 208 257 312 367
#     4  11  23  42  64  91 126 165 205 252 311 369
#     4  10  24  44  62  87 126 167 204 254 313 366
#
# _framework density 20.391667999999999
#
# number of rings (size 3 to 8) (size 9 to 14) (size 15 to 20)
#    0.000    1.500    2.500    1.875    3.500    2.500 
#    0.000    1.875    0.000    0.000    0.000    0.000 
#    0.000    0.000    0.000    0.000    0.000    0.000 
#
# Total GULP energy -396828.332116 kJ/mol
# GULP energy per Si atom -12400.885379 kJ/mol
# Density = 2.034526 g / cm^3
# Si number density = 20.391668 Si / 1000 Ang^3
#
#
#
# Elastic Constant Matrix: (Units=GPa)
#
#
# Indices 1 2 3 4 5 6 
#
# 1 26.9761 5.3788 24.4901 0.0000 0.0000 0.0000
# 2 5.3788 104.4904 35.7621 0.0000 0.0000 0.0000
# 3 24.4901 35.7621 123.6686 0.0000 0.0000 0.0000
# 4 0.0000 0.0000 0.0000 30.1111 0.0000 0.0000
# 5 0.0000 0.0000 0.0000 0.0000 28.9573 0.0000
# 6 0.0000 0.0000 0.0000 0.0000 0.0000 31.8813
#
#
#
# Elastic Compliance Matrix: (Units=1/GPa)
#
#
# Indices 1 2 3 4 5 6 
#
# 1 0.045258 0.000819 -0.009199 0.000000 0.000000 0.000000
# 2 0.000819 0.010636 -0.003238 0.000000 0.000000 0.000000
# 3 -0.009199 -0.003238 0.010844 0.000000 0.000000 0.000000
# 4 0.000000 0.000000 0.000000 0.033210 0.000000 0.000000
# 5 0.000000 0.000000 0.000000 0.000000 0.034534 0.000000
# 6 0.000000 0.000000 0.000000 0.000000 0.000000 0.031366
#
#
# Mechanical properties :
#
#
# Convention : Reuss Voigt Hill
#
# Bulk Modulus (GPa) = 22.98761 42.93304 32.96032
# Shear Modulus (GPa) = 24.55962 30.82354 27.69158
#
# Velocity S-wave (km/s) = 3.47420 3.89212 3.68908
# Velocity P-wave (km/s) = 5.23364 6.42635 5.86042
#
# Compressibility (1/GPa) = 0.04350170
#
# Stress axis : x y z
#
# Youngs Moduli (GPa) = 22.09552 94.01775 92.21542
#
# Poissons Ratio (x) = -0.07697 0.84831
# Poissons Ratio (y) = -0.01809 0.29858
# Poissons Ratio (z) = 0.20326 0.30442
#
# Static dielectric constant tensor:
#      x y z
#    x 3.508220 0.000000 0.000000 
#    y 0.000000 3.638910 0.000000 
#    z 0.000000 0.000000 3.970770 
# 
# 
# High freq. dielectric constant tensor:
#      x y z
#    x 1.782050 0.000000 0.000000 
#    y 0.000000 1.803190 0.000000 
#    z 0.000000 0.000000 1.812880 
# 
# From -- ./inp_files/7105.got.cif
#   From: 2010.03.12/outbox.cif.g09.slc.cpg/sg36_4_cif.got.tgz:7105.got - 2010.04.14 02:13:53.
