data_PCOD8175688
_publ_section_title
;
Structure prediction by ZEFSAII (Michael W. Deem and Ramdas Pophale) SiO2 
 PCOD8175688
Probable space group: C M C 21
;
_chemical_formula_sum "Si O2"
_cell_formula_units_Z 64
_cell_length_a 8.970058
_cell_length_b 18.365493
_cell_length_c 20.741035
_cell_angle_alpha 90.000000
_cell_angle_beta 90.000000
_cell_angle_gamma 90.000000
_cell_volume 3416.868511
_symmetry_space_group_name_H-M "C M C 21"
_symmetry_group_IT_number 36
_symmetry_cell_setting 'orthorhombic'
loop_
_space_group_symop_operation_xyz
x,y,z
-x,-y,1/2+z
x,-y,1/2+z
-x,y,z
1/2+x,1/2+y,z
1/2-x,1/2-y,1/2+z
1/2+x,1/2-y,1/2+z
1/2-x,1/2+y,z
loop_
_atom_site_type_symbol
_atom_site_label
_atom_site_fract_x
_atom_site_fract_y
_atom_site_fract_z
Si Si1 0.166924 0.837188 0.680250
Si Si2 0.822833 0.329137 0.810741
Si Si3 0.164574 0.335649 0.173072
Si Si4 0.324843 0.175229 0.813446
Si Si5 0.674763 0.329877 0.047612
Si Si6 0.673764 0.835584 0.553833
Si Si7 0.673235 0.069430 0.929761
Si Si8 0.823344 0.082778 0.423507
O O1 0.263962 0.858874 0.742237
O O2 0.163911 0.750992 0.674110
O O3 0.240989 0.869376 0.615391
O O4 0.000000 0.868797 0.687585
O O5 0.764520 0.248793 0.827796
O O6 0.764202 0.385093 0.863384
O O7 0.000000 0.328543 0.809659
O O8 0.222134 0.359849 0.244140
O O9 0.266069 0.364417 0.114721
O O10 0.000000 0.367047 0.160560
O O11 0.500000 0.195801 0.812690
O O12 0.286106 0.116892 0.867486
O O13 0.500000 0.335396 0.051014
O O14 0.728238 0.246628 0.038828
O O15 0.734685 0.375942 0.987414
O O16 0.500000 0.835421 0.570425
O O17 0.711952 0.883770 0.492397
O O18 0.500000 0.045851 0.928756
O O19 0.781682 0.001170 0.930434
O O20 0.000000 0.092109 0.413681
#
# Coordination Sequence:
#
# PCOD8175688 Si02
#       8
#     8   8   8   8   8   8   8   8
#     4   9  17  31  52  79 109 136 166 212 267 317
#     4  11  21  34  56  83 107 135 176 221 265 317
#     4   8  15  28  50  79 106 131 163 209 260 309
#     4   9  18  35  57  81 109 139 172 214 266 317
#     4   9  18  33  54  77 102 135 172 212 259 310
#     4   9  17  32  55  80 104 134 174 218 264 315
#     4  10  21  37  55  76 107 145 182 221 265 315
#     4  11  23  38  53  73 106 145 183 223 268 316
#
# _framework density 18.730599000000002
#
# number of rings (size 3 to 8) (size 9 to 14) (size 15 to 20)
#    0.000    2.500    0.000    3.375    0.000    7.000 
#    0.000    3.750    0.000    4.500    0.000    0.000 
#    0.000    0.000    0.000    0.000    0.000    0.000 
#
# Total GULP energy -396766.876030 kJ/mol
# GULP energy per Si atom -12398.964876 kJ/mol
# Density = 1.868797 g / cm^3
# Si number density = 18.730599 Si / 1000 Ang^3
#
#
#
# Elastic Constant Matrix: (Units=GPa)
#
#
# Indices 1 2 3 4 5 6 
#
# 1 84.1447 39.5336 61.7738 0.0000 0.0000 0.0000
# 2 39.5336 69.4731 60.9021 0.0000 0.0000 0.0000
# 3 61.7738 60.9021 175.9553 0.0000 0.0000 0.0000
# 4 0.0000 0.0000 0.0000 -0.7238 0.0000 0.0000
# 5 0.0000 0.0000 0.0000 0.0000 24.3869 0.0000
# 6 0.0000 0.0000 0.0000 0.0000 0.0000 24.5030
#
#
#
# Elastic Compliance Matrix: (Units=1/GPa)
#
#
# Indices 1 2 3 4 5 6 
#
# 1 0.017970 -0.006740 -0.003976 0.000000 0.000000 0.000000
# 2 -0.006740 0.023192 -0.005661 0.000000 0.000000 0.000000
# 3 -0.003976 -0.005661 0.009038 0.000000 0.000000 0.000000
# 4 0.000000 0.000000 0.000000 -1.381587 0.000000 0.000000
# 5 0.000000 0.000000 0.000000 0.000000 0.041006 0.000000
# 6 0.000000 0.000000 0.000000 0.000000 0.000000 0.040811
#
#
# Mechanical properties :
#
#
# Convention : Reuss Voigt Hill
#
# Bulk Modulus (GPa) = 57.31897 72.66578 64.99238
# Shear Modulus (GPa) = -4.12882 20.79079 8.33099
#
# Velocity S-wave (km/s) = -1.48631 3.33527 2.11127
# Velocity P-wave (km/s) = 5.26524 7.32881 6.38100
#
# Compressibility (1/GPa) = 0.01744623
#
# Stress axis : x y z
#
# Youngs Moduli (GPa) = 55.64851 43.11786 110.63846
#
# Poissons Ratio (x) = 0.29063 0.43988
# Poissons Ratio (y) = 0.37510 0.62632
# Poissons Ratio (z) = 0.22125 0.24409
#
# Static dielectric constant tensor:
#      x y z
#    x 3.445870 0.000000 0.000000 
#    y 0.000000 3.118020 0.000000 
#    z 0.000000 0.000000 3.883580 
# 
# 
# High freq. dielectric constant tensor:
#      x y z
#    x 1.723850 0.000000 0.000000 
#    y 0.000000 1.689060 0.000000 
#    z 0.000000 0.000000 1.749960 
# 
# From -- ./inp_files/15737.got.cif
#   From: 2010.03.12/outbox.cif.g09.slc.cpg/sg36_8_cif.got.tgz:15737.got - 2010.04.14 02:13:53.
