data_PCOD8175475
_publ_section_title
;
Structure prediction by ZEFSAII (Michael W. Deem and Ramdas Pophale) SiO2 
 PCOD8175475
Probable space group: C M C 21
;
_chemical_formula_sum "Si O2"
_cell_formula_units_Z 64
_cell_length_a 8.385535
_cell_length_b 22.631130
_cell_length_c 16.372984
_cell_angle_alpha 90.000000
_cell_angle_beta 90.000000
_cell_angle_gamma 90.000000
_cell_volume 3107.168838
_symmetry_space_group_name_H-M "C M C 21"
_symmetry_group_IT_number 36
_symmetry_cell_setting 'orthorhombic'
loop_
_space_group_symop_operation_xyz
x,y,z
-x,-y,1/2+z
x,-y,1/2+z
-x,y,z
1/2+x,1/2+y,z
1/2-x,1/2-y,1/2+z
1/2+x,1/2-y,1/2+z
1/2-x,1/2+y,z
loop_
_atom_site_type_symbol
_atom_site_label
_atom_site_fract_x
_atom_site_fract_y
_atom_site_fract_z
Si Si1 0.183521 0.815664 0.466180
Si Si2 0.687734 0.783229 0.294624
Si Si3 0.684281 0.468927 0.050975
Si Si4 0.312523 0.650966 0.246474
Si Si5 0.819162 0.203002 0.523101
Si Si6 0.687922 0.887119 0.909939
Si Si7 0.314052 0.095331 0.080430
Si Si8 0.320128 0.871135 0.154626
O O1 0.210460 0.801851 0.372162
O O2 0.294995 0.772590 0.519429
O O3 0.239009 0.880166 0.495629
O O4 0.000000 0.805393 0.487428
O O5 0.500000 0.782075 0.314975
O O6 0.741493 0.719788 0.257452
O O7 0.733116 0.837747 0.235937
O O8 0.500000 0.484728 0.039493
O O9 0.782296 0.525941 0.077506
O O10 0.704215 0.424247 0.127634
O O11 0.749306 0.441412 0.965757
O O12 0.500000 0.645114 0.257228
O O13 0.229276 0.607779 0.313778
O O14 0.265511 0.627399 0.157703
O O15 0.779068 0.173307 0.435583
O O16 0.688636 0.178072 0.584653
O O17 0.000000 0.187694 0.549261
O O18 0.500000 0.882135 0.922798
O O19 0.500000 0.107488 0.084049
O O20 0.500000 0.895265 0.161009
#
# Coordination Sequence:
#
# PCOD8175475 Si02
#       8
#     8   8   8   8   8   8   8   8
#     4  12  24  39  61  89 126 165 206 255 317 381
#     4  10  22  39  62  93 130 164 203 254 314 378
#     4  11  23  43  66  90 123 165 215 262 314 376
#     4  11  22  40  66  97 132 166 209 261 319 379
#     4  11  20  34  58  89 124 161 203 250 309 370
#     4  11  21  37  63  95 126 164 210 258 313 371
#     4  12  26  45  66  91 126 167 215 266 322 380
#     4  10  20  37  62  92 123 160 205 254 310 369
#
# _framework density 20.597529999999999
#
# number of rings (size 3 to 8) (size 9 to 14) (size 15 to 20)
#    0.000    1.000    1.250    8.625    0.000    2.500 
#    2.250    0.000    0.000    0.000    0.000    0.000 
#    0.000    0.000    0.000    0.000    0.000    0.000 
#
# Total GULP energy -396744.157889 kJ/mol
# GULP energy per Si atom -12398.254934 kJ/mol
# Density = 2.055065 g / cm^3
# Si number density = 20.597530 Si / 1000 Ang^3
#
#
#
# Elastic Constant Matrix: (Units=GPa)
#
#
# Indices 1 2 3 4 5 6 
#
# 1 91.3880 26.9731 28.5711 0.0000 0.0000 0.0000
# 2 26.9731 97.5692 54.5731 0.0000 0.0000 0.0000
# 3 28.5711 54.5731 73.4446 0.0000 0.0000 0.0000
# 4 0.0000 0.0000 0.0000 21.7977 0.0000 0.0000
# 5 0.0000 0.0000 0.0000 0.0000 35.9798 0.0000
# 6 0.0000 0.0000 0.0000 0.0000 0.0000 27.9289
#
#
#
# Elastic Compliance Matrix: (Units=1/GPa)
#
#
# Indices 1 2 3 4 5 6 
#
# 1 0.012548 -0.001264 -0.003942 0.000000 0.000000 0.000000
# 2 -0.001264 0.017665 -0.012635 0.000000 0.000000 0.000000
# 3 -0.003942 -0.012635 0.024538 0.000000 0.000000 0.000000
# 4 0.000000 0.000000 0.000000 0.045876 0.000000 0.000000
# 5 0.000000 0.000000 0.000000 0.000000 0.027793 0.000000
# 6 0.000000 0.000000 0.000000 0.000000 0.000000 0.035805
#
#
# Mechanical properties :
#
#
# Convention : Reuss Voigt Hill
#
# Bulk Modulus (GPa) = 52.44026 53.62627 53.03326
# Shear Modulus (GPa) = 24.24080 27.29358 25.76719
#
# Velocity S-wave (km/s) = 3.43429 3.64413 3.54076
# Velocity P-wave (km/s) = 6.42188 6.61801 6.52068
#
# Compressibility (1/GPa) = 0.01906932
#
# Stress axis : x y z
#
# Youngs Moduli (GPa) = 79.69492 56.60759 40.75392
#
# Poissons Ratio (x) = 0.07155 0.16066
# Poissons Ratio (y) = 0.10073 0.51491
# Poissons Ratio (z) = 0.31417 0.71522
#
# Static dielectric constant tensor:
#      x y z
#    x 3.666740 0.000000 0.000000 
#    y 0.000000 3.722850 0.000000 
#    z 0.000000 0.000000 3.877660 
# 
# 
# High freq. dielectric constant tensor:
#      x y z
#    x 1.816380 0.000000 0.000000 
#    y 0.000000 1.797010 0.000000 
#    z 0.000000 0.000000 1.804780 
# 
# From -- ./inp_files/13924.got.cif
#   From: 2010.03.12/outbox.cif.g09.slc.cpg/sg36_7_cif.got.tgz:13924.got - 2010.04.14 02:13:53.
