data_PCOD8175913
_publ_section_title
;
Structure prediction by ZEFSAII (Michael W. Deem and Ramdas Pophale) SiO2 
 PCOD8175913
Probable space group: C M C 21
;
_chemical_formula_sum "Si O2"
_cell_formula_units_Z 64
_cell_length_a 9.116124
_cell_length_b 30.365722
_cell_length_c 11.872080
_cell_angle_alpha 90.000000
_cell_angle_beta 90.000000
_cell_angle_gamma 90.000000
_cell_volume 3286.401727
_symmetry_space_group_name_H-M "C M C 21"
_symmetry_group_IT_number 36
_symmetry_cell_setting 'orthorhombic'
loop_
_space_group_symop_operation_xyz
x,y,z
-x,-y,1/2+z
x,-y,1/2+z
-x,y,z
1/2+x,1/2+y,z
1/2-x,1/2-y,1/2+z
1/2+x,1/2-y,1/2+z
1/2-x,1/2+y,z
loop_
_atom_site_type_symbol
_atom_site_label
_atom_site_fract_x
_atom_site_fract_y
_atom_site_fract_z
Si Si1 0.334571 0.452486 0.948210
Si Si2 0.165632 0.295621 0.483236
Si Si3 0.662753 0.835847 0.722215
Si Si4 0.172625 0.379509 0.331946
Si Si5 0.831596 0.293085 0.959660
Si Si6 0.674287 0.631479 0.593805
Si Si7 0.672619 0.958432 0.491850
Si Si8 0.335675 0.421108 0.698751
O O1 0.500000 0.463408 0.987812
O O2 0.327823 0.446428 0.815532
O O3 0.277866 0.409158 0.013862
O O4 0.230412 0.492932 0.972975
O O5 0.176745 0.304700 0.615215
O O6 0.212704 0.338489 0.411986
O O7 0.277156 0.256717 0.459540
O O8 0.000000 0.281729 0.450413
O O9 0.500000 0.857944 0.723964
O O10 0.790320 0.871243 0.719544
O O11 0.688662 0.807095 0.831717
O O12 0.263386 0.376708 0.217648
O O13 0.223934 0.424019 0.395942
O O14 0.000000 0.380723 0.304680
O O15 0.739127 0.323544 0.043925
O O16 0.000000 0.295031 0.999203
O O17 0.500000 0.636302 0.599620
O O18 0.500000 0.960107 0.495017
O O19 0.725423 0.943530 0.613495
O O20 0.500000 0.422014 0.649378
#
# Coordination Sequence:
#
# PCOD8175913 Si02
#       8
#     8   8   8   8   8   8   8   8
#     4  10  24  43  62  91 125 162 207 253 305 363
#     4  10  22  42  64  88 125 164 201 253 310 364
#     4  10  21  41  65  89 121 160 205 257 307 362
#     4  10  23  43  63  90 125 162 206 255 305 363
#     4  11  24  40  63  95 125 158 208 256 305 367
#     4  11  24  43  64  88 125 167 206 250 308 369
#     4  11  24  42  65  93 125 162 206 253 310 367
#     4  11  22  40  66  92 123 159 205 257 306 365
#
# _framework density 19.474187000000001
#
# number of rings (size 3 to 8) (size 9 to 14) (size 15 to 20)
#    0.000    1.500    2.500    1.500    3.500    4.500 
#    0.000    0.000    0.000    0.000    0.000    0.000 
#    0.000    0.000    0.000    0.000    0.000    0.000 
#
# Total GULP energy -396899.098511 kJ/mol
# GULP energy per Si atom -12403.096828 kJ/mol
# Density = 1.942986 g / cm^3
# Si number density = 19.474187 Si / 1000 Ang^3
#
#
#
# Elastic Constant Matrix: (Units=GPa)
#
#
# Indices 1 2 3 4 5 6 
#
# 1 76.1912 47.8820 40.9867 0.0000 0.0000 0.0000
# 2 47.8820 102.5103 21.3174 0.0000 0.0000 0.0000
# 3 40.9867 21.3174 93.8022 0.0000 0.0000 0.0000
# 4 0.0000 0.0000 0.0000 24.6552 0.0000 0.0000
# 5 0.0000 0.0000 0.0000 0.0000 35.5483 0.0000
# 6 0.0000 0.0000 0.0000 0.0000 0.0000 46.4690
#
#
#
# Elastic Compliance Matrix: (Units=1/GPa)
#
#
# Indices 1 2 3 4 5 6 
#
# 1 0.023228 -0.009172 -0.008065 0.000000 0.000000 0.000000
# 2 -0.009172 0.013861 0.000858 0.000000 0.000000 0.000000
# 3 -0.008065 0.000858 0.013990 0.000000 0.000000 0.000000
# 4 0.000000 0.000000 0.000000 0.040559 0.000000 0.000000
# 5 0.000000 0.000000 0.000000 0.000000 0.028131 0.000000
# 6 0.000000 0.000000 0.000000 0.000000 0.000000 0.021520
#
#
# Mechanical properties :
#
#
# Convention : Reuss Voigt Hill
#
# Bulk Modulus (GPa) = 54.58608 54.76400 54.67504
# Shear Modulus (GPa) = 27.75409 32.15568 29.95489
#
# Velocity S-wave (km/s) = 3.77924 4.06790 3.92622
# Velocity P-wave (km/s) = 6.86545 7.08845 6.97784
#
# Compressibility (1/GPa) = 0.01831969
#
# Stress axis : x y z
#
# Youngs Moduli (GPa) = 43.05211 72.14423 71.48124
#
# Poissons Ratio (x) = 0.66174 0.57648
# Poissons Ratio (y) = 0.39489 -0.06132
# Poissons Ratio (z) = 0.34721 -0.06189
#
# Static dielectric constant tensor:
#      x y z
#    x 3.680570 0.000000 0.000000 
#    y 0.000000 3.410080 0.000000 
#    z 0.000000 0.000000 3.606490 
# 
# 
# High freq. dielectric constant tensor:
#      x y z
#    x 1.764180 0.000000 0.000000 
#    y 0.000000 1.762660 0.000000 
#    z 0.000000 0.000000 1.771480 
# 
# From -- ./inp_files/7111.got.cif
#   From: 2010.03.12/outbox.cif.g09.slc.cpg/sg36_4_cif.got.tgz:7111.got - 2010.04.14 02:13:53.
