data_PCOD8175017
_publ_section_title
;
Structure prediction by ZEFSAII (Michael W. Deem and Ramdas Pophale) SiO2 
 PCOD8175017
Probable space group: C M C 21
;
_chemical_formula_sum "Si O2"
_cell_formula_units_Z 44
_cell_length_a 16.158673
_cell_length_b 9.224789
_cell_length_c 13.798489
_cell_angle_alpha 90.000000
_cell_angle_beta 90.000000
_cell_angle_gamma 90.000000
_cell_volume 2056.807585
_symmetry_space_group_name_H-M "C M C 21"
_symmetry_group_IT_number 36
_symmetry_cell_setting 'orthorhombic'
loop_
_space_group_symop_operation_xyz
x,y,z
-x,-y,1/2+z
x,-y,1/2+z
-x,y,z
1/2+x,1/2+y,z
1/2-x,1/2-y,1/2+z
1/2+x,1/2-y,1/2+z
1/2-x,1/2+y,z
loop_
_atom_site_type_symbol
_atom_site_label
_atom_site_fract_x
_atom_site_fract_y
_atom_site_fract_z
Si Si1 0.350028 0.838017 0.184850
Si Si2 0.000000 0.212466 0.647004
Si Si3 0.500000 0.816154 0.435044
Si Si4 0.909615 0.050880 0.090788
Si Si5 0.245508 0.538273 0.503829
Si Si6 0.321869 0.217157 0.891787
Si Si7 0.500000 0.985322 0.760360
O O1 0.390739 0.682936 0.162341
O O2 0.288952 0.897990 0.103512
O O3 0.295924 0.818120 0.282034
O O4 0.420253 0.954981 0.205020
O O5 0.000000 0.311039 0.743879
O O6 0.000000 0.320448 0.552308
O O7 0.080855 0.105446 0.646328
O O8 0.582180 0.729638 0.399525
O O9 0.500000 0.971544 0.375552
O O10 0.000000 0.079729 0.039501
O O11 0.834372 0.039247 0.016039
O O12 0.256111 0.666231 0.427242
O O13 0.181144 0.425222 0.459575
#
# Coordination Sequence:
#
# PCOD8175017 Si02
#       7
#     8   4   4   8   8   8   4
#     4  11  24  42  69  96 138 172 225 277 337 400
#     4  10  19  39  73  94 128 171 230 270 331 384
#     4  10  20  42  62  98 128 169 224 268 325 397
#     4  10  22  43  69  95 128 174 228 277 330 391
#     4  12  24  43  63 100 133 174 223 277 335 396
#     4  11  25  42  66  95 134 177 218 277 337 393
#     4  10  21  39  69  98 132 182 216 274 334 399
#
# _framework density 21.392375000000001
#
# number of rings (size 3 to 8) (size 9 to 14) (size 15 to 20)
#    0.545    0.727    4.545    1.091    2.545    0.000 
#    3.273    0.000    0.000    0.000    0.000    0.000 
#    0.000    0.000    0.000    0.000    0.000    0.000 
#
# Total GULP energy -272605.293208 kJ/mol
# GULP energy per Si atom -12391.149691 kJ/mol
# Density = 2.134368 g / cm^3
# Si number density = 21.392375 Si / 1000 Ang^3
#
#
#
# Elastic Constant Matrix: (Units=GPa)
#
#
# Indices 1 2 3 4 5 6 
#
# 1 102.5130 28.5119 42.8042 0.0000 0.0000 0.0000
# 2 28.5119 106.4408 35.1157 0.0000 0.0000 0.0000
# 3 42.8042 35.1157 95.2475 0.0000 0.0000 0.0000
# 4 0.0000 0.0000 0.0000 24.3593 0.0000 0.0000
# 5 0.0000 0.0000 0.0000 0.0000 30.1454 0.0000
# 6 0.0000 0.0000 0.0000 0.0000 0.0000 23.9681
#
#
#
# Elastic Compliance Matrix: (Units=1/GPa)
#
#
# Indices 1 2 3 4 5 6 
#
# 1 0.012263 -0.001670 -0.004896 0.000000 0.000000 0.000000
# 2 -0.001670 0.010923 -0.003277 0.000000 0.000000 0.000000
# 3 -0.004896 -0.003277 0.013907 0.000000 0.000000 0.000000
# 4 0.000000 0.000000 0.000000 0.041052 0.000000 0.000000
# 5 0.000000 0.000000 0.000000 0.000000 0.033173 0.000000
# 6 0.000000 0.000000 0.000000 0.000000 0.000000 0.041722
#
#
# Mechanical properties :
#
#
# Convention : Reuss Voigt Hill
#
# Bulk Modulus (GPa) = 57.44004 57.45166 57.44585
# Shear Modulus (GPa) = 28.00686 28.87922 28.44304
#
# Velocity S-wave (km/s) = 3.62221 3.67819 3.65031
# Velocity P-wave (km/s) = 6.66355 6.70472 6.68416
#
# Compressibility (1/GPa) = 0.01740946
#
# Stress axis : x y z
#
# Youngs Moduli (GPa) = 81.54330 91.54819 71.90598
#
# Poissons Ratio (x) = 0.15288 0.35202
# Poissons Ratio (y) = 0.13617 0.23561
# Poissons Ratio (z) = 0.39920 0.29998
#
# Static dielectric constant tensor:
#      x y z
#    x 3.886250 0.000000 0.000000 
#    y 0.000000 3.848890 0.000000 
#    z 0.000000 0.000000 3.724960 
# 
# 
# High freq. dielectric constant tensor:
#      x y z
#    x 1.844900 0.000000 0.000000 
#    y 0.000000 1.833980 0.000000 
#    z 0.000000 0.000000 1.819690 
# 
# From -- ./inp_files/12473.got.cif
#   From: 2010.03.12/outbox.cif.g09.slc.cpg/sg36_7_cif.got.tgz:12473.got - 2010.04.14 02:13:53.
