data_PCOD8175323
_publ_section_title
;
Structure prediction by ZEFSAII (Michael W. Deem and Ramdas Pophale) SiO2 
 PCOD8175323
Probable space group: C M C 21
;
_chemical_formula_sum "Si O2"
_cell_formula_units_Z 56
_cell_length_a 13.291160
_cell_length_b 21.715063
_cell_length_c 9.244223
_cell_angle_alpha 90.000000
_cell_angle_beta 90.000000
_cell_angle_gamma 90.000000
_cell_volume 2668.052637
_symmetry_space_group_name_H-M "C M C 21"
_symmetry_group_IT_number 36
_symmetry_cell_setting 'orthorhombic'
loop_
_space_group_symop_operation_xyz
x,y,z
-x,-y,1/2+z
x,-y,1/2+z
-x,y,z
1/2+x,1/2+y,z
1/2-x,1/2-y,1/2+z
1/2+x,1/2-y,1/2+z
1/2-x,1/2+y,z
loop_
_atom_site_type_symbol
_atom_site_label
_atom_site_fract_x
_atom_site_fract_y
_atom_site_fract_z
Si Si1 0.612004 0.685362 0.429020
Si Si2 0.681046 0.844808 0.827742
Si Si3 0.822013 0.682593 0.015076
Si Si4 0.889880 0.778597 0.449654
Si Si5 0.610112 0.619653 0.720802
Si Si6 0.691484 0.930889 0.322293
Si Si7 0.117058 0.539037 0.507136
O O1 0.500000 0.675282 0.363318
O O2 0.699929 0.671575 0.315067
O O3 0.617277 0.755570 0.483559
O O4 0.632267 0.635953 0.555448
O O5 0.638816 0.848009 0.664091
O O6 0.622372 0.793522 0.918924
O O7 0.662902 0.907920 0.908891
O O8 0.703322 0.696959 0.043767
O O9 0.841336 0.636484 0.880496
O O10 0.885851 0.814471 0.298653
O O11 0.000000 0.788496 0.525405
O O12 0.500000 0.588999 0.740020
O O13 0.690160 0.570800 0.782311
O O14 0.674089 0.977699 0.454264
O O15 0.630827 0.949164 0.178119
O O16 0.000000 0.531417 0.474244
#
# Coordination Sequence:
#
# PCOD8175323 Si02
#       7
#     8   8   8   8   8   8   8
#     4  10  20  35  60  92 127 166 203 253 322 388
#     4  11  21  37  58  92 124 164 207 261 313 372
#     4  10  22  36  62  92 129 161 206 258 317 377
#     4   9  18  33  57  86 124 164 203 247 310 376
#     4   9  17  37  64  90 121 161 201 256 322 377
#     4  11  24  45  63  90 125 168 215 267 310 371
#     4  12  26  43  64  86 122 170 217 262 312 367
#
# _framework density 20.989091999999999
#
# number of rings (size 3 to 8) (size 9 to 14) (size 15 to 20)
#    0.000    1.714    2.857    1.714    0.000    2.286 
#    0.000    1.429    0.000    1.714    0.000    0.000 
#    0.000    0.000    0.000    0.000    0.000    0.000 
#
# Total GULP energy -347069.947584 kJ/mol
# GULP energy per Si atom -12395.355271 kJ/mol
# Density = 2.094132 g / cm^3
# Si number density = 20.989092 Si / 1000 Ang^3
#
#
#
# Elastic Constant Matrix: (Units=GPa)
#
#
# Indices 1 2 3 4 5 6 
#
# 1 109.0846 42.2563 14.2769 0.0000 0.0000 0.0000
# 2 42.2563 82.1784 26.5452 0.0000 0.0000 0.0000
# 3 14.2769 26.5452 84.0085 0.0000 0.0000 0.0000
# 4 0.0000 0.0000 0.0000 27.0045 0.0000 0.0000
# 5 0.0000 0.0000 0.0000 0.0000 18.7346 0.0000
# 6 0.0000 0.0000 0.0000 0.0000 0.0000 25.7663
#
#
#
# Elastic Compliance Matrix: (Units=1/GPa)
#
#
# Indices 1 2 3 4 5 6 
#
# 1 0.011448 -0.005856 -0.000095 0.000000 0.000000 0.000000
# 2 -0.005856 0.016547 -0.004233 0.000000 0.000000 0.000000
# 3 -0.000095 -0.004233 0.013257 0.000000 0.000000 0.000000
# 4 0.000000 0.000000 0.000000 0.037031 0.000000 0.000000
# 5 0.000000 0.000000 0.000000 0.000000 0.053377 0.000000
# 6 0.000000 0.000000 0.000000 0.000000 0.000000 0.038810
#
#
# Mechanical properties :
#
#
# Convention : Reuss Voigt Hill
#
# Bulk Modulus (GPa) = 47.88427 49.04759 48.46593
# Shear Modulus (GPa) = 25.27785 27.11393 26.19589
#
# Velocity S-wave (km/s) = 3.47411 3.59808 3.53664
# Velocity P-wave (km/s) = 6.24148 6.37812 6.31017
#
# Compressibility (1/GPa) = 0.02088368
#
# Stress axis : x y z
#
# Youngs Moduli (GPa) = 87.35106 60.43302 75.42935
#
# Poissons Ratio (x) = 0.35389 0.00718
# Poissons Ratio (y) = 0.51152 0.31933
# Poissons Ratio (z) = 0.00832 0.25584
#
# Static dielectric constant tensor:
#      x y z
#    x 3.998160 0.000000 0.000000 
#    y 0.000000 3.538150 0.000000 
#    z 0.000000 0.000000 3.601990 
# 
# 
# High freq. dielectric constant tensor:
#      x y z
#    x 1.831740 0.000000 0.000000 
#    y 0.000000 1.802590 0.000000 
#    z 0.000000 0.000000 1.814280 
# 
# From -- ./inp_files/4191.got.cif
#   From: 2010.03.12/outbox.cif.g09.slc.cpg/sg36_3_cif.got.tgz:4191.got - 2010.04.14 02:13:53.
