data_PCOD8175397
_publ_section_title
;
Structure prediction by ZEFSAII (Michael W. Deem and Ramdas Pophale) SiO2 
 PCOD8175397
Probable space group: C M C 21
;
_chemical_formula_sum "Si O2"
_cell_formula_units_Z 64
_cell_length_a 14.191001
_cell_length_b 10.995018
_cell_length_c 18.689651
_cell_angle_alpha 90.000000
_cell_angle_beta 90.000000
_cell_angle_gamma 90.000000
_cell_volume 2916.152066
_symmetry_space_group_name_H-M "C M C 21"
_symmetry_group_IT_number 36
_symmetry_cell_setting 'orthorhombic'
loop_
_space_group_symop_operation_xyz
x,y,z
-x,-y,1/2+z
x,-y,1/2+z
-x,y,z
1/2+x,1/2+y,z
1/2-x,1/2-y,1/2+z
1/2+x,1/2-y,1/2+z
1/2-x,1/2+y,z
loop_
_atom_site_type_symbol
_atom_site_label
_atom_site_fract_x
_atom_site_fract_y
_atom_site_fract_z
Si Si1 0.895206 0.746482 0.503380
Si Si2 0.606712 0.881608 0.728301
Si Si3 0.608505 0.481366 0.030289
Si Si4 0.395876 0.135357 0.651813
Si Si5 0.699175 0.768063 0.861012
Si Si6 0.191362 0.158094 0.658531
Si Si7 0.898044 0.163460 0.385655
Si Si8 0.395407 0.552270 0.786569
O O1 0.896752 0.645055 0.565718
O O2 0.837682 0.687640 0.438105
O O3 0.000000 0.773210 0.474986
O O4 0.855234 0.878189 0.530341
O O5 0.500000 0.877571 0.756631
O O6 0.673756 0.866744 0.798708
O O7 0.624566 0.772496 0.672816
O O8 0.623197 0.000794 0.680997
O O9 0.500000 0.475272 0.057587
O O10 0.675365 0.397852 0.080128
O O11 0.618617 0.426238 0.951697
O O12 0.500000 0.183542 0.679816
O O13 0.299511 0.204755 0.673760
O O14 0.811552 0.745941 0.871762
O O15 0.654983 0.638215 0.844366
O O16 0.164427 0.051024 0.713750
O O17 0.000000 0.231893 0.393425
O O18 0.901306 0.083329 0.314385
O O19 0.500000 0.604620 0.772073
#
# Coordination Sequence:
#
# PCOD8175397 Si02
#       8
#     8   8   8   8   8   8   8   8
#     4  10  20  37  62  90 119 157 202 246 296 356
#     4  10  22  40  62  89 120 154 201 251 293 353
#     4  10  20  36  60  91 121 151 199 255 298 347
#     4  10  23  40  56  85 127 159 193 247 302 355
#     4  11  19  36  64  89 112 156 198 240 291 355
#     4  11  21  36  63  88 115 161 205 240 295 358
#     4  10  21  37  57  87 121 148 187 251 299 340
#     4  10  20  38  62  87 115 150 203 248 286 350
#
# _framework density 21.946728
#
# number of rings (size 3 to 8) (size 9 to 14) (size 15 to 20)
#    0.000    1.750    1.250    4.500    1.750    0.000 
#    0.000    2.500    0.000    2.250    0.000    0.000 
#    0.000    0.000    0.000    0.000    0.000    0.000 
#
# Total GULP energy -396433.275173 kJ/mol
# GULP energy per Si atom -12388.539849 kJ/mol
# Density = 2.189678 g / cm^3
# Si number density = 21.946728 Si / 1000 Ang^3
#
#
#
# Elastic Constant Matrix: (Units=GPa)
#
#
# Indices 1 2 3 4 5 6 
#
# 1 163.9179 14.2301 36.1746 0.0000 0.0000 0.0000
# 2 14.2301 27.8139 10.8128 0.0000 0.0000 0.0000
# 3 36.1746 10.8128 79.4183 0.0000 0.0000 0.0000
# 4 0.0000 0.0000 0.0000 32.9901 0.0000 0.0000
# 5 0.0000 0.0000 0.0000 0.0000 30.1558 0.0000
# 6 0.0000 0.0000 0.0000 0.0000 0.0000 17.3577
#
#
#
# Elastic Compliance Matrix: (Units=1/GPa)
#
#
# Indices 1 2 3 4 5 6 
#
# 1 0.006937 -0.002450 -0.002826 0.000000 0.000000 0.000000
# 2 -0.002450 0.038828 -0.004170 0.000000 0.000000 0.000000
# 3 -0.002826 -0.004170 0.014447 0.000000 0.000000 0.000000
# 4 0.000000 0.000000 0.000000 0.030312 0.000000 0.000000
# 5 0.000000 0.000000 0.000000 0.000000 0.033161 0.000000
# 6 0.000000 0.000000 0.000000 0.000000 0.000000 0.057611
#
#
# Mechanical properties :
#
#
# Convention : Reuss Voigt Hill
#
# Bulk Modulus (GPa) = 24.20249 43.73168 33.96709
# Shear Modulus (GPa) = 23.36855 30.09622 26.73238
#
# Velocity S-wave (km/s) = 3.26664 3.70717 3.49385
# Velocity P-wave (km/s) = 5.02790 6.18819 5.63797
#
# Compressibility (1/GPa) = 0.04131806
#
# Stress axis : x y z
#
# Youngs Moduli (GPa) = 144.15367 25.75454 69.22026
#
# Poissons Ratio (x) = 0.06311 0.19563
# Poissons Ratio (y) = 0.35324 0.28867
# Poissons Ratio (z) = 0.40740 0.10740
#
# Static dielectric constant tensor:
#      x y z
#    x 4.498910 0.000000 0.000000 
#    y 0.000000 3.452370 0.000000 
#    z 0.000000 0.000000 3.914030 
# 
# 
# High freq. dielectric constant tensor:
#      x y z
#    x 1.884220 0.000000 0.000000 
#    y 0.000000 1.821450 0.000000 
#    z 0.000000 0.000000 1.864290 
# 
# From -- ./inp_files/14739.got.cif
#   From: 2010.03.12/outbox.cif.g09.slc.cpg/sg36_8_cif.got.tgz:14739.got - 2010.04.14 02:13:53.
