data_PCOD8175034
_publ_section_title
;
Structure prediction by ZEFSAII (Michael W. Deem and Ramdas Pophale) SiO2 
 PCOD8175034
Probable space group: C M C 21
;
_chemical_formula_sum "Si O2"
_cell_formula_units_Z 64
_cell_length_a 9.317961
_cell_length_b 20.817970
_cell_length_c 18.709199
_cell_angle_alpha 90.000000
_cell_angle_beta 90.000000
_cell_angle_gamma 90.000000
_cell_volume 3629.229740
_symmetry_space_group_name_H-M "C M C 21"
_symmetry_group_IT_number 36
_symmetry_cell_setting 'orthorhombic'
loop_
_space_group_symop_operation_xyz
x,y,z
-x,-y,1/2+z
x,-y,1/2+z
-x,y,z
1/2+x,1/2+y,z
1/2-x,1/2-y,1/2+z
1/2+x,1/2-y,1/2+z
1/2-x,1/2+y,z
loop_
_atom_site_type_symbol
_atom_site_label
_atom_site_fract_x
_atom_site_fract_y
_atom_site_fract_z
Si Si1 0.161570 0.497315 0.194400
Si Si2 0.834218 0.011124 0.554562
Si Si3 0.167125 0.367685 0.046496
Si Si4 0.167339 0.869100 0.553997
Si Si5 0.670463 0.746766 0.958028
Si Si6 0.161886 0.640942 0.714321
Si Si7 0.664669 0.137581 0.200715
Si Si8 0.829622 0.753272 0.297325
O O1 0.285157 0.494872 0.136018
O O2 0.178645 0.433129 0.242732
O O3 0.179385 0.565579 0.235271
O O4 0.000000 0.494538 0.159562
O O5 0.806004 0.940378 0.520852
O O6 0.000000 0.030216 0.551519
O O7 0.744892 0.067971 0.516732
O O8 0.199744 0.356687 0.130135
O O9 0.000000 0.376947 0.031950
O O10 0.229586 0.307449 0.002587
O O11 0.223911 0.818593 0.495516
O O12 0.249832 0.856569 0.627367
O O13 0.000000 0.858856 0.571252
O O14 0.500000 0.748915 0.956796
O O15 0.731994 0.748895 0.877714
O O16 0.270974 0.684348 0.757533
O O17 0.000000 0.665916 0.726807
O O18 0.500000 0.153219 0.182882
O O19 0.724385 0.188760 0.257710
O O20 0.000000 0.758336 0.297723
#
# Coordination Sequence:
#
# PCOD8175034 Si02
#       8
#     8   8   8   8   8   8   8   8
#     4   8  15  29  47  66  91 121 150 182 224 274
#     4   9  16  26  45  73  96 112 142 191 236 268
#     4   9  17  31  51  70  90 121 156 187 223 272
#     4   9  17  31  51  70  90 121 156 187 223 272
#     4   9  18  33  49  65  90 126 162 187 217 271
#     4   9  17  30  49  70  91 118 151 186 226 273
#     4   9  17  30  49  72  94 116 149 193 233 266
#     4  10  20  32  47  68  94 123 154 191 230 266
#
# _framework density 17.634596999999999
#
# number of rings (size 3 to 8) (size 9 to 14) (size 15 to 20)
#    0.000    3.000    0.000    1.875    0.000    4.000 
#    0.000    3.125    0.000    1.500    0.000    0.000 
#    0.000    0.000    0.000    0.000    0.000    0.000 
#
# Total GULP energy -396526.968427 kJ/mol
# GULP energy per Si atom -12391.467763 kJ/mol
# Density = 1.759446 g / cm^3
# Si number density = 17.634597 Si / 1000 Ang^3
#
#
#
# Elastic Constant Matrix: (Units=GPa)
#
#
# Indices 1 2 3 4 5 6 
#
# 1 39.3765 42.5981 26.2594 0.0000 0.0000 0.0000
# 2 42.5981 175.7984 69.3993 0.0000 0.0000 0.0000
# 3 26.2594 69.3993 82.4086 0.0000 0.0000 0.0000
# 4 0.0000 0.0000 0.0000 5.8790 0.0000 0.0000
# 5 0.0000 0.0000 0.0000 0.0000 15.3553 0.0000
# 6 0.0000 0.0000 0.0000 0.0000 0.0000 23.5815
#
#
#
# Elastic Compliance Matrix: (Units=1/GPa)
#
#
# Indices 1 2 3 4 5 6 
#
# 1 0.036452 -0.006363 -0.006257 0.000000 0.000000 0.000000
# 2 -0.006363 0.009632 -0.006084 0.000000 0.000000 0.000000
# 3 -0.006257 -0.006084 0.019252 0.000000 0.000000 0.000000
# 4 0.000000 0.000000 0.000000 0.170096 0.000000 0.000000
# 5 0.000000 0.000000 0.000000 0.000000 0.065124 0.000000
# 6 0.000000 0.000000 0.000000 0.000000 0.000000 0.042406
#
#
# Mechanical properties :
#
#
# Convention : Reuss Voigt Hill
#
# Bulk Modulus (GPa) = 35.80594 63.78854 49.79724
# Shear Modulus (GPa) = 12.83109 19.58495 16.20802
#
# Velocity S-wave (km/s) = 2.70035 3.33618 3.03496
# Velocity P-wave (km/s) = 5.48370 7.14780 6.37032
#
# Compressibility (1/GPa) = 0.02792833
#
# Stress axis : x y z
#
# Youngs Moduli (GPa) = 27.43351 103.82318 51.94295
#
# Poissons Ratio (x) = 0.66059 0.32501
# Poissons Ratio (y) = 0.17455 0.31601
# Poissons Ratio (z) = 0.17165 0.63164
#
# Static dielectric constant tensor:
#      x y z
#    x 3.123600 0.000000 0.000000 
#    y 0.000000 3.810460 0.000000 
#    z 0.000000 0.000000 3.005080 
# 
# 
# High freq. dielectric constant tensor:
#      x y z
#    x 1.666790 0.000000 0.000000 
#    y 0.000000 1.708710 0.000000 
#    z 0.000000 0.000000 1.633910 
# 
# From -- ./inp_files/15821.got.cif
#   From: 2010.03.12/outbox.cif.g09.slc.cpg/sg36_8_cif.got.tgz:15821.got - 2010.04.14 02:13:53.
