data_PCOD8175581
_publ_section_title
;
Structure prediction by ZEFSAII (Michael W. Deem and Ramdas Pophale) SiO2 
 PCOD8175581
Probable space group: C M C 21
;
_chemical_formula_sum "Si O2"
_cell_formula_units_Z 56
_cell_length_a 13.870772
_cell_length_b 12.132454
_cell_length_c 14.828160
_cell_angle_alpha 90.000000
_cell_angle_beta 90.000000
_cell_angle_gamma 90.000000
_cell_volume 2495.379196
_symmetry_space_group_name_H-M "C M C 21"
_symmetry_group_IT_number 36
_symmetry_cell_setting 'orthorhombic'
loop_
_space_group_symop_operation_xyz
x,y,z
-x,-y,1/2+z
x,-y,1/2+z
-x,y,z
1/2+x,1/2+y,z
1/2-x,1/2-y,1/2+z
1/2+x,1/2-y,1/2+z
1/2-x,1/2+y,z
loop_
_atom_site_type_symbol
_atom_site_label
_atom_site_fract_x
_atom_site_fract_y
_atom_site_fract_z
Si Si1 0.384919 0.175354 0.413370
Si Si2 0.385413 0.883563 0.719998
Si Si3 0.894032 0.333446 0.413223
Si Si4 0.108344 0.485797 0.059949
Si Si5 0.388244 0.411992 0.976998
Si Si6 0.699406 0.403832 0.357793
Si Si7 0.885902 0.858867 0.175911
O O1 0.500000 0.177104 0.417249
O O2 0.353680 0.104083 0.324503
O O3 0.340592 0.111875 0.501294
O O4 0.347916 0.298996 0.407920
O O5 0.500000 0.884758 0.709144
O O6 0.346170 0.765715 0.684530
O O7 0.342828 0.983432 0.657075
O O8 0.891872 0.399071 0.506683
O O9 0.871716 0.207180 0.434409
O O10 0.813564 0.381425 0.346089
O O11 0.000000 0.346910 0.367595
O O12 0.000000 0.444187 0.076660
O O13 0.500000 0.447521 0.968829
O O14 0.319834 0.494403 0.923448
O O15 0.354520 0.413034 0.081468
O O16 0.656284 0.429237 0.259444
O O17 0.000000 0.859516 0.185285
#
# Coordination Sequence:
#
# PCOD8175581 Si02
#       7
#     8   8   8   8   8   8   8
#     4   9  18  31  56  91 122 151 198 259 313 360
#     4   8  13  27  52  82 113 157 204 237 288 375
#     4  10  22  39  60  87 122 168 212 253 309 374
#     4   9  16  31  55  80 114 156 198 244 298 361
#     4  10  20  39  67  93 124 167 211 259 317 382
#     4  11  22  36  63  93 126 158 215 265 313 365
#     4   9  17  35  63  94 123 163 214 255 310 389
#
# _framework density 22.441479000000001
#
# number of rings (size 3 to 8) (size 9 to 14) (size 15 to 20)
#    0.000    2.571    1.429    2.143    2.000    0.000 
#    0.000    2.857    3.143    2.571    0.000    0.000 
#    0.000    0.000    0.000    0.000    0.000    0.000 
#
# Total GULP energy -347006.969281 kJ/mol
# GULP energy per Si atom -12393.106046 kJ/mol
# Density = 2.239040 g / cm^3
# Si number density = 22.441479 Si / 1000 Ang^3
#
#
#
# Elastic Constant Matrix: (Units=GPa)
#
#
# Indices 1 2 3 4 5 6 
#
# 1 64.7009 33.6612 53.2244 0.0000 0.0000 0.0000
# 2 33.6612 88.3036 32.5913 0.0000 0.0000 0.0000
# 3 53.2244 32.5913 87.8948 0.0000 0.0000 0.0000
# 4 0.0000 0.0000 0.0000 38.4311 0.0000 0.0000
# 5 0.0000 0.0000 0.0000 0.0000 19.0875 0.0000
# 6 0.0000 0.0000 0.0000 0.0000 0.0000 19.6974
#
#
#
# Elastic Compliance Matrix: (Units=1/GPa)
#
#
# Indices 1 2 3 4 5 6 
#
# 1 0.033415 -0.006105 -0.017971 0.000000 0.000000 0.000000
# 2 -0.006105 0.014236 -0.001582 0.000000 0.000000 0.000000
# 3 -0.017971 -0.001582 0.022846 0.000000 0.000000 0.000000
# 4 0.000000 0.000000 0.000000 0.026021 0.000000 0.000000
# 5 0.000000 0.000000 0.000000 0.000000 0.052390 0.000000
# 6 0.000000 0.000000 0.000000 0.000000 0.000000 0.050768
#
#
# Mechanical properties :
#
#
# Convention : Reuss Voigt Hill
#
# Bulk Modulus (GPa) = 52.13302 53.31700 52.72501
# Shear Modulus (GPa) = 19.42626 23.53804 21.48215
#
# Velocity S-wave (km/s) = 2.94537 3.24213 3.09731
# Velocity P-wave (km/s) = 5.90322 6.15020 6.02798
#
# Compressibility (1/GPa) = 0.01918170
#
# Stress axis : x y z
#
# Youngs Moduli (GPa) = 29.92670 70.24659 43.77192
#
# Poissons Ratio (x) = 0.42886 0.78661
# Poissons Ratio (y) = 0.18271 0.06923
# Poissons Ratio (z) = 0.53780 0.11110
#
# Static dielectric constant tensor:
#      x y z
#    x 3.953340 0.000000 0.000000 
#    y 0.000000 3.949400 0.000000 
#    z 0.000000 0.000000 4.206180 
# 
# 
# High freq. dielectric constant tensor:
#      x y z
#    x 1.872970 0.000000 0.000000 
#    y 0.000000 1.874720 0.000000 
#    z 0.000000 0.000000 1.876790 
# 
# From -- ./inp_files/12163.got.cif
#   From: 2010.03.12/outbox.cif.g09.slc.cpg/sg36_7_cif.got.tgz:12163.got - 2010.04.14 02:13:53.
