data_PCOD8175304
_publ_section_title
;
Structure prediction by ZEFSAII (Michael W. Deem and Ramdas Pophale) SiO2 
 PCOD8175304
Probable space group: C M C 21
;
_chemical_formula_sum "Si O2"
_cell_formula_units_Z 56
_cell_length_a 15.704969
_cell_length_b 19.321057
_cell_length_c 9.289647
_cell_angle_alpha 90.000000
_cell_angle_beta 90.000000
_cell_angle_gamma 90.000000
_cell_volume 2818.818912
_symmetry_space_group_name_H-M "C M C 21"
_symmetry_group_IT_number 36
_symmetry_cell_setting 'orthorhombic'
loop_
_space_group_symop_operation_xyz
x,y,z
-x,-y,1/2+z
x,-y,1/2+z
-x,y,z
1/2+x,1/2+y,z
1/2-x,1/2-y,1/2+z
1/2+x,1/2-y,1/2+z
1/2-x,1/2+y,z
loop_
_atom_site_type_symbol
_atom_site_label
_atom_site_fract_x
_atom_site_fract_y
_atom_site_fract_z
Si Si1 0.838135 0.333707 0.077780
Si Si2 0.597008 0.439759 0.755150
Si Si3 0.168005 0.173784 0.746765
Si Si4 0.500000 0.926455 0.081823
Si Si5 0.000000 0.426454 0.742761
Si Si6 0.597009 0.560241 0.569435
Si Si7 0.168003 0.826216 0.577821
Si Si8 0.661866 0.166293 0.246806
O O1 0.759208 0.348256 0.181737
O O2 0.917326 0.381334 0.126156
O O3 0.860123 0.252940 0.095898
O O4 0.813095 0.348976 0.912293
O O5 0.500000 0.461024 0.779535
O O6 0.643580 0.500000 0.662292
O O7 0.598731 0.368344 0.667650
O O8 0.641493 0.432897 0.912292
O O9 0.098732 0.131656 0.656936
O O10 0.139878 0.252940 0.728687
O O11 0.167801 0.151047 0.912293
O O12 0.500000 0.000001 0.162291
O O13 0.500000 0.940990 0.912292
O O14 0.917326 0.381333 0.698429
O O15 0.500000 0.538977 0.545048
O O16 0.259206 0.848256 0.642850
#
# Coordination Sequence:
#
# PCOD8175304 Si02
#       8
#     8   8   8   4   4   8   8   8
#     4   9  20  38  58  81 113 149 190 234 282 340
#     4  10  21  36  54  80 113 147 184 227 276 333
#     4  10  20  35  59  85 112 148 189 234 285 338
#     4  10  22  40  60  84 113 152 193 238 289 340
#     4  10  22  40  60  84 113 152 193 238 289 340
#     4  10  21  36  54  80 113 147 184 227 276 333
#     4  10  20  35  59  85 112 148 189 234 285 338
#     4   9  20  38  58  81 113 149 190 234 282 340
#
# _framework density 19.866477
#
# number of rings (size 3 to 8) (size 9 to 14) (size 15 to 20)
#    0.000    2.286    0.000    1.714    2.000    5.143 
#    0.000    2.857    0.000    0.000    0.000    0.000 
#    0.000    0.000    0.000    0.000    0.000    0.000 
#
# Total GULP energy -347071.472660 kJ/mol
# GULP energy per Si atom -12395.409738 kJ/mol
# Density = 1.982126 g / cm^3
# Si number density = 19.866477 Si / 1000 Ang^3
#
#
#
# Elastic Constant Matrix: (Units=GPa)
#
#
# Indices 1 2 3 4 5 6 
#
# 1 66.9243 50.0657 34.2686 0.0000 0.0000 0.0000
# 2 50.0657 116.7688 70.3443 0.0000 0.0000 0.0000
# 3 34.2686 70.3443 147.5941 0.0000 0.0000 0.0000
# 4 0.0000 0.0000 0.0000 38.1113 0.0000 0.0000
# 5 0.0000 0.0000 0.0000 0.0000 27.8992 0.0000
# 6 0.0000 0.0000 0.0000 0.0000 0.0000 26.2762
#
#
#
# Elastic Compliance Matrix: (Units=1/GPa)
#
#
# Indices 1 2 3 4 5 6 
#
# 1 0.022076 -0.008946 -0.000862 0.000000 0.000000 0.000000
# 2 -0.008946 0.015638 -0.005376 0.000000 0.000000 0.000000
# 3 -0.000862 -0.005376 0.009538 0.000000 0.000000 0.000000
# 4 0.000000 0.000000 0.000000 0.026239 0.000000 0.000000
# 5 0.000000 0.000000 0.000000 0.000000 0.035843 0.000000
# 6 0.000000 0.000000 0.000000 0.000000 0.000000 0.038057
#
#
# Mechanical properties :
#
#
# Convention : Reuss Voigt Hill
#
# Bulk Modulus (GPa) = 59.22819 71.18271 65.20545
# Shear Modulus (GPa) = 27.26455 30.23126 28.74791
#
# Velocity S-wave (km/s) = 3.70860 3.90516 3.80815
# Velocity P-wave (km/s) = 6.94378 7.49947 7.22697
#
# Compressibility (1/GPa) = 0.01688385
#
# Stress axis : x y z
#
# Youngs Moduli (GPa) = 45.29780 63.94493 104.84576
#
# Poissons Ratio (x) = 0.57206 0.09037
# Poissons Ratio (y) = 0.40524 0.56368
# Poissons Ratio (z) = 0.03904 0.34379
#
# Static dielectric constant tensor:
#      x y z
#    x 3.360870 0.000000 0.000000 
#    y 0.000000 3.619120 0.000000 
#    z 0.000000 0.000000 3.930730 
# 
# 
# High freq. dielectric constant tensor:
#      x y z
#    x 1.754290 0.000000 0.000000 
#    y 0.000000 1.779160 0.000000 
#    z 0.000000 0.000000 1.787030 
# 
# From -- ./inp_files/4247.got.cif
#   From: 2010.03.12/outbox.cif.g09.slc.cpg/sg36_3_cif.got.tgz:4247.got - 2010.04.14 02:13:53.
