data_PCOD8175460
_publ_section_title
;
Structure prediction by ZEFSAII (Michael W. Deem and Ramdas Pophale) SiO2 
 PCOD8175460
Probable space group: C M C 21
;
_chemical_formula_sum "Si O2"
_cell_formula_units_Z 64
_cell_length_a 8.775075
_cell_length_b 17.570321
_cell_length_c 20.466183
_cell_angle_alpha 90.000000
_cell_angle_beta 90.000000
_cell_angle_gamma 90.000000
_cell_volume 3155.494198
_symmetry_space_group_name_H-M "C M C 21"
_symmetry_group_IT_number 36
_symmetry_cell_setting 'orthorhombic'
loop_
_space_group_symop_operation_xyz
x,y,z
-x,-y,1/2+z
x,-y,1/2+z
-x,y,z
1/2+x,1/2+y,z
1/2-x,1/2-y,1/2+z
1/2+x,1/2-y,1/2+z
1/2-x,1/2+y,z
loop_
_atom_site_type_symbol
_atom_site_label
_atom_site_fract_x
_atom_site_fract_y
_atom_site_fract_z
Si Si1 0.680143 0.584775 0.813960
Si Si2 0.321379 0.832954 0.192877
Si Si3 0.175054 0.089061 0.572350
Si Si4 0.323005 0.922929 0.815638
Si Si5 0.179832 0.164577 0.942796
Si Si6 0.823391 0.087681 0.073727
Si Si7 0.178694 0.661839 0.447608
Si Si8 0.677599 0.171743 0.189650
O O1 0.500000 0.589902 0.812565
O O2 0.740387 0.640049 0.758267
O O3 0.728463 0.498503 0.801638
O O4 0.746848 0.614932 0.882986
O O5 0.500000 0.837305 0.203473
O O6 0.277135 0.887361 0.133366
O O7 0.273115 0.747361 0.176251
O O8 0.224457 0.134271 0.508476
O O9 0.000000 0.108253 0.588227
O O10 0.199392 0.000586 0.558535
O O11 0.500000 0.944421 0.812790
O O12 0.276553 0.888439 0.885236
O O13 0.282173 0.860934 0.760865
O O14 0.227232 0.251810 0.932711
O O15 0.000000 0.154721 0.943368
O O16 0.243350 0.133352 0.011484
O O17 0.724057 0.109298 0.136335
O O18 0.000000 0.107591 0.087171
O O19 0.000000 0.655883 0.463937
O O20 0.500000 0.190917 0.183653
#
# Coordination Sequence:
#
# PCOD8175460 Si02
#       8
#     8   8   8   8   8   8   8   8
#     4  11  22  39  63  88 117 156 202 249 296 348
#     4  12  25  41  61  86 118 155 196 244 300 359
#     4  11  23  39  60  89 122 156 199 246 293 351
#     4  10  22  39  59  87 123 160 198 241 295 356
#     4   9  19  37  60  85 115 154 196 239 291 346
#     4  10  21  38  60  87 120 157 195 238 291 350
#     4  10  20  37  61  86 117 159 202 245 296 351
#     4  11  23  40  62  88 118 153 196 244 292 349
#
# _framework density 20.282086
#
# number of rings (size 3 to 8) (size 9 to 14) (size 15 to 20)
#    0.000    1.500    0.000    5.250    0.000    8.500 
#    0.000    3.750    0.000    0.000    0.000    0.000 
#    0.000    0.000    0.000    0.000    0.000    0.000 
#
# Total GULP energy -397005.178825 kJ/mol
# GULP energy per Si atom -12406.411838 kJ/mol
# Density = 2.023592 g / cm^3
# Si number density = 20.282086 Si / 1000 Ang^3
#
#
#
# Elastic Constant Matrix: (Units=GPa)
#
#
# Indices 1 2 3 4 5 6 
#
# 1 55.1980 30.9239 28.3661 0.0000 0.0000 0.0000
# 2 30.9239 85.8957 15.6839 0.0000 0.0000 0.0000
# 3 28.3661 15.6839 112.7553 0.0000 0.0000 0.0000
# 4 0.0000 0.0000 0.0000 41.2576 0.0000 0.0000
# 5 0.0000 0.0000 0.0000 0.0000 33.0506 0.0000
# 6 0.0000 0.0000 0.0000 0.0000 0.0000 27.3859
#
#
#
# Elastic Compliance Matrix: (Units=1/GPa)
#
#
# Indices 1 2 3 4 5 6 
#
# 1 0.025402 -0.008186 -0.005252 0.000000 0.000000 0.000000
# 2 -0.008186 0.014584 0.000031 0.000000 0.000000 0.000000
# 3 -0.005252 0.000031 0.010186 0.000000 0.000000 0.000000
# 4 0.000000 0.000000 0.000000 0.024238 0.000000 0.000000
# 5 0.000000 0.000000 0.000000 0.000000 0.030257 0.000000
# 6 0.000000 0.000000 0.000000 0.000000 0.000000 0.036515
#
#
# Mechanical properties :
#
#
# Convention : Reuss Voigt Hill
#
# Bulk Modulus (GPa) = 42.81379 44.86633 43.84006
# Shear Modulus (GPa) = 28.44466 32.26382 30.35424
#
# Velocity S-wave (km/s) = 3.74900 3.99275 3.87279
# Velocity P-wave (km/s) = 6.31625 6.58979 6.45447
#
# Compressibility (1/GPa) = 0.02335696
#
# Stress axis : x y z
#
# Youngs Moduli (GPa) = 39.36762 68.57059 98.17732
#
# Poissons Ratio (x) = 0.56132 0.51560
# Poissons Ratio (y) = 0.32227 -0.00303
# Poissons Ratio (z) = 0.20675 -0.00212
#
# Static dielectric constant tensor:
#      x y z
#    x 3.565140 0.000000 0.000000 
#    y 0.000000 3.709060 0.000000 
#    z 0.000000 0.000000 3.902240 
# 
# 
# High freq. dielectric constant tensor:
#      x y z
#    x 1.779220 0.000000 0.000000 
#    y 0.000000 1.806610 0.000000 
#    z 0.000000 0.000000 1.809800 
# 
# From -- ./inp_files/15647.got.cif
#   From: 2010.03.12/outbox.cif.g09.slc.cpg/sg36_8_cif.got.tgz:15647.got - 2010.04.14 02:13:53.
