data_PCOD8175843
_publ_section_title
;
Structure prediction by ZEFSAII (Michael W. Deem and Ramdas Pophale) SiO2 
 PCOD8175843
Probable space group: C M C 21
;
_chemical_formula_sum "Si O2"
_cell_formula_units_Z 48
_cell_length_a 16.243100
_cell_length_b 9.486471
_cell_length_c 16.603767
_cell_angle_alpha 90.000000
_cell_angle_beta 90.000000
_cell_angle_gamma 90.000000
_cell_volume 2558.469428
_symmetry_space_group_name_H-M "C M C 21"
_symmetry_group_IT_number 36
_symmetry_cell_setting 'orthorhombic'
loop_
_space_group_symop_operation_xyz
x,y,z
-x,-y,1/2+z
x,-y,1/2+z
-x,y,z
1/2+x,1/2+y,z
1/2-x,1/2-y,1/2+z
1/2+x,1/2-y,1/2+z
1/2-x,1/2+y,z
loop_
_atom_site_type_symbol
_atom_site_label
_atom_site_fract_x
_atom_site_fract_y
_atom_site_fract_z
Si Si1 0.403933 0.517751 0.619160
Si Si2 0.405352 0.011244 0.761081
Si Si3 0.175282 0.216949 0.743466
Si Si4 0.774126 0.603726 0.886660
Si Si5 0.831379 0.716659 0.637934
Si Si6 0.720191 0.358435 0.996001
O O1 0.500000 0.546856 0.610288
O O2 0.370373 0.586221 0.701392
O O3 0.387821 0.351265 0.620948
O O4 0.360106 0.587380 0.542401
O O5 0.500000 0.029108 0.783283
O O6 0.354848 0.075951 0.834553
O O7 0.385123 0.095629 0.679647
O O8 0.386195 0.847570 0.747906
O O9 0.201383 0.169576 0.832600
O O10 0.254906 0.265509 0.692921
O O11 0.740543 0.458318 0.921500
O O12 0.799060 0.704946 0.960058
O O13 0.798715 0.651099 0.554713
#
# Coordination Sequence:
#
# PCOD8175843 Si02
#       6
#     8   8   8   8   8   8
#     4  11  23  39  60  90 120 152 197 249 296 341
#     4  11  23  39  60  90 120 152 197 249 296 341
#     4  10  21  39  63  84 116 160 201 236 285 362
#     4  11  22  40  64  87 116 158 202 239 289 360
#     4  10  21  39  63  84 116 160 201 236 285 362
#     4  11  22  40  64  87 116 158 202 239 289 360
#
# _framework density 18.761218
#
# number of rings (size 3 to 8) (size 9 to 14) (size 15 to 20)
#    0.000    1.333    3.333    4.000    4.667    0.667 
#    0.000    5.000    0.000    0.000    0.000    0.000 
#    0.000    0.000    0.000    0.000    0.000    0.000 
#
# Total GULP energy -297747.263893 kJ/mol
# GULP energy per Si atom -12406.135996 kJ/mol
# Density = 1.871852 g / cm^3
# Si number density = 18.761218 Si / 1000 Ang^3
#
#
#
# Elastic Constant Matrix: (Units=GPa)
#
#
# Indices 1 2 3 4 5 6 
#
# 1 118.5483 35.2347 34.2188 0.0000 0.0000 0.0000
# 2 35.2347 83.1540 26.2992 0.0000 0.0000 0.0000
# 3 34.2188 26.2992 89.6853 0.0000 0.0000 0.0000
# 4 0.0000 0.0000 0.0000 42.1500 0.0000 0.0000
# 5 0.0000 0.0000 0.0000 0.0000 17.2136 0.0000
# 6 0.0000 0.0000 0.0000 0.0000 0.0000 27.4948
#
#
#
# Elastic Compliance Matrix: (Units=1/GPa)
#
#
# Indices 1 2 3 4 5 6 
#
# 1 0.010301 -0.003441 -0.002921 0.000000 0.000000 0.000000
# 2 -0.003441 0.014405 -0.002911 0.000000 0.000000 0.000000
# 3 -0.002921 -0.002911 0.013118 0.000000 0.000000 0.000000
# 4 0.000000 0.000000 0.000000 0.023725 0.000000 0.000000
# 5 0.000000 0.000000 0.000000 0.000000 0.058094 0.000000
# 6 0.000000 0.000000 0.000000 0.000000 0.000000 0.036371
#
#
# Mechanical properties :
#
#
# Convention : Reuss Voigt Hill
#
# Bulk Modulus (GPa) = 51.87426 53.65477 52.76452
# Shear Modulus (GPa) = 27.62641 30.41400 29.02021
#
# Velocity S-wave (km/s) = 3.84152 4.03067 3.93723
# Velocity P-wave (km/s) = 6.88375 7.09384 6.98959
#
# Compressibility (1/GPa) = 0.01927738
#
# Stress axis : x y z
#
# Youngs Moduli (GPa) = 97.07452 69.42207 76.22899
#
# Poissons Ratio (x) = 0.23888 0.22269
# Poissons Ratio (y) = 0.33404 0.22191
# Poissons Ratio (z) = 0.28359 0.20209
#
# Static dielectric constant tensor:
#      x y z
#    x 3.266210 0.000000 0.000000 
#    y 0.000000 3.507130 0.000000 
#    z 0.000000 0.000000 3.508980 
# 
# 
# High freq. dielectric constant tensor:
#      x y z
#    x 1.713620 0.000000 0.000000 
#    y 0.000000 1.745890 0.000000 
#    z 0.000000 0.000000 1.734700 
# 
# From -- ./inp_files/12499.got.cif
#   From: 2010.03.12/outbox.cif.g09.slc.cpg/sg36_7_cif.got.tgz:12499.got - 2010.04.14 02:13:53.
