data_PCOD8175889
_publ_section_title
;
Structure prediction by ZEFSAII (Michael W. Deem and Ramdas Pophale) SiO2 
 PCOD8175889
Probable space group: C M C 21
;
_chemical_formula_sum "Si O2"
_cell_formula_units_Z 48
_cell_length_a 8.542301
_cell_length_b 23.728344
_cell_length_c 11.703421
_cell_angle_alpha 90.000000
_cell_angle_beta 90.000000
_cell_angle_gamma 90.000000
_cell_volume 2372.220902
_symmetry_space_group_name_H-M "C M C 21"
_symmetry_group_IT_number 36
_symmetry_cell_setting 'orthorhombic'
loop_
_space_group_symop_operation_xyz
x,y,z
-x,-y,1/2+z
x,-y,1/2+z
-x,y,z
1/2+x,1/2+y,z
1/2-x,1/2-y,1/2+z
1/2+x,1/2-y,1/2+z
1/2-x,1/2+y,z
loop_
_atom_site_type_symbol
_atom_site_label
_atom_site_fract_x
_atom_site_fract_y
_atom_site_fract_z
Si Si1 0.180486 0.956799 0.178490
Si Si2 0.818646 0.165539 0.302214
Si Si3 0.181834 0.293439 0.265032
Si Si4 0.320323 0.924489 0.637594
Si Si5 0.180080 0.639458 0.540465
Si Si6 0.680481 0.609452 0.902668
O O1 0.284168 0.923144 0.086679
O O2 0.221709 0.936592 0.306220
O O3 0.000000 0.944421 0.150910
O O4 0.213211 0.022654 0.169595
O O5 0.766519 0.228911 0.273310
O O6 0.713859 0.125211 0.225573
O O7 0.790874 0.153140 0.434784
O O8 0.000000 0.155893 0.272639
O O9 0.219367 0.314811 0.137693
O O10 0.282530 0.328163 0.356738
O O11 0.000000 0.302076 0.294693
O O12 0.500000 0.942467 0.648519
O O13 0.287692 0.903647 0.510264
O O14 0.000000 0.642323 0.502101
O O15 0.500000 0.606584 0.939904
#
# Coordination Sequence:
#
# PCOD8175889 Si02
#       6
#     8   8   8   8   8   8
#     4  10  22  42  66  91 121 162 205 252 309 370
#     4  11  24  41  62  92 127 164 206 254 306 363
#     4   9  21  41  64  91 124 162 204 252 306 363
#     4  12  26  41  62  92 126 163 206 256 306 363
#     4  10  21  40  64  92 124 162 205 254 308 365
#     4  10  22  41  66  92 122 161 204 252 309 368
#
# _framework density 20.234203999999998
#
# number of rings (size 3 to 8) (size 9 to 14) (size 15 to 20)
#    0.000    1.667    0.000    3.500    4.667    4.000 
#    0.000    0.000    0.000    0.000    0.000    0.000 
#    0.000    0.000    0.000    0.000    0.000    0.000 
#
# Total GULP energy -297783.538689 kJ/mol
# GULP energy per Si atom -12407.647445 kJ/mol
# Density = 2.018815 g / cm^3
# Si number density = 20.234204 Si / 1000 Ang^3
#
#
#
# Elastic Constant Matrix: (Units=GPa)
#
#
# Indices 1 2 3 4 5 6 
#
# 1 50.6541 14.8948 25.8029 0.0000 0.0000 0.0000
# 2 14.8948 128.2102 51.3046 0.0000 0.0000 0.0000
# 3 25.8029 51.3046 108.4757 0.0000 0.0000 0.0000
# 4 0.0000 0.0000 0.0000 20.7616 0.0000 0.0000
# 5 0.0000 0.0000 0.0000 0.0000 34.6411 0.0000
# 6 0.0000 0.0000 0.0000 0.0000 0.0000 32.7418
#
#
#
# Elastic Compliance Matrix: (Units=1/GPa)
#
#
# Indices 1 2 3 4 5 6 
#
# 1 0.022499 -0.000582 -0.005076 0.000000 0.000000 0.000000
# 2 -0.000582 0.009636 -0.004419 0.000000 0.000000 0.000000
# 3 -0.005076 -0.004419 0.012516 0.000000 0.000000 0.000000
# 4 0.000000 0.000000 0.000000 0.048166 0.000000 0.000000
# 5 0.000000 0.000000 0.000000 0.000000 0.028867 0.000000
# 6 0.000000 0.000000 0.000000 0.000000 0.000000 0.030542
#
#
# Mechanical properties :
#
#
# Convention : Reuss Voigt Hill
#
# Bulk Modulus (GPa) = 40.82377 52.37163 46.59770
# Shear Modulus (GPa) = 27.69383 30.65141 29.17262
#
# Velocity S-wave (km/s) = 3.70356 3.89631 3.80116
# Velocity P-wave (km/s) = 6.20547 6.79562 6.50724
#
# Compressibility (1/GPa) = 0.02449553
#
# Stress axis : x y z
#
# Youngs Moduli (GPa) = 44.44675 103.78258 79.89784
#
# Poissons Ratio (x) = 0.06045 0.40558
# Poissons Ratio (y) = 0.02589 0.35304
# Poissons Ratio (z) = 0.22562 0.45858
#
# Static dielectric constant tensor:
#      x y z
#    x 3.616980 0.000000 0.000000 
#    y 0.000000 3.701110 0.000000 
#    z 0.000000 0.000000 3.650250 
# 
# 
# High freq. dielectric constant tensor:
#      x y z
#    x 1.796480 0.000000 0.000000 
#    y 0.000000 1.796100 0.000000 
#    z 0.000000 0.000000 1.794350 
# 
# From -- ./inp_files/6746.got.cif
#   From: 2010.03.12/outbox.cif.g09.slc.cpg/sg36_4_cif.got.tgz:6746.got - 2010.04.14 02:13:53.
