data_PCOD8175145
_publ_section_title
;
Structure prediction by ZEFSAII (Michael W. Deem and Ramdas Pophale) SiO2 
 PCOD8175145
Probable space group: C M C 21
;
_chemical_formula_sum "Si O2"
_cell_formula_units_Z 64
_cell_length_a 8.597256
_cell_length_b 28.657666
_cell_length_c 12.781438
_cell_angle_alpha 90.000000
_cell_angle_beta 90.000000
_cell_angle_gamma 90.000000
_cell_volume 3149.056069
_symmetry_space_group_name_H-M "C M C 21"
_symmetry_group_IT_number 36
_symmetry_cell_setting 'orthorhombic'
loop_
_space_group_symop_operation_xyz
x,y,z
-x,-y,1/2+z
x,-y,1/2+z
-x,y,z
1/2+x,1/2+y,z
1/2-x,1/2-y,1/2+z
1/2+x,1/2-y,1/2+z
1/2-x,1/2+y,z
loop_
_atom_site_type_symbol
_atom_site_label
_atom_site_fract_x
_atom_site_fract_y
_atom_site_fract_z
Si Si1 0.670875 0.836083 0.313500
Si Si2 0.815126 0.581907 0.949646
Si Si3 0.318700 0.261067 0.179490
Si Si4 0.315545 0.080746 0.186612
Si Si5 0.830978 0.405280 0.121130
Si Si6 0.814244 0.518341 0.765072
Si Si7 0.315146 0.178066 0.498599
Si Si8 0.818702 0.825651 0.775717
O O1 0.500000 0.815612 0.343452
O O2 0.742661 0.866989 0.408882
O O3 0.782588 0.793672 0.280380
O O4 0.648642 0.870808 0.217974
O O5 0.757207 0.573850 0.067435
O O6 0.000000 0.581903 0.944336
O O7 0.752176 0.539771 0.875021
O O8 0.500000 0.250757 0.175476
O O9 0.228638 0.212100 0.188733
O O10 0.264959 0.283276 0.070622
O O11 0.500000 0.089257 0.191812
O O12 0.226586 0.123375 0.237283
O O13 0.264315 0.035215 0.252809
O O14 0.744223 0.451522 0.165889
O O15 0.000000 0.420774 0.077727
O O16 0.749292 0.374155 0.030228
O O17 0.000000 0.523377 0.759391
O O18 0.500000 0.179980 0.517304
O O19 0.274828 0.188041 0.379679
O O20 0.000000 0.823857 0.799403
#
# Coordination Sequence:
#
# PCOD8175145 Si02
#       8
#     8   8   8   8   8   8   8   8
#     4   8  14  29  52  78 110 145 183 229 278 327
#     4   8  15  29  52  82 114 148 187 233 282 332
#     4  11  22  38  60  86 113 144 188 235 285 342
#     4  10  20  34  54  81 112 146 190 241 288 335
#     4   7  12  25  50  82 110 136 172 222 275 329
#     4   8  14  27  51  84 115 144 184 233 282 335
#     4  10  20  38  63  89 115 144 183 231 286 342
#     4  12  26  42  56  76 113 155 193 234 282 334
#
# _framework density 20.323550999999998
#
# number of rings (size 3 to 8) (size 9 to 14) (size 15 to 20)
#    0.000    2.750    0.000    4.875    0.000    2.000 
#    0.000    8.125    0.000    9.750    0.000    0.000 
#    0.000    0.000    0.000    0.000    0.000    0.000 
#
# Total GULP energy -396499.117072 kJ/mol
# GULP energy per Si atom -12390.597408 kJ/mol
# Density = 2.027729 g / cm^3
# Si number density = 20.323551 Si / 1000 Ang^3
#
#
#
# Elastic Constant Matrix: (Units=GPa)
#
#
# Indices 1 2 3 4 5 6 
#
# 1 45.8740 21.7698 13.8607 0.0000 0.0000 0.0000
# 2 21.7698 128.1967 41.5366 0.0000 0.0000 0.0000
# 3 13.8607 41.5366 95.5731 0.0000 0.0000 0.0000
# 4 0.0000 0.0000 0.0000 28.2147 0.0000 0.0000
# 5 0.0000 0.0000 0.0000 0.0000 19.7860 0.0000
# 6 0.0000 0.0000 0.0000 0.0000 0.0000 23.9557
#
#
#
# Elastic Compliance Matrix: (Units=1/GPa)
#
#
# Indices 1 2 3 4 5 6 
#
# 1 0.024031 -0.003435 -0.001992 0.000000 0.000000 0.000000
# 2 -0.003435 0.009570 -0.003661 0.000000 0.000000 0.000000
# 3 -0.001992 -0.003661 0.012343 0.000000 0.000000 0.000000
# 4 0.000000 0.000000 0.000000 0.035443 0.000000 0.000000
# 5 0.000000 0.000000 0.000000 0.000000 0.050541 0.000000
# 6 0.000000 0.000000 0.000000 0.000000 0.000000 0.041744
#
#
# Mechanical properties :
#
#
# Convention : Reuss Voigt Hill
#
# Bulk Modulus (GPa) = 36.01358 47.10868 41.56113
# Shear Modulus (GPa) = 24.86274 27.22305 26.04289
#
# Velocity S-wave (km/s) = 3.50143 3.66387 3.58357
# Velocity P-wave (km/s) = 5.83997 6.41313 6.13325
#
# Compressibility (1/GPa) = 0.02776731
#
# Stress axis : x y z
#
# Youngs Moduli (GPa) = 41.61289 104.49236 81.01635
#
# Poissons Ratio (x) = 0.35897 0.16139
# Poissons Ratio (y) = 0.14296 0.29660
# Poissons Ratio (z) = 0.08290 0.38254
#
# Static dielectric constant tensor:
#      x y z
#    x 3.216820 0.000000 0.000000 
#    y 0.000000 3.975490 0.000000 
#    z 0.000000 0.000000 3.827930 
# 
# 
# High freq. dielectric constant tensor:
#      x y z
#    x 1.741920 0.000000 0.000000 
#    y 0.000000 1.800500 0.000000 
#    z 0.000000 0.000000 1.787750 
# 
# From -- ./inp_files/7237.got.cif
#   From: 2010.03.12/outbox.cif.g09.slc.cpg/sg36_4_cif.got.tgz:7237.got - 2010.04.14 02:13:53.
