data_PCOD8175829
_publ_section_title
;
Structure prediction by ZEFSAII (Michael W. Deem and Ramdas Pophale) SiO2 
 PCOD8175829
Probable space group: C M C 21
;
_chemical_formula_sum "Si O2"
_cell_formula_units_Z 64
_cell_length_a 14.400200
_cell_length_b 12.141621
_cell_length_c 17.358338
_cell_angle_alpha 90.000000
_cell_angle_beta 90.000000
_cell_angle_gamma 90.000000
_cell_volume 3034.962553
_symmetry_space_group_name_H-M "C M C 21"
_symmetry_group_IT_number 36
_symmetry_cell_setting 'orthorhombic'
loop_
_space_group_symop_operation_xyz
x,y,z
-x,-y,1/2+z
x,-y,1/2+z
-x,y,z
1/2+x,1/2+y,z
1/2-x,1/2-y,1/2+z
1/2+x,1/2-y,1/2+z
1/2-x,1/2+y,z
loop_
_atom_site_type_symbol
_atom_site_label
_atom_site_fract_x
_atom_site_fract_y
_atom_site_fract_z
Si Si1 0.789301 0.385461 0.258480
Si Si2 0.606737 0.645721 0.520733
Si Si3 0.606721 0.991373 0.536538
Si Si4 0.106349 0.289293 0.117935
Si Si5 0.289349 0.831259 0.429780
Si Si6 0.395784 0.331215 0.198005
Si Si7 0.103825 0.416483 0.703334
Si Si8 0.605676 0.610506 0.998191
O O1 0.829828 0.303972 0.192990
O O2 0.813614 0.331295 0.339897
O O3 0.678552 0.401619 0.245937
O O4 0.830335 0.507927 0.255100
O O5 0.500000 0.676543 0.503848
O O6 0.670509 0.719604 0.465908
O O7 0.631823 0.670808 0.608632
O O8 0.626589 0.518031 0.505832
O O9 0.500000 0.977553 0.511665
O O10 0.631983 0.119234 0.552777
O O11 0.669113 0.941182 0.469002
O O12 0.630091 0.922348 0.613341
O O13 0.000000 0.307486 0.143873
O O14 0.121224 0.168410 0.081696
O O15 0.177478 0.835750 0.438248
O O16 0.500000 0.379754 0.209295
O O17 0.389082 0.208075 0.231806
O O18 0.000000 0.463082 0.713526
O O19 0.500000 0.632502 0.969652
#
# Coordination Sequence:
#
# PCOD8175829 Si02
#       8
#     8   8   8   8   8   8   8   8
#     4  11  24  36  60  98 130 159 201 262 326 372
#     4  10  22  41  66  94 121 159 214 266 309 368
#     4   9  18  35  63  93 118 152 203 257 303 361
#     4   9  20  41  66  92 122 162 211 263 311 367
#     4  12  24  36  64  97 130 163 205 258 327 372
#     4  10  21  39  62  86 118 165 211 252 301 370
#     4   9  19  39  62  87 120 159 204 252 305 368
#     4  10  24  43  63  89 125 169 213 256 310 376
#
# _framework density 21.087575999999999
#
# number of rings (size 3 to 8) (size 9 to 14) (size 15 to 20)
#    0.000    2.000    1.250    2.250    5.250    3.500 
#    0.000    0.000    0.000    3.750    0.000    0.000 
#    0.000    0.000    0.000    0.000    0.000    0.000 
#
# Total GULP energy -396808.686336 kJ/mol
# GULP energy per Si atom -12400.271448 kJ/mol
# Density = 2.103958 g / cm^3
# Si number density = 21.087576 Si / 1000 Ang^3
#
#
#
# Elastic Constant Matrix: (Units=GPa)
#
#
# Indices 1 2 3 4 5 6 
#
# 1 112.6458 46.9180 53.2059 0.0000 0.0000 0.0000
# 2 46.9180 86.1864 37.5985 0.0000 0.0000 0.0000
# 3 53.2059 37.5985 93.3537 0.0000 0.0000 0.0000
# 4 0.0000 0.0000 0.0000 15.2479 0.0000 0.0000
# 5 0.0000 0.0000 0.0000 0.0000 13.5189 0.0000
# 6 0.0000 0.0000 0.0000 0.0000 0.0000 30.6186
#
#
#
# Elastic Compliance Matrix: (Units=1/GPa)
#
#
# Indices 1 2 3 4 5 6 
#
# 1 0.013666 -0.004903 -0.005814 0.000000 0.000000 0.000000
# 2 -0.004903 0.015835 -0.003583 0.000000 0.000000 0.000000
# 3 -0.005814 -0.003583 0.015469 0.000000 0.000000 0.000000
# 4 0.000000 0.000000 0.000000 0.065583 0.000000 0.000000
# 5 0.000000 0.000000 0.000000 0.000000 0.073971 0.000000
# 6 0.000000 0.000000 0.000000 0.000000 0.000000 0.032660
#
#
# Mechanical properties :
#
#
# Convention : Reuss Voigt Hill
#
# Bulk Modulus (GPa) = 61.09052 63.07007 62.08030
# Shear Modulus (GPa) = 19.90138 22.17465 21.03802
#
# Velocity S-wave (km/s) = 3.07538 3.24628 3.16199
# Velocity P-wave (km/s) = 6.45317 6.63511 6.54477
#
# Compressibility (1/GPa) = 0.01636915
#
# Stress axis : x y z
#
# Youngs Moduli (GPa) = 73.17664 63.15128 64.64696
#
# Poissons Ratio (x) = 0.30963 0.37585
# Poissons Ratio (y) = 0.35878 0.23164
# Poissons Ratio (z) = 0.42544 0.22628
#
# Static dielectric constant tensor:
#      x y z
#    x 4.042410 0.000000 0.000000 
#    y 0.000000 3.844800 0.000000 
#    z 0.000000 0.000000 3.393040 
# 
# 
# High freq. dielectric constant tensor:
#      x y z
#    x 1.842980 0.000000 0.000000 
#    y 0.000000 1.824340 0.000000 
#    z 0.000000 0.000000 1.787870 
# 
# From -- ./inp_files/14721.got.cif
#   From: 2010.03.12/outbox.cif.g09.slc.cpg/sg36_8_cif.got.tgz:14721.got - 2010.04.14 02:13:53.
