data_PCOD8175383
_publ_section_title
;
Structure prediction by ZEFSAII (Michael W. Deem and Ramdas Pophale) SiO2 
 PCOD8175383
Probable space group: C M C 21
;
_chemical_formula_sum "Si O2"
_cell_formula_units_Z 48
_cell_length_a 8.625738
_cell_length_b 20.374469
_cell_length_c 13.973021
_cell_angle_alpha 90.000000
_cell_angle_beta 90.000000
_cell_angle_gamma 90.000000
_cell_volume 2455.686221
_symmetry_space_group_name_H-M "C M C 21"
_symmetry_group_IT_number 36
_symmetry_cell_setting 'orthorhombic'
loop_
_space_group_symop_operation_xyz
x,y,z
-x,-y,1/2+z
x,-y,1/2+z
-x,y,z
1/2+x,1/2+y,z
1/2-x,1/2-y,1/2+z
1/2+x,1/2-y,1/2+z
1/2-x,1/2+y,z
loop_
_atom_site_type_symbol
_atom_site_label
_atom_site_fract_x
_atom_site_fract_y
_atom_site_fract_z
Si Si1 0.680357 0.695653 0.335290
Si Si2 0.682890 0.890194 0.139550
Si Si3 0.681914 0.437681 0.338091
Si Si4 0.684316 0.569045 0.442231
Si Si5 0.680522 0.738736 0.127277
Si Si6 0.681556 0.819842 0.445514
O O1 0.500000 0.695496 0.359337
O O2 0.753741 0.631265 0.384049
O O3 0.711720 0.697777 0.223138
O O4 0.751202 0.761013 0.381600
O O5 0.500000 0.893945 0.135642
O O6 0.736654 0.924348 0.237135
O O7 0.737291 0.814087 0.137199
O O8 0.751299 0.930240 0.050093
O O9 0.500000 0.439156 0.319432
O O10 0.741718 0.505798 0.383511
O O11 0.723656 0.383854 0.417190
O O12 0.500000 0.569918 0.448420
O O13 0.500000 0.736534 0.097931
O O14 0.787464 0.699344 0.054399
O O15 0.500000 0.832370 0.427191
#
# Coordination Sequence:
#
# PCOD8175383 Si02
#       6
#     8   8   8   8   8   8
#     4   9  18  36  60  84 114 152 199 247 292 349
#     4  11  22  38  62  91 123 158 196 248 310 363
#     4  11  24  40  61  89 124 164 204 245 295 364
#     4  10  22  41  63  87 118 162 205 245 297 359
#     4  10  20  36  59  90 122 157 197 245 303 359
#     4  11  21  37  61  89 119 155 199 252 301 348
#
# _framework density 19.546471
#
# number of rings (size 3 to 8) (size 9 to 14) (size 15 to 20)
#    0.000    1.667    3.333    1.500    0.000    3.333 
#    0.000    4.167    0.000    0.000    0.000    0.000 
#    0.000    0.000    0.000    0.000    0.000    0.000 
#
# Total GULP energy -297628.608866 kJ/mol
# GULP energy per Si atom -12401.192036 kJ/mol
# Density = 1.950198 g / cm^3
# Si number density = 19.546471 Si / 1000 Ang^3
#
#
#
# Elastic Constant Matrix: (Units=GPa)
#
#
# Indices 1 2 3 4 5 6 
#
# 1 30.3992 25.9163 22.2398 0.0000 0.0000 0.0000
# 2 25.9163 121.9228 47.5792 0.0000 0.0000 0.0000
# 3 22.2398 47.5792 109.2589 0.0000 0.0000 0.0000
# 4 0.0000 0.0000 0.0000 35.9368 0.0000 0.0000
# 5 0.0000 0.0000 0.0000 0.0000 34.5320 0.0000
# 6 0.0000 0.0000 0.0000 0.0000 0.0000 24.8838
#
#
#
# Elastic Compliance Matrix: (Units=1/GPa)
#
#
# Indices 1 2 3 4 5 6 
#
# 1 0.042976 -0.006893 -0.005746 0.000000 0.000000 0.000000
# 2 -0.006893 0.010987 -0.003381 0.000000 0.000000 0.000000
# 3 -0.005746 -0.003381 0.011795 0.000000 0.000000 0.000000
# 4 0.000000 0.000000 0.000000 0.027827 0.000000 0.000000
# 5 0.000000 0.000000 0.000000 0.000000 0.028959 0.000000
# 6 0.000000 0.000000 0.000000 0.000000 0.000000 0.040187
#
#
# Mechanical properties :
#
#
# Convention : Reuss Voigt Hill
#
# Bulk Modulus (GPa) = 29.65901 50.33907 39.99904
# Shear Modulus (GPa) = 24.27085 30.12687 27.19886
#
# Velocity S-wave (km/s) = 3.52760 3.93019 3.73432
# Velocity P-wave (km/s) = 5.63901 6.81210 6.25312
#
# Compressibility (1/GPa) = 0.03371656
#
# Stress axis : x y z
#
# Youngs Moduli (GPa) = 23.26895 91.02018 84.78378
#
# Poissons Ratio (x) = 0.62737 0.48719
# Poissons Ratio (y) = 0.16039 0.28668
# Poissons Ratio (z) = 0.13371 0.30777
#
# Static dielectric constant tensor:
#      x y z
#    x 3.347570 0.000000 0.000000 
#    y 0.000000 3.801480 0.000000 
#    z 0.000000 0.000000 3.603280 
# 
# 
# High freq. dielectric constant tensor:
#      x y z
#    x 1.744140 0.000000 0.000000 
#    y 0.000000 1.763560 0.000000 
#    z 0.000000 0.000000 1.775020 
# 
# From -- ./inp_files/10386.got.cif
#   From: 2010.03.12/outbox.cif.g09.slc.cpg/sg36_6_cif.got.tgz:10386.got - 2010.04.14 02:13:53.
