data_PCOD8175142
_publ_section_title
;
Structure prediction by ZEFSAII (Michael W. Deem and Ramdas Pophale) SiO2 
 PCOD8175142
Probable space group: C M C 21
;
_chemical_formula_sum "Si O2"
_cell_formula_units_Z 64
_cell_length_a 8.543637
_cell_length_b 18.631683
_cell_length_c 20.534719
_cell_angle_alpha 90.000000
_cell_angle_beta 90.000000
_cell_angle_gamma 90.000000
_cell_volume 3268.764545
_symmetry_space_group_name_H-M "C M C 21"
_symmetry_group_IT_number 36
_symmetry_cell_setting 'orthorhombic'
loop_
_space_group_symop_operation_xyz
x,y,z
-x,-y,1/2+z
x,-y,1/2+z
-x,y,z
1/2+x,1/2+y,z
1/2-x,1/2-y,1/2+z
1/2+x,1/2-y,1/2+z
1/2-x,1/2+y,z
loop_
_atom_site_type_symbol
_atom_site_label
_atom_site_fract_x
_atom_site_fract_y
_atom_site_fract_z
Si Si1 0.686879 0.957428 0.024750
Si Si2 0.185379 0.708813 0.136671
Si Si3 0.685503 0.951605 0.645914
Si Si4 0.184621 0.713410 0.898998
Si Si5 0.315960 0.795502 0.017013
Si Si6 0.815967 0.448044 0.408115
Si Si7 0.816044 0.201891 0.760295
Si Si8 0.815904 0.548216 0.763138
O O1 0.500000 0.957320 0.022595
O O2 0.749936 0.876202 0.025333
O O3 0.751437 0.998093 0.088423
O O4 0.757575 0.999021 0.961861
O O5 0.255478 0.628269 0.139736
O O6 0.238252 0.744738 0.070052
O O7 0.246829 0.752040 0.199332
O O8 0.000000 0.706553 0.137019
O O9 0.500000 0.948270 0.640698
O O10 0.736930 0.984952 0.714991
O O11 0.245636 0.633328 0.916755
O O12 0.227195 0.730298 0.824286
O O13 0.000000 0.720803 0.909024
O O14 0.272895 0.769321 0.944927
O O15 0.500000 0.793736 0.027066
O O16 0.772343 0.476860 0.336192
O O17 0.000000 0.446296 0.417757
O O18 0.777231 0.119636 0.744358
O O19 0.000000 0.211789 0.771014
O O20 0.000000 0.565800 0.757330
#
# Coordination Sequence:
#
# PCOD8175142 Si02
#       8
#     8   8   8   8   8   8   8   8
#     4   9  17  29  48  74 100 127 166 217 261 299
#     4  10  21  36  55  78 106 142 181 220 260 309
#     4   9  17  31  52  75  98 132 181 222 249 294
#     4  10  20  36  58  79 104 141 179 215 259 315
#     4  11  22  34  53  81 109 136 170 218 272 319
#     4   8  15  29  51  75  96 126 170 213 250 295
#     4  10  20  34  54  81 111 140 173 217 267 316
#     4   9  17  31  53  77 100 132 174 216 258 307
#
# _framework density 19.579263000000001
#
# number of rings (size 3 to 8) (size 9 to 14) (size 15 to 20)
#    0.000    2.500    0.000    3.375    0.000    5.000 
#    0.000    4.375    0.000   16.500    0.000    0.000 
#    0.000    0.000    0.000    0.000    0.000    0.000 
#
# Total GULP energy -396793.592444 kJ/mol
# GULP energy per Si atom -12399.799764 kJ/mol
# Density = 1.953470 g / cm^3
# Si number density = 19.579263 Si / 1000 Ang^3
#
#
#
# Elastic Constant Matrix: (Units=GPa)
#
#
# Indices 1 2 3 4 5 6 
#
# 1 9.8541 10.2672 5.9104 0.0000 0.0000 0.0000
# 2 10.2672 111.8154 58.2300 0.0000 0.0000 0.0000
# 3 5.9104 58.2300 119.2599 0.0000 0.0000 0.0000
# 4 0.0000 0.0000 0.0000 44.9326 0.0000 0.0000
# 5 0.0000 0.0000 0.0000 0.0000 25.5250 0.0000
# 6 0.0000 0.0000 0.0000 0.0000 0.0000 22.0721
#
#
#
# Elastic Compliance Matrix: (Units=1/GPa)
#
#
# Indices 1 2 3 4 5 6 
#
# 1 0.112261 -0.009938 -0.000711 0.000000 0.000000 0.000000
# 2 -0.009938 0.012872 -0.005793 0.000000 0.000000 0.000000
# 3 -0.000711 -0.005793 0.011249 0.000000 0.000000 0.000000
# 4 0.000000 0.000000 0.000000 0.022256 0.000000 0.000000
# 5 0.000000 0.000000 0.000000 0.000000 0.039177 0.000000
# 6 0.000000 0.000000 0.000000 0.000000 0.000000 0.045306
#
#
# Mechanical properties :
#
#
# Convention : Reuss Voigt Hill
#
# Bulk Modulus (GPa) = 9.66192 43.30497 26.48344
# Shear Modulus (GPa) = 16.10283 29.60740 22.85512
#
# Velocity S-wave (km/s) = 2.87094 3.89290 3.42030
# Velocity P-wave (km/s) = 3.99189 6.50938 5.39941
#
# Compressibility (1/GPa) = 0.10349912
#
# Stress axis : x y z
#
# Youngs Moduli (GPa) = 8.90778 77.68546 88.89993
#
# Poissons Ratio (x) = 0.77202 0.06324
# Poissons Ratio (y) = 0.08852 0.51496
# Poissons Ratio (z) = 0.00634 0.45000
#
# Static dielectric constant tensor:
#      x y z
#    x 3.158560 0.000000 0.000000 
#    y 0.000000 3.811240 0.000000 
#    z 0.000000 0.000000 3.808710 
# 
# 
# High freq. dielectric constant tensor:
#      x y z
#    x 1.721900 0.000000 0.000000 
#    y 0.000000 1.764970 0.000000 
#    z 0.000000 0.000000 1.779150 
# 
# From -- ./inp_files/15585.got.cif
#   From: 2010.03.12/outbox.cif.g09.slc.cpg/sg36_8_cif.got.tgz:15585.got - 2010.04.14 02:13:53.
