data_PCOD8175917
_publ_section_title
;
Structure prediction by ZEFSAII (Michael W. Deem and Ramdas Pophale) SiO2 
 PCOD8175917
Probable space group: C M C 21
;
_chemical_formula_sum "Si O2"
_cell_formula_units_Z 64
_cell_length_a 30.107082
_cell_length_b 7.521247
_cell_length_c 12.787149
_cell_angle_alpha 90.000000
_cell_angle_beta 90.000000
_cell_angle_gamma 90.000000
_cell_volume 2895.557826
_symmetry_space_group_name_H-M "C M C 21"
_symmetry_group_IT_number 36
_symmetry_cell_setting 'orthorhombic'
loop_
_space_group_symop_operation_xyz
x,y,z
-x,-y,1/2+z
x,-y,1/2+z
-x,y,z
1/2+x,1/2+y,z
1/2-x,1/2-y,1/2+z
1/2+x,1/2-y,1/2+z
1/2-x,1/2+y,z
loop_
_atom_site_type_symbol
_atom_site_label
_atom_site_fract_x
_atom_site_fract_y
_atom_site_fract_z
Si Si1 0.807440 0.275122 0.878200
Si Si2 0.178701 0.918335 0.176541
Si Si3 0.050107 0.318635 0.027496
Si Si4 0.146126 0.806076 0.843364
Si Si5 0.779780 0.911580 0.970457
Si Si6 0.049914 0.660625 0.155585
Si Si7 0.103856 0.437739 0.844075
Si Si8 0.096150 0.944411 0.029669
O O1 0.808298 0.245618 0.752459
O O2 0.768645 0.404663 0.918707
O O3 0.855112 0.352349 0.907073
O O4 0.803951 0.091582 0.937684
O O5 0.136964 0.886138 0.102579
O O6 0.167788 0.095141 0.243385
O O7 0.221358 0.922021 0.097160
O O8 0.064628 0.437910 0.928296
O O9 0.000000 0.252505 0.009029
O O10 0.053032 0.453705 0.123834
O O11 0.079780 0.144611 0.049451
O O12 0.188007 0.758478 0.920889
O O13 0.120170 0.631316 0.805539
O O14 0.109984 0.924762 0.907585
O O15 0.086448 0.681888 0.247525
O O16 0.058862 0.799790 0.061647
O O17 0.000000 0.699236 0.196699
#
# Coordination Sequence:
#
# PCOD8175917 Si02
#       8
#     8   8   8   8   8   8   8   8
#     4  11  23  41  65  94 134 178 230 285 347 419
#     4  10  21  41  65  95 132 173 231 282 343 419
#     4  11  24  42  65  99 140 179 229 292 354 420
#     4  10  22  40  67  97 133 177 231 286 350 426
#     4  10  23  41  62  99 134 177 231 287 351 417
#     4  11  24  42  65  99 136 177 234 289 350 424
#     4  12  22  42  68  99 134 180 234 286 354 422
#     4  11  21  43  68  96 131 183 227 285 353 413
#
# _framework density 22.102822
#
# number of rings (size 3 to 8) (size 9 to 14) (size 15 to 20)
#    0.000    1.250    2.500    4.500    0.000    2.000 
#    0.000    3.750    0.000    0.000    0.000    0.000 
#    0.000    0.000    0.000    0.000    0.000    0.000 
#
# Total GULP energy -396497.392955 kJ/mol
# GULP energy per Si atom -12390.543530 kJ/mol
# Density = 2.205252 g / cm^3
# Si number density = 22.102822 Si / 1000 Ang^3
#
#
#
# Elastic Constant Matrix: (Units=GPa)
#
#
# Indices 1 2 3 4 5 6 
#
# 1 116.2819 32.1332 42.4368 0.0000 0.0000 0.0000
# 2 32.1332 82.2642 15.0032 0.0000 0.0000 0.0000
# 3 42.4368 15.0032 104.2572 0.0000 0.0000 0.0000
# 4 0.0000 0.0000 0.0000 30.3279 0.0000 0.0000
# 5 0.0000 0.0000 0.0000 0.0000 35.7984 0.0000
# 6 0.0000 0.0000 0.0000 0.0000 0.0000 33.7672
#
#
#
# Elastic Compliance Matrix: (Units=1/GPa)
#
#
# Indices 1 2 3 4 5 6 
#
# 1 0.011043 -0.003588 -0.003979 0.000000 0.000000 0.000000
# 2 -0.003588 0.013649 -0.000504 0.000000 0.000000 0.000000
# 3 -0.003979 -0.000504 0.011284 0.000000 0.000000 0.000000
# 4 0.000000 0.000000 0.000000 0.032973 0.000000 0.000000
# 5 0.000000 0.000000 0.000000 0.000000 0.027934 0.000000
# 6 0.000000 0.000000 0.000000 0.000000 0.000000 0.029614
#
#
# Mechanical properties :
#
#
# Convention : Reuss Voigt Hill
#
# Bulk Modulus (GPa) = 50.41507 53.54996 51.98252
# Shear Modulus (GPa) = 33.50068 34.19406 33.84737
#
# Velocity S-wave (km/s) = 3.89739 3.93752 3.91750
# Velocity P-wave (km/s) = 6.56595 6.70465 6.63566
#
# Compressibility (1/GPa) = 0.01983534
#
# Stress axis : x y z
#
# Youngs Moduli (GPa) = 90.55250 73.26367 88.62373
#
# Poissons Ratio (x) = 0.26287 0.35261
# Poissons Ratio (y) = 0.32490 0.04465
# Poissons Ratio (z) = 0.36028 0.03691
#
# Static dielectric constant tensor:
#      x y z
#    x 4.243390 0.000000 0.000000 
#    y 0.000000 3.838290 0.000000 
#    z 0.000000 0.000000 4.128670 
# 
# 
# High freq. dielectric constant tensor:
#      x y z
#    x 1.875510 0.000000 0.000000 
#    y 0.000000 1.859310 0.000000 
#    z 0.000000 0.000000 1.865610 
# 
# From -- ./inp_files/9716.got.cif
#   From: 2010.03.12/outbox.cif.g09.slc.cpg/sg36_5_cif.got.tgz:9716.got - 2010.04.14 02:13:53.
