data_PCOD8175580
_publ_section_title
;
Structure prediction by ZEFSAII (Michael W. Deem and Ramdas Pophale) SiO2 
 PCOD8175580
Probable space group: C M C 21
;
_chemical_formula_sum "Si O2"
_cell_formula_units_Z 64
_cell_length_a 9.149422
_cell_length_b 24.189953
_cell_length_c 14.446309
_cell_angle_alpha 90.000000
_cell_angle_beta 90.000000
_cell_angle_gamma 90.000000
_cell_volume 3197.316167
_symmetry_space_group_name_H-M "C M C 21"
_symmetry_group_IT_number 36
_symmetry_cell_setting 'orthorhombic'
loop_
_space_group_symop_operation_xyz
x,y,z
-x,-y,1/2+z
x,-y,1/2+z
-x,y,z
1/2+x,1/2+y,z
1/2-x,1/2-y,1/2+z
1/2+x,1/2-y,1/2+z
1/2-x,1/2+y,z
loop_
_atom_site_type_symbol
_atom_site_label
_atom_site_fract_x
_atom_site_fract_y
_atom_site_fract_z
Si Si1 0.172936 0.957246 0.434140
Si Si2 0.829563 0.803477 0.266439
Si Si3 0.828331 0.388111 0.135088
Si Si4 0.329395 0.421823 0.969161
Si Si5 0.670762 0.805563 0.654667
Si Si6 0.833714 0.022191 0.728768
Si Si7 0.336298 0.602387 0.258332
Si Si8 0.327622 0.664968 0.973574
O O1 0.228060 0.960813 0.328970
O O2 0.228189 0.899299 0.478283
O O3 0.000000 0.956998 0.430434
O O4 0.221859 0.013871 0.485567
O O5 0.737998 0.848244 0.211293
O O6 0.787597 0.744586 0.222903
O O7 0.786912 0.806876 0.375080
O O8 0.000000 0.817003 0.254202
O O9 0.776780 0.450333 0.156780
O O10 0.000000 0.380866 0.133027
O O11 0.762469 0.378996 0.032353
O O12 0.500000 0.415916 0.992364
O O13 0.295613 0.403156 0.865383
O O14 0.500000 0.807641 0.634647
O O15 0.718992 0.860399 0.707254
O O16 0.750215 0.800471 0.555170
O O17 0.000000 0.043851 0.714419
O O18 0.829503 0.957130 0.710360
O O19 0.500000 0.626963 0.246298
O O20 0.500000 0.667661 0.990838
#
# Coordination Sequence:
#
# PCOD8175580 Si02
#       8
#     8   8   8   8   8   8   8   8
#     4   8  15  32  60  87 110 150 205 248 282 337
#     4  10  23  45  66  83 114 164 211 250 295 352
#     4  12  24  35  55  91 125 157 196 246 308 358
#     4   9  19  36  59  88 122 162 205 245 291 355
#     4  11  25  41  61  92 126 157 193 248 316 362
#     4   9  17  35  60  84 115 156 200 243 289 351
#     4   9  20  39  63  88 116 159 208 246 288 350
#     4  10  20  39  66  89 112 155 210 252 289 351
#
# _framework density 20.016787999999998
#
# number of rings (size 3 to 8) (size 9 to 14) (size 15 to 20)
#    0.000    2.250    1.250    3.000    1.750    3.500 
#    0.000    4.375    0.000    0.000    0.000    0.000 
#    0.000    0.000    0.000    0.000    0.000    0.000 
#
# Total GULP energy -396655.837852 kJ/mol
# GULP energy per Si atom -12395.494933 kJ/mol
# Density = 1.997123 g / cm^3
# Si number density = 20.016788 Si / 1000 Ang^3
#
#
#
# Elastic Constant Matrix: (Units=GPa)
#
#
# Indices 1 2 3 4 5 6 
#
# 1 70.1048 40.0017 53.2531 0.0000 0.0000 0.0000
# 2 40.0017 80.2030 59.5665 0.0000 0.0000 0.0000
# 3 53.2531 59.5665 117.6743 0.0000 0.0000 0.0000
# 4 0.0000 0.0000 0.0000 25.7349 0.0000 0.0000
# 5 0.0000 0.0000 0.0000 0.0000 26.9872 0.0000
# 6 0.0000 0.0000 0.0000 0.0000 0.0000 25.2727
#
#
#
# Elastic Compliance Matrix: (Units=1/GPa)
#
#
# Indices 1 2 3 4 5 6 
#
# 1 0.023471 -0.006118 -0.007525 0.000000 0.000000 0.000000
# 2 -0.006118 0.021574 -0.008152 0.000000 0.000000 0.000000
# 3 -0.007525 -0.008152 0.016030 0.000000 0.000000 0.000000
# 4 0.000000 0.000000 0.000000 0.038858 0.000000 0.000000
# 5 0.000000 0.000000 0.000000 0.000000 0.037055 0.000000
# 6 0.000000 0.000000 0.000000 0.000000 0.000000 0.039568
#
#
# Mechanical properties :
#
#
# Convention : Reuss Voigt Hill
#
# Bulk Modulus (GPa) = 57.18982 63.73609 60.46296
# Shear Modulus (GPa) = 22.12631 23.27633 22.70132
#
# Velocity S-wave (km/s) = 3.32834 3.41374 3.37131
# Velocity P-wave (km/s) = 6.58813 6.88830 6.73988
#
# Compressibility (1/GPa) = 0.01748563
#
# Stress axis : x y z
#
# Youngs Moduli (GPa) = 42.60520 46.35153 62.38206
#
# Poissons Ratio (x) = 0.28356 0.46944
# Poissons Ratio (y) = 0.26064 0.50856
# Poissons Ratio (z) = 0.32061 0.37787
#
# Static dielectric constant tensor:
#      x y z
#    x 3.360680 0.000000 0.000000 
#    y 0.000000 3.766320 0.000000 
#    z 0.000000 0.000000 3.836730 
# 
# 
# High freq. dielectric constant tensor:
#      x y z
#    x 1.747790 0.000000 0.000000 
#    y 0.000000 1.773820 0.000000 
#    z 0.000000 0.000000 1.797030 
# 
# From -- ./inp_files/11000.got.cif
#   From: 2010.03.12/outbox.cif.g09.slc.cpg/sg36_6_cif.got.tgz:11000.got - 2010.04.14 02:13:53.
