data_PCOD8175901
_publ_section_title
;
Structure prediction by ZEFSAII (Michael W. Deem and Ramdas Pophale) SiO2 
 PCOD8175901
Probable space group: C M C 21
;
_chemical_formula_sum "Si O2"
_cell_formula_units_Z 56
_cell_length_a 17.693858
_cell_length_b 14.832556
_cell_length_c 9.766941
_cell_angle_alpha 90.000000
_cell_angle_beta 90.000000
_cell_angle_gamma 90.000000
_cell_volume 2563.286195
_symmetry_space_group_name_H-M "C M C 21"
_symmetry_group_IT_number 36
_symmetry_cell_setting 'orthorhombic'
loop_
_space_group_symop_operation_xyz
x,y,z
-x,-y,1/2+z
x,-y,1/2+z
-x,y,z
1/2+x,1/2+y,z
1/2-x,1/2-y,1/2+z
1/2+x,1/2-y,1/2+z
1/2-x,1/2+y,z
loop_
_atom_site_type_symbol
_atom_site_label
_atom_site_fract_x
_atom_site_fract_y
_atom_site_fract_z
Si Si1 0.360825 0.813125 0.774300
Si Si2 0.582509 0.080614 0.044461
Si Si3 0.303477 0.664473 0.217890
Si Si4 0.089759 0.155025 0.962885
Si Si5 0.815760 0.581779 0.539824
Si Si6 0.808333 0.992217 0.389560
Si Si7 0.815979 0.655847 0.823991
O O1 0.423705 0.846541 0.667458
O O2 0.284574 0.817203 0.678791
O O3 0.385536 0.716452 0.833263
O O4 0.351521 0.882463 0.899552
O O5 0.500000 0.041593 0.014786
O O6 0.610177 0.122022 0.901025
O O7 0.636339 0.001711 0.096204
O O8 0.317115 0.560755 0.263003
O O9 0.312105 0.735359 0.346404
O O10 0.361646 0.684784 0.095202
O O11 0.110263 0.050330 0.927983
O O12 0.000000 0.163547 0.991583
O O13 0.729611 0.548252 0.514072
O O14 0.821305 0.654632 0.658730
O O15 0.756260 0.903690 0.364718
#
# Coordination Sequence:
#
# PCOD8175901 Si02
#       7
#     8   8   8   8   8   8   8
#     4  11  23  42  70  95 127 179 230 274 332 406
#     4  11  24  39  58  94 140 174 210 274 345 406
#     4  11  23  43  73  95 128 176 229 285 329 399
#     4  12  25  43  67  99 140 179 225 283 343 405
#     4  10  21  40  69  97 125 168 227 282 331 399
#     4  10  22  42  66 100 129 171 224 281 335 399
#     4  11  21  41  68  98 127 169 231 277 328 400
#
# _framework density 21.846957
#
# number of rings (size 3 to 8) (size 9 to 14) (size 15 to 20)
#    0.000    1.143    2.857    5.571    0.000    4.000 
#    2.571    0.000    0.000    0.000    0.000    0.000 
#    0.000    0.000    0.000    0.000    0.000    0.000 
#
# Total GULP energy -346925.469071 kJ/mol
# GULP energy per Si atom -12390.195324 kJ/mol
# Density = 2.179723 g / cm^3
# Si number density = 21.846957 Si / 1000 Ang^3
#
#
#
# Elastic Constant Matrix: (Units=GPa)
#
#
# Indices 1 2 3 4 5 6 
#
# 1 114.4992 23.5664 30.1289 0.0000 0.0000 0.0000
# 2 23.5664 93.9615 13.0347 0.0000 0.0000 0.0000
# 3 30.1289 13.0347 81.8809 0.0000 0.0000 0.0000
# 4 0.0000 0.0000 0.0000 28.5968 0.0000 0.0000
# 5 0.0000 0.0000 0.0000 0.0000 23.9922 0.0000
# 6 0.0000 0.0000 0.0000 0.0000 0.0000 18.7833
#
#
#
# Elastic Compliance Matrix: (Units=1/GPa)
#
#
# Indices 1 2 3 4 5 6 
#
# 1 0.010042 -0.002051 -0.003369 0.000000 0.000000 0.000000
# 2 -0.002051 0.011302 -0.001044 0.000000 0.000000 0.000000
# 3 -0.003369 -0.001044 0.013619 0.000000 0.000000 0.000000
# 4 0.000000 0.000000 0.000000 0.034969 0.000000 0.000000
# 5 0.000000 0.000000 0.000000 0.000000 0.041680 0.000000
# 6 0.000000 0.000000 0.000000 0.000000 0.000000 0.053239
#
#
# Mechanical properties :
#
#
# Convention : Reuss Voigt Hill
#
# Bulk Modulus (GPa) = 45.38385 47.08907 46.23646
# Shear Modulus (GPa) = 27.00891 29.18193 28.09542
#
# Velocity S-wave (km/s) = 3.51989 3.65875 3.58999
# Velocity P-wave (km/s) = 6.11049 6.28088 6.19627
#
# Compressibility (1/GPa) = 0.02203427
#
# Stress axis : x y z
#
# Youngs Moduli (GPa) = 99.57875 88.47960 73.42886
#
# Poissons Ratio (x) = 0.18151 0.24735
# Poissons Ratio (y) = 0.20428 0.07669
# Poissons Ratio (z) = 0.33544 0.09240
#
# Static dielectric constant tensor:
#      x y z
#    x 3.747220 0.000000 0.000000 
#    y 0.000000 4.203280 0.000000 
#    z 0.000000 0.000000 3.772480 
# 
# 
# High freq. dielectric constant tensor:
#      x y z
#    x 1.830970 0.000000 0.000000 
#    y 0.000000 1.873650 0.000000 
#    z 0.000000 0.000000 1.856900 
# 
# From -- ./inp_files/5217.got.cif
#   From: 2010.03.12/outbox.cif.g09.slc.cpg/sg36_3_cif.got.tgz:5217.got - 2010.04.14 02:13:53.
