data_PCOD8175406
_publ_section_title
;
Structure prediction by ZEFSAII (Michael W. Deem and Ramdas Pophale) SiO2 
 PCOD8175406
Probable space group: C M C 21
;
_chemical_formula_sum "Si O2"
_cell_formula_units_Z 64
_cell_length_a 8.855729
_cell_length_b 15.280086
_cell_length_c 23.756007
_cell_angle_alpha 90.000000
_cell_angle_beta 90.000000
_cell_angle_gamma 90.000000
_cell_volume 3214.574987
_symmetry_space_group_name_H-M "C M C 21"
_symmetry_group_IT_number 36
_symmetry_cell_setting 'orthorhombic'
loop_
_space_group_symop_operation_xyz
x,y,z
-x,-y,1/2+z
x,-y,1/2+z
-x,y,z
1/2+x,1/2+y,z
1/2-x,1/2-y,1/2+z
1/2+x,1/2-y,1/2+z
1/2-x,1/2+y,z
loop_
_atom_site_type_symbol
_atom_site_label
_atom_site_fract_x
_atom_site_fract_y
_atom_site_fract_z
Si Si1 0.827444 0.216758 0.353820
Si Si2 0.821791 0.378950 0.162674
Si Si3 0.673648 0.708703 0.481140
Si Si4 0.327172 0.471029 0.593697
Si Si5 0.677497 0.974624 0.982421
Si Si6 0.176422 0.016685 0.366269
Si Si7 0.326995 0.277308 0.583327
Si Si8 0.823616 0.137215 0.782915
O O1 0.804985 0.246706 0.418506
O O2 0.718088 0.274533 0.315825
O O3 0.000000 0.231536 0.334576
O O4 0.781685 0.114864 0.346473
O O5 0.761060 0.469202 0.137576
O O6 0.765447 0.297469 0.125115
O O7 0.764816 0.365511 0.225206
O O8 0.000000 0.383517 0.163545
O O9 0.500000 0.680375 0.490008
O O10 0.781765 0.626433 0.490726
O O11 0.724595 0.779887 0.526959
O O12 0.500000 0.502365 0.591911
O O13 0.258804 0.471985 0.531385
O O14 0.312991 0.370669 0.614570
O O15 0.500000 0.988346 0.987789
O O16 0.732574 0.009681 0.922109
O O17 0.223126 0.948684 0.318114
O O18 0.000000 0.011908 0.381239
O O19 0.500000 0.259182 0.566003
O O20 0.000000 0.137643 0.770169
#
# Coordination Sequence:
#
# PCOD8175406 Si02
#       8
#     8   8   8   8   8   8   8   8
#     4   9  20  39  60  87 121 158 199 246 302 359
#     4  11  24  44  64  87 122 163 206 256 307 363
#     4  10  20  36  61  90 126 164 200 249 308 365
#     4  11  23  40  62  90 122 161 205 252 309 367
#     4  11  21  35  59  91 127 161 200 250 308 364
#     4   9  21  41  61  86 121 163 203 246 305 365
#     4  10  23  40  61  89 122 161 203 250 308 368
#     4  11  24  41  64  90 119 161 208 253 303 365
#
# _framework density 19.909320999999998
#
# number of rings (size 3 to 8) (size 9 to 14) (size 15 to 20)
#    0.000    1.750    1.250    3.375    1.750    6.000 
#    0.000    5.000    0.000    0.000    0.000    0.000 
#    0.000    0.000    0.000    0.000    0.000    0.000 
#
# Total GULP energy -396904.327978 kJ/mol
# GULP energy per Si atom -12403.260249 kJ/mol
# Density = 1.986401 g / cm^3
# Si number density = 19.909321 Si / 1000 Ang^3
#
#
#
# Elastic Constant Matrix: (Units=GPa)
#
#
# Indices 1 2 3 4 5 6 
#
# 1 73.1221 26.3218 45.5165 0.0000 0.0000 0.0000
# 2 26.3218 86.7542 45.8573 0.0000 0.0000 0.0000
# 3 45.5165 45.8573 109.5680 0.0000 0.0000 0.0000
# 4 0.0000 0.0000 0.0000 18.7015 0.0000 0.0000
# 5 0.0000 0.0000 0.0000 0.0000 37.8365 0.0000
# 6 0.0000 0.0000 0.0000 0.0000 0.0000 31.5772
#
#
#
# Elastic Compliance Matrix: (Units=1/GPa)
#
#
# Indices 1 2 3 4 5 6 
#
# 1 0.018716 -0.002014 -0.006932 0.000000 0.000000 0.000000
# 2 -0.002014 0.015018 -0.005449 0.000000 0.000000 0.000000
# 3 -0.006932 -0.005449 0.014287 0.000000 0.000000 0.000000
# 4 0.000000 0.000000 0.000000 0.053472 0.000000 0.000000
# 5 0.000000 0.000000 0.000000 0.000000 0.026430 0.000000
# 6 0.000000 0.000000 0.000000 0.000000 0.000000 0.031668
#
#
# Mechanical properties :
#
#
# Convention : Reuss Voigt Hill
#
# Bulk Modulus (GPa) = 51.99971 56.09283 54.04627
# Shear Modulus (GPa) = 25.66864 27.73961 26.70413
#
# Velocity S-wave (km/s) = 3.59455 3.73674 3.66633
# Velocity P-wave (km/s) = 6.58807 6.84492 6.71772
#
# Compressibility (1/GPa) = 0.01923088
#
# Stress axis : x y z
#
# Youngs Moduli (GPa) = 53.43107 66.58624 69.99495
#
# Poissons Ratio (x) = 0.13413 0.48519
# Poissons Ratio (y) = 0.10763 0.38138
# Poissons Ratio (z) = 0.37037 0.36281
#
# Static dielectric constant tensor:
#      x y z
#    x 3.604110 0.000000 0.000000 
#    y 0.000000 3.672060 0.000000 
#    z 0.000000 0.000000 3.614250 
# 
# 
# High freq. dielectric constant tensor:
#      x y z
#    x 1.780240 0.000000 0.000000 
#    y 0.000000 1.780510 0.000000 
#    z 0.000000 0.000000 1.772260 
# 
# From -- ./inp_files/16662.got.cif
#   From: 2010.03.12/outbox.cif.g09.slc.cpg/sg36_9_cif.got.tgz:16662.got - 2010.04.14 02:13:53.
