data_PCOD8175737
_publ_section_title
;
Structure prediction by ZEFSAII (Michael W. Deem and Ramdas Pophale) SiO2 
 PCOD8175737
Probable space group: C M C 21
;
_chemical_formula_sum "Si O2"
_cell_formula_units_Z 64
_cell_length_a 8.765497
_cell_length_b 30.495634
_cell_length_c 12.010674
_cell_angle_alpha 90.000000
_cell_angle_beta 90.000000
_cell_angle_gamma 90.000000
_cell_volume 3210.565920
_symmetry_space_group_name_H-M "C M C 21"
_symmetry_group_IT_number 36
_symmetry_cell_setting 'orthorhombic'
loop_
_space_group_symop_operation_xyz
x,y,z
-x,-y,1/2+z
x,-y,1/2+z
-x,y,z
1/2+x,1/2+y,z
1/2-x,1/2-y,1/2+z
1/2+x,1/2-y,1/2+z
1/2-x,1/2+y,z
loop_
_atom_site_type_symbol
_atom_site_label
_atom_site_fract_x
_atom_site_fract_y
_atom_site_fract_z
Si Si1 0.680542 0.956852 0.144780
Si Si2 0.319133 0.053433 0.087990
Si Si3 0.679534 0.202617 0.089036
Si Si4 0.680839 0.127105 0.254518
Si Si5 0.172478 0.076859 0.858830
Si Si6 0.326602 0.323556 0.366146
Si Si7 0.318424 0.874496 0.004846
Si Si8 0.320097 0.792145 0.150390
O O1 0.500000 0.955101 0.148286
O O2 0.738512 0.952198 0.270081
O O3 0.739172 0.003735 0.101591
O O4 0.744788 0.918493 0.064580
O O5 0.500000 0.055483 0.077925
O O6 0.262066 0.083246 0.191361
O O7 0.249285 0.073221 0.977713
O O8 0.500000 0.212361 0.096293
O O9 0.734303 0.170529 0.188419
O O10 0.775471 0.247100 0.091664
O O11 0.717990 0.179755 0.972627
O O12 0.500000 0.126633 0.259855
O O13 0.749187 0.127625 0.379477
O O14 0.180567 0.127141 0.820249
O O15 0.000000 0.059932 0.866068
O O16 0.500000 0.309802 0.396168
O O17 0.264181 0.292546 0.268842
O O18 0.500000 0.875854 0.000813
O O19 0.262499 0.831856 0.072160
O O20 0.500000 0.795153 0.169823
#
# Coordination Sequence:
#
# PCOD8175737 Si02
#       8
#     8   8   8   8   8   8   8   8
#     4  10  21  37  63  92 118 153 203 252 294 356
#     4  10  21  37  63  92 118 153 203 252 294 356
#     4  11  23  39  62  90 122 158 200 251 305 364
#     4   9  19  36  57  85 120 155 191 241 300 352
#     4  11  23  39  61  86 123 162 199 252 306 359
#     4  11  23  41  63  86 119 162 209 254 300 357
#     4   9  19  36  57  85 120 155 191 241 300 352
#     4  11  23  39  62  90 122 158 200 251 305 364
#
# _framework density 19.934179
#
# number of rings (size 3 to 8) (size 9 to 14) (size 15 to 20)
#    0.000    1.750    2.500    1.500    3.500    1.500 
#    0.000    0.000    0.000    3.000    0.000    0.000 
#    0.000    0.000    0.000    0.000    0.000    0.000 
#
# Total GULP energy -396889.149472 kJ/mol
# GULP energy per Si atom -12402.785921 kJ/mol
# Density = 1.988881 g / cm^3
# Si number density = 19.934179 Si / 1000 Ang^3
#
#
#
# Elastic Constant Matrix: (Units=GPa)
#
#
# Indices 1 2 3 4 5 6 
#
# 1 28.3155 26.8287 20.1408 0.0000 0.0000 0.0000
# 2 26.8287 130.5684 43.0155 0.0000 0.0000 0.0000
# 3 20.1408 43.0155 131.1787 0.0000 0.0000 0.0000
# 4 0.0000 0.0000 0.0000 29.6450 0.0000 0.0000
# 5 0.0000 0.0000 0.0000 0.0000 18.9934 0.0000
# 6 0.0000 0.0000 0.0000 0.0000 0.0000 24.3226
#
#
#
# Elastic Compliance Matrix: (Units=1/GPa)
#
#
# Indices 1 2 3 4 5 6 
#
# 1 0.046059 -0.007998 -0.004449 0.000000 0.000000 0.000000
# 2 -0.007998 0.009975 -0.002043 0.000000 0.000000 0.000000
# 3 -0.004449 -0.002043 0.008976 0.000000 0.000000 0.000000
# 4 0.000000 0.000000 0.000000 0.033733 0.000000 0.000000
# 5 0.000000 0.000000 0.000000 0.000000 0.052650 0.000000
# 6 0.000000 0.000000 0.000000 0.000000 0.000000 0.041114
#
#
# Mechanical properties :
#
#
# Convention : Reuss Voigt Hill
#
# Bulk Modulus (GPa) = 27.75464 52.22587 39.99025
# Shear Modulus (GPa) = 21.41344 27.93070 24.67207
#
# Velocity S-wave (km/s) = 3.28107 3.74725 3.52188
# Velocity P-wave (km/s) = 5.32045 6.70660 6.05334
#
# Compressibility (1/GPa) = 0.03603002
#
# Stress axis : x y z
#
# Youngs Moduli (GPa) = 21.71115 100.24690 111.40550
#
# Poissons Ratio (x) = 0.80181 0.49565
# Poissons Ratio (y) = 0.17365 0.22760
# Poissons Ratio (z) = 0.09659 0.20481
#
# Static dielectric constant tensor:
#      x y z
#    x 3.322690 0.000000 0.000000 
#    y 0.000000 3.758650 0.000000 
#    z 0.000000 0.000000 3.723530 
# 
# 
# High freq. dielectric constant tensor:
#      x y z
#    x 1.750240 0.000000 0.000000 
#    y 0.000000 1.786510 0.000000 
#    z 0.000000 0.000000 1.787510 
# 
# From -- ./inp_files/7164.got.cif
#   From: 2010.03.12/outbox.cif.g09.slc.cpg/sg36_4_cif.got.tgz:7164.got - 2010.04.14 02:13:53.
