data_PCOD8175393
_publ_section_title
;
Structure prediction by ZEFSAII (Michael W. Deem and Ramdas Pophale) SiO2 
 PCOD8175393
Probable space group: C M C 21
;
_chemical_formula_sum "Si O2"
_cell_formula_units_Z 64
_cell_length_a 17.726880
_cell_length_b 19.569041
_cell_length_c 9.849404
_cell_angle_alpha 90.000000
_cell_angle_beta 90.000000
_cell_angle_gamma 90.000000
_cell_volume 3416.738958
_symmetry_space_group_name_H-M "C M C 21"
_symmetry_group_IT_number 36
_symmetry_cell_setting 'orthorhombic'
loop_
_space_group_symop_operation_xyz
x,y,z
-x,-y,1/2+z
x,-y,1/2+z
-x,y,z
1/2+x,1/2+y,z
1/2-x,1/2-y,1/2+z
1/2+x,1/2-y,1/2+z
1/2-x,1/2+y,z
loop_
_atom_site_type_symbol
_atom_site_label
_atom_site_fract_x
_atom_site_fract_y
_atom_site_fract_z
Si Si1 0.087840 0.445972 0.796960
Si Si2 0.771417 0.883564 0.466578
Si Si3 0.209063 0.357740 0.180949
Si Si4 0.413761 0.210267 0.315030
Si Si5 0.184579 0.253030 0.565637
Si Si6 0.583688 0.316799 0.542451
Si Si7 0.170788 0.498760 0.045039
Si Si8 0.412792 0.236345 0.805582
O O1 0.108297 0.368396 0.835531
O O2 0.114735 0.462484 0.646008
O O3 0.000000 0.460425 0.807088
O O4 0.129139 0.496289 0.900784
O O5 0.763261 0.878109 0.304993
O O6 0.724625 0.825099 0.543197
O O7 0.859421 0.876907 0.503019
O O8 0.745970 0.956824 0.523339
O O9 0.251124 0.304435 0.081399
O O10 0.192105 0.423948 0.093395
O O11 0.130852 0.328495 0.242110
O O12 0.500000 0.216462 0.266328
O O13 0.362190 0.245965 0.203677
O O14 0.399210 0.247603 0.457804
O O15 0.128250 0.236969 0.441379
O O16 0.500000 0.343906 0.508692
O O17 0.590851 0.299080 0.700961
O O18 0.500000 0.215147 0.834589
#
# Coordination Sequence:
#
# PCOD8175393 Si02
#       8
#     8   8   8   8   8   8   8   8
#     4  11  24  39  56  85 126 167 200 239 294 370
#     4  11  22  39  60  89 120 156 208 256 302 361
#     4  11  23  39  62  92 122 162 202 257 306 362
#     4  10  20  36  60  88 118 155 201 246 300 363
#     4  11  21  37  64  89 120 157 202 255 306 357
#     4  10  20  37  62  87 117 154 195 255 316 360
#     4  12  24  41  58  86 121 168 208 245 302 363
#     4  10  22  38  60  94 128 157 196 253 312 364
#
# _framework density 18.731311999999999
#
# number of rings (size 3 to 8) (size 9 to 14) (size 15 to 20)
#    0.000    1.250    5.000    1.500    0.000    3.000 
#    0.000    0.000    0.000    2.250    0.000    0.000 
#    0.000    0.000    0.000    0.000    0.000    0.000 
#
# Total GULP energy -396924.628444 kJ/mol
# GULP energy per Si atom -12403.894639 kJ/mol
# Density = 1.868868 g / cm^3
# Si number density = 18.731312 Si / 1000 Ang^3
#
#
#
# Elastic Constant Matrix: (Units=GPa)
#
#
# Indices 1 2 3 4 5 6 
#
# 1 121.6890 45.9591 41.7346 0.0000 0.0000 0.0000
# 2 45.9591 75.9649 17.0142 0.0000 0.0000 0.0000
# 3 41.7346 17.0142 84.0785 0.0000 0.0000 0.0000
# 4 0.0000 0.0000 0.0000 17.4615 0.0000 0.0000
# 5 0.0000 0.0000 0.0000 0.0000 34.4355 0.0000
# 6 0.0000 0.0000 0.0000 0.0000 0.0000 29.5484
#
#
#
# Elastic Compliance Matrix: (Units=1/GPa)
#
#
# Indices 1 2 3 4 5 6 
#
# 1 0.012260 -0.006342 -0.004802 0.000000 0.000000 0.000000
# 2 -0.006342 0.017069 -0.000306 0.000000 0.000000 0.000000
# 3 -0.004802 -0.000306 0.014339 0.000000 0.000000 0.000000
# 4 0.000000 0.000000 0.000000 0.057269 0.000000 0.000000
# 5 0.000000 0.000000 0.000000 0.000000 0.029040 0.000000
# 6 0.000000 0.000000 0.000000 0.000000 0.000000 0.033843
#
#
# Mechanical properties :
#
#
# Convention : Reuss Voigt Hill
#
# Bulk Modulus (GPa) = 48.15065 54.57199 51.36132
# Shear Modulus (GPa) = 25.82077 28.09072 26.95574
#
# Velocity S-wave (km/s) = 3.71682 3.87675 3.79763
# Velocity P-wave (km/s) = 6.64691 7.01686 6.83439
#
# Compressibility (1/GPa) = 0.02076815
#
# Stress axis : x y z
#
# Youngs Moduli (GPa) = 81.56810 58.58473 69.73838
#
# Poissons Ratio (x) = 0.37152 0.33489
# Poissons Ratio (y) = 0.51727 0.02136
# Poissons Ratio (z) = 0.39170 0.01795
#
# Static dielectric constant tensor:
#      x y z
#    x 3.584370 0.000000 0.000000 
#    y 0.000000 3.223090 0.000000 
#    z 0.000000 0.000000 3.562200 
# 
# 
# High freq. dielectric constant tensor:
#      x y z
#    x 1.731650 0.000000 0.000000 
#    y 0.000000 1.702220 0.000000 
#    z 0.000000 0.000000 1.742630 
# 
# From -- ./inp_files/4933.got.cif
#   From: 2010.03.12/outbox.cif.g09.slc.cpg/sg36_3_cif.got.tgz:4933.got - 2010.04.14 02:13:53.
