data_PCOD8175637
_publ_section_title
;
Structure prediction by ZEFSAII (Michael W. Deem and Ramdas Pophale) SiO2 
 PCOD8175637
Probable space group: C M C 21
;
_chemical_formula_sum "Si O2"
_cell_formula_units_Z 56
_cell_length_a 21.229927
_cell_length_b 10.182119
_cell_length_c 13.594644
_cell_angle_alpha 90.000000
_cell_angle_beta 90.000000
_cell_angle_gamma 90.000000
_cell_volume 2938.694963
_symmetry_space_group_name_H-M "C M C 21"
_symmetry_group_IT_number 36
_symmetry_cell_setting 'orthorhombic'
loop_
_space_group_symop_operation_xyz
x,y,z
-x,-y,1/2+z
x,-y,1/2+z
-x,y,z
1/2+x,1/2+y,z
1/2-x,1/2-y,1/2+z
1/2+x,1/2-y,1/2+z
1/2-x,1/2+y,z
loop_
_atom_site_type_symbol
_atom_site_label
_atom_site_fract_x
_atom_site_fract_y
_atom_site_fract_z
Si Si1 0.214601 0.352575 0.834970
Si Si2 0.251833 0.774380 0.524419
Si Si3 0.072460 0.677840 0.744428
Si Si4 0.670589 0.606955 0.187833
Si Si5 0.845361 0.185515 0.679625
Si Si6 0.427773 0.073708 0.111500
Si Si7 0.641192 0.073532 0.917146
O O1 0.279849 0.387455 0.778892
O O2 0.181699 0.228161 0.784823
O O3 0.164767 0.471392 0.833971
O O4 0.218271 0.326665 0.951598
O O5 0.205373 0.871603 0.583390
O O6 0.288436 0.686946 0.602779
O O7 0.296569 0.854496 0.452555
O O8 0.116286 0.785094 0.693220
O O9 0.081837 0.536970 0.693130
O O10 0.093130 0.668145 0.858493
O O11 0.000000 0.723725 0.738183
O O12 0.634380 0.466513 0.187927
O O13 0.899575 0.285574 0.644855
O O14 0.500000 0.101085 0.089274
O O15 0.395363 0.018613 0.012269
#
# Coordination Sequence:
#
# PCOD8175637 Si02
#       7
#     8   8   8   8   8   8   8
#     4  11  20  35  60  88 126 153 196 254 311 359
#     4  10  21  35  58  89 125 157 193 251 314 365
#     4  11  23  41  63  87 122 169 209 248 295 370
#     4  11  23  37  59  93 128 157 205 250 314 368
#     4  10  22  36  57  89 120 157 196 251 312 363
#     4  10  22  41  63  85 117 163 213 253 299 367
#     4  11  20  37  62  91 117 158 206 251 297 364
#
# _framework density 19.056077999999999
#
# number of rings (size 3 to 8) (size 9 to 14) (size 15 to 20)
#    0.000    1.429    2.857    3.000    2.000    0.571 
#    0.000    0.000    0.000    0.000    0.000    0.000 
#    0.000    0.000    0.000    0.000    0.000    0.000 
#
# Total GULP energy -347075.459876 kJ/mol
# GULP energy per Si atom -12395.552138 kJ/mol
# Density = 1.901271 g / cm^3
# Si number density = 19.056078 Si / 1000 Ang^3
#
#
#
# Elastic Constant Matrix: (Units=GPa)
#
#
# Indices 1 2 3 4 5 6 
#
# 1 112.0636 42.7042 34.6624 0.0000 0.0000 0.0000
# 2 42.7042 98.0714 19.4214 0.0000 0.0000 0.0000
# 3 34.6624 19.4214 86.7751 0.0000 0.0000 0.0000
# 4 0.0000 0.0000 0.0000 21.5984 0.0000 0.0000
# 5 0.0000 0.0000 0.0000 0.0000 25.3337 0.0000
# 6 0.0000 0.0000 0.0000 0.0000 0.0000 25.2110
#
#
#
# Elastic Compliance Matrix: (Units=1/GPa)
#
#
# Indices 1 2 3 4 5 6 
#
# 1 0.011739 -0.004377 -0.003709 0.000000 0.000000 0.000000
# 2 -0.004377 0.012302 -0.001005 0.000000 0.000000 0.000000
# 3 -0.003709 -0.001005 0.013231 0.000000 0.000000 0.000000
# 4 0.000000 0.000000 0.000000 0.046300 0.000000 0.000000
# 5 0.000000 0.000000 0.000000 0.000000 0.039473 0.000000
# 6 0.000000 0.000000 0.000000 0.000000 0.000000 0.039665
#
#
# Mechanical properties :
#
#
# Convention : Reuss Voigt Hill
#
# Bulk Modulus (GPa) = 52.38759 54.49845 53.44302
# Shear Modulus (GPa) = 26.70162 27.77009 27.23586
#
# Velocity S-wave (km/s) = 3.74734 3.82158 3.78464
# Velocity P-wave (km/s) = 6.80253 6.93784 6.87052
#
# Compressibility (1/GPa) = 0.01908849
#
# Stress axis : x y z
#
# Youngs Moduli (GPa) = 85.18752 81.29060 75.58184
#
# Poissons Ratio (x) = 0.35580 0.28037
# Poissons Ratio (y) = 0.37286 0.07595
# Poissons Ratio (z) = 0.31600 0.08169
#
# Static dielectric constant tensor:
#      x y z
#    x 3.427390 0.000000 0.000000 
#    y 0.000000 3.349440 0.000000 
#    z 0.000000 0.000000 3.573300 
# 
# 
# High freq. dielectric constant tensor:
#      x y z
#    x 1.730060 0.000000 0.000000 
#    y 0.000000 1.733830 0.000000 
#    z 0.000000 0.000000 1.755870 
# 
# From -- ./inp_files/12839.got.cif
#   From: 2010.03.12/outbox.cif.g09.slc.cpg/sg36_7_cif.got.tgz:12839.got - 2010.04.14 02:13:53.
