data_PCOD8175706
_publ_section_title
;
Structure prediction by ZEFSAII (Michael W. Deem and Ramdas Pophale) SiO2 
 PCOD8175706
Probable space group: C M C 21
;
_chemical_formula_sum "Si O2"
_cell_formula_units_Z 64
_cell_length_a 9.421438
_cell_length_b 30.163782
_cell_length_c 11.900148
_cell_angle_alpha 90.000000
_cell_angle_beta 90.000000
_cell_angle_gamma 90.000000
_cell_volume 3381.857863
_symmetry_space_group_name_H-M "C M C 21"
_symmetry_group_IT_number 36
_symmetry_cell_setting 'orthorhombic'
loop_
_space_group_symop_operation_xyz
x,y,z
-x,-y,1/2+z
x,-y,1/2+z
-x,y,z
1/2+x,1/2+y,z
1/2-x,1/2-y,1/2+z
1/2+x,1/2-y,1/2+z
1/2-x,1/2+y,z
loop_
_atom_site_type_symbol
_atom_site_label
_atom_site_fract_x
_atom_site_fract_y
_atom_site_fract_z
Si Si1 0.661811 0.944104 0.360200
Si Si2 0.164041 0.294969 0.779809
Si Si3 0.664329 0.694764 0.833367
Si Si4 0.331750 0.876201 0.929077
Si Si5 0.165723 0.370117 0.182162
Si Si6 0.664313 0.957570 0.779253
Si Si7 0.337984 0.572685 0.077558
Si Si8 0.660802 0.673544 0.080689
O O1 0.500000 0.935986 0.400144
O O2 0.694895 0.915547 0.249121
O O3 0.769793 0.929328 0.455245
O O4 0.688063 0.995446 0.336581
O O5 0.190143 0.247229 0.833313
O O6 0.223225 0.331967 0.866134
O O7 0.245028 0.296564 0.661815
O O8 0.000000 0.304057 0.753740
O O9 0.500000 0.682719 0.813789
O O10 0.754435 0.671353 0.736834
O O11 0.718478 0.677445 0.953799
O O12 0.500000 0.877073 0.933171
O O13 0.277214 0.919899 0.863836
O O14 0.273203 0.876699 0.056319
O O15 0.000000 0.358185 0.180263
O O16 0.500000 0.949393 0.748579
O O17 0.752383 0.957765 0.664053
O O18 0.500000 0.556153 0.070071
O O19 0.329751 0.622956 0.121183
O O20 0.500000 0.691527 0.085561
#
# Coordination Sequence:
#
# PCOD8175706 Si02
#       8
#     8   8   8   8   8   8   8   8
#     4  10  22  37  60  89 114 148 194 241 283 334
#     4  10  21  37  59  84 111 148 192 234 281 338
#     4  10  22  39  57  82 115 151 188 231 288 342
#     4   9  19  36  57  82 112 146 183 231 284 331
#     4  10  21  37  58  84 113 147 191 234 280 338
#     4  10  21  38  62  86 114 149 191 242 287 333
#     4  11  22  38  60  84 116 155 193 235 287 348
#     4  10  21  38  59  81 113 152 190 234 284 336
#
# _framework density 18.924509
#
# number of rings (size 3 to 8) (size 9 to 14) (size 15 to 20)
#    0.000    2.000    2.500    0.375    3.500    2.000 
#    0.000    1.250    0.000    0.000    0.000    0.000 
#    0.000    0.000    0.000    0.000    0.000    0.000 
#
# Total GULP energy -396915.159596 kJ/mol
# GULP energy per Si atom -12403.598737 kJ/mol
# Density = 1.888144 g / cm^3
# Si number density = 18.924509 Si / 1000 Ang^3
#
#
#
# Elastic Constant Matrix: (Units=GPa)
#
#
# Indices 1 2 3 4 5 6 
#
# 1 67.4094 31.5780 48.6184 0.0000 0.0000 0.0000
# 2 31.5780 99.7021 36.4411 0.0000 0.0000 0.0000
# 3 48.6184 36.4411 126.7308 0.0000 0.0000 0.0000
# 4 0.0000 0.0000 0.0000 25.4085 0.0000 0.0000
# 5 0.0000 0.0000 0.0000 0.0000 28.8420 0.0000
# 6 0.0000 0.0000 0.0000 0.0000 0.0000 24.1545
#
#
#
# Elastic Compliance Matrix: (Units=1/GPa)
#
#
# Indices 1 2 3 4 5 6 
#
# 1 0.022082 -0.004355 -0.007219 0.000000 0.000000 0.000000
# 2 -0.004355 0.012067 -0.001799 0.000000 0.000000 0.000000
# 3 -0.007219 -0.001799 0.011177 0.000000 0.000000 0.000000
# 4 0.000000 0.000000 0.000000 0.039357 0.000000 0.000000
# 5 0.000000 0.000000 0.000000 0.000000 0.034672 0.000000
# 6 0.000000 0.000000 0.000000 0.000000 0.000000 0.041400
#
#
# Mechanical properties :
#
#
# Convention : Reuss Voigt Hill
#
# Bulk Modulus (GPa) = 53.82253 58.56859 56.19556
# Shear Modulus (GPa) = 25.81392 27.49465 26.65428
#
# Velocity S-wave (km/s) = 3.69731 3.81577 3.75701
# Velocity P-wave (km/s) = 6.83587 7.10135 6.96988
#
# Compressibility (1/GPa) = 0.01857958
#
# Stress axis : x y z
#
# Youngs Moduli (GPa) = 45.28675 82.87200 89.46570
#
# Poissons Ratio (x) = 0.36093 0.64585
# Poissons Ratio (y) = 0.19723 0.16095
# Poissons Ratio (z) = 0.32692 0.14908
#
# Static dielectric constant tensor:
#      x y z
#    x 3.315920 0.000000 0.000000 
#    y 0.000000 3.471670 0.000000 
#    z 0.000000 0.000000 3.505150 
# 
# 
# High freq. dielectric constant tensor:
#      x y z
#    x 1.715580 0.000000 0.000000 
#    y 0.000000 1.740640 0.000000 
#    z 0.000000 0.000000 1.741680 
# 
# From -- ./inp_files/7061.got.cif
#   From: 2010.03.12/outbox.cif.g09.slc.cpg/sg36_4_cif.got.tgz:7061.got - 2010.04.14 02:13:53.
