data_PCOD8175195
_publ_section_title
;
Structure prediction by ZEFSAII (Michael W. Deem and Ramdas Pophale) SiO2 
 PCOD8175195
Probable space group: C M C 21
;
_chemical_formula_sum "Si O2"
_cell_formula_units_Z 56
_cell_length_a 20.544251
_cell_length_b 11.521832
_cell_length_c 11.501556
_cell_angle_alpha 90.000000
_cell_angle_beta 90.000000
_cell_angle_gamma 90.000000
_cell_volume 2722.503515
_symmetry_space_group_name_H-M "C M C 21"
_symmetry_group_IT_number 36
_symmetry_cell_setting 'orthorhombic'
loop_
_space_group_symop_operation_xyz
x,y,z
-x,-y,1/2+z
x,-y,1/2+z
-x,y,z
1/2+x,1/2+y,z
1/2-x,1/2-y,1/2+z
1/2+x,1/2-y,1/2+z
1/2-x,1/2+y,z
loop_
_atom_site_type_symbol
_atom_site_label
_atom_site_fract_x
_atom_site_fract_y
_atom_site_fract_z
Si Si1 0.177584 0.170538 0.011380
Si Si2 0.073591 0.045251 0.849473
Si Si3 0.862231 0.827871 0.149700
Si Si4 0.222802 0.305259 0.808466
Si Si5 0.573983 0.717104 0.405994
Si Si6 0.744538 0.998337 0.652365
Si Si7 0.656317 0.182323 0.718465
O O1 0.139614 0.219378 0.123360
O O2 0.242306 0.098749 0.052169
O O3 0.126708 0.094545 0.939040
O O4 0.202034 0.284916 0.941581
O O5 0.083866 0.098484 0.721004
O O6 0.000000 0.075468 0.890796
O O7 0.082758 0.907045 0.843891
O O8 0.839663 0.716678 0.224632
O O9 0.800718 0.909730 0.130351
O O10 0.888901 0.781797 0.028137
O O11 0.250026 0.433833 0.779559
O O12 0.276802 0.208313 0.785439
O O13 0.500000 0.748473 0.432308
O O14 0.600211 0.816087 0.316576
O O15 0.672428 0.058867 0.653976
#
# Coordination Sequence:
#
# PCOD8175195 Si02
#       7
#     8   8   8   8   8   8   8
#     4  10  20  37  57  87 122 153 203 252 306 375
#     4  10  20  34  59  86 118 161 201 252 315 367
#     4  10  20  38  56  87 124 156 202 250 310 375
#     4   9  21  35  58  89 117 156 197 256 306 365
#     4  11  23  37  58  86 122 160 204 255 306 374
#     4  10  20  38  58  89 121 161 196 251 313 373
#     4  10  23  35  56  86 119 157 199 248 310 361
#
# _framework density 20.569303000000001
#
# number of rings (size 3 to 8) (size 9 to 14) (size 15 to 20)
#    0.000    2.000    1.429    2.143    6.000    4.000 
#    0.000    0.000    0.000    4.286    0.000    0.000 
#    0.000    0.000    0.000    0.000    0.000    0.000 
#
# Total GULP energy -346890.560872 kJ/mol
# GULP energy per Si atom -12388.948603 kJ/mol
# Density = 2.052249 g / cm^3
# Si number density = 20.569303 Si / 1000 Ang^3
#
#
#
# Elastic Constant Matrix: (Units=GPa)
#
#
# Indices 1 2 3 4 5 6 
#
# 1 81.8028 24.5309 43.6789 0.0000 0.0000 0.0000
# 2 24.5309 55.0058 34.7550 0.0000 0.0000 0.0000
# 3 43.6789 34.7550 126.0724 0.0000 0.0000 0.0000
# 4 0.0000 0.0000 0.0000 26.8479 0.0000 0.0000
# 5 0.0000 0.0000 0.0000 0.0000 27.3558 0.0000
# 6 0.0000 0.0000 0.0000 0.0000 0.0000 24.5435
#
#
#
# Elastic Compliance Matrix: (Units=1/GPa)
#
#
# Indices 1 2 3 4 5 6 
#
# 1 0.015814 -0.004348 -0.004280 0.000000 0.000000 0.000000
# 2 -0.004348 0.023210 -0.004892 0.000000 0.000000 0.000000
# 3 -0.004280 -0.004892 0.010763 0.000000 0.000000 0.000000
# 4 0.000000 0.000000 0.000000 0.037247 0.000000 0.000000
# 5 0.000000 0.000000 0.000000 0.000000 0.036555 0.000000
# 6 0.000000 0.000000 0.000000 0.000000 0.000000 0.040744
#
#
# Mechanical properties :
#
#
# Convention : Reuss Voigt Hill
#
# Bulk Modulus (GPa) = 43.96226 52.09006 48.02616
# Shear Modulus (GPa) = 25.13117 26.41053 25.77085
#
# Velocity S-wave (km/s) = 3.49919 3.58715 3.54344
# Velocity P-wave (km/s) = 6.14369 6.52196 6.33565
#
# Compressibility (1/GPa) = 0.02274678
#
# Stress axis : x y z
#
# Youngs Moduli (GPa) = 63.23573 43.08490 92.90698
#
# Poissons Ratio (x) = 0.18734 0.39766
# Poissons Ratio (y) = 0.27495 0.45450
# Poissons Ratio (z) = 0.27066 0.21077
#
# Static dielectric constant tensor:
#      x y z
#    x 3.680730 0.000000 0.000000 
#    y 0.000000 3.821100 0.000000 
#    z 0.000000 0.000000 3.839990 
# 
# 
# High freq. dielectric constant tensor:
#      x y z
#    x 1.776610 0.000000 0.000000 
#    y 0.000000 1.785310 0.000000 
#    z 0.000000 0.000000 1.814700 
# 
# From -- ./inp_files/9221.got.cif
#   From: 2010.03.12/outbox.cif.g09.slc.cpg/sg36_5_cif.got.tgz:9221.got - 2010.04.14 02:13:53.
