data_PCOD8175035
_publ_section_title
;
Structure prediction by ZEFSAII (Michael W. Deem and Ramdas Pophale) SiO2 
 PCOD8175035
Probable space group: C M C 21
;
_chemical_formula_sum "Si O2"
_cell_formula_units_Z 64
_cell_length_a 9.220802
_cell_length_b 23.123661
_cell_length_c 17.382238
_cell_angle_alpha 90.000000
_cell_angle_beta 90.000000
_cell_angle_gamma 90.000000
_cell_volume 3706.218182
_symmetry_space_group_name_H-M "C M C 21"
_symmetry_group_IT_number 36
_symmetry_cell_setting 'orthorhombic'
loop_
_space_group_symop_operation_xyz
x,y,z
-x,-y,1/2+z
x,-y,1/2+z
-x,y,z
1/2+x,1/2+y,z
1/2-x,1/2-y,1/2+z
1/2+x,1/2-y,1/2+z
1/2-x,1/2+y,z
loop_
_atom_site_type_symbol
_atom_site_label
_atom_site_fract_x
_atom_site_fract_y
_atom_site_fract_z
Si Si1 0.171070 0.937425 0.346850
Si Si2 0.340319 0.326330 0.821420
Si Si3 0.666542 0.122234 0.713642
Si Si4 0.839082 0.770983 0.265389
Si Si5 0.840319 0.826330 0.431803
Si Si6 0.671070 0.437425 0.906373
Si Si7 0.160918 0.770983 0.987834
Si Si8 0.666542 0.122234 0.539581
O O1 0.254575 0.924260 0.267870
O O2 0.215186 0.891247 0.413050
O O3 0.000000 0.933119 0.329400
O O4 0.218134 0.000000 0.376611
O O5 0.500000 0.328484 0.783200
O O6 0.232030 0.293202 0.763589
O O7 0.284814 0.391247 0.840173
O O8 0.350031 0.292111 0.900945
O O9 0.500000 0.129046 0.740045
O O10 0.741301 0.185021 0.716940
O O11 0.677149 0.098923 0.626611
O O12 0.850031 0.792111 0.352278
O O13 0.000000 0.767203 0.228906
O O14 0.732030 0.793202 0.489634
O O15 0.000000 0.828484 0.470023
O O16 0.500000 0.433119 0.923823
O O17 0.754575 0.424260 0.985353
O O18 0.258699 0.814979 0.036283
O O19 0.000000 0.767203 0.024317
O O20 0.500000 0.129046 0.513178
#
# Coordination Sequence:
#
# PCOD8175035 Si02
#       8
#     8   8   8   8   8   8   8   8
#     4   9  18  32  50  72  96 125 164 203 237 280
#     4   8  14  25  42  65  92 117 143 182 228 272
#     4  10  20  32  47  69  96 125 157 196 244 293
#     4   9  16  26  43  66  90 117 148 183 226 275
#     4   8  14  25  42  65  92 117 143 182 228 272
#     4   9  18  32  50  72  96 125 164 203 237 280
#     4   9  16  26  43  66  90 117 148 183 226 275
#     4  10  20  32  47  69  96 125 157 196 244 293
#
# _framework density 17.268276
#
# number of rings (size 3 to 8) (size 9 to 14) (size 15 to 20)
#    0.000    3.000    0.000    3.000    0.000    8.500 
#    0.000    0.000    0.000    1.500    0.000    3.500 
#    0.000    0.000    0.000    0.000    0.000    0.000 
#
# Total GULP energy -396653.575502 kJ/mol
# GULP energy per Si atom -12395.424234 kJ/mol
# Density = 1.722897 g / cm^3
# Si number density = 17.268276 Si / 1000 Ang^3
#
#
#
# Elastic Constant Matrix: (Units=GPa)
#
#
# Indices 1 2 3 4 5 6 
#
# 1 110.5650 59.0912 40.9565 0.0000 0.0000 0.0000
# 2 59.0912 144.8013 40.0127 0.0000 0.0000 0.0000
# 3 40.9565 40.0127 51.4772 0.0000 0.0000 0.0000
# 4 0.0000 0.0000 0.0000 12.9546 0.0000 0.0000
# 5 0.0000 0.0000 0.0000 0.0000 19.5991 0.0000
# 6 0.0000 0.0000 0.0000 0.0000 0.0000 27.1867
#
#
#
# Elastic Compliance Matrix: (Units=1/GPa)
#
#
# Indices 1 2 3 4 5 6 
#
# 1 0.013997 -0.003355 -0.008528 0.000000 0.000000 0.000000
# 2 -0.003355 0.009599 -0.004792 0.000000 0.000000 0.000000
# 3 -0.008528 -0.004792 0.029936 0.000000 0.000000 0.000000
# 4 0.000000 0.000000 0.000000 0.077193 0.000000 0.000000
# 5 0.000000 0.000000 0.000000 0.000000 0.051023 0.000000
# 6 0.000000 0.000000 0.000000 0.000000 0.000000 0.036783
#
#
# Mechanical properties :
#
#
# Convention : Reuss Voigt Hill
#
# Bulk Modulus (GPa) = 49.55059 65.21827 57.38443
# Shear Modulus (GPa) = 19.33427 23.06695 21.20061
#
# Velocity S-wave (km/s) = 3.34973 3.65882 3.50768
# Velocity P-wave (km/s) = 6.61195 7.46318 7.05042
#
# Compressibility (1/GPa) = 0.02018139
#
# Stress axis : x y z
#
# Youngs Moduli (GPa) = 71.44522 104.17295 33.40464
#
# Poissons Ratio (x) = 0.34953 0.28488
# Poissons Ratio (y) = 0.23972 0.16007
# Poissons Ratio (z) = 0.60929 0.49919
#
# Static dielectric constant tensor:
#      x y z
#    x 3.489380 0.000000 0.000000 
#    y 0.000000 3.311680 0.000000 
#    z 0.000000 0.000000 2.781190 
# 
# 
# High freq. dielectric constant tensor:
#      x y z
#    x 1.677730 0.000000 0.000000 
#    y 0.000000 1.655360 0.000000 
#    z 0.000000 0.000000 1.619840 
# 
# From -- ./inp_files/14111.got.cif
#   From: 2010.03.12/outbox.cif.g09.slc.cpg/sg36_8_cif.got.tgz:14111.got - 2010.04.14 02:13:53.
