data_PCOD8175647
_publ_section_title
;
Structure prediction by ZEFSAII (Michael W. Deem and Ramdas Pophale) SiO2 
 PCOD8175647
Probable space group: C M C 21
;
_chemical_formula_sum "Si O2"
_cell_formula_units_Z 48
_cell_length_a 9.579695
_cell_length_b 9.872527
_cell_length_c 26.345932
_cell_angle_alpha 90.000000
_cell_angle_beta 90.000000
_cell_angle_gamma 90.000000
_cell_volume 2491.687531
_symmetry_space_group_name_H-M "C M C 21"
_symmetry_group_IT_number 36
_symmetry_cell_setting 'orthorhombic'
loop_
_space_group_symop_operation_xyz
x,y,z
-x,-y,1/2+z
x,-y,1/2+z
-x,y,z
1/2+x,1/2+y,z
1/2-x,1/2-y,1/2+z
1/2+x,1/2-y,1/2+z
1/2-x,1/2+y,z
loop_
_atom_site_type_symbol
_atom_site_label
_atom_site_fract_x
_atom_site_fract_y
_atom_site_fract_z
Si Si1 0.338804 0.830214 0.238620
Si Si2 0.838207 0.392237 0.791983
Si Si3 0.838486 0.585484 0.626370
Si Si4 0.338667 0.427212 0.459530
Si Si5 0.661376 0.637817 0.073789
Si Si6 0.662224 0.150108 0.406746
O O1 0.500000 0.785984 0.239055
O O2 0.248389 0.702247 0.254657
O O3 0.291372 0.872280 0.182532
O O4 0.311004 0.952666 0.277329
O O5 0.786182 0.372278 0.849434
O O6 0.000000 0.352757 0.786207
O O7 0.750232 0.456068 0.610588
O O8 0.807762 0.706710 0.587379
O O9 0.000000 0.543054 0.625882
O O10 0.500000 0.469958 0.457504
O O11 0.294268 0.381934 0.515701
O O12 0.307698 0.305056 0.421004
O O13 0.247316 0.555301 0.444517
O O14 0.500000 0.602358 0.082962
O O15 0.500000 0.113380 0.413267
#
# Coordination Sequence:
#
# PCOD8175647 Si02
#       6
#     8   8   8   8   8   8
#     4  10  21  36  55  81 110 141 180 222 265 318
#     4  10  21  36  55  81 110 141 180 222 265 318
#     4  10  21  37  56  79 109 143 178 220 269 318
#     4  10  21  36  54  78 106 137 177 221 265 318
#     4  10  21  36  54  78 106 137 177 221 265 318
#     4  10  21  37  56  79 109 143 178 220 269 318
#
# _framework density 19.264053000000001
#
# number of rings (size 3 to 8) (size 9 to 14) (size 15 to 20)
#    0.000    2.000    0.000    3.000    0.000    5.333 
#    0.000    0.000    0.000    0.000    0.000    0.000 
#    0.000    0.000    0.000    0.000    0.000    0.000 
#
# Total GULP energy -297754.295837 kJ/mol
# GULP energy per Si atom -12406.428993 kJ/mol
# Density = 1.922021 g / cm^3
# Si number density = 19.264053 Si / 1000 Ang^3
#
#
#
# Elastic Constant Matrix: (Units=GPa)
#
#
# Indices 1 2 3 4 5 6 
#
# 1 42.3554 20.1750 16.7244 0.0000 0.0000 0.0000
# 2 20.1750 38.4042 -1.4041 0.0000 0.0000 0.0000
# 3 16.7244 -1.4041 76.1383 0.0000 0.0000 0.0000
# 4 0.0000 0.0000 0.0000 39.6764 0.0000 0.0000
# 5 0.0000 0.0000 0.0000 0.0000 31.5173 0.0000
# 6 0.0000 0.0000 0.0000 0.0000 0.0000 27.7652
#
#
#
# Elastic Compliance Matrix: (Units=1/GPa)
#
#
# Indices 1 2 3 4 5 6 
#
# 1 0.036037 -0.019234 -0.008271 0.000000 0.000000 0.000000
# 2 -0.019234 0.036322 0.004895 0.000000 0.000000 0.000000
# 3 -0.008271 0.004895 0.015041 0.000000 0.000000 0.000000
# 4 0.000000 0.000000 0.000000 0.025204 0.000000 0.000000
# 5 0.000000 0.000000 0.000000 0.000000 0.031729 0.000000
# 6 0.000000 0.000000 0.000000 0.000000 0.000000 0.036016
#
#
# Mechanical properties :
#
#
# Convention : Reuss Voigt Hill
#
# Bulk Modulus (GPa) = 23.70757 25.32094 24.51426
# Shear Modulus (GPa) = 20.86562 27.88526 24.37544
#
# Velocity S-wave (km/s) = 3.29468 3.80877 3.56101
# Velocity P-wave (km/s) = 5.17750 5.70219 5.44617
#
# Compressibility (1/GPa) = 0.04218061
#
# Stress axis : x y z
#
# Youngs Moduli (GPa) = 27.74920 27.53148 66.48518
#
# Poissons Ratio (x) = 0.52954 0.54987
# Poissons Ratio (y) = 0.53373 -0.32543
# Poissons Ratio (z) = 0.22950 -0.13476
#
# Static dielectric constant tensor:
#      x y z
#    x 3.420700 0.000000 0.000000 
#    y 0.000000 3.392850 0.000000 
#    z 0.000000 0.000000 3.680550 
# 
# 
# High freq. dielectric constant tensor:
#      x y z
#    x 1.742470 0.000000 0.000000 
#    y 0.000000 1.752030 0.000000 
#    z 0.000000 0.000000 1.767140 
# 
# From -- ./inp_files/16436.got.cif
#   From: 2010.03.12/outbox.cif.g09.slc.cpg/sg36_9_cif.got.tgz:16436.got - 2010.04.14 02:13:53.
