data_PCOD8175978
_publ_section_title
;
Structure prediction by ZEFSAII (Michael W. Deem and Ramdas Pophale) SiO2 
 PCOD8175978
Probable space group: C M C 21
;
_chemical_formula_sum "Si O2"
_cell_formula_units_Z 64
_cell_length_a 8.993988
_cell_length_b 30.348212
_cell_length_c 12.027861
_cell_angle_alpha 90.000000
_cell_angle_beta 90.000000
_cell_angle_gamma 90.000000
_cell_volume 3283.022155
_symmetry_space_group_name_H-M "C M C 21"
_symmetry_group_IT_number 36
_symmetry_cell_setting 'orthorhombic'
loop_
_space_group_symop_operation_xyz
x,y,z
-x,-y,1/2+z
x,-y,1/2+z
-x,y,z
1/2+x,1/2+y,z
1/2-x,1/2-y,1/2+z
1/2+x,1/2-y,1/2+z
1/2-x,1/2+y,z
loop_
_atom_site_type_symbol
_atom_site_label
_atom_site_fract_x
_atom_site_fract_y
_atom_site_fract_z
Si Si1 0.827284 0.052474 0.866080
Si Si2 0.167259 0.327834 0.144678
Si Si3 0.678630 0.208474 0.418286
Si Si4 0.177666 0.301670 0.381809
Si Si5 0.674452 0.455980 0.933151
Si Si6 0.172198 0.871832 0.534220
Si Si7 0.675143 0.628520 0.292335
Si Si8 0.167169 0.427640 0.143847
O O1 0.790792 0.081742 0.974649
O O2 0.735643 0.071841 0.765217
O O3 0.000000 0.054977 0.835994
O O4 0.775716 0.002184 0.880736
O O5 0.241668 0.321452 0.265381
O O6 0.173904 0.377651 0.102484
O O7 0.000000 0.311261 0.160310
O O8 0.238295 0.299907 0.044159
O O9 0.500000 0.210487 0.412173
O O10 0.752573 0.253645 0.383367
O O11 0.734690 0.170205 0.336825
O O12 0.233901 0.331934 0.482390
O O13 0.000000 0.299538 0.388842
O O14 0.500000 0.453961 0.949689
O O15 0.729127 0.415857 0.855414
O O16 0.743413 0.456199 0.055667
O O17 0.214475 0.877527 0.662926
O O18 0.000000 0.859421 0.519879
O O19 0.500000 0.636353 0.310707
O O20 0.000000 0.445588 0.149533
#
# Coordination Sequence:
#
# PCOD8175978 Si02
#       8
#     8   8   8   8   8   8   8   8
#     4  10  22  39  63  91 121 158 203 251 298 352
#     4   9  20  39  61  82 117 156 189 242 301 348
#     4  11  23  41  62  88 119 156 199 245 299 356
#     4  11  23  41  62  88 119 156 199 245 299 356
#     4  10  22  39  63  91 121 158 203 251 298 352
#     4  10  22  40  60  86 121 160 199 245 300 354
#     4  10  22  40  60  86 121 160 199 245 300 354
#     4  11  21  39  63  88 121 158 199 248 303 358
#
# _framework density 19.494233999999999
#
# number of rings (size 3 to 8) (size 9 to 14) (size 15 to 20)
#    0.000    1.750    2.500    1.125    3.500    1.000 
#    0.000    1.875    0.000    0.000    0.000    0.000 
#    0.000    0.000    0.000    0.000    0.000    0.000 
#
# Total GULP energy -396788.057813 kJ/mol
# GULP energy per Si atom -12399.626807 kJ/mol
# Density = 1.944986 g / cm^3
# Si number density = 19.494234 Si / 1000 Ang^3
#
#
#
# Elastic Constant Matrix: (Units=GPa)
#
#
# Indices 1 2 3 4 5 6 
#
# 1 53.1946 43.7220 40.8671 0.0000 0.0000 0.0000
# 2 43.7220 121.7927 42.3889 0.0000 0.0000 0.0000
# 3 40.8671 42.3889 130.1889 0.0000 0.0000 0.0000
# 4 0.0000 0.0000 0.0000 13.3521 0.0000 0.0000
# 5 0.0000 0.0000 0.0000 0.0000 28.3869 0.0000
# 6 0.0000 0.0000 0.0000 0.0000 0.0000 25.6588
#
#
#
# Elastic Compliance Matrix: (Units=1/GPa)
#
#
# Indices 1 2 3 4 5 6 
#
# 1 0.031447 -0.008857 -0.006988 0.000000 0.000000 0.000000
# 2 -0.008857 0.011755 -0.001047 0.000000 0.000000 0.000000
# 3 -0.006988 -0.001047 0.010215 0.000000 0.000000 0.000000
# 4 0.000000 0.000000 0.000000 0.074895 0.000000 0.000000
# 5 0.000000 0.000000 0.000000 0.000000 0.035227 0.000000
# 6 0.000000 0.000000 0.000000 0.000000 0.000000 0.038973
#
#
# Mechanical properties :
#
#
# Convention : Reuss Voigt Hill
#
# Bulk Modulus (GPa) = 50.93244 62.12579 56.52912
# Shear Modulus (GPa) = 20.58967 25.35945 22.97456
#
# Velocity S-wave (km/s) = 3.25344 3.61067 3.43670
# Velocity P-wave (km/s) = 6.34798 7.02286 6.69393
#
# Compressibility (1/GPa) = 0.01963385
#
# Stress axis : x y z
#
# Youngs Moduli (GPa) = 31.79951 85.07284 97.89061
#
# Poissons Ratio (x) = 0.75350 0.68402
# Poissons Ratio (y) = 0.28165 0.10249
# Poissons Ratio (z) = 0.22220 0.08907
#
# Static dielectric constant tensor:
#      x y z
#    x 3.439740 0.000000 0.000000 
#    y 0.000000 3.710400 0.000000 
#    z 0.000000 0.000000 3.690140 
# 
# 
# High freq. dielectric constant tensor:
#      x y z
#    x 1.745390 0.000000 0.000000 
#    y 0.000000 1.766260 0.000000 
#    z 0.000000 0.000000 1.773190 
# 
# From -- ./inp_files/7171.got.cif
#   From: 2010.03.12/outbox.cif.g09.slc.cpg/sg36_4_cif.got.tgz:7171.got - 2010.04.14 02:13:53.
