data_PCOD8175091
_publ_section_title
;
Structure prediction by ZEFSAII (Michael W. Deem and Ramdas Pophale) SiO2 
 PCOD8175091
Probable space group: C M C 21
;
_chemical_formula_sum "Si O2"
_cell_formula_units_Z 40
_cell_length_a 8.123722
_cell_length_b 28.801644
_cell_length_c 8.870118
_cell_angle_alpha 90.000000
_cell_angle_beta 90.000000
_cell_angle_gamma 90.000000
_cell_volume 2075.399599
_symmetry_space_group_name_H-M "C M C 21"
_symmetry_group_IT_number 36
_symmetry_cell_setting 'orthorhombic'
loop_
_space_group_symop_operation_xyz
x,y,z
-x,-y,1/2+z
x,-y,1/2+z
-x,y,z
1/2+x,1/2+y,z
1/2-x,1/2-y,1/2+z
1/2+x,1/2-y,1/2+z
1/2-x,1/2+y,z
loop_
_atom_site_type_symbol
_atom_site_label
_atom_site_fract_x
_atom_site_fract_y
_atom_site_fract_z
Si Si1 0.500000 0.455523 0.223261
Si Si2 0.312887 0.097797 0.593324
Si Si3 0.188579 0.701740 0.637417
Si Si4 0.188653 0.713774 0.307216
Si Si5 0.500000 0.555807 0.082376
Si Si6 0.179473 0.120282 0.279519
O O1 0.330221 0.434665 0.158478
O O2 0.500000 0.508496 0.174933
O O3 0.500000 0.451570 0.404051
O O4 0.500000 0.079253 0.626743
O O5 0.289390 0.147535 0.675632
O O6 0.301524 0.102582 0.411090
O O7 0.264853 0.711685 0.473856
O O8 0.288485 0.734330 0.749334
O O9 0.000000 0.717374 0.647032
O O10 0.270348 0.671175 0.213627
O O11 0.000000 0.700799 0.315063
O O12 0.663757 0.584645 0.137015
O O13 0.000000 0.124138 0.357806
#
# Coordination Sequence:
#
# PCOD8175091 Si02
#       6
#     4   8   8   8   4   8
#     4  12  22  44  66  90 126 158 202 262 309 378
#     4  10  21  39  64  91 123 162 207 253 311 370
#     4   9  20  35  51  81 115 156 202 246 293 357
#     4  10  20  33  54  82 120 158 206 250 299 356
#     4  10  24  40  68  92 118 162 210 248 321 376
#     4   9  18  38  61  87 115 161 201 251 306 360
#
# _framework density 19.273396999999999
#
# number of rings (size 3 to 8) (size 9 to 14) (size 15 to 20)
#    0.600    1.600    1.000    3.600    1.400    3.200 
#    0.000    9.000    0.000    0.000    0.000    0.000 
#    0.000    0.000    0.000    0.000    0.000    0.000 
#
# Total GULP energy -247763.357363 kJ/mol
# GULP energy per Si atom -12388.167868 kJ/mol
# Density = 1.922953 g / cm^3
# Si number density = 19.273397 Si / 1000 Ang^3
#
#
#
# Elastic Constant Matrix: (Units=GPa)
#
#
# Indices 1 2 3 4 5 6 
#
# 1 80.4312 14.5021 7.9901 0.0000 0.0000 0.0000
# 2 14.5021 52.4022 -7.2046 0.0000 0.0000 0.0000
# 3 7.9901 -7.2046 33.8100 0.0000 0.0000 0.0000
# 4 0.0000 0.0000 0.0000 34.7446 0.0000 0.0000
# 5 0.0000 0.0000 0.0000 0.0000 23.3600 0.0000
# 6 0.0000 0.0000 0.0000 0.0000 0.0000 28.0800
#
#
#
# Elastic Compliance Matrix: (Units=1/GPa)
#
#
# Indices 1 2 3 4 5 6 
#
# 1 0.013628 -0.004341 -0.004146 0.000000 0.000000 0.000000
# 2 -0.004341 0.021042 0.005510 0.000000 0.000000 0.000000
# 3 -0.004146 0.005510 0.031731 0.000000 0.000000 0.000000
# 4 0.000000 0.000000 0.000000 0.028781 0.000000 0.000000
# 5 0.000000 0.000000 0.000000 0.000000 0.042808 0.000000
# 6 0.000000 0.000000 0.000000 0.000000 0.000000 0.035613
#
#
# Mechanical properties :
#
#
# Convention : Reuss Voigt Hill
#
# Bulk Modulus (GPa) = 16.54361 21.91318 19.22839
# Shear Modulus (GPa) = 25.03683 27.32730 26.18207
#
# Velocity S-wave (km/s) = 3.60812 3.76956 3.68972
# Velocity P-wave (km/s) = 5.09513 5.50821 5.30569
#
# Compressibility (1/GPa) = 0.06044632
#
# Stress axis : x y z
#
# Youngs Moduli (GPa) = 73.38059 47.52366 31.51511
#
# Poissons Ratio (x) = 0.20632 0.13065
# Poissons Ratio (y) = 0.31857 -0.17364
# Poissons Ratio (z) = 0.30421 -0.26185
#
# Static dielectric constant tensor:
#      x y z
#    x 3.511500 0.000000 0.000000 
#    y 0.000000 3.555180 0.000000 
#    z 0.000000 0.000000 3.305430 
# 
# 
# High freq. dielectric constant tensor:
#      x y z
#    x 1.749110 0.000000 0.000000 
#    y 0.000000 1.752380 0.000000 
#    z 0.000000 0.000000 1.724310 
# 
# From -- ./inp_files/2543.got.cif
#   From: 2010.03.12/outbox.cif.g09.slc.cpg/sg36_2_cif.got.tgz:2543.got - 2010.04.14 02:13:53.
