data_PCOD8175743
_publ_section_title
;
Structure prediction by ZEFSAII (Michael W. Deem and Ramdas Pophale) SiO2 
 PCOD8175743
Probable space group: C M C 21
;
_chemical_formula_sum "Si O2"
_cell_formula_units_Z 56
_cell_length_a 13.436251
_cell_length_b 34.801220
_cell_length_c 5.268862
_cell_angle_alpha 90.000000
_cell_angle_beta 90.000000
_cell_angle_gamma 90.000000
_cell_volume 2463.708949
_symmetry_space_group_name_H-M "C M C 21"
_symmetry_group_IT_number 36
_symmetry_cell_setting 'orthorhombic'
loop_
_space_group_symop_operation_xyz
x,y,z
-x,-y,1/2+z
x,-y,1/2+z
-x,y,z
1/2+x,1/2+y,z
1/2-x,1/2-y,1/2+z
1/2+x,1/2-y,1/2+z
1/2-x,1/2+y,z
loop_
_atom_site_type_symbol
_atom_site_label
_atom_site_fract_x
_atom_site_fract_y
_atom_site_fract_z
Si Si1 0.879962 0.095703 0.554000
Si Si2 0.135582 0.479111 0.618061
Si Si3 0.819349 0.295194 0.152027
Si Si4 0.352209 0.489008 0.108041
Si Si5 0.500000 0.907665 0.621811
Si Si6 0.110764 0.867014 0.553490
Si Si7 0.693612 0.290806 0.651789
Si Si8 0.500000 0.145604 0.621963
O O1 0.825173 0.055543 0.599970
O O2 0.836044 0.112197 0.291297
O O3 0.000000 0.091570 0.549507
O O4 0.840024 0.122817 0.782407
O O5 0.092240 0.499824 0.367446
O O6 0.255446 0.483018 0.618421
O O7 0.098547 0.434815 0.619592
O O8 0.775320 0.299005 0.434232
O O9 0.857432 0.250944 0.130335
O O10 0.905005 0.326368 0.116732
O O11 0.738614 0.299668 0.928798
O O12 0.415575 0.498685 0.360461
O O13 0.500000 0.880413 0.374220
O O14 0.500000 0.881204 0.873206
O O15 0.107220 0.821587 0.601875
O O16 0.000000 0.883275 0.542963
#
# Coordination Sequence:
#
# PCOD8175743 Si02
#       8
#     8   8   8   8   4   8   8   4
#     4  10  21  38  57  89 129 154 203 267 312 377
#     4  10  21  41  62  85 116 162 218 264 317 387
#     4  10  23  43  65  94 135 166 216 258 308 383
#     4  10  21  38  56  85 113 159 206 251 311 382
#     4  12  24  43  66  90 132 168 212 278 326 369
#     4  10  21  38  63  95 124 164 207 255 325 375
#     4  10  21  43  67  95 128 174 210 259 308 378
#     4  12  26  45  64 104 134 174 212 266 332 377
#
# _framework density 22.729959000000001
#
# number of rings (size 3 to 8) (size 9 to 14) (size 15 to 20)
#    0.000    1.714    0.000    3.857    1.000    0.571 
#   30.857    0.000    0.000    0.000    0.000    0.000 
#    0.000    0.000    0.000    0.000    0.000    0.000 
#
# Total GULP energy -346865.769597 kJ/mol
# GULP energy per Si atom -12388.063200 kJ/mol
# Density = 2.267822 g / cm^3
# Si number density = 22.729959 Si / 1000 Ang^3
#
#
#
# Elastic Constant Matrix: (Units=GPa)
#
#
# Indices 1 2 3 4 5 6 
#
# 1 54.0961 24.8601 9.3053 0.0000 0.0000 0.0000
# 2 24.8601 138.1254 50.5582 0.0000 0.0000 0.0000
# 3 9.3053 50.5582 208.0296 0.0000 0.0000 0.0000
# 4 0.0000 0.0000 0.0000 48.4069 0.0000 0.0000
# 5 0.0000 0.0000 0.0000 0.0000 0.9604 0.0000
# 6 0.0000 0.0000 0.0000 0.0000 0.0000 91.8028
#
#
#
# Elastic Compliance Matrix: (Units=1/GPa)
#
#
# Indices 1 2 3 4 5 6 
#
# 1 0.020153 -0.003619 -0.000022 0.000000 0.000000 0.000000
# 2 -0.003619 0.008597 -0.001927 0.000000 0.000000 0.000000
# 3 -0.000022 -0.001927 0.005276 0.000000 0.000000 0.000000
# 4 0.000000 0.000000 0.000000 0.020658 0.000000 0.000000
# 5 0.000000 0.000000 0.000000 0.000000 1.041246 0.000000
# 6 0.000000 0.000000 0.000000 0.000000 0.000000 0.010893
#
#
# Mechanical properties :
#
#
# Convention : Reuss Voigt Hill
#
# Bulk Modulus (GPa) = 43.68932 63.29980 53.49456
# Shear Modulus (GPa) = 4.44212 49.26919 26.85566
#
# Velocity S-wave (km/s) = 1.39948 4.66079 3.44104
# Velocity P-wave (km/s) = 4.67698 7.54142 6.27484
#
# Compressibility (1/GPa) = 0.02288889
#
# Stress axis : x y z
#
# Youngs Moduli (GPa) = 49.62157 116.32431 189.52282
#
# Poissons Ratio (x) = 0.42099 0.00415
# Poissons Ratio (y) = 0.17958 0.36529
# Poissons Ratio (z) = 0.00109 0.22420
#
# Static dielectric constant tensor:
#      x y z
#    x 3.561350 0.000000 0.000000 
#    y 0.000000 4.219240 0.000000 
#    z 0.000000 0.000000 5.179340 
# 
# 
# High freq. dielectric constant tensor:
#      x y z
#    x 1.858250 0.000000 0.000000 
#    y 0.000000 1.906800 0.000000 
#    z 0.000000 0.000000 1.935420 
# 
# From -- ./inp_files/964.got.cif
#   From: 2010.03.12/outbox.cif.g09.slc.cpg/sg36_1_cif.got.tgz:964.got - 2010.04.14 02:13:53.
