data_PCOD8175991
_publ_section_title
;
Structure prediction by ZEFSAII (Michael W. Deem and Ramdas Pophale) SiO2 
 PCOD8175991
Probable space group: C M C 21
;
_chemical_formula_sum "Si O2"
_cell_formula_units_Z 48
_cell_length_a 28.151188
_cell_length_b 4.982448
_cell_length_c 16.033106
_cell_angle_alpha 90.000000
_cell_angle_beta 90.000000
_cell_angle_gamma 90.000000
_cell_volume 2248.832794
_symmetry_space_group_name_H-M "C M C 21"
_symmetry_group_IT_number 36
_symmetry_cell_setting 'orthorhombic'
loop_
_space_group_symop_operation_xyz
x,y,z
-x,-y,1/2+z
x,-y,1/2+z
-x,y,z
1/2+x,1/2+y,z
1/2-x,1/2-y,1/2+z
1/2+x,1/2-y,1/2+z
1/2-x,1/2+y,z
loop_
_atom_site_type_symbol
_atom_site_label
_atom_site_fract_x
_atom_site_fract_y
_atom_site_fract_z
Si Si1 0.720196 0.259535 0.866910
Si Si2 0.053250 0.490672 0.714021
Si Si3 0.873946 0.850814 0.964806
Si Si4 0.946750 0.009269 0.825350
Si Si5 0.279804 0.240481 0.672476
Si Si6 0.873946 0.350813 0.074573
O O1 0.763475 0.459840 0.890452
O O2 0.675397 0.372118 0.916278
O O3 0.706884 0.250006 0.769693
O O4 0.051743 0.749958 0.769691
O O5 0.083467 0.556070 0.633037
O O6 0.000000 0.408845 0.684949
O O7 0.075638 0.249960 0.769681
O O8 0.916533 0.943897 0.906337
O O9 0.877325 0.543607 0.994378
O O10 0.877332 0.043610 0.044999
O O11 0.000000 0.091107 0.854418
O O12 0.263474 0.540173 0.648933
O O13 0.324604 0.127912 0.623107
#
# Coordination Sequence:
#
# PCOD8175991 Si02
#       6
#     8   8   8   8   8   8
#     4  10  22  40  61  84 115 160 207 246 288 349
#     4  10  22  42  66  88 116 159 205 246 292 357
#     4  12  25  38  60  93 126 158 193 249 313 361
#     4  10  22  42  66  88 116 159 205 246 292 357
#     4  10  22  40  61  84 115 160 207 246 288 349
#     4  12  25  38  60  93 126 158 193 249 313 361
#
# _framework density 21.344405999999999
#
# number of rings (size 3 to 8) (size 9 to 14) (size 15 to 20)
#    0.000    1.333    0.000    5.000    0.000    9.333 
#    0.000    0.000    0.000    0.000    0.000    0.000 
#    0.000    0.000    0.000    0.000    0.000    0.000 
#
# Total GULP energy -297614.728961 kJ/mol
# GULP energy per Si atom -12400.613707 kJ/mol
# Density = 2.129583 g / cm^3
# Si number density = 21.344406 Si / 1000 Ang^3
#
#
#
# Elastic Constant Matrix: (Units=GPa)
#
#
# Indices 1 2 3 4 5 6 
#
# 1 99.3211 16.3495 60.1856 0.0000 0.0000 0.0000
# 2 16.3495 106.4521 29.0776 0.0000 0.0000 0.0000
# 3 60.1856 29.0776 86.8765 0.0000 0.0000 0.0000
# 4 0.0000 0.0000 0.0000 49.4291 0.0000 0.0000
# 5 0.0000 0.0000 0.0000 0.0000 397.5703 0.0000
# 6 0.0000 0.0000 0.0000 0.0000 0.0000 32.4033
#
#
#
# Elastic Compliance Matrix: (Units=1/GPa)
#
#
# Indices 1 2 3 4 5 6 
#
# 1 0.017398 0.000683 -0.012281 0.000000 0.000000 0.000000
# 2 0.000683 0.010366 -0.003942 0.000000 0.000000 0.000000
# 3 -0.012281 -0.003942 0.021338 0.000000 0.000000 0.000000
# 4 0.000000 0.000000 0.000000 0.020231 0.000000 0.000000
# 5 0.000000 0.000000 0.000000 0.000000 0.002515 0.000000
# 6 0.000000 0.000000 0.000000 0.000000 0.000000 0.030861
#
#
# Mechanical properties :
#
#
# Convention : Reuss Voigt Hill
#
# Bulk Modulus (GPa) = 55.49378 55.98610 55.73994
# Shear Modulus (GPa) = 35.76568 108.34968 72.05768
#
# Velocity S-wave (km/s) = 4.09791 7.13251 5.81660
# Velocity P-wave (km/s) = 6.96032 9.70140 8.44285
#
# Compressibility (1/GPa) = 0.01802004
#
# Stress axis : x y z
#
# Youngs Moduli (GPa) = 57.47731 96.46996 46.86405
#
# Poissons Ratio (x) = -0.06585 0.57556
# Poissons Ratio (y) = -0.03923 0.18475
# Poissons Ratio (z) = 0.70590 0.38032
#
# Static dielectric constant tensor:
#      x y z
#    x 3.961240 0.000000 0.000000 
#    y 0.000000 4.065330 0.000000 
#    z 0.000000 0.000000 3.754710 
# 
# 
# High freq. dielectric constant tensor:
#      x y z
#    x 1.835770 0.000000 0.000000 
#    y 0.000000 1.858660 0.000000 
#    z 0.000000 0.000000 1.834260 
# 
# From -- ./inp_files/13129.got.cif
#   From: 2010.03.12/outbox.cif.g09.slc.cpg/sg36_7_cif.got.tgz:13129.got - 2010.04.14 02:13:53.
