data_PCOD8175180
_publ_section_title
;
Structure prediction by ZEFSAII (Michael W. Deem and Ramdas Pophale) SiO2 
 PCOD8175180
Probable space group: C M C 21
;
_chemical_formula_sum "Si O2"
_cell_formula_units_Z 56
_cell_length_a 22.310534
_cell_length_b 14.154991
_cell_length_c 8.962800
_cell_angle_alpha 90.000000
_cell_angle_beta 90.000000
_cell_angle_gamma 90.000000
_cell_volume 2830.500711
_symmetry_space_group_name_H-M "C M C 21"
_symmetry_group_IT_number 36
_symmetry_cell_setting 'orthorhombic'
loop_
_space_group_symop_operation_xyz
x,y,z
-x,-y,1/2+z
x,-y,1/2+z
-x,y,z
1/2+x,1/2+y,z
1/2-x,1/2-y,1/2+z
1/2+x,1/2-y,1/2+z
1/2-x,1/2+y,z
loop_
_atom_site_type_symbol
_atom_site_label
_atom_site_fract_x
_atom_site_fract_y
_atom_site_fract_z
Si Si1 0.262353 0.851512 0.961250
Si Si2 0.237903 0.342441 0.305817
Si Si3 0.392250 0.800196 0.967438
Si Si4 0.392144 0.795033 0.309389
Si Si5 0.152061 0.092165 0.960376
Si Si6 0.000000 0.400510 0.812468
Si Si7 0.500000 0.895612 0.461688
Si Si8 0.651861 0.586898 0.311067
O O1 0.248978 0.759636 0.868241
O O2 0.333953 0.868298 0.949981
O O3 0.219089 0.926320 0.880470
O O4 0.243265 0.842813 0.132984
O O5 0.166791 0.361492 0.326034
O O6 0.279666 0.413054 0.398225
O O7 0.378609 0.691933 0.918905
O O8 0.442164 0.841560 0.860259
O O9 0.414741 0.799732 0.138467
O O10 0.441891 0.835539 0.418451
O O11 0.379338 0.685828 0.355768
O O12 0.116824 0.003970 0.882097
O O13 0.154745 0.076583 0.135312
O O14 0.000000 0.413288 0.636542
O O15 0.000000 0.503722 0.882670
#
# Coordination Sequence:
#
# PCOD8175180 Si02
#       8
#     8   8   8   8   8   4   4   8
#     4   9  17  31  53  80 111 147 183 224 273 324
#     4   9  17  31  53  80 111 147 183 224 273 324
#     4   9  20  39  59  81 113 149 187 233 281 327
#     4   9  20  39  59  81 113 149 187 233 281 327
#     4  10  20  34  56  86 119 154 187 227 277 332
#     4  12  26  42  63  84 105 140 185 234 284 334
#     4  12  26  42  63  84 105 140 185 234 284 334
#     4  10  20  34  56  86 119 154 187 227 277 332
#
# _framework density 19.784483000000002
#
# number of rings (size 3 to 8) (size 9 to 14) (size 15 to 20)
#    0.000    2.286    0.000    4.714    0.000    8.000 
#    0.000    0.714    0.000    0.000    0.000    0.000 
#    0.000    0.000    0.000    0.000    0.000    0.000 
#
# Total GULP energy -346932.224624 kJ/mol
# GULP energy per Si atom -12390.436594 kJ/mol
# Density = 1.973945 g / cm^3
# Si number density = 19.784483 Si / 1000 Ang^3
#
#
#
# Elastic Constant Matrix: (Units=GPa)
#
#
# Indices 1 2 3 4 5 6 
#
# 1 92.5208 45.1470 59.0808 0.0000 0.0000 0.0000
# 2 45.1470 121.5836 58.2858 0.0000 0.0000 0.0000
# 3 59.0808 58.2858 131.0322 0.0000 0.0000 0.0000
# 4 0.0000 0.0000 0.0000 37.6225 0.0000 0.0000
# 5 0.0000 0.0000 0.0000 0.0000 35.0912 0.0000
# 6 0.0000 0.0000 0.0000 0.0000 0.0000 15.1153
#
#
#
# Elastic Compliance Matrix: (Units=1/GPa)
#
#
# Indices 1 2 3 4 5 6 
#
# 1 0.016087 -0.003173 -0.005842 0.000000 0.000000 0.000000
# 2 -0.003173 0.011080 -0.003498 0.000000 0.000000 0.000000
# 3 -0.005842 -0.003498 0.011822 0.000000 0.000000 0.000000
# 4 0.000000 0.000000 0.000000 0.026580 0.000000 0.000000
# 5 0.000000 0.000000 0.000000 0.000000 0.028497 0.000000
# 6 0.000000 0.000000 0.000000 0.000000 0.000000 0.066158
#
#
# Mechanical properties :
#
#
# Convention : Reuss Voigt Hill
#
# Bulk Modulus (GPa) = 71.61827 74.46265 73.04046
# Shear Modulus (GPa) = 26.32905 29.74066 28.03485
#
# Velocity S-wave (km/s) = 3.65196 3.88136 3.76841
# Velocity P-wave (km/s) = 7.35257 7.60297 7.47882
#
# Compressibility (1/GPa) = 0.01396292
#
# Stress axis : x y z
#
# Youngs Moduli (GPa) = 62.16084 90.25402 84.58937
#
# Poissons Ratio (x) = 0.28637 0.49419
# Poissons Ratio (y) = 0.19723 0.29589
# Poissons Ratio (z) = 0.36315 0.31570
#
# Static dielectric constant tensor:
#      x y z
#    x 3.722500 0.000000 0.000000 
#    y 0.000000 3.874540 0.000000 
#    z 0.000000 0.000000 3.782950 
# 
# 
# High freq. dielectric constant tensor:
#      x y z
#    x 1.748700 0.000000 0.000000 
#    y 0.000000 1.777640 0.000000 
#    z 0.000000 0.000000 1.779480 
# 
# From -- ./inp_files/5258.got.cif
#   From: 2010.03.12/outbox.cif.g09.slc.cpg/sg36_3_cif.got.tgz:5258.got - 2010.04.14 02:13:53.
