data_PCOD8175013
_publ_section_title
;
Structure prediction by ZEFSAII (Michael W. Deem and Ramdas Pophale) SiO2 
 PCOD8175013
Probable space group: C M C 21
;
_chemical_formula_sum "Si O2"
_cell_formula_units_Z 64
_cell_length_a 18.449976
_cell_length_b 12.309797
_cell_length_c 14.115081
_cell_angle_alpha 90.000000
_cell_angle_beta 90.000000
_cell_angle_gamma 90.000000
_cell_volume 3205.753103
_symmetry_space_group_name_H-M "C M C 21"
_symmetry_group_IT_number 36
_symmetry_cell_setting 'orthorhombic'
loop_
_space_group_symop_operation_xyz
x,y,z
-x,-y,1/2+z
x,-y,1/2+z
-x,y,z
1/2+x,1/2+y,z
1/2-x,1/2-y,1/2+z
1/2+x,1/2-y,1/2+z
1/2-x,1/2+y,z
loop_
_atom_site_type_symbol
_atom_site_label
_atom_site_fract_x
_atom_site_fract_y
_atom_site_fract_z
Si Si1 0.288104 0.168352 0.766660
Si Si2 0.671218 0.008503 0.610805
Si Si3 0.689987 0.367695 0.639394
Si Si4 0.583799 0.202234 0.110734
Si Si5 0.161520 0.208067 0.429528
Si Si6 0.918071 0.051260 0.292304
Si Si7 0.173049 0.298660 0.977500
Si Si8 0.627535 0.319173 0.301258
O O1 0.329543 0.078677 0.706445
O O2 0.274003 0.281804 0.711352
O O3 0.339264 0.188689 0.857962
O O4 0.208220 0.129247 0.794978
O O5 0.650308 0.086757 0.523359
O O6 0.750133 0.952561 0.601494
O O7 0.607535 0.922178 0.617184
O O8 0.624183 0.428618 0.692888
O O9 0.661441 0.301755 0.548977
O O10 0.500000 0.207172 0.086098
O O11 0.600797 0.259963 0.208244
O O12 0.625959 0.264446 0.028689
O O13 0.119951 0.108378 0.381506
O O14 0.244749 0.179470 0.446890
O O15 0.000000 0.095528 0.280538
O O16 0.922733 0.923702 0.317213
O O17 0.123746 0.268516 0.886741
#
# Coordination Sequence:
#
# PCOD8175013 Si02
#       8
#     8   8   8   8   8   8   8   8
#     4   9  19  37  63  95 119 154 206 267 307 355
#     4  11  20  39  66  93 121 160 215 256 313 371
#     4  10  19  39  64  92 123 157 209 266 304 372
#     4  12  25  42  61  88 129 170 210 257 310 378
#     4  10  22  40  64  95 126 159 213 263 308 375
#     4  11  24  39  62  95 131 173 202 250 331 390
#     4  10  23  38  66  99 119 157 214 273 312 358
#     4  11  22  40  60  91 128 160 207 262 315 371
#
# _framework density 19.964108
#
# number of rings (size 3 to 8) (size 9 to 14) (size 15 to 20)
#    0.000    1.500    3.750    1.500    1.750    1.000 
#    0.000   11.250    0.000    0.000    0.000    0.000 
#    0.000    0.000    0.000    0.000    0.000    0.000 
#
# Total GULP energy -396790.694186 kJ/mol
# GULP energy per Si atom -12399.709193 kJ/mol
# Density = 1.991867 g / cm^3
# Si number density = 19.964108 Si / 1000 Ang^3
#
#
#
# Elastic Constant Matrix: (Units=GPa)
#
#
# Indices 1 2 3 4 5 6 
#
# 1 42.8381 11.0445 -10.6895 0.0000 0.0000 0.0000
# 2 11.0445 103.2181 30.0850 0.0000 0.0000 0.0000
# 3 -10.6895 30.0850 56.5916 0.0000 0.0000 0.0000
# 4 0.0000 0.0000 0.0000 14.5950 0.0000 0.0000
# 5 0.0000 0.0000 0.0000 0.0000 7.4173 0.0000
# 6 0.0000 0.0000 0.0000 0.0000 0.0000 10.7361
#
#
#
# Elastic Compliance Matrix: (Units=1/GPa)
#
#
# Indices 1 2 3 4 5 6 
#
# 1 0.026588 -0.005099 0.007733 0.000000 0.000000 0.000000
# 2 -0.005099 0.012442 -0.007578 0.000000 0.000000 0.000000
# 3 0.007733 -0.007578 0.023160 0.000000 0.000000 0.000000
# 4 0.000000 0.000000 0.000000 0.068517 0.000000 0.000000
# 5 0.000000 0.000000 0.000000 0.000000 0.134820 0.000000
# 6 0.000000 0.000000 0.000000 0.000000 0.000000 0.093144
#
#
# Mechanical properties :
#
#
# Convention : Reuss Voigt Hill
#
# Bulk Modulus (GPa) = 19.11965 29.28088 24.20026
# Shear Modulus (GPa) = 12.95362 18.03019 15.49190
#
# Velocity S-wave (km/s) = 2.55001 3.00847 2.78868
# Velocity P-wave (km/s) = 4.27409 5.17363 4.74523
#
# Compressibility (1/GPa) = 0.05230222
#
# Stress axis : x y z
#
# Youngs Moduli (GPa) = 37.61121 80.36984 43.17880
#
# Poissons Ratio (x) = 0.40979 -0.33389
# Poissons Ratio (y) = 0.19177 0.32720
# Poissons Ratio (z) = -0.29084 0.60902
#
# Static dielectric constant tensor:
#      x y z
#    x 3.419640 0.000000 0.000000 
#    y 0.000000 3.715230 0.000000 
#    z 0.000000 0.000000 3.936570 
# 
# 
# High freq. dielectric constant tensor:
#      x y z
#    x 1.752150 0.000000 0.000000 
#    y 0.000000 1.783580 0.000000 
#    z 0.000000 0.000000 1.791920 
# 
# From -- ./inp_files/12632.got.cif
#   From: 2010.03.12/outbox.cif.g09.slc.cpg/sg36_7_cif.got.tgz:12632.got - 2010.04.14 02:13:53.
