data_PCOD8175775
_publ_section_title
;
Structure prediction by ZEFSAII (Michael W. Deem and Ramdas Pophale) SiO2 
 PCOD8175775
Probable space group: C M C 21
;
_chemical_formula_sum "Si O2"
_cell_formula_units_Z 64
_cell_length_a 8.872608
_cell_length_b 24.238255
_cell_length_c 15.168206
_cell_angle_alpha 90.000000
_cell_angle_beta 90.000000
_cell_angle_gamma 90.000000
_cell_volume 3262.021828
_symmetry_space_group_name_H-M "C M C 21"
_symmetry_group_IT_number 36
_symmetry_cell_setting 'orthorhombic'
loop_
_space_group_symop_operation_xyz
x,y,z
-x,-y,1/2+z
x,-y,1/2+z
-x,y,z
1/2+x,1/2+y,z
1/2-x,1/2-y,1/2+z
1/2+x,1/2-y,1/2+z
1/2-x,1/2+y,z
loop_
_atom_site_type_symbol
_atom_site_label
_atom_site_fract_x
_atom_site_fract_y
_atom_site_fract_z
Si Si1 0.675722 0.255579 0.281720
Si Si2 0.177162 0.183698 0.427413
Si Si3 0.667049 0.627637 0.828909
Si Si4 0.325723 0.231804 0.079350
Si Si5 0.323188 0.985398 0.599016
Si Si6 0.667531 0.379754 0.534705
Si Si7 0.321548 0.441672 0.951470
Si Si8 0.180082 0.989368 0.280854
O O1 0.500000 0.253804 0.306034
O O2 0.752567 0.207120 0.337371
O O3 0.751085 0.314664 0.308474
O O4 0.705129 0.250182 0.178567
O O5 0.224183 0.219725 0.512570
O O6 0.234725 0.121331 0.441997
O O7 0.000000 0.183814 0.413735
O O8 0.500000 0.633098 0.787651
O O9 0.744044 0.573428 0.786996
O O10 0.656977 0.616826 0.931180
O O11 0.500000 0.216117 0.064161
O O12 0.221117 0.179920 0.063556
O O13 0.500000 0.994996 0.602691
O O14 0.251315 0.032919 0.538974
O O15 0.254513 0.984475 0.696029
O O16 0.287871 0.924837 0.563455
O O17 0.500000 0.391040 0.574465
O O18 0.500000 0.445122 0.963670
O O19 0.267902 0.475616 0.865845
O O20 0.000000 0.990117 0.273809
#
# Coordination Sequence:
#
# PCOD8175775 Si02
#       8
#     8   8   8   8   8   8   8   8
#     4  10  21  38  60  88 121 158 199 244 303 361
#     4  10  22  39  60  88 123 159 202 250 297 351
#     4   9  18  36  64  90 111 149 205 257 295 344
#     4  10  22  38  58  89 124 159 196 249 310 354
#     4  12  26  41  60  92 128 159 196 248 314 367
#     4  11  21  40  66  88 114 155 208 254 297 359
#     4  10  22  42  65  89 119 163 211 251 294 354
#     4  10  21  40  65  90 118 158 211 253 294 356
#
# _framework density 19.619733
#
# number of rings (size 3 to 8) (size 9 to 14) (size 15 to 20)
#    0.000    1.750    2.500    1.500    3.500    1.500 
#    0.000    0.625    0.000    0.000    0.000    0.000 
#    0.000    0.000    0.000    0.000    0.000    0.000 
#
# Total GULP energy -396788.027244 kJ/mol
# GULP energy per Si atom -12399.625851 kJ/mol
# Density = 1.957508 g / cm^3
# Si number density = 19.619733 Si / 1000 Ang^3
#
#
#
# Elastic Constant Matrix: (Units=GPa)
#
#
# Indices 1 2 3 4 5 6 
#
# 1 45.9557 23.7658 28.0954 0.0000 0.0000 0.0000
# 2 23.7658 133.3972 26.1433 0.0000 0.0000 0.0000
# 3 28.0954 26.1433 89.4152 0.0000 0.0000 0.0000
# 4 0.0000 0.0000 0.0000 32.8754 0.0000 0.0000
# 5 0.0000 0.0000 0.0000 0.0000 40.0987 0.0000
# 6 0.0000 0.0000 0.0000 0.0000 0.0000 24.7947
#
#
#
# Elastic Compliance Matrix: (Units=1/GPa)
#
#
# Indices 1 2 3 4 5 6 
#
# 1 0.028405 -0.003513 -0.007898 0.000000 0.000000 0.000000
# 2 -0.003513 0.008386 -0.001348 0.000000 0.000000 0.000000
# 3 -0.007898 -0.001348 0.014060 0.000000 0.000000 0.000000
# 4 0.000000 0.000000 0.000000 0.030418 0.000000 0.000000
# 5 0.000000 0.000000 0.000000 0.000000 0.024938 0.000000
# 6 0.000000 0.000000 0.000000 0.000000 0.000000 0.040331
#
#
# Mechanical properties :
#
#
# Convention : Reuss Voigt Hill
#
# Bulk Modulus (GPa) = 39.47424 47.19745 43.33584
# Shear Modulus (GPa) = 27.70052 32.27134 29.98593
#
# Velocity S-wave (km/s) = 3.76156 4.06006 3.91366
# Velocity P-wave (km/s) = 6.24733 6.78875 6.52366
#
# Compressibility (1/GPa) = 0.02533298
#
# Stress axis : x y z
#
# Youngs Moduli (GPa) = 35.20461 119.23968 71.12511
#
# Poissons Ratio (x) = 0.41886 0.56176
# Poissons Ratio (y) = 0.12366 0.09590
# Poissons Ratio (z) = 0.27806 0.16077
#
# Static dielectric constant tensor:
#      x y z
#    x 3.312210 0.000000 0.000000 
#    y 0.000000 3.827350 0.000000 
#    z 0.000000 0.000000 3.564220 
# 
# 
# High freq. dielectric constant tensor:
#      x y z
#    x 1.738740 0.000000 0.000000 
#    y 0.000000 1.782800 0.000000 
#    z 0.000000 0.000000 1.771930 
# 
# From -- ./inp_files/11119.got.cif
#   From: 2010.03.12/outbox.cif.g09.slc.cpg/sg36_6_cif.got.tgz:11119.got - 2010.04.14 02:13:53.
