data_PCOD8175939
_publ_section_title
;
Structure prediction by ZEFSAII (Michael W. Deem and Ramdas Pophale) SiO2 
 PCOD8175939
Probable space group: C M C 21
;
_chemical_formula_sum "Si O2"
_cell_formula_units_Z 56
_cell_length_a 26.030352
_cell_length_b 12.495829
_cell_length_c 9.548655
_cell_angle_alpha 90.000000
_cell_angle_beta 90.000000
_cell_angle_gamma 90.000000
_cell_volume 3105.898912
_symmetry_space_group_name_H-M "C M C 21"
_symmetry_group_IT_number 36
_symmetry_cell_setting 'orthorhombic'
loop_
_space_group_symop_operation_xyz
x,y,z
-x,-y,1/2+z
x,-y,1/2+z
-x,y,z
1/2+x,1/2+y,z
1/2-x,1/2-y,1/2+z
1/2+x,1/2-y,1/2+z
1/2-x,1/2+y,z
loop_
_atom_site_type_symbol
_atom_site_label
_atom_site_fract_x
_atom_site_fract_y
_atom_site_fract_z
Si Si1 0.891527 0.670062 0.541100
Si Si2 0.500000 0.133905 0.475537
Si Si3 0.677304 0.181214 0.291868
Si Si4 0.109548 0.416444 0.563682
Si Si5 0.770741 0.110881 0.715866
Si Si6 0.663840 0.208331 0.816272
Si Si7 0.279954 0.582845 0.397988
Si Si8 0.500000 0.071729 0.153914
O O1 0.850670 0.718712 0.433129
O O2 0.889313 0.541823 0.533933
O O3 0.876898 0.718465 0.690902
O O4 0.949024 0.706519 0.495568
O O5 0.500000 0.076303 0.323324
O O6 0.500000 0.051280 0.605504
O O7 0.640899 0.103891 0.204480
O O8 0.692359 0.286655 0.205862
O O9 0.727439 0.114100 0.324290
O O10 0.135419 0.355834 0.436668
O O11 0.051331 0.373704 0.589933
O O12 0.714165 0.144154 0.767208
O O13 0.769349 0.060454 0.561281
O O14 0.796513 0.027835 0.824539
O O15 0.677373 0.326385 0.872192
#
# Coordination Sequence:
#
# PCOD8175939 Si02
#       8
#     8   4   8   8   8   8   8   4
#     4  11  21  35  57  82 113 150 182 227 274 333
#     4  10  22  34  52  82 113 146 189 225 279 330
#     4  11  22  37  55  80 113 149 186 220 275 334
#     4  11  21  37  55  80 116 148 187 223 278 330
#     4  11  24  38  56  81 113 146 186 233 271 324
#     4  11  24  37  55  84 113 150 188 221 277 334
#     4  11  24  38  56  82 112 146 187 231 272 324
#     4  10  22  34  52  80 113 148 185 231 277 332
#
# _framework density 18.030206
#
# number of rings (size 3 to 8) (size 9 to 14) (size 15 to 20)
#    0.000    1.143    4.286    2.571   10.000    0.000 
#    0.000    0.000    0.000    0.000    0.000    6.000 
#    0.000    0.000    0.000    0.000    0.000    0.000 
#
# Total GULP energy -347230.328099 kJ/mol
# GULP energy per Si atom -12401.083146 kJ/mol
# Density = 1.798917 g / cm^3
# Si number density = 18.030206 Si / 1000 Ang^3
#
#
#
# Elastic Constant Matrix: (Units=GPa)
#
#
# Indices 1 2 3 4 5 6 
#
# 1 100.6730 21.3909 23.9151 0.0000 0.0000 0.0000
# 2 21.3909 35.6463 21.4481 0.0000 0.0000 0.0000
# 3 23.9151 21.4481 100.4421 0.0000 0.0000 0.0000
# 4 0.0000 0.0000 0.0000 31.0003 0.0000 0.0000
# 5 0.0000 0.0000 0.0000 0.0000 7.1817 0.0000
# 6 0.0000 0.0000 0.0000 0.0000 0.0000 10.9647
#
#
#
# Elastic Compliance Matrix: (Units=1/GPa)
#
#
# Indices 1 2 3 4 5 6 
#
# 1 0.011568 -0.006064 -0.001460 0.000000 0.000000 0.000000
# 2 -0.006064 0.035368 -0.006109 0.000000 0.000000 0.000000
# 3 -0.001460 -0.006109 0.011608 0.000000 0.000000 0.000000
# 4 0.000000 0.000000 0.000000 0.032258 0.000000 0.000000
# 5 0.000000 0.000000 0.000000 0.000000 0.139243 0.000000
# 6 0.000000 0.000000 0.000000 0.000000 0.000000 0.091202
#
#
# Mechanical properties :
#
#
# Convention : Reuss Voigt Hill
#
# Bulk Modulus (GPa) = 31.96921 41.14107 36.55514
# Shear Modulus (GPa) = 13.93003 21.16316 17.54660
#
# Velocity S-wave (km/s) = 2.78257 3.42974 3.12296
# Velocity P-wave (km/s) = 5.30029 6.20899 5.77255
#
# Compressibility (1/GPa) = 0.03128009
#
# Stress axis : x y z
#
# Youngs Moduli (GPa) = 86.44314 28.27445 86.14826
#
# Poissons Ratio (x) = 0.17145 0.12574
# Poissons Ratio (y) = 0.52417 0.52624
# Poissons Ratio (z) = 0.12617 0.17272
#
# Static dielectric constant tensor:
#      x y z
#    x 3.679380 0.000000 0.000000 
#    y 0.000000 3.127030 0.000000 
#    z 0.000000 0.000000 3.657300 
# 
# 
# High freq. dielectric constant tensor:
#      x y z
#    x 1.698420 0.000000 0.000000 
#    y 0.000000 1.659110 0.000000 
#    z 0.000000 0.000000 1.721600 
# 
# From -- ./inp_files/5647.got.cif
#   From: 2010.03.12/outbox.cif.g09.slc.cpg/sg36_3_cif.got.tgz:5647.got - 2010.04.14 02:13:53.
