data_PCOD8175507
_publ_section_title
;
Structure prediction by ZEFSAII (Michael W. Deem and Ramdas Pophale) SiO2 
 PCOD8175507
Probable space group: C M C 21
;
_chemical_formula_sum "Si O2"
_cell_formula_units_Z 48
_cell_length_a 15.625683
_cell_length_b 8.855269
_cell_length_c 16.626719
_cell_angle_alpha 90.000000
_cell_angle_beta 90.000000
_cell_angle_gamma 90.000000
_cell_volume 2300.632894
_symmetry_space_group_name_H-M "C M C 21"
_symmetry_group_IT_number 36
_symmetry_cell_setting 'orthorhombic'
loop_
_space_group_symop_operation_xyz
x,y,z
-x,-y,1/2+z
x,-y,1/2+z
-x,y,z
1/2+x,1/2+y,z
1/2-x,1/2-y,1/2+z
1/2+x,1/2-y,1/2+z
1/2-x,1/2+y,z
loop_
_atom_site_type_symbol
_atom_site_label
_atom_site_fract_x
_atom_site_fract_y
_atom_site_fract_z
Si Si1 0.325545 0.220830 0.020250
Si Si2 0.000000 0.215133 0.023182
Si Si3 0.683770 0.233146 0.833654
Si Si4 0.500000 0.429569 0.352838
Si Si5 0.829652 0.044712 0.768534
Si Si6 0.500000 0.781517 0.348023
Si Si7 0.500000 0.071118 0.015452
Si Si8 0.834038 0.950261 0.585560
O O1 0.329871 0.400553 0.031088
O O2 0.249619 0.151041 0.072363
O O3 0.308306 0.183566 0.926451
O O4 0.414379 0.147784 0.051801
O O5 0.000000 0.394583 0.034630
O O6 0.000000 0.177017 0.929575
O O7 0.916260 0.148002 0.064279
O O8 0.697268 0.411330 0.828450
O O9 0.588057 0.192319 0.798757
O O10 0.753346 0.163544 0.774648
O O11 0.581756 0.384285 0.299288
O O12 0.500000 0.606514 0.379196
O O13 0.840886 0.992375 0.678101
O O14 0.500000 0.898530 0.420700
#
# Coordination Sequence:
#
# PCOD8175507 Si02
#       8
#     8   4   8   4   8   4   4   8
#     4  11  22  41  64  90 123 164 211 260 310 374
#     4  12  23  39  64  90 120 165 213 258 308 379
#     4  10  20  38  61  85 117 162 206 250 305 373
#     4  10  21  40  63  86 119 166 209 248 308 378
#     4  11  23  39  60  90 124 160 203 258 316 366
#     4   8  18  37  59  84 115 151 199 256 302 353
#     4  10  22  38  62  92 118 152 209 262 304 358
#     4  12  24  40  62  93 129 164 205 264 320 366
#
# _framework density 20.863824000000001
#
# number of rings (size 3 to 8) (size 9 to 14) (size 15 to 20)
#    0.000    1.333    0.000    8.000    0.000    4.000 
#    0.000    0.833    0.000    2.000    0.000    0.000 
#    0.000    0.000    0.000    0.000    0.000    0.000 
#
# Total GULP energy -297594.572543 kJ/mol
# GULP energy per Si atom -12399.773856 kJ/mol
# Density = 2.081634 g / cm^3
# Si number density = 20.863824 Si / 1000 Ang^3
#
#
#
# Elastic Constant Matrix: (Units=GPa)
#
#
# Indices 1 2 3 4 5 6 
#
# 1 175.0722 49.8349 18.4445 0.0000 0.0000 0.0000
# 2 49.8349 92.7982 -4.8350 0.0000 0.0000 0.0000
# 3 18.4445 -4.8350 69.0256 0.0000 0.0000 0.0000
# 4 0.0000 0.0000 0.0000 8.4147 0.0000 0.0000
# 5 0.0000 0.0000 0.0000 0.0000 5.8174 0.0000
# 6 0.0000 0.0000 0.0000 0.0000 0.0000 36.3593
#
#
#
# Elastic Compliance Matrix: (Units=1/GPa)
#
#
# Indices 1 2 3 4 5 6 
#
# 1 0.007049 -0.003898 -0.002156 0.000000 0.000000 0.000000
# 2 -0.003898 0.012971 0.001950 0.000000 0.000000 0.000000
# 3 -0.002156 0.001950 0.015200 0.000000 0.000000 0.000000
# 4 0.000000 0.000000 0.000000 0.118840 0.000000 0.000000
# 5 0.000000 0.000000 0.000000 0.000000 0.171899 0.000000
# 6 0.000000 0.000000 0.000000 0.000000 0.000000 0.027503
#
#
# Mechanical properties :
#
#
# Convention : Reuss Voigt Hill
#
# Bulk Modulus (GPa) = 37.02131 51.53164 44.27647
# Shear Modulus (GPa) = 13.48894 28.34838 20.91866
#
# Velocity S-wave (km/s) = 2.54544 3.69010 3.16987
# Velocity P-wave (km/s) = 5.14021 6.55045 5.88771
#
# Compressibility (1/GPa) = 0.02701147
#
# Stress axis : x y z
#
# Youngs Moduli (GPa) = 141.87228 77.09628 65.78860
#
# Poissons Ratio (x) = 0.30049 0.14187
# Poissons Ratio (y) = 0.55296 -0.12829
# Poissons Ratio (z) = 0.30595 -0.15034
#
# Static dielectric constant tensor:
#      x y z
#    x 4.254090 0.000000 0.000000 
#    y 0.000000 3.704360 0.000000 
#    z 0.000000 0.000000 3.498390 
# 
# 
# High freq. dielectric constant tensor:
#      x y z
#    x 1.844150 0.000000 0.000000 
#    y 0.000000 1.811890 0.000000 
#    z 0.000000 0.000000 1.799940 
# 
# From -- ./inp_files/12525.got.cif
#   From: 2010.03.12/outbox.cif.g09.slc.cpg/sg36_7_cif.got.tgz:12525.got - 2010.04.14 02:13:53.
