data_PCOD8175164
_publ_section_title
;
Structure prediction by ZEFSAII (Michael W. Deem and Ramdas Pophale) SiO2 
 PCOD8175164
Probable space group: C M C 21
;
_chemical_formula_sum "Si O2"
_cell_formula_units_Z 64
_cell_length_a 9.023405
_cell_length_b 25.427530
_cell_length_c 14.302637
_cell_angle_alpha 90.000000
_cell_angle_beta 90.000000
_cell_angle_gamma 90.000000
_cell_volume 3281.638530
_symmetry_space_group_name_H-M "C M C 21"
_symmetry_group_IT_number 36
_symmetry_cell_setting 'orthorhombic'
loop_
_space_group_symop_operation_xyz
x,y,z
-x,-y,1/2+z
x,-y,1/2+z
-x,y,z
1/2+x,1/2+y,z
1/2-x,1/2-y,1/2+z
1/2+x,1/2-y,1/2+z
1/2-x,1/2+y,z
loop_
_atom_site_type_symbol
_atom_site_label
_atom_site_fract_x
_atom_site_fract_y
_atom_site_fract_z
Si Si1 0.830379 0.918461 0.637840
Si Si2 0.670200 0.761497 0.666866
Si Si3 0.675309 0.140604 0.288428
Si Si4 0.827927 0.984184 0.468457
Si Si5 0.323778 0.354749 0.168194
Si Si6 0.832698 0.338465 0.516896
Si Si7 0.330236 0.899178 0.342615
Si Si8 0.673807 0.395150 0.967699
O O1 0.730817 0.910970 0.730535
O O2 0.798656 0.971923 0.579203
O O3 0.794151 0.872831 0.564288
O O4 0.000000 0.915121 0.670471
O O5 0.500000 0.754523 0.692835
O O6 0.734789 0.806544 0.735979
O O7 0.744331 0.704298 0.679780
O O8 0.688782 0.779388 0.557338
O O9 0.500000 0.138886 0.293619
O O10 0.741996 0.140186 0.391744
O O11 0.728401 0.949127 0.400128
O O12 0.000000 0.973206 0.445218
O O13 0.784033 0.044243 0.451770
O O14 0.500000 0.355276 0.174476
O O15 0.261534 0.392295 0.248463
O O16 0.270209 0.377229 0.069179
O O17 0.814545 0.345493 0.405267
O O18 0.000000 0.357682 0.546115
O O19 0.500000 0.909828 0.316410
O O20 0.500000 0.385412 0.956567
#
# Coordination Sequence:
#
# PCOD8175164 Si02
#       8
#     8   8   8   8   8   8   8   8
#     4   9  16  29  52  79 104 132 172 219 261 308
#     4   8  16  33  55  77 105 143 180 214 263 320
#     4  10  20  35  55  79 109 143 177 218 268 319
#     4   9  19  36  56  78 106 140 177 220 267 313
#     4  10  21  37  55  76 107 146 182 219 265 315
#     4   8  15  30  51  75 104 135 171 217 262 308
#     4  10  20  34  55  83 110 139 178 221 266 318
#     4  10  22  38  55  77 105 140 183 224 262 311
#
# _framework density 19.502452000000002
#
# number of rings (size 3 to 8) (size 9 to 14) (size 15 to 20)
#    0.000    2.750    0.000    1.875    0.000    4.000 
#    0.000    6.875    0.000    0.000    0.000    0.000 
#    0.000    0.000    0.000    0.000    0.000    0.000 
#
# Total GULP energy -396545.540784 kJ/mol
# GULP energy per Si atom -12392.048150 kJ/mol
# Density = 1.945806 g / cm^3
# Si number density = 19.502452 Si / 1000 Ang^3
#
#
#
# Elastic Constant Matrix: (Units=GPa)
#
#
# Indices 1 2 3 4 5 6 
#
# 1 50.5674 30.1606 44.3822 0.0000 0.0000 0.0000
# 2 30.1606 86.1054 49.6816 0.0000 0.0000 0.0000
# 3 44.3822 49.6816 145.7796 0.0000 0.0000 0.0000
# 4 0.0000 0.0000 0.0000 25.2336 0.0000 0.0000
# 5 0.0000 0.0000 0.0000 0.0000 31.1179 0.0000
# 6 0.0000 0.0000 0.0000 0.0000 0.0000 15.9344
#
#
#
# Elastic Compliance Matrix: (Units=1/GPa)
#
#
# Indices 1 2 3 4 5 6 
#
# 1 0.029597 -0.006433 -0.006818 0.000000 0.000000 0.000000
# 2 -0.006433 0.015855 -0.003445 0.000000 0.000000 0.000000
# 3 -0.006818 -0.003445 0.010109 0.000000 0.000000 0.000000
# 4 0.000000 0.000000 0.000000 0.039630 0.000000 0.000000
# 5 0.000000 0.000000 0.000000 0.000000 0.032136 0.000000
# 6 0.000000 0.000000 0.000000 0.000000 0.000000 0.062757
#
#
# Mechanical properties :
#
#
# Convention : Reuss Voigt Hill
#
# Bulk Modulus (GPa) = 45.10840 58.98900 52.04870
# Shear Modulus (GPa) = 21.65766 25.00571 23.33168
#
# Velocity S-wave (km/s) = 3.33605 3.58464 3.46258
# Velocity P-wave (km/s) = 6.16594 6.88807 6.53698
#
# Compressibility (1/GPa) = 0.02216882
#
# Stress axis : x y z
#
# Youngs Moduli (GPa) = 33.78742 63.07345 98.91737
#
# Poissons Ratio (x) = 0.40575 0.67445
# Poissons Ratio (y) = 0.21735 0.34074
# Poissons Ratio (z) = 0.23037 0.21727
#
# Static dielectric constant tensor:
#      x y z
#    x 3.356610 0.000000 0.000000 
#    y 0.000000 3.600330 0.000000 
#    z 0.000000 0.000000 3.630740 
# 
# 
# High freq. dielectric constant tensor:
#      x y z
#    x 1.743380 0.000000 0.000000 
#    y 0.000000 1.743030 0.000000 
#    z 0.000000 0.000000 1.760490 
# 
# From -- ./inp_files/10898.got.cif
#   From: 2010.03.12/outbox.cif.g09.slc.cpg/sg36_6_cif.got.tgz:10898.got - 2010.04.14 02:13:53.
