data_PCOD8175640
_publ_section_title
;
Structure prediction by ZEFSAII (Michael W. Deem and Ramdas Pophale) SiO2 
 PCOD8175640
Probable space group: C M C 21
;
_chemical_formula_sum "Si O2"
_cell_formula_units_Z 64
_cell_length_a 17.244178
_cell_length_b 14.496586
_cell_length_c 12.727320
_cell_angle_alpha 90.000000
_cell_angle_beta 90.000000
_cell_angle_gamma 90.000000
_cell_volume 3181.597209
_symmetry_space_group_name_H-M "C M C 21"
_symmetry_group_IT_number 36
_symmetry_cell_setting 'orthorhombic'
loop_
_space_group_symop_operation_xyz
x,y,z
-x,-y,1/2+z
x,-y,1/2+z
-x,y,z
1/2+x,1/2+y,z
1/2-x,1/2-y,1/2+z
1/2+x,1/2-y,1/2+z
1/2-x,1/2+y,z
loop_
_atom_site_type_symbol
_atom_site_label
_atom_site_fract_x
_atom_site_fract_y
_atom_site_fract_z
Si Si1 0.587086 0.680672 0.861300
Si Si2 0.587188 0.186233 0.168030
Si Si3 0.590777 0.167679 0.530191
Si Si4 0.174849 0.269784 0.229241
Si Si5 0.739753 0.092089 0.152282
Si Si6 0.587043 0.801594 0.432428
Si Si7 0.831606 0.481350 0.453416
Si Si8 0.280756 0.565894 0.785263
O O1 0.500000 0.646599 0.886617
O O2 0.589660 0.731593 0.750095
O O3 0.641154 0.590156 0.849850
O O4 0.616431 0.748414 0.954017
O O5 0.500000 0.141504 0.166932
O O6 0.651549 0.108721 0.198587
O O7 0.606582 0.229352 0.052370
O O8 0.500000 0.147928 0.516928
O O9 0.609554 0.189460 0.651346
O O10 0.637909 0.077110 0.497816
O O11 0.207253 0.179498 0.174337
O O12 0.140138 0.250047 0.345490
O O13 0.245991 0.339140 0.242334
O O14 0.790785 0.004559 0.189705
O O15 0.726762 0.074078 0.029845
O O16 0.500000 0.775598 0.402987
O O17 0.597569 0.912686 0.425252
O O18 0.779294 0.496171 0.351813
#
# Coordination Sequence:
#
# PCOD8175640 Si02
#       8
#     8   8   8   8   8   8   8   8
#     4  10  21  39  62  87 117 162 208 253 302 360
#     4   9  18  36  62  88 119 155 201 253 306 365
#     4  11  22  39  64  94 127 162 201 254 320 373
#     4  11  22  38  60  89 127 162 200 252 306 374
#     4  11  21  39  57  92 121 156 206 247 309 365
#     4   9  19  36  57  86 122 159 196 246 309 367
#     4  10  21  35  59  91 121 158 196 254 308 371
#     4  11  22  40  59  89 122 158 210 251 304 365
#
# _framework density 20.115683000000001
#
# number of rings (size 3 to 8) (size 9 to 14) (size 15 to 20)
#    0.000    1.750    2.500    2.250    0.000    0.500 
#    2.250    1.875    0.000    0.750    0.000    0.000 
#    0.000    0.000    0.000    0.000    0.000    0.000 
#
# Total GULP energy -396567.271067 kJ/mol
# GULP energy per Si atom -12392.727221 kJ/mol
# Density = 2.006990 g / cm^3
# Si number density = 20.115683 Si / 1000 Ang^3
#
#
#
# Elastic Constant Matrix: (Units=GPa)
#
#
# Indices 1 2 3 4 5 6 
#
# 1 73.4943 36.9887 27.8764 0.0000 0.0000 0.0000
# 2 36.9887 62.1195 17.3765 0.0000 0.0000 0.0000
# 3 27.8764 17.3765 82.6830 0.0000 0.0000 0.0000
# 4 0.0000 0.0000 0.0000 27.7200 0.0000 0.0000
# 5 0.0000 0.0000 0.0000 0.0000 27.0102 0.0000
# 6 0.0000 0.0000 0.0000 0.0000 0.0000 28.5111
#
#
#
# Elastic Compliance Matrix: (Units=1/GPa)
#
#
# Indices 1 2 3 4 5 6 
#
# 1 0.021043 -0.011204 -0.004740 0.000000 0.000000 0.000000
# 2 -0.011204 0.023069 -0.001071 0.000000 0.000000 0.000000
# 3 -0.004740 -0.001071 0.013917 0.000000 0.000000 0.000000
# 4 0.000000 0.000000 0.000000 0.036075 0.000000 0.000000
# 5 0.000000 0.000000 0.000000 0.000000 0.037023 0.000000
# 6 0.000000 0.000000 0.000000 0.000000 0.000000 0.035074
#
#
# Mechanical properties :
#
#
# Convention : Reuss Voigt Hill
#
# Bulk Modulus (GPa) = 41.66673 42.53110 42.09891
# Shear Modulus (GPa) = 24.01170 25.71860 24.86515
#
# Velocity S-wave (km/s) = 3.45872 3.57954 3.51965
# Velocity P-wave (km/s) = 6.05878 6.18654 6.12299
#
# Compressibility (1/GPa) = 0.02399996
#
# Stress axis : x y z
#
# Youngs Moduli (GPa) = 47.52095 43.34822 71.85203
#
# Poissons Ratio (x) = 0.48568 0.34058
# Poissons Ratio (y) = 0.53244 0.07693
# Poissons Ratio (z) = 0.22525 0.04641
#
# Static dielectric constant tensor:
#      x y z
#    x 3.717600 0.000000 0.000000 
#    y 0.000000 3.278250 0.000000 
#    z 0.000000 0.000000 3.819310 
# 
# 
# High freq. dielectric constant tensor:
#      x y z
#    x 1.782760 0.000000 0.000000 
#    y 0.000000 1.752130 0.000000 
#    z 0.000000 0.000000 1.799550 
# 
# From -- ./inp_files/8990.got.cif
#   From: 2010.03.12/outbox.cif.g09.slc.cpg/sg36_5_cif.got.tgz:8990.got - 2010.04.14 02:13:53.
