data_PCOD8175315
_publ_section_title
;
Structure prediction by ZEFSAII (Michael W. Deem and Ramdas Pophale) SiO2 
 PCOD8175315
Probable space group: C M C 21
;
_chemical_formula_sum "Si O2"
_cell_formula_units_Z 64
_cell_length_a 8.965187
_cell_length_b 23.741211
_cell_length_c 15.234140
_cell_angle_alpha 90.000000
_cell_angle_beta 90.000000
_cell_angle_gamma 90.000000
_cell_volume 3242.501330
_symmetry_space_group_name_H-M "C M C 21"
_symmetry_group_IT_number 36
_symmetry_cell_setting 'orthorhombic'
loop_
_space_group_symop_operation_xyz
x,y,z
-x,-y,1/2+z
x,-y,1/2+z
-x,y,z
1/2+x,1/2+y,z
1/2-x,1/2-y,1/2+z
1/2+x,1/2-y,1/2+z
1/2-x,1/2+y,z
loop_
_atom_site_type_symbol
_atom_site_label
_atom_site_fract_x
_atom_site_fract_y
_atom_site_fract_z
Si Si1 0.170775 0.127712 0.912650
Si Si2 0.171830 0.252699 0.868813
Si Si3 0.824232 0.446587 0.273026
Si Si4 0.675920 0.639333 0.436314
Si Si5 0.676334 0.132739 0.614635
Si Si6 0.675354 0.566680 0.268993
Si Si7 0.329244 0.355381 0.609587
Si Si8 0.171803 0.752367 0.165486
O O1 0.229781 0.190407 0.891956
O O2 0.268050 0.082284 0.861875
O O3 0.000000 0.122361 0.880885
O O4 0.186517 0.114359 0.015717
O O5 0.269006 0.296805 0.923506
O O6 0.194728 0.264226 0.766407
O O7 0.000000 0.259662 0.897502
O O8 0.771010 0.411020 0.188836
O O9 0.759804 0.508403 0.265801
O O10 0.000000 0.450336 0.277780
O O11 0.500000 0.640228 0.447741
O O12 0.749468 0.613372 0.523458
O O13 0.726058 0.600953 0.354880
O O14 0.500000 0.133376 0.603413
O O15 0.730018 0.194168 0.642128
O O16 0.500000 0.555068 0.269571
O O17 0.725615 0.601413 0.183521
O O18 0.500000 0.337008 0.627583
O O19 0.227437 0.300012 0.608208
O O20 0.000000 0.765702 0.143700
#
# Coordination Sequence:
#
# PCOD8175315 Si02
#       8
#     8   8   8   8   8   8   8   8
#     4  10  21  39  63  89 121 157 196 241 297 358
#     4  10  20  35  59  92 127 161 194 240 300 357
#     4  11  25  42  62  86 115 156 203 252 304 352
#     4  11  23  39  63  92 121 159 203 246 297 359
#     4  11  24  41  61  88 123 161 200 249 306 356
#     4  10  23  42  62  86 119 158 202 247 298 359
#     4  10  21  39  63  91 122 160 198 242 300 357
#     4  11  21  35  61  94 124 160 200 243 296 354
#
# _framework density 19.737848
#
# number of rings (size 3 to 8) (size 9 to 14) (size 15 to 20)
#    0.000    1.500    2.500    2.250    0.000    6.500 
#    0.000    3.750    0.000    0.000    0.000    0.000 
#    0.000    0.000    0.000    0.000    0.000    0.000 
#
# Total GULP energy -397002.097039 kJ/mol
# GULP energy per Si atom -12406.315532 kJ/mol
# Density = 1.969292 g / cm^3
# Si number density = 19.737848 Si / 1000 Ang^3
#
#
#
# Elastic Constant Matrix: (Units=GPa)
#
#
# Indices 1 2 3 4 5 6 
#
# 1 61.5640 44.7363 44.9566 0.0000 0.0000 0.0000
# 2 44.7363 132.7492 57.0258 0.0000 0.0000 0.0000
# 3 44.9566 57.0258 105.4344 0.0000 0.0000 0.0000
# 4 0.0000 0.0000 0.0000 11.5953 0.0000 0.0000
# 5 0.0000 0.0000 0.0000 0.0000 31.3024 0.0000
# 6 0.0000 0.0000 0.0000 0.0000 0.0000 30.3603
#
#
#
# Elastic Compliance Matrix: (Units=1/GPa)
#
#
# Indices 1 2 3 4 5 6 
#
# 1 0.026108 -0.005232 -0.008303 0.000000 0.000000 0.000000
# 2 -0.005232 0.010861 -0.003644 0.000000 0.000000 0.000000
# 3 -0.008303 -0.003644 0.014996 0.000000 0.000000 0.000000
# 4 0.000000 0.000000 0.000000 0.086242 0.000000 0.000000
# 5 0.000000 0.000000 0.000000 0.000000 0.031946 0.000000
# 6 0.000000 0.000000 0.000000 0.000000 0.000000 0.032938
#
#
# Mechanical properties :
#
#
# Convention : Reuss Voigt Hill
#
# Bulk Modulus (GPa) = 56.79037 65.90944 61.34990
# Shear Modulus (GPa) = 20.54939 24.85353 22.70146
#
# Velocity S-wave (km/s) = 3.23013 3.55234 3.39506
# Velocity P-wave (km/s) = 6.53808 7.09157 6.82044
#
# Compressibility (1/GPa) = 0.01760862
#
# Stress axis : x y z
#
# Youngs Moduli (GPa) = 38.30259 92.06955 66.68656
#
# Poissons Ratio (x) = 0.48168 0.55367
# Poissons Ratio (y) = 0.20039 0.24299
# Poissons Ratio (z) = 0.31801 0.33548
#
# Static dielectric constant tensor:
#      x y z
#    x 3.578430 0.000000 0.000000 
#    y 0.000000 3.484130 0.000000 
#    z 0.000000 0.000000 3.865080 
# 
# 
# High freq. dielectric constant tensor:
#      x y z
#    x 1.767900 0.000000 0.000000 
#    y 0.000000 1.763810 0.000000 
#    z 0.000000 0.000000 1.786380 
# 
# From -- ./inp_files/10897.got.cif
#   From: 2010.03.12/outbox.cif.g09.slc.cpg/sg36_6_cif.got.tgz:10897.got - 2010.04.14 02:13:53.
