data_PCOD8175043
_publ_section_title
;
Structure prediction by ZEFSAII (Michael W. Deem and Ramdas Pophale) SiO2 
 PCOD8175043
Probable space group: C M C 21
;
_chemical_formula_sum "Si O2"
_cell_formula_units_Z 48
_cell_length_a 8.469071
_cell_length_b 24.175340
_cell_length_c 11.961148
_cell_angle_alpha 90.000000
_cell_angle_beta 90.000000
_cell_angle_gamma 90.000000
_cell_volume 2448.957389
_symmetry_space_group_name_H-M "C M C 21"
_symmetry_group_IT_number 36
_symmetry_cell_setting 'orthorhombic'
loop_
_space_group_symop_operation_xyz
x,y,z
-x,-y,1/2+z
x,-y,1/2+z
-x,y,z
1/2+x,1/2+y,z
1/2-x,1/2-y,1/2+z
1/2+x,1/2-y,1/2+z
1/2-x,1/2+y,z
loop_
_atom_site_type_symbol
_atom_site_label
_atom_site_fract_x
_atom_site_fract_y
_atom_site_fract_z
Si Si1 0.816011 0.834375 0.699200
Si Si2 0.315084 0.144018 0.437040
Si Si3 0.688716 0.888366 0.288636
Si Si4 0.186208 0.421369 0.529464
Si Si5 0.186351 0.713101 0.649559
Si Si6 0.313449 0.041479 0.584557
O O1 0.790056 0.845976 0.829053
O O2 0.724315 0.879396 0.627677
O O3 0.743546 0.774207 0.668423
O O4 0.000000 0.837770 0.670432
O O5 0.500000 0.146703 0.406749
O O6 0.268679 0.191192 0.526611
O O7 0.269147 0.084036 0.485963
O O8 0.500000 0.887899 0.288796
O O9 0.758133 0.899963 0.411808
O O10 0.752405 0.829011 0.244251
O O11 0.750230 0.935993 0.203698
O O12 0.260795 0.481418 0.558274
O O13 0.000000 0.427018 0.516958
O O14 0.000000 0.715295 0.662593
O O15 0.500000 0.036606 0.592965
#
# Coordination Sequence:
#
# PCOD8175043 Si02
#       6
#     8   8   8   8   8   8
#     4  11  23  35  50  77 113 143 169 209 262 314
#     4   9  18  36  59  79 100 134 179 221 260 304
#     4   8  15  30  52  78 104 131 169 218 266 301
#     4  10  20  32  55  83 104 132 175 218 257 308
#     4   8  17  34  53  74 105 140 171 212 263 308
#     4   8  16  31  55  83 104 126 169 228 268 295
#
# _framework density 19.600178
#
# number of rings (size 3 to 8) (size 9 to 14) (size 15 to 20)
#    0.000    3.000    0.000    2.500    4.667    0.000 
#    0.000    1.667    0.000    4.000    0.000    0.000 
#    0.000    0.000    0.000    0.000    0.000    0.000 
#
# Total GULP energy -297511.631899 kJ/mol
# GULP energy per Si atom -12396.317996 kJ/mol
# Density = 1.955557 g / cm^3
# Si number density = 19.600178 Si / 1000 Ang^3
#
#
#
# Elastic Constant Matrix: (Units=GPa)
#
#
# Indices 1 2 3 4 5 6 
#
# 1 9.5579 5.2426 2.6194 0.0000 0.0000 0.0000
# 2 5.2426 177.8061 74.5530 0.0000 0.0000 0.0000
# 3 2.6194 74.5530 128.3725 0.0000 0.0000 0.0000
# 4 0.0000 0.0000 0.0000 26.8963 0.0000 0.0000
# 5 0.0000 0.0000 0.0000 0.0000 17.7429 0.0000
# 6 0.0000 0.0000 0.0000 0.0000 0.0000 14.9389
#
#
#
# Elastic Compliance Matrix: (Units=1/GPa)
#
#
# Indices 1 2 3 4 5 6 
#
# 1 0.106366 -0.002943 -0.000461 0.000000 0.000000 0.000000
# 2 -0.002943 0.007516 -0.004305 0.000000 0.000000 0.000000
# 3 -0.000461 -0.004305 0.010299 0.000000 0.000000 0.000000
# 4 0.000000 0.000000 0.000000 0.037180 0.000000 0.000000
# 5 0.000000 0.000000 0.000000 0.000000 0.056361 0.000000
# 6 0.000000 0.000000 0.000000 0.000000 0.000000 0.066939
#
#
# Mechanical properties :
#
#
# Convention : Reuss Voigt Hill
#
# Bulk Modulus (GPa) = 9.19428 53.39629 31.29528
# Shear Modulus (GPa) = 14.86622 27.47039 21.16830
#
# Velocity S-wave (km/s) = 2.75703 3.74777 3.28991
# Velocity P-wave (km/s) = 3.85176 6.78451 5.51660
#
# Compressibility (1/GPa) = 0.10876333
#
# Stress axis : x y z
#
# Youngs Moduli (GPa) = 9.40150 133.05195 97.09402
#
# Poissons Ratio (x) = 0.39155 0.04479
# Poissons Ratio (y) = 0.02767 0.41797
# Poissons Ratio (z) = 0.00434 0.57277
#
# Static dielectric constant tensor:
#      x y z
#    x 2.918690 0.000000 0.000000 
#    y 0.000000 4.152310 0.000000 
#    z 0.000000 0.000000 3.697920 
# 
# 
# High freq. dielectric constant tensor:
#      x y z
#    x 1.703890 0.000000 0.000000 
#    y 0.000000 1.777280 0.000000 
#    z 0.000000 0.000000 1.771580 
# 
# From -- ./inp_files/6715.got.cif
#   From: 2010.03.12/outbox.cif.g09.slc.cpg/sg36_4_cif.got.tgz:6715.got - 2010.04.14 02:13:53.
