data_PCOD8175942
_publ_section_title
;
Structure prediction by ZEFSAII (Michael W. Deem and Ramdas Pophale) SiO2 
 PCOD8175942
Probable space group: C M C 21
;
_chemical_formula_sum "Si O2"
_cell_formula_units_Z 48
_cell_length_a 9.265390
_cell_length_b 23.700629
_cell_length_c 11.839648
_cell_angle_alpha 90.000000
_cell_angle_beta 90.000000
_cell_angle_gamma 90.000000
_cell_volume 2599.934262
_symmetry_space_group_name_H-M "C M C 21"
_symmetry_group_IT_number 36
_symmetry_cell_setting 'orthorhombic'
loop_
_space_group_symop_operation_xyz
x,y,z
-x,-y,1/2+z
x,-y,1/2+z
-x,y,z
1/2+x,1/2+y,z
1/2-x,1/2-y,1/2+z
1/2+x,1/2-y,1/2+z
1/2-x,1/2+y,z
loop_
_atom_site_type_symbol
_atom_site_label
_atom_site_fract_x
_atom_site_fract_y
_atom_site_fract_z
Si Si1 0.329854 0.076675 0.921480
Si Si2 0.162633 0.033034 0.480310
Si Si3 0.328577 0.709123 0.548191
Si Si4 0.329410 0.833053 0.607909
Si Si5 0.167409 0.857985 0.835158
Si Si6 0.666138 0.607213 0.697042
O O1 0.500000 0.073421 0.908065
O O2 0.264011 0.091680 0.801646
O O3 0.275150 0.016883 0.965617
O O4 0.282712 0.124445 0.009837
O O5 0.191688 0.079977 0.385553
O O6 0.183573 0.058539 0.604266
O O7 0.000000 0.009545 0.466725
O O8 0.500000 0.706420 0.545137
O O9 0.269247 0.771344 0.573987
O O10 0.274431 0.688309 0.425275
O O11 0.276020 0.666399 0.645988
O O12 0.500000 0.831362 0.624894
O O13 0.259649 0.853381 0.723106
O O14 0.000000 0.847716 0.806516
O O15 0.500000 0.612147 0.735572
#
# Coordination Sequence:
#
# PCOD8175942 Si02
#       6
#     8   8   8   8   8   8
#     4  11  24  36  53  84 119 148 175 220 281 335
#     4   9  20  39  60  81 106 143 190 234 271 314
#     4   8  17  37  60  80 109 145 181 225 275 321
#     4  10  22  37  54  82 118 148 174 218 278 332
#     4   9  19  37  61  83 104 141 189 231 269 316
#     4   9  19  38  62  82 104 143 191 232 268 316
#
# _framework density 18.462005999999999
#
# number of rings (size 3 to 8) (size 9 to 14) (size 15 to 20)
#    0.000    2.667    0.000    2.500    4.667    2.667 
#    0.000    3.333    0.000    0.000    0.000    0.000 
#    0.000    0.000    0.000    0.000    0.000    0.000 
#
# Total GULP energy -297612.643932 kJ/mol
# GULP energy per Si atom -12400.526830 kJ/mol
# Density = 1.841999 g / cm^3
# Si number density = 18.462006 Si / 1000 Ang^3
#
#
#
# Elastic Constant Matrix: (Units=GPa)
#
#
# Indices 1 2 3 4 5 6 
#
# 1 48.6097 44.7293 54.5431 0.0000 0.0000 0.0000
# 2 44.7293 128.0129 71.2463 0.0000 0.0000 0.0000
# 3 54.5431 71.2463 129.7059 0.0000 0.0000 0.0000
# 4 0.0000 0.0000 0.0000 19.4350 0.0000 0.0000
# 5 0.0000 0.0000 0.0000 0.0000 26.8702 0.0000
# 6 0.0000 0.0000 0.0000 0.0000 0.0000 25.2307
#
#
#
# Elastic Compliance Matrix: (Units=1/GPa)
#
#
# Indices 1 2 3 4 5 6 
#
# 1 0.043068 -0.007157 -0.014179 0.000000 0.000000 0.000000
# 2 -0.007157 0.012441 -0.003824 0.000000 0.000000 0.000000
# 3 -0.014179 -0.003824 0.015773 0.000000 0.000000 0.000000
# 4 0.000000 0.000000 0.000000 0.051454 0.000000 0.000000
# 5 0.000000 0.000000 0.000000 0.000000 0.037216 0.000000
# 6 0.000000 0.000000 0.000000 0.000000 0.000000 0.039634
#
#
# Mechanical properties :
#
#
# Convention : Reuss Voigt Hill
#
# Bulk Modulus (GPa) = 47.70805 71.92953 59.81879
# Shear Modulus (GPa) = 19.46342 23.36116 21.41229
#
# Velocity S-wave (km/s) = 3.25043 3.56106 3.40928
# Velocity P-wave (km/s) = 6.32332 7.48021 6.92596
#
# Compressibility (1/GPa) = 0.02096082
#
# Stress axis : x y z
#
# Youngs Moduli (GPa) = 23.21934 80.38165 63.39997
#
# Poissons Ratio (x) = 0.57527 0.89897
# Poissons Ratio (y) = 0.16617 0.24244
# Poissons Ratio (z) = 0.32924 0.30738
#
# Static dielectric constant tensor:
#      x y z
#    x 3.160040 0.000000 0.000000 
#    y 0.000000 3.644240 0.000000 
#    z 0.000000 0.000000 3.376810 
# 
# 
# High freq. dielectric constant tensor:
#      x y z
#    x 1.694640 0.000000 0.000000 
#    y 0.000000 1.726650 0.000000 
#    z 0.000000 0.000000 1.725380 
# 
# From -- ./inp_files/6703.got.cif
#   From: 2010.03.12/outbox.cif.g09.slc.cpg/sg36_4_cif.got.tgz:6703.got - 2010.04.14 02:13:53.
