data_PCOD8175391
_publ_section_title
;
Structure prediction by ZEFSAII (Michael W. Deem and Ramdas Pophale) SiO2 
 PCOD8175391
Probable space group: C M C 21
;
_chemical_formula_sum "Si O2"
_cell_formula_units_Z 56
_cell_length_a 16.758310
_cell_length_b 14.422492
_cell_length_c 11.606792
_cell_angle_alpha 90.000000
_cell_angle_beta 90.000000
_cell_angle_gamma 90.000000
_cell_volume 2805.322069
_symmetry_space_group_name_H-M "C M C 21"
_symmetry_group_IT_number 36
_symmetry_cell_setting 'orthorhombic'
loop_
_space_group_symop_operation_xyz
x,y,z
-x,-y,1/2+z
x,-y,1/2+z
-x,y,z
1/2+x,1/2+y,z
1/2-x,1/2-y,1/2+z
1/2+x,1/2-y,1/2+z
1/2-x,1/2+y,z
loop_
_atom_site_type_symbol
_atom_site_label
_atom_site_fract_x
_atom_site_fract_y
_atom_site_fract_z
Si Si1 0.909014 0.426930 0.518950
Si Si2 0.000000 0.069662 0.943184
Si Si3 0.410671 0.125251 0.441525
Si Si4 0.690852 0.863954 0.308045
Si Si5 0.336056 0.332593 0.711599
Si Si6 0.500000 0.566547 0.219497
Si Si7 0.341591 0.680726 0.957486
Si Si8 0.184874 0.563345 0.234173
O O1 0.905625 0.539065 0.529201
O O2 0.877878 0.383991 0.400489
O O3 0.848003 0.392225 0.616239
O O4 0.000000 0.392487 0.537301
O O5 0.923215 0.132148 0.921119
O O6 0.000000 0.030901 0.080983
O O7 0.000000 0.001832 0.830856
O O8 0.500000 0.164810 0.435394
O O9 0.352725 0.209082 0.473988
O O10 0.387160 0.081586 0.320203
O O11 0.662510 0.776985 0.233339
O O12 0.776093 0.841510 0.362980
O O13 0.702699 0.953332 0.226558
O O14 0.422775 0.370874 0.741903
O O15 0.313745 0.357198 0.580320
O O16 0.265200 0.385102 0.779829
#
# Coordination Sequence:
#
# PCOD8175391 Si02
#       8
#     8   4   8   8   8   4   8   8
#     4  10  22  39  60  86 122 155 201 256 310 369
#     4  10  22  42  68  89 126 170 216 263 312 375
#     4  10  20  36  60  88 116 158 201 249 307 370
#     4  11  23  38  62  90 122 161 204 253 317 373
#     4  11  23  40  62  88 125 163 204 261 312 375
#     4  10  24  44  64  95 128 168 214 263 318 377
#     4  11  20  39  62  88 124 162 209 256 310 377
#     4  11  21  39  60  87 120 158 202 255 309 369
#
# _framework density 19.962057000000001
#
# number of rings (size 3 to 8) (size 9 to 14) (size 15 to 20)
#    0.000    1.429    3.571    2.143    1.000    0.571 
#    0.000    2.857    0.000    0.000    0.000    0.000 
#    0.000    0.000    0.000    0.000    0.000    0.000 
#
# Total GULP energy -346923.692428 kJ/mol
# GULP energy per Si atom -12390.131872 kJ/mol
# Density = 1.991662 g / cm^3
# Si number density = 19.962057 Si / 1000 Ang^3
#
#
#
# Elastic Constant Matrix: (Units=GPa)
#
#
# Indices 1 2 3 4 5 6 
#
# 1 125.7838 25.3045 21.7393 0.0000 0.0000 0.0000
# 2 25.3045 80.9711 12.1767 0.0000 0.0000 0.0000
# 3 21.7393 12.1767 61.3693 0.0000 0.0000 0.0000
# 4 0.0000 0.0000 0.0000 26.6200 0.0000 0.0000
# 5 0.0000 0.0000 0.0000 0.0000 20.6922 0.0000
# 6 0.0000 0.0000 0.0000 0.0000 0.0000 34.6108
#
#
#
# Elastic Compliance Matrix: (Units=1/GPa)
#
#
# Indices 1 2 3 4 5 6 
#
# 1 0.008891 -0.002376 -0.002678 0.000000 0.000000 0.000000
# 2 -0.002376 0.013365 -0.001810 0.000000 0.000000 0.000000
# 3 -0.002678 -0.001810 0.017603 0.000000 0.000000 0.000000
# 4 0.000000 0.000000 0.000000 0.037566 0.000000 0.000000
# 5 0.000000 0.000000 0.000000 0.000000 0.048327 0.000000
# 6 0.000000 0.000000 0.000000 0.000000 0.000000 0.028893
#
#
# Mechanical properties :
#
#
# Convention : Reuss Voigt Hill
#
# Bulk Modulus (GPa) = 38.26994 42.95170 40.61082
# Shear Modulus (GPa) = 28.23545 30.31153 29.27349
#
# Velocity S-wave (km/s) = 3.76501 3.90097 3.83359
# Velocity P-wave (km/s) = 6.17360 6.46942 6.32324
#
# Compressibility (1/GPa) = 0.02613017
#
# Stress axis : x y z
#
# Youngs Moduli (GPa) = 112.47379 74.82357 56.80960
#
# Poissons Ratio (x) = 0.17777 0.15214
# Poissons Ratio (y) = 0.26721 0.10284
# Poissons Ratio (z) = 0.30122 0.13545
#
# Static dielectric constant tensor:
#      x y z
#    x 3.647120 0.000000 0.000000 
#    y 0.000000 3.594270 0.000000 
#    z 0.000000 0.000000 3.621920 
# 
# 
# High freq. dielectric constant tensor:
#      x y z
#    x 1.796200 0.000000 0.000000 
#    y 0.000000 1.769780 0.000000 
#    z 0.000000 0.000000 1.772830 
# 
# From -- ./inp_files/8506.got.cif
#   From: 2010.03.12/outbox.cif.g09.slc.cpg/sg36_5_cif.got.tgz:8506.got - 2010.04.14 02:13:53.
