data_PCOD8175862
_publ_section_title
;
Structure prediction by ZEFSAII (Michael W. Deem and Ramdas Pophale) SiO2 
 PCOD8175862
Probable space group: C M C 21
;
_chemical_formula_sum "Si O2"
_cell_formula_units_Z 48
_cell_length_a 25.092770
_cell_length_b 4.970391
_cell_length_c 17.391761
_cell_angle_alpha 90.000000
_cell_angle_beta 90.000000
_cell_angle_gamma 90.000000
_cell_volume 2169.115705
_symmetry_space_group_name_H-M "C M C 21"
_symmetry_group_IT_number 36
_symmetry_cell_setting 'orthorhombic'
loop_
_space_group_symop_operation_xyz
x,y,z
-x,-y,1/2+z
x,-y,1/2+z
-x,y,z
1/2+x,1/2+y,z
1/2-x,1/2-y,1/2+z
1/2+x,1/2-y,1/2+z
1/2-x,1/2+y,z
loop_
_atom_site_type_symbol
_atom_site_label
_atom_site_fract_x
_atom_site_fract_y
_atom_site_fract_z
Si Si1 0.283513 0.728115 0.768990
Si Si2 0.938313 0.591047 0.645204
Si Si3 0.099952 0.904583 0.056349
Si Si4 0.216148 0.761851 0.089113
Si Si5 0.060677 0.091645 0.390336
Si Si6 0.396620 0.907151 0.808821
O O1 0.264304 0.430538 0.791273
O O2 0.297103 0.736976 0.679127
O O3 0.336110 0.804424 0.815728
O O4 0.933172 0.355384 0.582919
O O5 0.911120 0.498063 0.723483
O O6 0.000000 0.663748 0.658430
O O7 0.906950 0.855276 0.617372
O O8 0.161797 0.829092 0.045234
O O9 0.077013 0.003603 0.975266
O O10 0.237553 0.469824 0.065354
O O11 0.097275 0.341015 0.365479
O O12 0.000000 0.190486 0.388035
O O13 0.065911 0.839371 0.333223
#
# Coordination Sequence:
#
# PCOD8175862 Si02
#       6
#     8   8   8   8   8   8
#     4  10  21  39  66  97 129 166 213 271 330 384
#     4  12  24  41  68  98 128 167 232 283 317 385
#     4  12  25  44  67  99 131 175 222 273 333 395
#     4  10  21  39  66  97 129 166 213 272 330 383
#     4  12  26  45  66  94 140 182 213 266 346 402
#     4  12  25  44  67  99 131 176 223 273 332 393
#
# _framework density 22.128833
#
# number of rings (size 3 to 8) (size 9 to 14) (size 15 to 20)
#    0.000    0.667    1.667    7.000    4.667    0.000 
#    0.000    5.000    0.000    0.000    0.000    0.000 
#    0.000    0.000    0.000    0.000    0.000    0.000 
#
# Total GULP energy -297800.010180 kJ/mol
# GULP energy per Si atom -12408.333758 kJ/mol
# Density = 2.207847 g / cm^3
# Si number density = 22.128833 Si / 1000 Ang^3
#
#
#
# Elastic Constant Matrix: (Units=GPa)
#
#
# Indices 1 2 3 4 5 6 
#
# 1 112.0400 22.1122 40.0599 0.0000 0.0000 0.0000
# 2 22.1122 118.4805 23.6684 0.0000 0.0000 0.0000
# 3 40.0599 23.6684 63.9237 0.0000 0.0000 0.0000
# 4 0.0000 0.0000 0.0000 35.8304 0.0000 0.0000
# 5 0.0000 0.0000 0.0000 0.0000 19.1682 0.0000
# 6 0.0000 0.0000 0.0000 0.0000 0.0000 37.7044
#
#
#
# Elastic Compliance Matrix: (Units=1/GPa)
#
#
# Indices 1 2 3 4 5 6 
#
# 1 0.011567 -0.000767 -0.006965 0.000000 0.000000 0.000000
# 2 -0.000767 0.009165 -0.002913 0.000000 0.000000 0.000000
# 3 -0.006965 -0.002913 0.021087 0.000000 0.000000 0.000000
# 4 0.000000 0.000000 0.000000 0.027909 0.000000 0.000000
# 5 0.000000 0.000000 0.000000 0.000000 0.052170 0.000000
# 6 0.000000 0.000000 0.000000 0.000000 0.000000 0.026522
#
#
# Mechanical properties :
#
#
# Convention : Reuss Voigt Hill
#
# Bulk Modulus (GPa) = 48.71029 51.79170 50.25099
# Shear Modulus (GPa) = 28.32011 32.44752 30.38382
#
# Velocity S-wave (km/s) = 3.58129 3.83338 3.70948
# Velocity P-wave (km/s) = 6.25785 6.56114 6.41129
#
# Compressibility (1/GPa) = 0.02052954
#
# Stress axis : x y z
#
# Youngs Moduli (GPa) = 86.45217 109.10743 47.42316
#
# Poissons Ratio (x) = 0.08374 0.33029
# Poissons Ratio (y) = 0.06635 0.13812
# Poissons Ratio (z) = 0.60212 0.31779
#
# Static dielectric constant tensor:
#      x y z
#    x 4.036960 0.000000 0.000000 
#    y 0.000000 4.146510 0.000000 
#    z 0.000000 0.000000 3.769060 
# 
# 
# High freq. dielectric constant tensor:
#      x y z
#    x 1.882290 0.000000 0.000000 
#    y 0.000000 1.888160 0.000000 
#    z 0.000000 0.000000 1.849440 
# 
# From -- ./inp_files/13060.got.cif
#   From: 2010.03.12/outbox.cif.g09.slc.cpg/sg36_7_cif.got.tgz:13060.got - 2010.04.14 02:13:53.
