data_PCOD8175782
_publ_section_title
;
Structure prediction by ZEFSAII (Michael W. Deem and Ramdas Pophale) SiO2 
 PCOD8175782
Probable space group: C M C 21
;
_chemical_formula_sum "Si O2"
_cell_formula_units_Z 48
_cell_length_a 13.876649
_cell_length_b 17.217766
_cell_length_c 10.037305
_cell_angle_alpha 90.000000
_cell_angle_beta 90.000000
_cell_angle_gamma 90.000000
_cell_volume 2398.162047
_symmetry_space_group_name_H-M "C M C 21"
_symmetry_group_IT_number 36
_symmetry_cell_setting 'orthorhombic'
loop_
_space_group_symop_operation_xyz
x,y,z
-x,-y,1/2+z
x,-y,1/2+z
-x,y,z
1/2+x,1/2+y,z
1/2-x,1/2-y,1/2+z
1/2+x,1/2-y,1/2+z
1/2-x,1/2+y,z
loop_
_atom_site_type_symbol
_atom_site_label
_atom_site_fract_x
_atom_site_fract_y
_atom_site_fract_z
Si Si1 0.207951 0.447269 0.541300
Si Si2 0.112732 0.837627 0.182410
Si Si3 0.706778 0.178208 0.238024
Si Si4 0.391777 0.467970 0.388589
Si Si5 0.113945 0.472669 0.800789
Si Si6 0.108582 0.143511 0.378407
O O1 0.199700 0.356388 0.586621
O O2 0.320397 0.463442 0.514333
O O3 0.166360 0.499630 0.663224
O O4 0.143446 0.465215 0.412330
O O5 0.159579 0.761670 0.246016
O O6 0.143504 0.910921 0.271738
O O7 0.000000 0.825376 0.188396
O O8 0.144977 0.851558 0.030950
O O9 0.652231 0.115191 0.334758
O O10 0.817439 0.189804 0.284894
O O11 0.500000 0.448321 0.439314
O O12 0.388208 0.554469 0.329721
O O13 0.000000 0.472192 0.781479
O O14 0.000000 0.177265 0.362235
#
# Coordination Sequence:
#
# PCOD8175782 Si02
#       6
#     8   8   8   8   8   8
#     4  10  22  37  59  97 122 167 214 256 313 370
#     4  10  23  41  63  90 125 167 208 260 326 381
#     4  10  23  37  63  91 126 164 208 265 312 377
#     4  10  21  39  64  93 124 161 211 264 317 379
#     4  10  21  38  61  88 126 171 213 257 305 372
#     4  10  22  40  64  93 125 164 210 264 321 381
#
# _framework density 20.015328
#
# number of rings (size 3 to 8) (size 9 to 14) (size 15 to 20)
#    1.000    1.000    1.667    1.000    7.000    0.667 
#    0.000    0.000    0.000    0.000    0.000    0.000 
#    0.000    0.000    0.000    0.000    0.000    0.000 
#
# Total GULP energy -297420.013072 kJ/mol
# GULP energy per Si atom -12392.500545 kJ/mol
# Density = 1.996977 g / cm^3
# Si number density = 20.015328 Si / 1000 Ang^3
#
#
#
# Elastic Constant Matrix: (Units=GPa)
#
#
# Indices 1 2 3 4 5 6 
#
# 1 96.5592 22.5360 58.4472 0.0000 0.0000 0.0000
# 2 22.5360 62.4836 32.6531 0.0000 0.0000 0.0000
# 3 58.4472 32.6531 112.1866 0.0000 0.0000 0.0000
# 4 0.0000 0.0000 0.0000 27.9035 0.0000 0.0000
# 5 0.0000 0.0000 0.0000 0.0000 35.3463 0.0000
# 6 0.0000 0.0000 0.0000 0.0000 0.0000 26.5192
#
#
#
# Elastic Compliance Matrix: (Units=1/GPa)
#
#
# Indices 1 2 3 4 5 6 
#
# 1 0.015259 -0.001591 -0.007487 0.000000 0.000000 0.000000
# 2 -0.001591 0.019041 -0.004713 0.000000 0.000000 0.000000
# 3 -0.007487 -0.004713 0.014186 0.000000 0.000000 0.000000
# 4 0.000000 0.000000 0.000000 0.035838 0.000000 0.000000
# 5 0.000000 0.000000 0.000000 0.000000 0.028292 0.000000
# 6 0.000000 0.000000 0.000000 0.000000 0.000000 0.037709
#
#
# Mechanical properties :
#
#
# Convention : Reuss Voigt Hill
#
# Bulk Modulus (GPa) = 47.83680 55.38910 51.61295
# Shear Modulus (GPa) = 27.04534 28.46000 27.75267
#
# Velocity S-wave (km/s) = 3.67990 3.77491 3.72771
# Velocity P-wave (km/s) = 6.48132 6.83618 6.66111
#
# Compressibility (1/GPa) = 0.02090441
#
# Stress axis : x y z
#
# Youngs Moduli (GPa) = 65.53324 52.51798 70.49200
#
# Poissons Ratio (x) = 0.08356 0.52776
# Poissons Ratio (y) = 0.10427 0.33224
# Poissons Ratio (z) = 0.49063 0.24753
#
# Static dielectric constant tensor:
#      x y z
#    x 3.741800 0.000000 0.000000 
#    y 0.000000 3.354040 0.000000 
#    z 0.000000 0.000000 3.504720 
# 
# 
# High freq. dielectric constant tensor:
#      x y z
#    x 1.792690 0.000000 0.000000 
#    y 0.000000 1.754870 0.000000 
#    z 0.000000 0.000000 1.769160 
# 
# From -- ./inp_files/3999.got.cif
#   From: 2010.03.12/outbox.cif.g09.slc.cpg/sg36_2_cif.got.tgz:3999.got - 2010.04.14 02:13:53.
