data_PCOD8175819
_publ_section_title
;
Structure prediction by ZEFSAII (Michael W. Deem and Ramdas Pophale) SiO2 
 PCOD8175819
Probable space group: C M C 21
;
_chemical_formula_sum "Si O2"
_cell_formula_units_Z 40
_cell_length_a 11.984346
_cell_length_b 18.730305
_cell_length_c 7.967705
_cell_angle_alpha 90.000000
_cell_angle_beta 90.000000
_cell_angle_gamma 90.000000
_cell_volume 1788.514373
_symmetry_space_group_name_H-M "C M C 21"
_symmetry_group_IT_number 36
_symmetry_cell_setting 'orthorhombic'
loop_
_space_group_symop_operation_xyz
x,y,z
-x,-y,1/2+z
x,-y,1/2+z
-x,y,z
1/2+x,1/2+y,z
1/2-x,1/2-y,1/2+z
1/2+x,1/2-y,1/2+z
1/2-x,1/2+y,z
loop_
_atom_site_type_symbol
_atom_site_label
_atom_site_fract_x
_atom_site_fract_y
_atom_site_fract_z
Si Si1 0.131435 0.712419 0.750000
Si Si2 0.623546 0.945164 0.234324
Si Si3 0.370388 0.222154 0.136179
Si Si4 0.366735 0.315285 0.452213
Si Si5 0.794849 0.577835 0.079194
O O1 0.157974 0.634022 0.672908
O O2 0.178797 0.769955 0.615312
O O3 0.000000 0.723804 0.760741
O O4 0.177618 0.723816 0.942485
O O5 0.500000 0.966522 0.169123
O O6 0.616724 0.941094 0.435161
O O7 0.717021 0.004483 0.183927
O O8 0.500000 0.238843 0.135709
O O9 0.321680 0.281442 0.271533
O O10 0.346253 0.140685 0.197816
O O11 0.500000 0.315593 0.449317
O O12 0.320707 0.395367 0.487383
#
# Coordination Sequence:
#
# PCOD8175819 Si02
#       5
#     8   8   8   8   8
#     4   8  17  36  61  87 120 159 200 254 314 367
#     4  10  21  39  60  90 127 157 202 262 319 375
#     4   9  19  36  59  88 121 155 200 257 311 364
#     4  10  22  40  62  90 123 164 211 260 308 368
#     4  11  23  37  61  93 123 167 210 249 319 386
#
# _framework density 22.364930000000001
#
# number of rings (size 3 to 8) (size 9 to 14) (size 15 to 20)
#    0.000    2.400    0.000    3.000    8.400    0.000 
#    3.600    1.000    0.000    0.000    0.000    0.000 
#    0.000    0.000    0.000    0.000    0.000    0.000 
#
# Total GULP energy -247819.951285 kJ/mol
# GULP energy per Si atom -12390.997564 kJ/mol
# Density = 2.231403 g / cm^3
# Si number density = 22.364930 Si / 1000 Ang^3
#
#
#
# Elastic Constant Matrix: (Units=GPa)
#
#
# Indices 1 2 3 4 5 6 
#
# 1 97.8106 70.7455 70.5434 0.0000 0.0000 0.0000
# 2 70.7455 151.9413 71.3813 0.0000 0.0000 0.0000
# 3 70.5434 71.3813 96.1012 0.0000 0.0000 0.0000
# 4 0.0000 0.0000 0.0000 45.4135 0.0000 0.0000
# 5 0.0000 0.0000 0.0000 0.0000 44.9116 0.0000
# 6 0.0000 0.0000 0.0000 0.0000 0.0000 33.2192
#
#
#
# Elastic Compliance Matrix: (Units=1/GPa)
#
#
# Indices 1 2 3 4 5 6 
#
# 1 0.023460 -0.004351 -0.013989 0.000000 0.000000 0.000000
# 2 -0.004351 0.010916 -0.004914 0.000000 0.000000 0.000000
# 3 -0.013989 -0.004914 0.024324 0.000000 0.000000 0.000000
# 4 0.000000 0.000000 0.000000 0.022020 0.000000 0.000000
# 5 0.000000 0.000000 0.000000 0.000000 0.022266 0.000000
# 6 0.000000 0.000000 0.000000 0.000000 0.000000 0.030103
#
#
# Mechanical properties :
#
#
# Convention : Reuss Voigt Hill
#
# Bulk Modulus (GPa) = 82.02148 85.68817 83.85483
# Shear Modulus (GPa) = 27.22377 33.58773 30.40575
#
# Velocity S-wave (km/s) = 3.49270 3.87952 3.69118
# Velocity P-wave (km/s) = 7.28142 7.64620 7.46604
#
# Compressibility (1/GPa) = 0.01219193
#
# Stress axis : x y z
#
# Youngs Moduli (GPa) = 42.62489 91.60743 41.11095
#
# Poissons Ratio (x) = 0.39862 0.57511
# Poissons Ratio (y) = 0.18548 0.20202
# Poissons Ratio (z) = 0.59628 0.45016
#
# Static dielectric constant tensor:
#      x y z
#    x 4.249570 0.000000 0.000000 
#    y 0.000000 4.080140 0.000000 
#    z 0.000000 0.000000 4.334910 
# 
# 
# High freq. dielectric constant tensor:
#      x y z
#    x 1.924360 0.000000 0.000000 
#    y 0.000000 1.859520 0.000000 
#    z 0.000000 0.000000 1.884520 
# 
# From -- ./inp_files/3798.got.cif
#   From: 2010.03.12/outbox.cif.g09.slc.cpg/sg36_2_cif.got.tgz:3798.got - 2010.04.14 02:13:53.
