data_PCOD8175517
_publ_section_title
;
Structure prediction by ZEFSAII (Michael W. Deem and Ramdas Pophale) SiO2 
 PCOD8175517
Probable space group: C M C 21
;
_chemical_formula_sum "Si O2"
_cell_formula_units_Z 48
_cell_length_a 15.752656
_cell_length_b 8.749193
_cell_length_c 16.443103
_cell_angle_alpha 90.000000
_cell_angle_beta 90.000000
_cell_angle_gamma 90.000000
_cell_volume 2266.238239
_symmetry_space_group_name_H-M "C M C 21"
_symmetry_group_IT_number 36
_symmetry_cell_setting 'orthorhombic'
loop_
_space_group_symop_operation_xyz
x,y,z
-x,-y,1/2+z
x,-y,1/2+z
-x,y,z
1/2+x,1/2+y,z
1/2-x,1/2-y,1/2+z
1/2+x,1/2-y,1/2+z
1/2-x,1/2+y,z
loop_
_atom_site_type_symbol
_atom_site_label
_atom_site_fract_x
_atom_site_fract_y
_atom_site_fract_z
Si Si1 0.179976 0.548834 0.412390
Si Si2 0.000000 0.079932 0.915232
Si Si3 0.334292 0.374403 0.666157
Si Si4 0.331424 0.624086 0.980853
Si Si5 0.500000 0.551004 0.723338
Si Si6 0.500000 0.074429 0.413471
Si Si7 0.000000 0.398232 0.721571
Si Si8 0.175588 0.456321 0.227468
O O1 0.248537 0.480277 0.472878
O O2 0.179017 0.732634 0.419963
O O3 0.086038 0.486333 0.439676
O O4 0.196739 0.506297 0.319218
O O5 0.000000 0.254769 0.948041
O O6 0.000000 0.047820 0.820318
O O7 0.088073 0.017369 0.953614
O O8 0.342122 0.320431 0.573033
O O9 0.416763 0.468423 0.691146
O O10 0.251651 0.480421 0.672693
O O11 0.325846 0.226856 0.723471
O O12 0.500000 0.724173 0.690163
O O13 0.500000 0.095087 0.317509
O O14 0.914010 0.481670 0.691700
#
# Coordination Sequence:
#
# PCOD8175517 Si02
#       8
#     8   4   8   8   4   4   4   8
#     4  10  20  38  62  85 117 161 206 249 304 372
#     4   9  19  37  60  82 113 156 196 238 297 362
#     4  12  24  38  60  92 128 162 204 259 316 367
#     4  11  22  39  59  87 122 160 200 256 314 361
#     4  11  22  40  64  92 121 160 206 253 304 374
#     4   7  16  34  58  84 109 144 192 245 292 344
#     4   9  19  37  62  88 117 150 202 258 301 352
#     4  11  22  40  63  92 123 164 210 256 307 374
#
# _framework density 21.180475000000001
#
# number of rings (size 3 to 8) (size 9 to 14) (size 15 to 20)
#    0.000    1.667    0.000    6.000    0.000    0.000 
#    0.000    3.333    0.000    2.000    0.000    0.000 
#    0.000    0.000    0.000    0.000    0.000    0.000 
#
# Total GULP energy -297539.945748 kJ/mol
# GULP energy per Si atom -12397.497739 kJ/mol
# Density = 2.113227 g / cm^3
# Si number density = 21.180475 Si / 1000 Ang^3
#
#
#
# Elastic Constant Matrix: (Units=GPa)
#
#
# Indices 1 2 3 4 5 6 
#
# 1 199.2931 57.0696 35.6205 0.0000 0.0000 0.0000
# 2 57.0696 97.0835 12.2592 0.0000 0.0000 0.0000
# 3 35.6205 12.2592 88.1140 0.0000 0.0000 0.0000
# 4 0.0000 0.0000 0.0000 27.1995 0.0000 0.0000
# 5 0.0000 0.0000 0.0000 0.0000 14.1748 0.0000
# 6 0.0000 0.0000 0.0000 0.0000 0.0000 26.4944
#
#
#
# Elastic Compliance Matrix: (Units=1/GPa)
#
#
# Indices 1 2 3 4 5 6 
#
# 1 0.006393 -0.003493 -0.002098 0.000000 0.000000 0.000000
# 2 -0.003493 0.012393 -0.000312 0.000000 0.000000 0.000000
# 3 -0.002098 -0.000312 0.012241 0.000000 0.000000 0.000000
# 4 0.000000 0.000000 0.000000 0.036765 0.000000 0.000000
# 5 0.000000 0.000000 0.000000 0.000000 0.070548 0.000000
# 6 0.000000 0.000000 0.000000 0.000000 0.000000 0.037744
#
#
# Mechanical properties :
#
#
# Convention : Reuss Voigt Hill
#
# Bulk Modulus (GPa) = 52.03032 66.04324 59.03678
# Shear Modulus (GPa) = 25.73369 32.20982 28.97176
#
# Velocity S-wave (km/s) = 3.48943 3.90389 3.70246
# Velocity P-wave (km/s) = 6.39166 7.18118 6.79789
#
# Compressibility (1/GPa) = 0.01921956
#
# Stress axis : x y z
#
# Youngs Moduli (GPa) = 156.41878 80.68916 81.69490
#
# Poissons Ratio (x) = 0.28186 0.17143
# Poissons Ratio (y) = 0.54639 0.02550
# Poissons Ratio (z) = 0.32824 0.02519
#
# Static dielectric constant tensor:
#      x y z
#    x 4.500760 0.000000 0.000000 
#    y 0.000000 3.603680 0.000000 
#    z 0.000000 0.000000 3.525690 
# 
# 
# High freq. dielectric constant tensor:
#      x y z
#    x 1.863500 0.000000 0.000000 
#    y 0.000000 1.807210 0.000000 
#    z 0.000000 0.000000 1.815610 
# 
# From -- ./inp_files/12549.got.cif
#   From: 2010.03.12/outbox.cif.g09.slc.cpg/sg36_7_cif.got.tgz:12549.got - 2010.04.14 02:13:53.
