data_PCOD8175266
_publ_section_title
;
Structure prediction by ZEFSAII (Michael W. Deem and Ramdas Pophale) SiO2 
 PCOD8175266
Probable space group: C M C 21
;
_chemical_formula_sum "Si O2"
_cell_formula_units_Z 64
_cell_length_a 8.885574
_cell_length_b 19.832118
_cell_length_c 19.727646
_cell_angle_alpha 90.000000
_cell_angle_beta 90.000000
_cell_angle_gamma 90.000000
_cell_volume 3476.400887
_symmetry_space_group_name_H-M "C M C 21"
_symmetry_group_IT_number 36
_symmetry_cell_setting 'orthorhombic'
loop_
_space_group_symop_operation_xyz
x,y,z
-x,-y,1/2+z
x,-y,1/2+z
-x,y,z
1/2+x,1/2+y,z
1/2-x,1/2-y,1/2+z
1/2+x,1/2-y,1/2+z
1/2-x,1/2+y,z
loop_
_atom_site_type_symbol
_atom_site_label
_atom_site_fract_x
_atom_site_fract_y
_atom_site_fract_z
Si Si1 0.676148 0.724139 0.349480
Si Si2 0.675646 0.773823 0.199965
Si Si3 0.172943 0.908883 0.222834
Si Si4 0.826035 0.658609 0.949987
Si Si5 0.823775 0.955163 0.372023
Si Si6 0.677819 0.912187 0.832832
Si Si7 0.674623 0.165413 0.106080
Si Si8 0.675287 0.442217 0.691218
O O1 0.500000 0.708327 0.355365
O O2 0.719726 0.750387 0.275095
O O3 0.728266 0.779562 0.403743
O O4 0.769105 0.657166 0.367251
O O5 0.500000 0.766324 0.185674
O O6 0.722947 0.851587 0.190468
O O7 0.764228 0.729628 0.145925
O O8 0.218901 0.920341 0.300850
O O9 0.000000 0.886171 0.217267
O O10 0.201844 0.977992 0.181443
O O11 0.729594 0.592449 0.932768
O O12 0.000000 0.641880 0.935645
O O13 0.796482 0.678772 0.027211
O O14 0.000000 0.969342 0.376953
O O15 0.739678 0.026489 0.378087
O O16 0.500000 0.915968 0.829954
O O17 0.742502 0.914008 0.757199
O O18 0.500000 0.155923 0.122704
O O19 0.760537 0.096824 0.126417
O O20 0.500000 0.425860 0.700850
#
# Coordination Sequence:
#
# PCOD8175266 Si02
#       8
#     8   8   8   8   8   8   8   8
#     4  10  20  36  57  83 115 149 189 237 285 336
#     4  11  21  34  58  85 114 149 187 236 285 336
#     4   9  19  34  55  83 113 141 181 232 279 329
#     4  10  22  40  59  82 114 152 192 235 286 344
#     4  10  20  35  57  84 114 147 184 232 284 339
#     4  11  21  33  56  86 115 145 185 236 283 332
#     4  11  23  38  58  83 115 153 191 234 286 344
#     4  10  20  36  56  82 114 148 187 232 282 338
#
# _framework density 18.409842999999999
#
# number of rings (size 3 to 8) (size 9 to 14) (size 15 to 20)
#    0.000    1.750    2.500    3.375    0.000    4.500 
#    0.000    1.250    0.000    1.500    0.000    0.000 
#    0.000    0.000    0.000    0.000    0.000    0.000 
#
# Total GULP energy -396953.065611 kJ/mol
# GULP energy per Si atom -12404.783300 kJ/mol
# Density = 1.836794 g / cm^3
# Si number density = 18.409843 Si / 1000 Ang^3
#
#
#
# Elastic Constant Matrix: (Units=GPa)
#
#
# Indices 1 2 3 4 5 6 
#
# 1 101.6464 64.9665 43.4768 0.0000 0.0000 0.0000
# 2 64.9665 141.4893 54.1372 0.0000 0.0000 0.0000
# 3 43.4768 54.1372 84.6739 0.0000 0.0000 0.0000
# 4 0.0000 0.0000 0.0000 27.5058 0.0000 0.0000
# 5 0.0000 0.0000 0.0000 0.0000 24.4727 0.0000
# 6 0.0000 0.0000 0.0000 0.0000 0.0000 37.9802
#
#
#
# Elastic Compliance Matrix: (Units=1/GPa)
#
#
# Indices 1 2 3 4 5 6 
#
# 1 0.015061 -0.005238 -0.004384 0.000000 0.000000 0.000000
# 2 -0.005238 0.011178 -0.004457 0.000000 0.000000 0.000000
# 3 -0.004384 -0.004457 0.016911 0.000000 0.000000 0.000000
# 4 0.000000 0.000000 0.000000 0.036356 0.000000 0.000000
# 5 0.000000 0.000000 0.000000 0.000000 0.040862 0.000000
# 6 0.000000 0.000000 0.000000 0.000000 0.000000 0.026329
#
#
# Mechanical properties :
#
#
# Convention : Reuss Voigt Hill
#
# Bulk Modulus (GPa) = 66.70675 72.55229 69.62952
# Shear Modulus (GPa) = 27.80026 29.00702 28.40364
#
# Velocity S-wave (km/s) = 3.89019 3.97372 3.93217
# Velocity P-wave (km/s) = 7.51605 7.78132 7.64984
#
# Compressibility (1/GPa) = 0.01499099
#
# Stress axis : x y z
#
# Youngs Moduli (GPa) = 66.39616 89.45926 59.13256
#
# Poissons Ratio (x) = 0.46858 0.25926
# Poissons Ratio (y) = 0.34778 0.26358
# Poissons Ratio (z) = 0.29111 0.39876
#
# Static dielectric constant tensor:
#      x y z
#    x 3.408860 0.000000 0.000000 
#    y 0.000000 3.528290 0.000000 
#    z 0.000000 0.000000 3.158620 
# 
# 
# High freq. dielectric constant tensor:
#      x y z
#    x 1.722010 0.000000 0.000000 
#    y 0.000000 1.727410 0.000000 
#    z 0.000000 0.000000 1.683480 
# 
# From -- ./inp_files/13807.got.cif
#   From: 2010.03.12/outbox.cif.g09.slc.cpg/sg36_7_cif.got.tgz:13807.got - 2010.04.14 02:13:53.
