data_PCOD8175669
_publ_section_title
;
Structure prediction by ZEFSAII (Michael W. Deem and Ramdas Pophale) SiO2 
 PCOD8175669
Probable space group: C M C 21
;
_chemical_formula_sum "Si O2"
_cell_formula_units_Z 48
_cell_length_a 8.823536
_cell_length_b 15.001875
_cell_length_c 19.014258
_cell_angle_alpha 90.000000
_cell_angle_beta 90.000000
_cell_angle_gamma 90.000000
_cell_volume 2516.909424
_symmetry_space_group_name_H-M "C M C 21"
_symmetry_group_IT_number 36
_symmetry_cell_setting 'orthorhombic'
loop_
_space_group_symop_operation_xyz
x,y,z
-x,-y,1/2+z
x,-y,1/2+z
-x,y,z
1/2+x,1/2+y,z
1/2-x,1/2-y,1/2+z
1/2+x,1/2-y,1/2+z
1/2-x,1/2+y,z
loop_
_atom_site_type_symbol
_atom_site_label
_atom_site_fract_x
_atom_site_fract_y
_atom_site_fract_z
Si Si1 0.674887 0.761644 0.378300
Si Si2 0.179506 0.865837 0.613347
Si Si3 0.178640 0.892231 0.770512
Si Si4 0.178208 0.296467 0.020235
Si Si5 0.679475 0.482191 0.010680
Si Si6 0.324189 0.965560 0.364520
O O1 0.500000 0.748249 0.400606
O O2 0.721084 0.693650 0.316943
O O3 0.780272 0.743907 0.444769
O O4 0.704573 0.861238 0.350317
O O5 0.242172 0.874142 0.692314
O O6 0.230969 0.772023 0.580541
O O7 0.000000 0.872131 0.613420
O O8 0.245382 0.945156 0.564966
O O9 0.000000 0.909724 0.770474
O O10 0.260637 0.980748 0.798096
O O11 0.000000 0.314351 0.021899
O O12 0.265958 0.386640 0.037170
O O13 0.500000 0.484207 0.007453
O O14 0.738859 0.500982 0.933212
O O15 0.500000 0.986945 0.374611
#
# Coordination Sequence:
#
# PCOD8175669 Si02
#       6
#     8   8   8   8   8   8
#     4  10  21  36  58  85 116 152 192 236 288 344
#     4   9  21  39  59  84 117 155 194 234 290 351
#     4  10  21  40  61  83 116 158 193 235 293 348
#     4  11  21  36  60  88 116 149 195 242 283 342
#     4  11  21  37  59  85 115 154 196 239 288 344
#     4  11  22  36  57  89 118 150 196 242 286 341
#
# _framework density 19.071009
#
# number of rings (size 3 to 8) (size 9 to 14) (size 15 to 20)
#    0.000    1.667    3.333    1.500    0.000    2.000 
#    0.000    5.000    0.000    0.000    0.000    0.000 
#    0.000    0.000    0.000    0.000    0.000    0.000 
#
# Total GULP energy -297690.441476 kJ/mol
# GULP energy per Si atom -12403.768395 kJ/mol
# Density = 1.902760 g / cm^3
# Si number density = 19.071009 Si / 1000 Ang^3
#
#
#
# Elastic Constant Matrix: (Units=GPa)
#
#
# Indices 1 2 3 4 5 6 
#
# 1 52.2092 15.2519 15.1588 0.0000 0.0000 0.0000
# 2 15.2519 87.6871 16.3139 0.0000 0.0000 0.0000
# 3 15.1588 16.3139 98.2161 0.0000 0.0000 0.0000
# 4 0.0000 0.0000 0.0000 35.3569 0.0000 0.0000
# 5 0.0000 0.0000 0.0000 0.0000 20.3328 0.0000
# 6 0.0000 0.0000 0.0000 0.0000 0.0000 28.6389
#
#
#
# Elastic Compliance Matrix: (Units=1/GPa)
#
#
# Indices 1 2 3 4 5 6 
#
# 1 0.020850 -0.003124 -0.002699 0.000000 0.000000 0.000000
# 2 -0.003124 0.012236 -0.001550 0.000000 0.000000 0.000000
# 3 -0.002699 -0.001550 0.010856 0.000000 0.000000 0.000000
# 4 0.000000 0.000000 0.000000 0.028283 0.000000 0.000000
# 5 0.000000 0.000000 0.000000 0.000000 0.049182 0.000000
# 6 0.000000 0.000000 0.000000 0.000000 0.000000 0.034918
#
#
# Mechanical properties :
#
#
# Convention : Reuss Voigt Hill
#
# Bulk Modulus (GPa) = 34.25308 36.84020 35.54664
# Shear Modulus (GPa) = 27.65441 29.62490 28.63966
#
# Velocity S-wave (km/s) = 3.81212 3.94560 3.87943
# Velocity P-wave (km/s) = 6.11360 6.33374 6.22464
#
# Compressibility (1/GPa) = 0.02919446
#
# Stress axis : x y z
#
# Youngs Moduli (GPa) = 47.96140 81.72575 92.11750
#
# Poissons Ratio (x) = 0.25535 0.24863
# Poissons Ratio (y) = 0.14985 0.14280
# Poissons Ratio (z) = 0.12945 0.12669
#
# Static dielectric constant tensor:
#      x y z
#    x 3.362580 0.000000 0.000000 
#    y 0.000000 3.849150 0.000000 
#    z 0.000000 0.000000 3.604680 
# 
# 
# High freq. dielectric constant tensor:
#      x y z
#    x 1.729790 0.000000 0.000000 
#    y 0.000000 1.760070 0.000000 
#    z 0.000000 0.000000 1.738110 
# 
# From -- ./inp_files/13472.got.cif
#   From: 2010.03.12/outbox.cif.g09.slc.cpg/sg36_7_cif.got.tgz:13472.got - 2010.04.14 02:13:53.
