data_PCOD8175214
_publ_section_title
;
Structure prediction by ZEFSAII (Michael W. Deem and Ramdas Pophale) SiO2 
 PCOD8175214
Probable space group: C M C 21
;
_chemical_formula_sum "Si O2"
_cell_formula_units_Z 64
_cell_length_a 9.051671
_cell_length_b 16.049632
_cell_length_c 23.469238
_cell_angle_alpha 90.000000
_cell_angle_beta 90.000000
_cell_angle_gamma 90.000000
_cell_volume 3409.516751
_symmetry_space_group_name_H-M "C M C 21"
_symmetry_group_IT_number 36
_symmetry_cell_setting 'orthorhombic'
loop_
_space_group_symop_operation_xyz
x,y,z
-x,-y,1/2+z
x,-y,1/2+z
-x,y,z
1/2+x,1/2+y,z
1/2-x,1/2-y,1/2+z
1/2+x,1/2-y,1/2+z
1/2-x,1/2+y,z
loop_
_atom_site_type_symbol
_atom_site_label
_atom_site_fract_x
_atom_site_fract_y
_atom_site_fract_z
Si Si1 0.824743 0.877526 0.417420
Si Si2 0.165606 0.803618 0.247976
Si Si3 0.827203 0.536369 0.745919
Si Si4 0.169522 0.708048 0.356890
Si Si5 0.829939 0.699103 0.143006
Si Si6 0.168352 0.957795 0.651785
Si Si7 0.330425 0.635574 0.044894
Si Si8 0.675871 0.460089 0.848600
O O1 0.770031 0.791563 0.388502
O O2 0.764483 0.879479 0.482357
O O3 0.000000 0.880519 0.416308
O O4 0.766732 0.961036 0.386050
O O5 0.285985 0.871244 0.266854
O O6 0.184668 0.723827 0.288982
O O7 0.187051 0.781175 0.181385
O O8 0.000000 0.840596 0.257390
O O9 0.765180 0.530241 0.680902
O O10 0.745492 0.469397 0.785833
O O11 0.000000 0.520858 0.748454
O O12 0.264899 0.627159 0.374805
O O13 0.000000 0.690801 0.374230
O O14 0.737047 0.628204 0.176374
O O15 0.761638 0.708007 0.078811
O O16 0.000000 0.672012 0.137906
O O17 0.000000 0.968996 0.671162
O O18 0.181904 0.950877 0.582345
O O19 0.500000 0.665448 0.041604
O O20 0.500000 0.456562 0.845278
#
# Coordination Sequence:
#
# PCOD8175214 Si02
#       8
#     8   8   8   8   8   8   8   8
#     4   9  18  38  63  84 114 156 200 239 287 351
#     4  10  20  35  54  78 114 154 190 230 290 352
#     4  12  23  34  53  82 118 150 192 244 292 345
#     4  10  20  37  60  86 117 154 192 239 295 345
#     4   9  17  31  53  81 109 143 186 230 281 335
#     4   9  18  33  55  78 106 145 188 227 279 340
#     4   8  17  34  58  81 106 152 198 234 280 341
#     4  11  22  38  60  86 118 156 196 237 294 355
#
# _framework density 18.770989
#
# number of rings (size 3 to 8) (size 9 to 14) (size 15 to 20)
#    0.750    1.500    1.250    2.625    0.000    2.500 
#    0.000    3.125    0.000    4.500    0.000    0.000 
#    0.000    0.000    0.000    0.000    0.000    0.000 
#
# Total GULP energy -396421.818979 kJ/mol
# GULP energy per Si atom -12388.181843 kJ/mol
# Density = 1.872827 g / cm^3
# Si number density = 18.770989 Si / 1000 Ang^3
#
#
#
# Elastic Constant Matrix: (Units=GPa)
#
#
# Indices 1 2 3 4 5 6 
#
# 1 92.3667 43.2352 39.4641 0.0000 0.0000 0.0000
# 2 43.2352 108.9884 44.0665 0.0000 0.0000 0.0000
# 3 39.4641 44.0665 114.0509 0.0000 0.0000 0.0000
# 4 0.0000 0.0000 0.0000 25.0909 0.0000 0.0000
# 5 0.0000 0.0000 0.0000 0.0000 21.8185 0.0000
# 6 0.0000 0.0000 0.0000 0.0000 0.0000 32.2945
#
#
#
# Elastic Compliance Matrix: (Units=1/GPa)
#
#
# Indices 1 2 3 4 5 6 
#
# 1 0.014246 -0.004336 -0.003254 0.000000 0.000000 0.000000
# 2 -0.004336 0.012194 -0.003211 0.000000 0.000000 0.000000
# 3 -0.003254 -0.003211 0.011135 0.000000 0.000000 0.000000
# 4 0.000000 0.000000 0.000000 0.039855 0.000000 0.000000
# 5 0.000000 0.000000 0.000000 0.000000 0.045833 0.000000
# 6 0.000000 0.000000 0.000000 0.000000 0.000000 0.030965
#
#
# Mechanical properties :
#
#
# Convention : Reuss Voigt Hill
#
# Bulk Modulus (GPa) = 62.60759 63.21528 62.91144
# Shear Modulus (GPa) = 27.60090 28.41679 28.00884
#
# Velocity S-wave (km/s) = 3.83874 3.89507 3.86701
# Velocity P-wave (km/s) = 7.28517 7.34704 7.31617
#
# Compressibility (1/GPa) = 0.01597250
#
# Stress axis : x y z
#
# Youngs Moduli (GPa) = 70.19383 82.01085 89.80879
#
# Poissons Ratio (x) = 0.35557 0.29227
# Poissons Ratio (y) = 0.30433 0.28838
# Poissons Ratio (z) = 0.22844 0.26334
#
# Static dielectric constant tensor:
#      x y z
#    x 3.284950 0.000000 0.000000 
#    y 0.000000 3.233200 0.000000 
#    z 0.000000 0.000000 3.483480 
# 
# 
# High freq. dielectric constant tensor:
#      x y z
#    x 1.717920 0.000000 0.000000 
#    y 0.000000 1.706980 0.000000 
#    z 0.000000 0.000000 1.720760 
# 
# From -- ./inp_files/16701.got.cif
#   From: 2010.03.12/outbox.cif.g09.slc.cpg/sg36_9_cif.got.tgz:16701.got - 2010.04.14 02:13:53.
