data_PCOD8175027
_publ_section_title
;
Structure prediction by ZEFSAII (Michael W. Deem and Ramdas Pophale) SiO2 
 PCOD8175027
Probable space group: C M C 21
;
_chemical_formula_sum "Si O2"
_cell_formula_units_Z 64
_cell_length_a 14.137374
_cell_length_b 17.415899
_cell_length_c 14.968822
_cell_angle_alpha 90.000000
_cell_angle_beta 90.000000
_cell_angle_gamma 90.000000
_cell_volume 3685.549672
_symmetry_space_group_name_H-M "C M C 21"
_symmetry_group_IT_number 36
_symmetry_cell_setting 'orthorhombic'
loop_
_space_group_symop_operation_xyz
x,y,z
-x,-y,1/2+z
x,-y,1/2+z
-x,y,z
1/2+x,1/2+y,z
1/2-x,1/2-y,1/2+z
1/2+x,1/2-y,1/2+z
1/2-x,1/2+y,z
loop_
_atom_site_type_symbol
_atom_site_label
_atom_site_fract_x
_atom_site_fract_y
_atom_site_fract_z
Si Si1 0.748532 0.839357 0.924080
Si Si2 0.737909 0.054147 0.255177
Si Si3 0.390377 0.914673 0.259495
Si Si4 0.104703 0.950110 0.994765
Si Si5 0.262092 0.054147 0.058679
Si Si6 0.890377 0.585327 0.554361
Si Si7 0.395297 0.450110 0.319091
Si Si8 0.251468 0.160643 0.889776
O O1 0.739158 0.879854 0.828294
O O2 0.844132 0.869120 0.972549
O O3 0.750000 0.750000 0.906928
O O4 0.659510 0.855269 0.987787
O O5 0.728591 0.092031 0.156928
O O6 0.648499 0.000210 0.276920
O O7 0.831328 0.000185 0.252337
O O8 0.500000 0.914652 0.282988
O O9 0.371672 0.889581 0.156928
O O10 0.340490 0.855269 0.326069
O O11 0.000000 0.933623 0.035227
O O12 0.094307 0.000000 0.906928
O O13 0.168672 0.000185 0.061519
O O14 0.351502 0.000210 0.036936
O O15 0.260841 0.120145 0.985561
O O16 0.000000 0.585348 0.530867
O O17 0.500000 0.433623 0.278629
O O18 0.344131 0.369120 0.341306
#
# Coordination Sequence:
#
# PCOD8175027 Si02
#       8
#     8   8   8   8   8   8   8   8
#     4  10  20  31  47  74 106 136 159 194 249 303
#     4   9  18  32  50  71  94 126 169 209 245 289
#     4   9  18  34  55  75  95 125 168 211 245 283
#     4   8  15  30  49  67  90 123 165 206 239 278
#     4   9  18  32  50  71  94 126 169 209 245 289
#     4   9  18  34  55  75  95 125 168 211 245 283
#     4   8  15  30  49  67  90 123 165 206 239 278
#     4  10  20  31  47  74 106 136 159 194 249 303
#
# _framework density 17.365117000000001
#
# number of rings (size 3 to 8) (size 9 to 14) (size 15 to 20)
#    0.000    3.000    0.000    2.250    0.000    4.500 
#    0.000    0.000    0.000    0.000    0.000    3.500 
#    0.000    0.000    0.000    0.000    0.000    0.000 
#
# Total GULP energy -396624.527974 kJ/mol
# GULP energy per Si atom -12394.516499 kJ/mol
# Density = 1.732559 g / cm^3
# Si number density = 17.365117 Si / 1000 Ang^3
#
#
#
# Elastic Constant Matrix: (Units=GPa)
#
#
# Indices 1 2 3 4 5 6 
#
# 1 145.5756 58.0134 45.8713 0.0000 0.0000 0.0000
# 2 58.0134 129.0879 57.6533 0.0000 0.0000 0.0000
# 3 45.8713 57.6533 96.8972 0.0000 0.0000 0.0000
# 4 0.0000 0.0000 0.0000 9.0697 0.0000 0.0000
# 5 0.0000 0.0000 0.0000 0.0000 18.0765 0.0000
# 6 0.0000 0.0000 0.0000 0.0000 0.0000 11.8827
#
#
#
# Elastic Compliance Matrix: (Units=1/GPa)
#
#
# Indices 1 2 3 4 5 6 
#
# 1 0.008779 -0.002845 -0.002463 0.000000 0.000000 0.000000
# 2 -0.002845 0.011472 -0.005479 0.000000 0.000000 0.000000
# 3 -0.002463 -0.005479 0.014746 0.000000 0.000000 0.000000
# 4 0.000000 0.000000 0.000000 0.110257 0.000000 0.000000
# 5 0.000000 0.000000 0.000000 0.000000 0.055320 0.000000
# 6 0.000000 0.000000 0.000000 0.000000 0.000000 0.084156
#
#
# Mechanical properties :
#
#
# Convention : Reuss Voigt Hill
#
# Bulk Modulus (GPa) = 74.49966 77.18187 75.84077
# Shear Modulus (GPa) = 16.08851 21.80730 18.94790
#
# Velocity S-wave (km/s) = 3.04712 3.54759 3.30684
# Velocity P-wave (km/s) = 7.44144 7.83093 7.63867
#
# Compressibility (1/GPa) = 0.01342288
#
# Stress axis : x y z
#
# Youngs Moduli (GPa) = 113.90340 87.16512 67.81377
#
# Poissons Ratio (x) = 0.24802 0.16704
# Poissons Ratio (y) = 0.32411 0.37155
# Poissons Ratio (z) = 0.28056 0.47758
#
# Static dielectric constant tensor:
#      x y z
#    x 3.667230 0.000000 0.000000 
#    y 0.000000 2.890990 0.000000 
#    z 0.000000 0.000000 3.401190 
# 
# 
# High freq. dielectric constant tensor:
#      x y z
#    x 1.677200 0.000000 0.000000 
#    y 0.000000 1.636700 0.000000 
#    z 0.000000 0.000000 1.677060 
# 
# From -- ./inp_files/12338.got.cif
#   From: 2010.03.12/outbox.cif.g09.slc.cpg/sg36_7_cif.got.tgz:12338.got - 2010.04.14 02:13:53.
