data_PCOD8175907
_publ_section_title
;
Structure prediction by ZEFSAII (Michael W. Deem and Ramdas Pophale) SiO2 
 PCOD8175907
Probable space group: C M C 21
;
_chemical_formula_sum "Si O2"
_cell_formula_units_Z 64
_cell_length_a 8.891007
_cell_length_b 30.471836
_cell_length_c 11.909427
_cell_angle_alpha 90.000000
_cell_angle_beta 90.000000
_cell_angle_gamma 90.000000
_cell_volume 3226.565168
_symmetry_space_group_name_H-M "C M C 21"
_symmetry_group_IT_number 36
_symmetry_cell_setting 'orthorhombic'
loop_
_space_group_symop_operation_xyz
x,y,z
-x,-y,1/2+z
x,-y,1/2+z
-x,y,z
1/2+x,1/2+y,z
1/2-x,1/2-y,1/2+z
1/2+x,1/2-y,1/2+z
1/2-x,1/2+y,z
loop_
_atom_site_type_symbol
_atom_site_label
_atom_site_fract_x
_atom_site_fract_y
_atom_site_fract_z
Si Si1 0.178165 0.833357 0.935840
Si Si2 0.173712 0.954812 0.137695
Si Si3 0.171150 0.946513 0.705433
Si Si4 0.177564 0.803361 0.695678
Si Si5 0.176143 0.875831 0.522132
Si Si6 0.822741 0.621853 0.780767
Si Si7 0.823008 0.706534 0.637888
Si Si8 0.676616 0.076899 0.431377
O O1 0.241012 0.821693 0.812798
O O2 0.259692 0.877262 0.976980
O O3 0.000000 0.839275 0.938126
O O4 0.230120 0.796383 0.022673
O O5 0.247836 0.918635 0.217000
O O6 0.000000 0.942916 0.122043
O O7 0.195710 0.002044 0.192818
O O8 0.251383 0.958621 0.015524
O O9 0.209941 0.920264 0.591863
O O10 0.279859 0.930630 0.803290
O O11 0.000000 0.935398 0.740888
O O12 0.234715 0.833759 0.593326
O O13 0.229789 0.753157 0.686966
O O14 0.000000 0.806665 0.699639
O O15 0.269416 0.877606 0.408588
O O16 0.000000 0.872000 0.493218
O O17 0.776951 0.668136 0.724287
O O18 0.000000 0.614728 0.776774
O O19 0.000000 0.705693 0.611932
O O20 0.500000 0.075908 0.444883
#
# Coordination Sequence:
#
# PCOD8175907 Si02
#       8
#     8   8   8   8   8   8   8   8
#     4  11  21  39  66  90 117 161 210 253 299 362
#     4  11  24  42  66  91 120 162 211 253 296 361
#     4  10  23  43  66  91 119 159 208 254 299 360
#     4   9  20  39  63  88 119 159 202 252 305 359
#     4  10  21  41  64  87 119 161 207 251 301 364
#     4  11  24  40  59  88 129 164 198 250 309 364
#     4  10  22  40  60  88 125 161 198 252 311 359
#     4  12  24  40  64  93 126 159 198 257 314 363
#
# _framework density 19.835334
#
# number of rings (size 3 to 8) (size 9 to 14) (size 15 to 20)
#    0.000    1.500    2.500    2.250    3.500    2.000 
#    0.000    1.250    0.000    0.000    0.000    0.000 
#    0.000    0.000    0.000    0.000    0.000    0.000 
#
# Total GULP energy -396888.193263 kJ/mol
# GULP energy per Si atom -12402.756039 kJ/mol
# Density = 1.979019 g / cm^3
# Si number density = 19.835334 Si / 1000 Ang^3
#
#
#
# Elastic Constant Matrix: (Units=GPa)
#
#
# Indices 1 2 3 4 5 6 
#
# 1 91.2087 44.8109 46.7838 0.0000 0.0000 0.0000
# 2 44.8109 119.5571 39.9627 0.0000 0.0000 0.0000
# 3 46.7838 39.9627 118.9198 0.0000 0.0000 0.0000
# 4 0.0000 0.0000 0.0000 23.7009 0.0000 0.0000
# 5 0.0000 0.0000 0.0000 0.0000 37.2010 0.0000
# 6 0.0000 0.0000 0.0000 0.0000 0.0000 24.8957
#
#
#
# Elastic Compliance Matrix: (Units=1/GPa)
#
#
# Indices 1 2 3 4 5 6 
#
# 1 0.015425 -0.004228 -0.004647 0.000000 0.000000 0.000000
# 2 -0.004228 0.010581 -0.001893 0.000000 0.000000 0.000000
# 3 -0.004647 -0.001893 0.010873 0.000000 0.000000 0.000000
# 4 0.000000 0.000000 0.000000 0.042192 0.000000 0.000000
# 5 0.000000 0.000000 0.000000 0.000000 0.026881 0.000000
# 6 0.000000 0.000000 0.000000 0.000000 0.000000 0.040167
#
#
# Mechanical properties :
#
#
# Convention : Reuss Voigt Hill
#
# Bulk Modulus (GPa) = 65.17300 65.86673 65.51987
# Shear Modulus (GPa) = 28.94001 30.36808 29.65404
#
# Velocity S-wave (km/s) = 3.82385 3.91706 3.87073
# Velocity P-wave (km/s) = 7.24045 7.33053 7.28563
#
# Compressibility (1/GPa) = 0.01534378
#
# Stress axis : x y z
#
# Youngs Moduli (GPa) = 64.83031 94.50482 91.96783
#
# Poissons Ratio (x) = 0.39956 0.42742
# Poissons Ratio (y) = 0.27410 0.17406
# Poissons Ratio (z) = 0.30130 0.17886
#
# Static dielectric constant tensor:
#      x y z
#    x 3.466390 0.000000 0.000000 
#    y 0.000000 3.801100 0.000000 
#    z 0.000000 0.000000 3.676740 
# 
# 
# High freq. dielectric constant tensor:
#      x y z
#    x 1.761070 0.000000 0.000000 
#    y 0.000000 1.783060 0.000000 
#    z 0.000000 0.000000 1.785710 
# 
# From -- ./inp_files/7172.got.cif
#   From: 2010.03.12/outbox.cif.g09.slc.cpg/sg36_4_cif.got.tgz:7172.got - 2010.04.14 02:13:53.
