data_PCOD8175294
_publ_section_title
;
Structure prediction by ZEFSAII (Michael W. Deem and Ramdas Pophale) SiO2 
 PCOD8175294
Probable space group: C M C 21
;
_chemical_formula_sum "Si O2"
_cell_formula_units_Z 64
_cell_length_a 8.889293
_cell_length_b 18.305542
_cell_length_c 19.879571
_cell_angle_alpha 90.000000
_cell_angle_beta 90.000000
_cell_angle_gamma 90.000000
_cell_volume 3234.869920
_symmetry_space_group_name_H-M "C M C 21"
_symmetry_group_IT_number 36
_symmetry_cell_setting 'orthorhombic'
loop_
_space_group_symop_operation_xyz
x,y,z
-x,-y,1/2+z
x,-y,1/2+z
-x,y,z
1/2+x,1/2+y,z
1/2-x,1/2-y,1/2+z
1/2+x,1/2-y,1/2+z
1/2-x,1/2+y,z
loop_
_atom_site_type_symbol
_atom_site_label
_atom_site_fract_x
_atom_site_fract_y
_atom_site_fract_z
Si Si1 0.174311 0.789836 0.638710
Si Si2 0.176315 0.543500 0.771983
Si Si3 0.825129 0.463595 0.498099
Si Si4 0.673445 0.304999 0.244840
Si Si5 0.825601 0.187028 0.985164
Si Si6 0.177164 0.049682 0.387102
Si Si7 0.672953 0.202054 0.370504
Si Si8 0.674042 0.939749 0.650332
O O1 0.268945 0.726263 0.674031
O O2 0.205149 0.781927 0.559404
O O3 0.226364 0.868794 0.665102
O O4 0.000000 0.779884 0.656528
O O5 0.227991 0.626133 0.765044
O O6 0.260829 0.508220 0.834230
O O7 0.218148 0.501084 0.703784
O O8 0.000000 0.540600 0.786529
O O9 0.769831 0.385359 0.471153
O O10 0.739292 0.528986 0.460730
O O11 0.789779 0.472371 0.577027
O O12 0.000000 0.470693 0.482152
O O13 0.500000 0.328284 0.238260
O O14 0.696591 0.243538 0.300872
O O15 0.772910 0.247801 0.932308
O O16 0.000000 0.166594 0.974804
O O17 0.225936 0.130641 0.367360
O O18 0.000000 0.044997 0.387789
O O19 0.500000 0.178693 0.380340
O O20 0.500000 0.916198 0.655918
#
# Coordination Sequence:
#
# PCOD8175294 Si02
#       8
#     8   8   8   8   8   8   8   8
#     4  10  20  35  58  86 116 151 188 230 281 338
#     4  11  23  40  61  84 113 149 190 235 285 340
#     4  10  20  37  61  86 115 151 189 230 281 339
#     4  11  23  38  58  84 115 149 187 235 286 337
#     4   9  19  37  60  85 114 148 189 236 283 332
#     4  12  25  39  57  84 116 148 188 235 281 335
#     4  10  22  40  59  79 108 147 188 231 280 331
#     4   9  20  38  60  86 115 149 189 234 283 336
#
# _framework density 19.784410999999999
#
# number of rings (size 3 to 8) (size 9 to 14) (size 15 to 20)
#    0.000    1.750    0.000    4.125    0.000    8.500 
#    0.000    5.000    0.000    0.000    0.000    0.000 
#    0.000    0.000    0.000    0.000    0.000    0.000 
#
# Total GULP energy -397010.214589 kJ/mol
# GULP energy per Si atom -12406.569206 kJ/mol
# Density = 1.973938 g / cm^3
# Si number density = 19.784411 Si / 1000 Ang^3
#
#
#
# Elastic Constant Matrix: (Units=GPa)
#
#
# Indices 1 2 3 4 5 6 
#
# 1 83.5231 23.6140 25.7992 0.0000 0.0000 0.0000
# 2 23.6140 53.2608 13.4826 0.0000 0.0000 0.0000
# 3 25.7992 13.4826 67.3365 0.0000 0.0000 0.0000
# 4 0.0000 0.0000 0.0000 34.8512 0.0000 0.0000
# 5 0.0000 0.0000 0.0000 0.0000 29.7285 0.0000
# 6 0.0000 0.0000 0.0000 0.0000 0.0000 37.8911
#
#
#
# Elastic Compliance Matrix: (Units=1/GPa)
#
#
# Indices 1 2 3 4 5 6 
#
# 1 0.014946 -0.005453 -0.004635 0.000000 0.000000 0.000000
# 2 -0.005453 0.021768 -0.002269 0.000000 0.000000 0.000000
# 3 -0.004635 -0.002269 0.017081 0.000000 0.000000 0.000000
# 4 0.000000 0.000000 0.000000 0.028693 0.000000 0.000000
# 5 0.000000 0.000000 0.000000 0.000000 0.033638 0.000000
# 6 0.000000 0.000000 0.000000 0.000000 0.000000 0.026391
#
#
# Mechanical properties :
#
#
# Convention : Reuss Voigt Hill
#
# Bulk Modulus (GPa) = 34.38709 36.65688 35.52199
# Shear Modulus (GPa) = 28.26061 29.90914 29.08487
#
# Velocity S-wave (km/s) = 3.78356 3.89234 3.83834
# Velocity P-wave (km/s) = 6.04199 6.22646 6.13492
#
# Compressibility (1/GPa) = 0.02908068
#
# Stress axis : x y z
#
# Youngs Moduli (GPa) = 66.90725 45.93947 58.54532
#
# Poissons Ratio (x) = 0.25052 0.27133
# Poissons Ratio (y) = 0.36487 0.13284
# Poissons Ratio (z) = 0.31008 0.10424
#
# Static dielectric constant tensor:
#      x y z
#    x 3.647630 0.000000 0.000000 
#    y 0.000000 3.510690 0.000000 
#    z 0.000000 0.000000 3.864540 
# 
# 
# High freq. dielectric constant tensor:
#      x y z
#    x 1.776080 0.000000 0.000000 
#    y 0.000000 1.769090 0.000000 
#    z 0.000000 0.000000 1.785210 
# 
# From -- ./inp_files/15740.got.cif
#   From: 2010.03.12/outbox.cif.g09.slc.cpg/sg36_8_cif.got.tgz:15740.got - 2010.04.14 02:13:53.
