data_PCOD8175668
_publ_section_title
;
Structure prediction by ZEFSAII (Michael W. Deem and Ramdas Pophale) SiO2 
 PCOD8175668
Probable space group: C M C 21
;
_chemical_formula_sum "Si O2"
_cell_formula_units_Z 48
_cell_length_a 8.839288
_cell_length_b 20.182137
_cell_length_c 14.010212
_cell_angle_alpha 90.000000
_cell_angle_beta 90.000000
_cell_angle_gamma 90.000000
_cell_volume 2499.361877
_symmetry_space_group_name_H-M "C M C 21"
_symmetry_group_IT_number 36
_symmetry_cell_setting 'orthorhombic'
loop_
_space_group_symop_operation_xyz
x,y,z
-x,-y,1/2+z
x,-y,1/2+z
-x,y,z
1/2+x,1/2+y,z
1/2-x,1/2-y,1/2+z
1/2+x,1/2-y,1/2+z
1/2-x,1/2+y,z
loop_
_atom_site_type_symbol
_atom_site_label
_atom_site_fract_x
_atom_site_fract_y
_atom_site_fract_z
Si Si1 0.675685 0.311078 0.117110
Si Si2 0.320337 0.180659 0.222215
Si Si3 0.172711 0.050754 0.709240
Si Si4 0.320524 0.862007 0.928880
Si Si5 0.177044 0.440249 0.594569
Si Si6 0.175496 0.994612 0.420084
O O1 0.500000 0.301378 0.092542
O O2 0.741468 0.248024 0.174683
O O3 0.702379 0.372724 0.187038
O O4 0.762130 0.318590 0.017167
O O5 0.500000 0.180759 0.223594
O O6 0.261142 0.171917 0.330736
O O7 0.259755 0.119537 0.159040
O O8 0.209578 0.037515 0.818710
O O9 0.000000 0.030725 0.684121
O O10 0.288821 0.009229 0.646504
O O11 0.500000 0.864717 0.931674
O O12 0.261052 0.936586 0.935149
O O13 0.263976 0.439906 0.494172
O O14 0.000000 0.433392 0.575670
O O15 0.000000 0.008685 0.437553
#
# Coordination Sequence:
#
# PCOD8175668 Si02
#       6
#     8   8   8   8   8   8
#     4  10  21  40  61  84 118 157 193 237 294 351
#     4   9  21  39  59  84 119 157 191 235 295 350
#     4  10  21  36  58  85 114 152 197 240 287 343
#     4  11  21  37  60  87 115 153 198 242 294 349
#     4  11  21  36  59  86 116 152 196 243 288 341
#     4  11  22  36  57  88 120 155 197 243 294 348
#
# _framework density 19.204902000000001
#
# number of rings (size 3 to 8) (size 9 to 14) (size 15 to 20)
#    0.000    1.667    3.333    1.500    0.000    2.000 
#    0.000    5.000    0.000    0.000    0.000    0.000 
#    0.000    0.000    0.000    0.000    0.000    0.000 
#
# Total GULP energy -297661.079075 kJ/mol
# GULP energy per Si atom -12402.544961 kJ/mol
# Density = 1.916119 g / cm^3
# Si number density = 19.204902 Si / 1000 Ang^3
#
#
#
# Elastic Constant Matrix: (Units=GPa)
#
#
# Indices 1 2 3 4 5 6 
#
# 1 57.0962 22.7720 36.8676 0.0000 0.0000 0.0000
# 2 22.7720 99.2833 46.8232 0.0000 0.0000 0.0000
# 3 36.8676 46.8232 146.4852 0.0000 0.0000 0.0000
# 4 0.0000 0.0000 0.0000 35.2580 0.0000 0.0000
# 5 0.0000 0.0000 0.0000 0.0000 31.4786 0.0000
# 6 0.0000 0.0000 0.0000 0.0000 0.0000 17.3930
#
#
#
# Elastic Compliance Matrix: (Units=1/GPa)
#
#
# Indices 1 2 3 4 5 6 
#
# 1 0.021558 -0.002809 -0.004528 0.000000 0.000000 0.000000
# 2 -0.002809 0.012226 -0.003201 0.000000 0.000000 0.000000
# 3 -0.004528 -0.003201 0.008989 0.000000 0.000000 0.000000
# 4 0.000000 0.000000 0.000000 0.028362 0.000000 0.000000
# 5 0.000000 0.000000 0.000000 0.000000 0.031768 0.000000
# 6 0.000000 0.000000 0.000000 0.000000 0.000000 0.057495
#
#
# Mechanical properties :
#
#
# Convention : Reuss Voigt Hill
#
# Bulk Modulus (GPa) = 46.08792 57.31002 51.69897
# Shear Modulus (GPa) = 26.49606 29.91940 28.20773
#
# Velocity S-wave (km/s) = 3.71839 3.95131 3.83662
# Velocity P-wave (km/s) = 6.51808 7.12203 6.82674
#
# Compressibility (1/GPa) = 0.02169766
#
# Stress axis : x y z
#
# Youngs Moduli (GPa) = 46.38551 81.79186 111.24245
#
# Poissons Ratio (x) = 0.22978 0.50369
# Poissons Ratio (y) = 0.13031 0.35608
# Poissons Ratio (z) = 0.21003 0.26181
#
# Static dielectric constant tensor:
#      x y z
#    x 3.368380 0.000000 0.000000 
#    y 0.000000 3.561700 0.000000 
#    z 0.000000 0.000000 3.868810 
# 
# 
# High freq. dielectric constant tensor:
#      x y z
#    x 1.733210 0.000000 0.000000 
#    y 0.000000 1.741850 0.000000 
#    z 0.000000 0.000000 1.766290 
# 
# From -- ./inp_files/10340.got.cif
#   From: 2010.03.12/outbox.cif.g09.slc.cpg/sg36_6_cif.got.tgz:10340.got - 2010.04.14 02:13:53.
