data_PCOD8175328
_publ_section_title
;
Structure prediction by ZEFSAII (Michael W. Deem and Ramdas Pophale) SiO2 
 PCOD8175328
Probable space group: C M C 21
;
_chemical_formula_sum "Si O2"
_cell_formula_units_Z 64
_cell_length_a 8.958927
_cell_length_b 25.541327
_cell_length_c 14.082468
_cell_angle_alpha 90.000000
_cell_angle_beta 90.000000
_cell_angle_gamma 90.000000
_cell_volume 3222.390943
_symmetry_space_group_name_H-M "C M C 21"
_symmetry_group_IT_number 36
_symmetry_cell_setting 'orthorhombic'
loop_
_space_group_symop_operation_xyz
x,y,z
-x,-y,1/2+z
x,-y,1/2+z
-x,y,z
1/2+x,1/2+y,z
1/2-x,1/2-y,1/2+z
1/2+x,1/2-y,1/2+z
1/2-x,1/2+y,z
loop_
_atom_site_type_symbol
_atom_site_label
_atom_site_fract_x
_atom_site_fract_y
_atom_site_fract_z
Si Si1 0.327146 0.616581 0.373100
Si Si2 0.328203 0.435601 0.686413
Si Si3 0.333823 0.548552 0.680965
Si Si4 0.324872 0.084227 0.993909
Si Si5 0.832165 0.984016 0.963873
Si Si6 0.323063 0.159038 0.689427
Si Si7 0.678283 0.292157 0.002467
Si Si8 0.823051 0.311369 0.398550
O O1 0.500000 0.614721 0.402250
O O2 0.304831 0.612136 0.260473
O O3 0.248936 0.565684 0.418285
O O4 0.261714 0.668633 0.420353
O O5 0.500000 0.436455 0.649961
O O6 0.292547 0.493364 0.735236
O O7 0.217077 0.419662 0.603600
O O8 0.500000 0.568631 0.706830
O O9 0.329108 0.525585 0.575424
O O10 0.223900 0.597609 0.695135
O O11 0.500000 0.082449 0.982100
O O12 0.258483 0.136898 0.948416
O O13 0.255926 0.036252 0.935032
O O14 0.000000 0.990687 0.924603
O O15 0.500000 0.160165 0.675316
O O16 0.247687 0.191086 0.603408
O O17 0.274846 0.188266 0.787328
O O18 0.500000 0.292289 0.014508
O O19 0.738607 0.236978 0.961593
O O20 0.000000 0.309911 0.402849
#
# Coordination Sequence:
#
# PCOD8175328 Si02
#       8
#     8   8   8   8   8   8   8   8
#     4   9  17  32  57  83 106 140 188 232 273 322
#     4   9  19  34  54  83 115 148 189 234 276 327
#     4   9  17  32  53  79 112 148 186 223 273 333
#     4  10  20  36  53  77 113 151 185 222 277 337
#     4   9  17  32  54  81 109 141 186 231 271 324
#     4  11  22  37  57  85 114 141 182 235 279 327
#     4  10  20  41  64  80 107 152 193 229 277 330
#     4   9  22  40  58  80 112 153 189 222 276 344
#
# _framework density 19.861028999999998
#
# number of rings (size 3 to 8) (size 9 to 14) (size 15 to 20)
#    0.000    2.500    1.250    1.500    1.750    3.000 
#    0.000    6.875    0.000    0.000    0.000    0.000 
#    0.000    0.000    0.000    0.000    0.000    0.000 
#
# Total GULP energy -396458.097136 kJ/mol
# GULP energy per Si atom -12389.315535 kJ/mol
# Density = 1.981582 g / cm^3
# Si number density = 19.861029 Si / 1000 Ang^3
#
#
#
# Elastic Constant Matrix: (Units=GPa)
#
#
# Indices 1 2 3 4 5 6 
#
# 1 51.0037 36.5603 23.2171 0.0000 0.0000 0.0000
# 2 36.5603 154.2880 60.9222 0.0000 0.0000 0.0000
# 3 23.2171 60.9222 69.3539 0.0000 0.0000 0.0000
# 4 0.0000 0.0000 0.0000 33.5813 0.0000 0.0000
# 5 0.0000 0.0000 0.0000 0.0000 24.0564 0.0000
# 6 0.0000 0.0000 0.0000 0.0000 0.0000 22.5698
#
#
#
# Elastic Compliance Matrix: (Units=1/GPa)
#
#
# Indices 1 2 3 4 5 6 
#
# 1 0.024607 -0.003948 -0.004770 0.000000 0.000000 0.000000
# 2 -0.003948 0.010557 -0.007952 0.000000 0.000000 0.000000
# 3 -0.004770 -0.007952 0.023001 0.000000 0.000000 0.000000
# 4 0.000000 0.000000 0.000000 0.029778 0.000000 0.000000
# 5 0.000000 0.000000 0.000000 0.000000 0.041569 0.000000
# 6 0.000000 0.000000 0.000000 0.000000 0.000000 0.044307
#
#
# Mechanical properties :
#
#
# Convention : Reuss Voigt Hill
#
# Bulk Modulus (GPa) = 40.28021 57.33831 48.80926
# Shear Modulus (GPa) = 23.20906 26.30455 24.75681
#
# Velocity S-wave (km/s) = 3.42215 3.64322 3.53441
# Velocity P-wave (km/s) = 5.99499 6.82860 6.42533
#
# Compressibility (1/GPa) = 0.02482609
#
# Stress axis : x y z
#
# Youngs Moduli (GPa) = 40.63810 94.72745 43.47708
#
# Poissons Ratio (x) = 0.37394 0.20739
# Poissons Ratio (y) = 0.16042 0.34572
# Poissons Ratio (z) = 0.19385 0.75324
#
# Static dielectric constant tensor:
#      x y z
#    x 3.249200 0.000000 0.000000 
#    y 0.000000 3.981630 0.000000 
#    z 0.000000 0.000000 3.640260 
# 
# 
# High freq. dielectric constant tensor:
#      x y z
#    x 1.734190 0.000000 0.000000 
#    y 0.000000 1.781340 0.000000 
#    z 0.000000 0.000000 1.780450 
# 
# From -- ./inp_files/10935.got.cif
#   From: 2010.03.12/outbox.cif.g09.slc.cpg/sg36_6_cif.got.tgz:10935.got - 2010.04.14 02:13:53.
