data_PCOD8175915
_publ_section_title
;
Structure prediction by ZEFSAII (Michael W. Deem and Ramdas Pophale) SiO2 
 PCOD8175915
Probable space group: C M C 21
;
_chemical_formula_sum "Si O2"
_cell_formula_units_Z 64
_cell_length_a 8.728051
_cell_length_b 19.599855
_cell_length_c 18.415677
_cell_angle_alpha 90.000000
_cell_angle_beta 90.000000
_cell_angle_gamma 90.000000
_cell_volume 3150.342868
_symmetry_space_group_name_H-M "C M C 21"
_symmetry_group_IT_number 36
_symmetry_cell_setting 'orthorhombic'
loop_
_space_group_symop_operation_xyz
x,y,z
-x,-y,1/2+z
x,-y,1/2+z
-x,y,z
1/2+x,1/2+y,z
1/2-x,1/2-y,1/2+z
1/2+x,1/2-y,1/2+z
1/2-x,1/2+y,z
loop_
_atom_site_type_symbol
_atom_site_label
_atom_site_fract_x
_atom_site_fract_y
_atom_site_fract_z
Si Si1 0.679739 0.081501 0.121900
Si Si2 0.181551 0.632229 0.968621
Si Si3 0.322608 0.949389 0.204374
Si Si4 0.319288 0.374984 0.888043
Si Si5 0.319428 0.773986 0.995664
Si Si6 0.179420 0.971504 0.357576
Si Si7 0.319838 0.182722 0.244679
Si Si8 0.177512 0.297706 0.159946
O O1 0.500000 0.093407 0.117908
O O2 0.746609 0.131281 0.183774
O O3 0.721548 0.004135 0.142456
O O4 0.749450 0.099929 0.043238
O O5 0.249861 0.707440 0.957044
O O6 0.229528 0.585040 0.902155
O O7 0.000000 0.638170 0.969993
O O8 0.500000 0.957443 0.227873
O O9 0.216526 0.961835 0.273348
O O10 0.288012 0.877244 0.168372
O O11 0.500000 0.369731 0.892919
O O12 0.246142 0.342556 0.959822
O O13 0.265564 0.453491 0.882472
O O14 0.263719 0.331977 0.819447
O O15 0.500000 0.773821 0.985495
O O16 0.271437 0.774399 0.079916
O O17 0.000000 0.961534 0.370437
O O18 0.500000 0.174483 0.256796
O O19 0.279627 0.259011 0.219384
O O20 0.000000 0.281144 0.173973
#
# Coordination Sequence:
#
# PCOD8175915 Si02
#       8
#     8   8   8   8   8   8   8   8
#     4   9  19  37  64  92 116 153 207 253 301 366
#     4  11  23  41  66  92 124 166 206 254 312 374
#     4  10  21  41  65  90 122 163 207 254 306 367
#     4  11  25  43  63  89 126 166 209 258 314 374
#     4  11  24  42  64  92 126 164 209 259 308 369
#     4  11  25  43  61  91 127 163 207 257 307 368
#     4  11  21  39  66  91 120 160 207 256 306 367
#     4  10  23  40  63  93 127 161 202 257 312 369
#
# _framework density 20.315249000000001
#
# number of rings (size 3 to 8) (size 9 to 14) (size 15 to 20)
#    0.000    1.500    2.500    1.875    3.500    2.500 
#    0.000    1.250    0.000    0.000    0.000    0.000 
#    0.000    0.000    0.000    0.000    0.000    0.000 
#
# Total GULP energy -396975.379980 kJ/mol
# GULP energy per Si atom -12405.480624 kJ/mol
# Density = 2.026901 g / cm^3
# Si number density = 20.315249 Si / 1000 Ang^3
#
#
#
# Elastic Constant Matrix: (Units=GPa)
#
#
# Indices 1 2 3 4 5 6 
#
# 1 63.4723 33.1650 26.0055 0.0000 0.0000 0.0000
# 2 33.1650 122.5623 26.4504 0.0000 0.0000 0.0000
# 3 26.0055 26.4504 56.2562 0.0000 0.0000 0.0000
# 4 0.0000 0.0000 0.0000 40.0893 0.0000 0.0000
# 5 0.0000 0.0000 0.0000 0.0000 27.2963 0.0000
# 6 0.0000 0.0000 0.0000 0.0000 0.0000 28.6268
#
#
#
# Elastic Compliance Matrix: (Units=1/GPa)
#
#
# Indices 1 2 3 4 5 6 
#
# 1 0.021066 -0.004005 -0.007855 0.000000 0.000000 0.000000
# 2 -0.004005 0.009842 -0.002776 0.000000 0.000000 0.000000
# 3 -0.007855 -0.002776 0.022712 0.000000 0.000000 0.000000
# 4 0.000000 0.000000 0.000000 0.024944 0.000000 0.000000
# 5 0.000000 0.000000 0.000000 0.000000 0.036635 0.000000
# 6 0.000000 0.000000 0.000000 0.000000 0.000000 0.034932
#
#
# Mechanical properties :
#
#
# Convention : Reuss Voigt Hill
#
# Bulk Modulus (GPa) = 41.07159 45.94806 43.50983
# Shear Modulus (GPa) = 26.66380 29.64712 28.15546
#
# Velocity S-wave (km/s) = 3.62678 3.82429 3.72684
# Velocity P-wave (km/s) = 6.14809 6.49361 6.32321
#
# Compressibility (1/GPa) = 0.02434773
#
# Stress axis : x y z
#
# Youngs Moduli (GPa) = 47.46986 101.60527 44.02931
#
# Poissons Ratio (x) = 0.40695 0.34585
# Poissons Ratio (y) = 0.19013 0.12223
# Poissons Ratio (z) = 0.37288 0.28206
#
# Static dielectric constant tensor:
#      x y z
#    x 3.537460 0.000000 0.000000 
#    y 0.000000 3.812820 0.000000 
#    z 0.000000 0.000000 3.751970 
# 
# 
# High freq. dielectric constant tensor:
#      x y z
#    x 1.783350 0.000000 0.000000 
#    y 0.000000 1.808050 0.000000 
#    z 0.000000 0.000000 1.798410 
# 
# From -- ./inp_files/13983.got.cif
#   From: 2010.03.12/outbox.cif.g09.slc.cpg/sg36_7_cif.got.tgz:13983.got - 2010.04.14 02:13:53.
