data_PCOD8175878
_publ_section_title
;
Structure prediction by ZEFSAII (Michael W. Deem and Ramdas Pophale) SiO2 
 PCOD8175878
Probable space group: C M C 21
;
_chemical_formula_sum "Si O2"
_cell_formula_units_Z 48
_cell_length_a 17.347582
_cell_length_b 15.003766
_cell_length_c 8.880016
_cell_angle_alpha 90.000000
_cell_angle_beta 90.000000
_cell_angle_gamma 90.000000
_cell_volume 2311.282226
_symmetry_space_group_name_H-M "C M C 21"
_symmetry_group_IT_number 36
_symmetry_cell_setting 'orthorhombic'
loop_
_space_group_symop_operation_xyz
x,y,z
-x,-y,1/2+z
x,-y,1/2+z
-x,y,z
1/2+x,1/2+y,z
1/2-x,1/2-y,1/2+z
1/2+x,1/2-y,1/2+z
1/2-x,1/2+y,z
loop_
_atom_site_type_symbol
_atom_site_label
_atom_site_fract_x
_atom_site_fract_y
_atom_site_fract_z
Si Si1 0.588492 0.404227 0.804990
Si Si2 0.088667 0.408088 0.786192
Si Si3 0.338943 0.949649 0.091407
Si Si4 0.833444 0.748198 0.652657
Si Si5 0.828156 0.766584 0.299254
Si Si6 0.661728 0.556255 0.620519
O O1 0.500000 0.414050 0.850805
O O2 0.601682 0.306824 0.733776
O O3 0.609662 0.475666 0.677384
O O4 0.640205 0.417365 0.951662
O O5 0.104424 0.472744 0.646358
O O6 0.108269 0.305688 0.747063
O O7 0.000000 0.413982 0.836094
O O8 0.146434 0.441679 0.914673
O O9 0.358532 0.854924 0.169699
O O10 0.250356 0.974928 0.120612
O O11 0.824130 0.775824 0.478915
O O12 0.753345 0.766437 0.736251
O O13 0.852749 0.860733 0.230495
#
# Coordination Sequence:
#
# PCOD8175878 Si02
#       6
#     8   8   8   8   8   8
#     4  12  25  40  62  92 126 160 202 261 323 377
#     4  11  23  38  59  89 123 155 193 247 307 359
#     4  10  22  40  63  86 116 160 204 245 292 359
#     4  10  21  40  63  89 120 160 209 255 304 367
#     4  10  22  40  64  89 120 162 208 255 304 368
#     4  11  23  42  65  89 119 163 212 255 304 374
#
# _framework density 20.767693999999999
#
# number of rings (size 3 to 8) (size 9 to 14) (size 15 to 20)
#    0.000    1.333    0.000    7.000    0.000   10.000 
#    0.000    0.000    0.000    0.000    0.000    0.000 
#    0.000    0.000    0.000    0.000    0.000    0.000 
#
# Total GULP energy -297732.969198 kJ/mol
# GULP energy per Si atom -12405.540383 kJ/mol
# Density = 2.072043 g / cm^3
# Si number density = 20.767694 Si / 1000 Ang^3
#
#
#
# Elastic Constant Matrix: (Units=GPa)
#
#
# Indices 1 2 3 4 5 6 
#
# 1 88.9043 39.0103 16.4974 0.0000 0.0000 0.0000
# 2 39.0103 60.4128 8.0811 0.0000 0.0000 0.0000
# 3 16.4974 8.0811 66.5494 0.0000 0.0000 0.0000
# 4 0.0000 0.0000 0.0000 35.0883 0.0000 0.0000
# 5 0.0000 0.0000 0.0000 0.0000 28.5099 0.0000
# 6 0.0000 0.0000 0.0000 0.0000 0.0000 24.2059
#
#
#
# Elastic Compliance Matrix: (Units=1/GPa)
#
#
# Indices 1 2 3 4 5 6 
#
# 1 0.016189 -0.010081 -0.002789 0.000000 0.000000 0.000000
# 2 -0.010081 0.023103 -0.000306 0.000000 0.000000 0.000000
# 3 -0.002789 -0.000306 0.015755 0.000000 0.000000 0.000000
# 4 0.000000 0.000000 0.000000 0.028500 0.000000 0.000000
# 5 0.000000 0.000000 0.000000 0.000000 0.035076 0.000000
# 6 0.000000 0.000000 0.000000 0.000000 0.000000 0.041312
#
#
# Mechanical properties :
#
#
# Convention : Reuss Voigt Hill
#
# Bulk Modulus (GPa) = 34.84954 38.11601 36.48277
# Shear Modulus (GPa) = 25.52956 27.71265 26.62110
#
# Velocity S-wave (km/s) = 3.50993 3.65692 3.58418
# Velocity P-wave (km/s) = 5.76569 6.01865 5.89353
#
# Compressibility (1/GPa) = 0.02869479
#
# Stress axis : x y z
#
# Youngs Moduli (GPa) = 61.77093 43.28427 63.47167
#
# Poissons Ratio (x) = 0.43633 0.17703
# Poissons Ratio (y) = 0.62268 0.01945
# Poissons Ratio (z) = 0.17228 0.01327
#
# Static dielectric constant tensor:
#      x y z
#    x 3.576270 0.000000 0.000000 
#    y 0.000000 3.952360 0.000000 
#    z 0.000000 0.000000 3.706480 
# 
# 
# High freq. dielectric constant tensor:
#      x y z
#    x 1.806300 0.000000 0.000000 
#    y 0.000000 1.825930 0.000000 
#    z 0.000000 0.000000 1.818330 
# 
# From -- ./inp_files/4638.got.cif
#   From: 2010.03.12/outbox.cif.g09.slc.cpg/sg36_3_cif.got.tgz:4638.got - 2010.04.14 02:13:53.
