data_PCOD8175348
_publ_section_title
;
Structure prediction by ZEFSAII (Michael W. Deem and Ramdas Pophale) SiO2 
 PCOD8175348
Probable space group: C M C 21
;
_chemical_formula_sum "Si O2"
_cell_formula_units_Z 64
_cell_length_a 9.020042
_cell_length_b 22.511617
_cell_length_c 15.823531
_cell_angle_alpha 90.000000
_cell_angle_beta 90.000000
_cell_angle_gamma 90.000000
_cell_volume 3213.058651
_symmetry_space_group_name_H-M "C M C 21"
_symmetry_group_IT_number 36
_symmetry_cell_setting 'orthorhombic'
loop_
_space_group_symop_operation_xyz
x,y,z
-x,-y,1/2+z
x,-y,1/2+z
-x,y,z
1/2+x,1/2+y,z
1/2-x,1/2-y,1/2+z
1/2+x,1/2-y,1/2+z
1/2-x,1/2+y,z
loop_
_atom_site_type_symbol
_atom_site_label
_atom_site_fract_x
_atom_site_fract_y
_atom_site_fract_z
Si Si1 0.324354 0.010539 0.783530
Si Si2 0.834194 0.830728 0.599279
Si Si3 0.324836 0.954566 0.959331
Si Si4 0.165250 0.776968 0.151775
Si Si5 0.323994 0.855525 0.283540
Si Si6 0.665248 0.276972 0.415301
Si Si7 0.834193 0.830724 0.967795
Si Si8 0.324838 0.954567 0.607727
O O1 0.500000 0.012200 0.783532
O O2 0.262809 0.077394 0.783527
O O3 0.267681 0.977979 0.868336
O O4 0.267689 0.977977 0.698725
O O5 0.739934 0.788113 0.661214
O O6 0.843550 0.797815 0.510701
O O7 0.754839 0.893260 0.588190
O O8 0.000000 0.839793 0.635944
O O9 0.500000 0.943846 0.959025
O O10 0.245168 0.893257 0.978868
O O11 0.279804 0.999999 0.033531
O O12 0.264724 0.824189 0.200235
O O13 0.000000 0.773138 0.190746
O O14 0.156461 0.797821 0.056380
O O15 0.500000 0.853455 0.283548
O O16 0.264704 0.824204 0.366852
O O17 0.500000 0.273138 0.376327
O O18 0.739947 0.211896 0.405858
O O19 0.000000 0.839787 0.931136
O O20 0.500000 0.943844 0.608028
#
# Coordination Sequence:
#
# PCOD8175348 Si02
#       8
#     8   8   8   8   8   8   8   8
#     4   9  20  36  55  82 111 144 188 231 276 341
#     4  10  21  37  57  82 111 145 188 234 281 335
#     4  10  20  36  58  81 111 152 191 231 285 344
#     4  10  21  37  57  81 111 146 183 228 283 340
#     4  11  21  36  59  84 111 142 184 233 278 331
#     4  10  21  37  57  81 111 146 183 228 283 340
#     4  10  21  37  57  82 111 145 188 234 281 335
#     4  10  20  36  58  81 111 152 191 231 285 344
#
# _framework density 19.918717000000001
#
# number of rings (size 3 to 8) (size 9 to 14) (size 15 to 20)
#    0.000    2.000    0.000    3.375    0.000    6.500 
#    0.000    6.875    0.000    0.000    0.000    0.000 
#    0.000    0.000    0.000    0.000    0.000    0.000 
#
# Total GULP energy -396821.136436 kJ/mol
# GULP energy per Si atom -12400.660514 kJ/mol
# Density = 1.987338 g / cm^3
# Si number density = 19.918717 Si / 1000 Ang^3
#
#
#
# Elastic Constant Matrix: (Units=GPa)
#
#
# Indices 1 2 3 4 5 6 
#
# 1 99.8656 60.2208 20.9794 0.0000 0.0000 0.0000
# 2 60.2208 152.1049 20.7895 0.0000 0.0000 0.0000
# 3 20.9794 20.7895 72.3980 0.0000 0.0000 0.0000
# 4 0.0000 0.0000 0.0000 20.4886 0.0000 0.0000
# 5 0.0000 0.0000 0.0000 0.0000 21.3246 0.0000
# 6 0.0000 0.0000 0.0000 0.0000 0.0000 30.3573
#
#
#
# Elastic Compliance Matrix: (Units=1/GPa)
#
#
# Indices 1 2 3 4 5 6 
#
# 1 0.013571 -0.005033 -0.002487 0.000000 0.000000 0.000000
# 2 -0.005033 0.008710 -0.001043 0.000000 0.000000 0.000000
# 3 -0.002487 -0.001043 0.014833 0.000000 0.000000 0.000000
# 4 0.000000 0.000000 0.000000 0.048808 0.000000 0.000000
# 5 0.000000 0.000000 0.000000 0.000000 0.046894 0.000000
# 6 0.000000 0.000000 0.000000 0.000000 0.000000 0.032941
#
#
# Mechanical properties :
#
#
# Convention : Reuss Voigt Hill
#
# Bulk Modulus (GPa) = 50.03134 58.70531 54.36832
# Shear Modulus (GPa) = 26.37909 29.25938 27.81923
#
# Velocity S-wave (km/s) = 3.64309 3.83683 3.74122
# Velocity P-wave (km/s) = 6.54740 7.01176 6.78355
#
# Compressibility (1/GPa) = 0.01998747
#
# Stress axis : x y z
#
# Youngs Moduli (GPa) = 73.68664 114.81654 67.41875
#
# Poissons Ratio (x) = 0.57787 0.16769
# Poissons Ratio (y) = 0.37087 0.07029
# Poissons Ratio (z) = 0.18328 0.11970
#
# Static dielectric constant tensor:
#      x y z
#    x 3.758870 0.000000 0.000000 
#    y 0.000000 3.678510 0.000000 
#    z 0.000000 0.000000 3.613400 
# 
# 
# High freq. dielectric constant tensor:
#      x y z
#    x 1.773070 0.000000 0.000000 
#    y 0.000000 1.788040 0.000000 
#    z 0.000000 0.000000 1.772990 
# 
# From -- ./inp_files/13788.got.cif
#   From: 2010.03.12/outbox.cif.g09.slc.cpg/sg36_7_cif.got.tgz:13788.got - 2010.04.14 02:13:53.
