data_PCOD8175778
_publ_section_title
;
Structure prediction by ZEFSAII (Michael W. Deem and Ramdas Pophale) SiO2 
 PCOD8175778
Probable space group: C M C 21
;
_chemical_formula_sum "Si O2"
_cell_formula_units_Z 64
_cell_length_a 8.758473
_cell_length_b 14.997887
_cell_length_c 23.578801
_cell_angle_alpha 90.000000
_cell_angle_beta 90.000000
_cell_angle_gamma 90.000000
_cell_volume 3097.278014
_symmetry_space_group_name_H-M "C M C 21"
_symmetry_group_IT_number 36
_symmetry_cell_setting 'orthorhombic'
loop_
_space_group_symop_operation_xyz
x,y,z
-x,-y,1/2+z
x,-y,1/2+z
-x,y,z
1/2+x,1/2+y,z
1/2-x,1/2-y,1/2+z
1/2+x,1/2-y,1/2+z
1/2-x,1/2+y,z
loop_
_atom_site_type_symbol
_atom_site_label
_atom_site_fract_x
_atom_site_fract_y
_atom_site_fract_z
Si Si1 0.674044 0.742679 0.225320
Si Si2 0.180569 0.636955 0.402775
Si Si3 0.320805 0.517254 0.832024
Si Si4 0.821360 0.551308 0.095762
Si Si5 0.819007 0.698076 0.847498
Si Si6 0.820471 0.246599 0.609709
Si Si7 0.827255 0.035871 0.209477
Si Si8 0.319512 0.403416 0.022559
O O1 0.500000 0.771817 0.218528
O O2 0.740654 0.780601 0.284070
O O3 0.761804 0.783471 0.171466
O O4 0.694263 0.637278 0.228227
O O5 0.256208 0.574849 0.355494
O O6 0.239362 0.737112 0.392613
O O7 0.230742 0.604882 0.464267
O O8 0.000000 0.632643 0.397157
O O9 0.500000 0.521862 0.845032
O O10 0.233835 0.598271 0.862786
O O11 0.288087 0.523166 0.764514
O O12 0.763843 0.654011 0.093258
O O13 0.785976 0.511306 0.158194
O O14 0.725401 0.498285 0.049133
O O15 0.000000 0.542161 0.082908
O O16 0.000000 0.708313 0.853273
O O17 0.761812 0.176469 0.563224
O O18 0.000000 0.245760 0.613064
O O19 0.000000 0.018203 0.188560
O O20 0.500000 0.399403 0.012041
#
# Coordination Sequence:
#
# PCOD8175778 Si02
#       8
#     8   8   8   8   8   8   8   8
#     4   9  18  35  60  89 125 163 200 250 309 365
#     4  12  26  45  66  91 124 167 216 268 320 376
#     4  11  23  41  64  93 127 167 212 262 317 378
#     4  10  21  38  60  91 125 159 205 257 308 370
#     4  11  23  41  63  94 129 167 210 260 317 377
#     4   9  21  39  60  88 122 161 202 249 307 367
#     4   9  18  36  60  88 125 165 203 249 311 375
#     4  11  24  43  65  88 121 167 210 257 315 378
#
# _framework density 20.663304
#
# number of rings (size 3 to 8) (size 9 to 14) (size 15 to 20)
#    0.000    1.750    1.250    2.625    1.750    4.500 
#    0.000    3.750    0.000    0.000    0.000    0.000 
#    0.000    0.000    0.000    0.000    0.000    0.000 
#
# Total GULP energy -396927.741490 kJ/mol
# GULP energy per Si atom -12403.991922 kJ/mol
# Density = 2.061627 g / cm^3
# Si number density = 20.663304 Si / 1000 Ang^3
#
#
#
# Elastic Constant Matrix: (Units=GPa)
#
#
# Indices 1 2 3 4 5 6 
#
# 1 61.6791 14.6844 32.7365 0.0000 0.0000 0.0000
# 2 14.6844 52.7289 7.8360 0.0000 0.0000 0.0000
# 3 32.7365 7.8360 70.6531 0.0000 0.0000 0.0000
# 4 0.0000 0.0000 0.0000 27.4407 0.0000 0.0000
# 5 0.0000 0.0000 0.0000 0.0000 37.0798 0.0000
# 6 0.0000 0.0000 0.0000 0.0000 0.0000 31.8787
#
#
#
# Elastic Compliance Matrix: (Units=1/GPa)
#
#
# Indices 1 2 3 4 5 6 
#
# 1 0.022648 -0.004827 -0.009958 0.000000 0.000000 0.000000
# 2 -0.004827 0.020312 -0.000016 0.000000 0.000000 0.000000
# 3 -0.009958 -0.000016 0.018769 0.000000 0.000000 0.000000
# 4 0.000000 0.000000 0.000000 0.036442 0.000000 0.000000
# 5 0.000000 0.000000 0.000000 0.000000 0.026969 0.000000
# 6 0.000000 0.000000 0.000000 0.000000 0.000000 0.031369
#
#
# Mechanical properties :
#
#
# Convention : Reuss Voigt Hill
#
# Bulk Modulus (GPa) = 31.12768 32.84166 31.98467
# Shear Modulus (GPa) = 25.40391 27.93346 26.66869
#
# Velocity S-wave (km/s) = 3.51011 3.68073 3.59643
# Velocity P-wave (km/s) = 5.61470 5.83025 5.72349
#
# Compressibility (1/GPa) = 0.03212575
#
# Stress axis : x y z
#
# Youngs Moduli (GPa) = 44.15491 49.23278 53.27807
#
# Poissons Ratio (x) = 0.23766 0.53055
# Poissons Ratio (y) = 0.21315 0.00086
# Poissons Ratio (z) = 0.43970 0.00079
#
# Static dielectric constant tensor:
#      x y z
#    x 3.648540 0.000000 0.000000 
#    y 0.000000 3.863310 0.000000 
#    z 0.000000 0.000000 3.754390 
# 
# 
# High freq. dielectric constant tensor:
#      x y z
#    x 1.806090 0.000000 0.000000 
#    y 0.000000 1.813600 0.000000 
#    z 0.000000 0.000000 1.805090 
# 
# From -- ./inp_files/16694.got.cif
#   From: 2010.03.12/outbox.cif.g09.slc.cpg/sg36_9_cif.got.tgz:16694.got - 2010.04.14 02:13:53.
