data_PCOD8175158
_publ_section_title
;
Structure prediction by ZEFSAII (Michael W. Deem and Ramdas Pophale) SiO2 
 PCOD8175158
Probable space group: C M C 21
;
_chemical_formula_sum "Si O2"
_cell_formula_units_Z 64
_cell_length_a 9.039933
_cell_length_b 28.757456
_cell_length_c 12.705591
_cell_angle_alpha 90.000000
_cell_angle_beta 90.000000
_cell_angle_gamma 90.000000
_cell_volume 3303.015006
_symmetry_space_group_name_H-M "C M C 21"
_symmetry_group_IT_number 36
_symmetry_cell_setting 'orthorhombic'
loop_
_space_group_symop_operation_xyz
x,y,z
-x,-y,1/2+z
x,-y,1/2+z
-x,y,z
1/2+x,1/2+y,z
1/2-x,1/2-y,1/2+z
1/2+x,1/2-y,1/2+z
1/2-x,1/2+y,z
loop_
_atom_site_type_symbol
_atom_site_label
_atom_site_fract_x
_atom_site_fract_y
_atom_site_fract_z
Si Si1 0.829315 0.983165 0.485640
Si Si2 0.833394 0.353606 0.458964
Si Si3 0.324342 0.833607 0.764226
Si Si4 0.327688 0.577923 0.586266
Si Si5 0.331085 0.928900 0.303337
Si Si6 0.169514 0.095580 0.133605
Si Si7 0.668767 0.767472 0.578203
Si Si8 0.823141 0.173587 0.485663
O O1 0.729190 0.964087 0.391643
O O2 0.798212 0.957775 0.598834
O O3 0.000000 0.975311 0.453736
O O4 0.793413 0.037503 0.501850
O O5 0.815067 0.374846 0.342093
O O6 0.705014 0.375769 0.528594
O O7 0.814104 0.297840 0.469647
O O8 0.000000 0.366471 0.501497
O O9 0.500000 0.833832 0.774883
O O10 0.271205 0.885444 0.728798
O O11 0.264894 0.796032 0.677501
O O12 0.250322 0.820208 0.872896
O O13 0.500000 0.581997 0.609445
O O14 0.253057 0.565213 0.695423
O O15 0.266617 0.626173 0.539280
O O16 0.500000 0.942235 0.283638
O O17 0.000000 0.102632 0.167592
O O18 0.500000 0.758828 0.606678
O O19 0.737788 0.716582 0.557097
O O20 0.000000 0.174489 0.472393
#
# Coordination Sequence:
#
# PCOD8175158 Si02
#       8
#     8   8   8   8   8   8   8   8
#     4   9  19  36  56  77 103 138 179 219 260 308
#     4   8  15  30  51  76 106 135 165 209 263 307
#     4  10  20  35  54  77 108 140 169 212 270 315
#     4  10  22  38  54  75 107 143 175 213 260 309
#     4  10  20  34  55  81 107 137 173 216 265 313
#     4   9  16  29  52  78 100 128 172 217 253 302
#     4   8  16  33  55  76 101 136 174 212 257 309
#     4  10  21  37  55  76 104 139 179 216 252 305
#
# _framework density 19.376235999999999
#
# number of rings (size 3 to 8) (size 9 to 14) (size 15 to 20)
#    0.000    2.750    0.000    1.875    0.000    4.000 
#    0.000    8.125    0.000    0.000    0.000    0.000 
#    0.000    0.000    0.000    0.000    0.000    0.000 
#
# Total GULP energy -396495.399558 kJ/mol
# GULP energy per Si atom -12390.481236 kJ/mol
# Density = 1.933213 g / cm^3
# Si number density = 19.376236 Si / 1000 Ang^3
#
#
#
# Elastic Constant Matrix: (Units=GPa)
#
#
# Indices 1 2 3 4 5 6 
#
# 1 47.6810 35.7567 34.2245 0.0000 0.0000 0.0000
# 2 35.7567 132.1681 45.2632 0.0000 0.0000 0.0000
# 3 34.2245 45.2632 96.4105 0.0000 0.0000 0.0000
# 4 0.0000 0.0000 0.0000 22.6349 0.0000 0.0000
# 5 0.0000 0.0000 0.0000 0.0000 29.7369 0.0000
# 6 0.0000 0.0000 0.0000 0.0000 0.0000 18.1889
#
#
#
# Elastic Compliance Matrix: (Units=1/GPa)
#
#
# Indices 1 2 3 4 5 6 
#
# 1 0.031214 -0.005541 -0.008479 0.000000 0.000000 0.000000
# 2 -0.005541 0.009999 -0.002728 0.000000 0.000000 0.000000
# 3 -0.008479 -0.002728 0.014663 0.000000 0.000000 0.000000
# 4 0.000000 0.000000 0.000000 0.044180 0.000000 0.000000
# 5 0.000000 0.000000 0.000000 0.000000 0.033628 0.000000
# 6 0.000000 0.000000 0.000000 0.000000 0.000000 0.054978
#
#
# Mechanical properties :
#
#
# Convention : Reuss Voigt Hill
#
# Bulk Modulus (GPa) = 44.68089 56.30539 50.49314
# Shear Modulus (GPa) = 21.77528 24.84650 23.31089
#
# Velocity S-wave (km/s) = 3.35597 3.58483 3.47229
# Velocity P-wave (km/s) = 6.17466 6.80123 6.49551
#
# Compressibility (1/GPa) = 0.02238093
#
# Stress axis : x y z
#
# Youngs Moduli (GPa) = 32.03679 100.00783 68.19926
#
# Poissons Ratio (x) = 0.55412 0.57828
# Poissons Ratio (y) = 0.17751 0.18602
# Poissons Ratio (z) = 0.27165 0.27278
#
# Static dielectric constant tensor:
#      x y z
#    x 3.394710 0.000000 0.000000 
#    y 0.000000 3.897550 0.000000 
#    z 0.000000 0.000000 3.353250 
# 
# 
# High freq. dielectric constant tensor:
#      x y z
#    x 1.740470 0.000000 0.000000 
#    y 0.000000 1.756630 0.000000 
#    z 0.000000 0.000000 1.735860 
# 
# From -- ./inp_files/7072.got.cif
#   From: 2010.03.12/outbox.cif.g09.slc.cpg/sg36_4_cif.got.tgz:7072.got - 2010.04.14 02:13:53.
