data_PCOD8175434
_publ_section_title
;
Structure prediction by ZEFSAII (Michael W. Deem and Ramdas Pophale) SiO2 
 PCOD8175434
Probable space group: C M C 21
;
_chemical_formula_sum "Si O2"
_cell_formula_units_Z 64
_cell_length_a 14.692882
_cell_length_b 22.924134
_cell_length_c 9.609866
_cell_angle_alpha 90.000000
_cell_angle_beta 90.000000
_cell_angle_gamma 90.000000
_cell_volume 3236.810402
_symmetry_space_group_name_H-M "C M C 21"
_symmetry_group_IT_number 36
_symmetry_cell_setting 'orthorhombic'
loop_
_space_group_symop_operation_xyz
x,y,z
-x,-y,1/2+z
x,-y,1/2+z
-x,y,z
1/2+x,1/2+y,z
1/2-x,1/2-y,1/2+z
1/2+x,1/2-y,1/2+z
1/2-x,1/2+y,z
loop_
_atom_site_type_symbol
_atom_site_label
_atom_site_fract_x
_atom_site_fract_y
_atom_site_fract_z
Si Si1 0.233947 0.302929 0.728550
Si Si2 0.191908 0.481959 0.239428
Si Si3 0.603943 0.374396 0.655602
Si Si4 0.899302 0.401907 0.805551
Si Si5 0.264275 0.300813 0.046158
Si Si6 0.686750 0.520612 0.999329
Si Si7 0.897402 0.629446 0.625280
Si Si8 0.601590 0.401224 0.971728
O O1 0.330291 0.318156 0.654134
O O2 0.170166 0.360115 0.722861
O O3 0.189983 0.251751 0.633998
O O4 0.246257 0.281084 0.887241
O O5 0.122010 0.530261 0.292043
O O6 0.277380 0.472801 0.342229
O O7 0.226306 0.506897 0.093251
O O8 0.136972 0.421762 0.226128
O O9 0.500000 0.354560 0.628140
O O10 0.633602 0.420728 0.539405
O O11 0.617080 0.402825 0.806755
O O12 0.000000 0.388822 0.747433
O O13 0.893335 0.391434 0.968065
O O14 0.171495 0.315803 0.131065
O O15 0.329422 0.357337 0.047861
O O16 0.617391 0.467038 0.020511
O O17 0.000000 0.648119 0.668735
O O18 0.500000 0.381290 0.011190
#
# Coordination Sequence:
#
# PCOD8175434 Si02
#       8
#     8   8   8   8   8   8   8   8
#     4  10  21  39  60  81 111 154 197 244 294 341
#     4  12  20  36  61  86 119 153 188 230 284 344
#     4  10  21  38  60  86 117 154 192 234 289 348
#     4  10  20  37  59  85 118 155 191 233 289 346
#     4  10  21  39  60  81 111 154 197 244 294 341
#     4  12  20  36  61  86 119 153 188 230 284 344
#     4  10  21  38  60  86 117 154 192 234 289 348
#     4  10  20  37  59  85 118 155 191 233 289 346
#
# _framework density 19.772552000000001
#
# number of rings (size 3 to 8) (size 9 to 14) (size 15 to 20)
#    0.000    1.500    5.000    1.500    0.000    2.000 
#    0.000    0.000    0.000    0.000    0.000    0.000 
#    0.000    0.000    0.000    0.000    0.000    0.000 
#
# Total GULP energy -396793.515608 kJ/mol
# GULP energy per Si atom -12399.797363 kJ/mol
# Density = 1.972755 g / cm^3
# Si number density = 19.772552 Si / 1000 Ang^3
#
#
#
# Elastic Constant Matrix: (Units=GPa)
#
#
# Indices 1 2 3 4 5 6 
#
# 1 120.1905 37.6558 25.6307 0.0000 0.0000 0.0000
# 2 37.6558 95.6888 38.0505 0.0000 0.0000 0.0000
# 3 25.6307 38.0505 45.1803 0.0000 0.0000 0.0000
# 4 0.0000 0.0000 0.0000 31.0385 0.0000 0.0000
# 5 0.0000 0.0000 0.0000 0.0000 16.9285 0.0000
# 6 0.0000 0.0000 0.0000 0.0000 0.0000 17.6223
#
#
#
# Elastic Compliance Matrix: (Units=1/GPa)
#
#
# Indices 1 2 3 4 5 6 
#
# 1 0.009843 -0.002485 -0.003491 0.000000 0.000000 0.000000
# 2 -0.002485 0.016340 -0.012352 0.000000 0.000000 0.000000
# 3 -0.003491 -0.012352 0.034516 0.000000 0.000000 0.000000
# 4 0.000000 0.000000 0.000000 0.032218 0.000000 0.000000
# 5 0.000000 0.000000 0.000000 0.000000 0.059072 0.000000
# 6 0.000000 0.000000 0.000000 0.000000 0.000000 0.056746
#
#
# Mechanical properties :
#
#
# Convention : Reuss Voigt Hill
#
# Bulk Modulus (GPa) = 41.59041 51.52596 46.55819
# Shear Modulus (GPa) = 19.73115 23.76603 21.74859
#
# Velocity S-wave (km/s) = 3.16239 3.47071 3.32013
# Velocity P-wave (km/s) = 5.86638 6.49438 6.18835
#
# Compressibility (1/GPa) = 0.02404400
#
# Stress axis : x y z
#
# Youngs Moduli (GPa) = 101.59253 61.19874 28.97177
#
# Poissons Ratio (x) = 0.15210 0.10114
# Poissons Ratio (y) = 0.25250 0.35785
# Poissons Ratio (z) = 0.35465 0.75590
#
# Static dielectric constant tensor:
#      x y z
#    x 3.861650 0.000000 0.000000 
#    y 0.000000 3.512220 0.000000 
#    z 0.000000 0.000000 3.483900 
# 
# 
# High freq. dielectric constant tensor:
#      x y z
#    x 1.773660 0.000000 0.000000 
#    y 0.000000 1.762660 0.000000 
#    z 0.000000 0.000000 1.755260 
# 
# From -- ./inp_files/4361.got.cif
#   From: 2010.03.12/outbox.cif.g09.slc.cpg/sg36_3_cif.got.tgz:4361.got - 2010.04.14 02:13:53.
