data_PCOD8175665
_publ_section_title
;
Structure prediction by ZEFSAII (Michael W. Deem and Ramdas Pophale) SiO2 
 PCOD8175665
Probable space group: C M C 21
;
_chemical_formula_sum "Si O2"
_cell_formula_units_Z 64
_cell_length_a 8.823794
_cell_length_b 15.283506
_cell_length_c 23.776355
_cell_angle_alpha 90.000000
_cell_angle_beta 90.000000
_cell_angle_gamma 90.000000
_cell_volume 3206.443774
_symmetry_space_group_name_H-M "C M C 21"
_symmetry_group_IT_number 36
_symmetry_cell_setting 'orthorhombic'
loop_
_space_group_symop_operation_xyz
x,y,z
-x,-y,1/2+z
x,-y,1/2+z
-x,y,z
1/2+x,1/2+y,z
1/2-x,1/2-y,1/2+z
1/2+x,1/2-y,1/2+z
1/2-x,1/2+y,z
loop_
_atom_site_type_symbol
_atom_site_label
_atom_site_fract_x
_atom_site_fract_y
_atom_site_fract_z
Si Si1 0.321091 0.137923 0.328780
Si Si2 0.319861 0.891053 0.701298
Si Si3 0.828447 0.234425 0.512664
Si Si4 0.675877 0.791855 0.392112
Si Si5 0.681278 0.449528 0.140327
Si Si6 0.679145 0.762540 0.128616
Si Si7 0.324558 0.015263 0.905743
Si Si8 0.669300 0.530944 0.514981
O O1 0.500000 0.134449 0.332487
O O2 0.268239 0.122590 0.265335
O O3 0.266914 0.232654 0.348715
O O4 0.249029 0.061796 0.368454
O O5 0.500000 0.884708 0.693058
O O6 0.261346 0.987227 0.684664
O O7 0.236218 0.817710 0.665476
O O8 0.767763 0.280640 0.456349
O O9 0.719198 0.259490 0.564022
O O10 0.000000 0.263589 0.528010
O O11 0.823341 0.132299 0.499680
O O12 0.500000 0.766072 0.388364
O O13 0.705825 0.892393 0.374864
O O14 0.500000 0.449850 0.146986
O O15 0.739102 0.350792 0.149781
O O16 0.730606 0.483124 0.078276
O O17 0.500000 0.773419 0.135044
O O18 0.500000 0.996008 0.911080
O O19 0.266087 0.021312 0.969552
O O20 0.500000 0.494436 0.510869
#
# Coordination Sequence:
#
# PCOD8175665 Si02
#       8
#     8   8   8   8   8   8   8   8
#     4  10  23  42  60  85 121 157 200 254 301 353
#     4  11  24  42  63  87 122 167 212 257 305 361
#     4   9  18  35  57  85 123 160 195 243 303 365
#     4  10  21  37  59  87 118 158 199 242 300 360
#     4  10  22  41  62  91 126 159 202 253 307 370
#     4  11  23  39  61  91 122 161 207 255 310 364
#     4  10  21  36  57  87 118 152 195 243 296 355
#     4   9  18  34  57  85 120 154 190 239 294 356
#
# _framework density 19.959806
#
# number of rings (size 3 to 8) (size 9 to 14) (size 15 to 20)
#    0.000    2.000    1.250    2.625    1.750    5.500 
#    0.000    1.250    0.000    0.000    0.000    0.000 
#    0.000    0.000    0.000    0.000    0.000    0.000 
#
# Total GULP energy -396821.533024 kJ/mol
# GULP energy per Si atom -12400.672907 kJ/mol
# Density = 1.991438 g / cm^3
# Si number density = 19.959806 Si / 1000 Ang^3
#
#
#
# Elastic Constant Matrix: (Units=GPa)
#
#
# Indices 1 2 3 4 5 6 
#
# 1 54.2900 14.7052 22.5704 0.0000 0.0000 0.0000
# 2 14.7052 57.2550 20.4051 0.0000 0.0000 0.0000
# 3 22.5704 20.4051 73.4614 0.0000 0.0000 0.0000
# 4 0.0000 0.0000 0.0000 25.8724 0.0000 0.0000
# 5 0.0000 0.0000 0.0000 0.0000 27.2548 0.0000
# 6 0.0000 0.0000 0.0000 0.0000 0.0000 31.5133
#
#
#
# Elastic Compliance Matrix: (Units=1/GPa)
#
#
# Indices 1 2 3 4 5 6 
#
# 1 0.021751 -0.003557 -0.005695 0.000000 0.000000 0.000000
# 2 -0.003557 0.019966 -0.004453 0.000000 0.000000 0.000000
# 3 -0.005695 -0.004453 0.016599 0.000000 0.000000 0.000000
# 4 0.000000 0.000000 0.000000 0.038651 0.000000 0.000000
# 5 0.000000 0.000000 0.000000 0.000000 0.036691 0.000000
# 6 0.000000 0.000000 0.000000 0.000000 0.000000 0.031733
#
#
# Mechanical properties :
#
#
# Convention : Reuss Voigt Hill
#
# Bulk Modulus (GPa) = 32.35548 33.37419 32.86484
# Shear Modulus (GPa) = 24.61815 25.41649 25.01732
#
# Velocity S-wave (km/s) = 3.51577 3.57232 3.54416
# Velocity P-wave (km/s) = 5.72070 5.81139 5.76622
#
# Compressibility (1/GPa) = 0.03090666
#
# Stress axis : x y z
#
# Youngs Moduli (GPa) = 45.97594 50.08438 60.24393
#
# Poissons Ratio (x) = 0.17814 0.34307
# Poissons Ratio (y) = 0.16353 0.26828
# Poissons Ratio (z) = 0.26182 0.22303
#
# Static dielectric constant tensor:
#      x y z
#    x 3.514730 0.000000 0.000000 
#    y 0.000000 3.644410 0.000000 
#    z 0.000000 0.000000 3.712230 
# 
# 
# High freq. dielectric constant tensor:
#      x y z
#    x 1.769860 0.000000 0.000000 
#    y 0.000000 1.785630 0.000000 
#    z 0.000000 0.000000 1.775730 
# 
# From -- ./inp_files/16692.got.cif
#   From: 2010.03.12/outbox.cif.g09.slc.cpg/sg36_9_cif.got.tgz:16692.got - 2010.04.14 02:13:53.
