data_PCOD8175356
_publ_section_title
;
Structure prediction by ZEFSAII (Michael W. Deem and Ramdas Pophale) SiO2 
 PCOD8175356
Probable space group: C M C 21
;
_chemical_formula_sum "Si O2"
_cell_formula_units_Z 64
_cell_length_a 8.914269
_cell_length_b 24.435762
_cell_length_c 14.420404
_cell_angle_alpha 90.000000
_cell_angle_beta 90.000000
_cell_angle_gamma 90.000000
_cell_volume 3141.152703
_symmetry_space_group_name_H-M "C M C 21"
_symmetry_group_IT_number 36
_symmetry_cell_setting 'orthorhombic'
loop_
_space_group_symop_operation_xyz
x,y,z
-x,-y,1/2+z
x,-y,1/2+z
-x,y,z
1/2+x,1/2+y,z
1/2-x,1/2-y,1/2+z
1/2+x,1/2-y,1/2+z
1/2-x,1/2+y,z
loop_
_atom_site_type_symbol
_atom_site_label
_atom_site_fract_x
_atom_site_fract_y
_atom_site_fract_z
Si Si1 0.674437 0.754312 0.964100
Si Si2 0.827706 0.024491 0.047606
Si Si3 0.677410 0.047919 0.856686
Si Si4 0.675533 0.663152 0.827927
Si Si5 0.667019 0.351414 0.872108
Si Si6 0.674937 0.804151 0.151839
Si Si7 0.333832 0.401186 0.068558
Si Si8 0.823913 0.947487 0.748927
O O1 0.500000 0.766498 0.968015
O O2 0.709464 0.693325 0.926479
O O3 0.737785 0.797388 0.890052
O O4 0.735859 0.763534 0.069469
O O5 0.794286 0.060035 0.139236
O O6 0.000000 0.030622 0.014134
O O7 0.792387 0.963801 0.083298
O O8 0.720988 0.041792 0.964271
O O9 0.500000 0.048945 0.848007
O O10 0.740531 0.105643 0.820463
O O11 0.739071 0.998765 0.794215
O O12 0.500000 0.652853 0.816460
O O13 0.733451 0.704342 0.746903
O O14 0.500000 0.331549 0.846072
O O15 0.734134 0.389775 0.790899
O O16 0.665425 0.390982 0.959856
O O17 0.500000 0.795482 0.171560
O O18 0.706685 0.866118 0.119145
O O19 0.500000 0.387861 0.110122
O O20 0.000000 0.956032 0.770367
#
# Coordination Sequence:
#
# PCOD8175356 Si02
#       8
#     8   8   8   8   8   8   8   8
#     4   9  21  40  61  85 114 151 194 243 297 349
#     4  10  20  36  58  83 118 159 198 235 284 360
#     4  12  25  39  59  89 124 158 196 250 303 344
#     4  11  23  42  63  83 116 162 203 238 291 360
#     4   9  17  32  56  84 112 144 190 239 283 338
#     4  10  20  36  60  91 118 145 194 252 301 344
#     4   9  16  30  54  82 113 153 196 235 279 341
#     4  10  20  37  61  89 119 158 201 236 286 360
#
# _framework density 20.374686000000001
#
# number of rings (size 3 to 8) (size 9 to 14) (size 15 to 20)
#    0.000    2.000    1.250    2.625    0.000    4.000 
#    2.250    0.000    0.000    0.000    0.000    0.000 
#    0.000    0.000    0.000    0.000    0.000    0.000 
#
# Total GULP energy -396679.407826 kJ/mol
# GULP energy per Si atom -12396.231495 kJ/mol
# Density = 2.032831 g / cm^3
# Si number density = 20.374686 Si / 1000 Ang^3
#
#
#
# Elastic Constant Matrix: (Units=GPa)
#
#
# Indices 1 2 3 4 5 6 
#
# 1 77.2881 23.1087 32.2142 0.0000 0.0000 0.0000
# 2 23.1087 37.4741 14.5338 0.0000 0.0000 0.0000
# 3 32.2142 14.5338 95.1965 0.0000 0.0000 0.0000
# 4 0.0000 0.0000 0.0000 26.9680 0.0000 0.0000
# 5 0.0000 0.0000 0.0000 0.0000 26.8420 0.0000
# 6 0.0000 0.0000 0.0000 0.0000 0.0000 22.9154
#
#
#
# Elastic Compliance Matrix: (Units=1/GPa)
#
#
# Indices 1 2 3 4 5 6 
#
# 1 0.017543 -0.009052 -0.004555 0.000000 0.000000 0.000000
# 2 -0.009052 0.033035 -0.001980 0.000000 0.000000 0.000000
# 3 -0.004555 -0.001980 0.012348 0.000000 0.000000 0.000000
# 4 0.000000 0.000000 0.000000 0.037081 0.000000 0.000000
# 5 0.000000 0.000000 0.000000 0.000000 0.037255 0.000000
# 6 0.000000 0.000000 0.000000 0.000000 0.000000 0.043639
#
#
# Mechanical properties :
#
#
# Convention : Reuss Voigt Hill
#
# Bulk Modulus (GPa) = 31.49321 38.85247 35.17284
# Shear Modulus (GPa) = 22.45579 24.68521 23.57050
#
# Velocity S-wave (km/s) = 3.32345 3.48453 3.40494
# Velocity P-wave (km/s) = 5.49706 5.94135 5.72352
#
# Compressibility (1/GPa) = 0.03175287
#
# Stress axis : x y z
#
# Youngs Moduli (GPa) = 57.00128 30.27090 80.98318
#
# Poissons Ratio (x) = 0.27401 0.36885
# Poissons Ratio (y) = 0.51597 0.16038
# Poissons Ratio (z) = 0.25962 0.05995
#
# Static dielectric constant tensor:
#      x y z
#    x 3.564510 0.000000 0.000000 
#    y 0.000000 3.529590 0.000000 
#    z 0.000000 0.000000 3.980030 
# 
# 
# High freq. dielectric constant tensor:
#      x y z
#    x 1.780960 0.000000 0.000000 
#    y 0.000000 1.782090 0.000000 
#    z 0.000000 0.000000 1.807070 
# 
# From -- ./inp_files/10907.got.cif
#   From: 2010.03.12/outbox.cif.g09.slc.cpg/sg36_6_cif.got.tgz:10907.got - 2010.04.14 02:13:53.
