data_PCOD8175358
_publ_section_title
;
Structure prediction by ZEFSAII (Michael W. Deem and Ramdas Pophale) SiO2 
 PCOD8175358
Probable space group: C M C 21
;
_chemical_formula_sum "Si O2"
_cell_formula_units_Z 64
_cell_length_a 9.588314
_cell_length_b 30.233880
_cell_length_c 11.903469
_cell_angle_alpha 90.000000
_cell_angle_beta 90.000000
_cell_angle_gamma 90.000000
_cell_volume 3450.719660
_symmetry_space_group_name_H-M "C M C 21"
_symmetry_group_IT_number 36
_symmetry_cell_setting 'orthorhombic'
loop_
_space_group_symop_operation_xyz
x,y,z
-x,-y,1/2+z
x,-y,1/2+z
-x,y,z
1/2+x,1/2+y,z
1/2-x,1/2-y,1/2+z
1/2+x,1/2-y,1/2+z
1/2-x,1/2+y,z
loop_
_atom_site_type_symbol
_atom_site_label
_atom_site_fract_x
_atom_site_fract_y
_atom_site_fract_z
Si Si1 0.159337 0.954538 0.196390
Si Si2 0.664913 0.445290 0.724496
Si Si3 0.343095 0.210604 0.692519
Si Si4 0.162845 0.379129 0.314788
Si Si5 0.162263 0.621605 0.077916
Si Si6 0.663412 0.796260 0.729322
Si Si7 0.842499 0.912497 0.967010
Si Si8 0.155888 0.333015 0.964832
O O1 0.253268 0.920057 0.263843
O O2 0.000000 0.947767 0.236901
O O3 0.211832 0.003892 0.219781
O O4 0.170583 0.949880 0.061759
O O5 0.500000 0.439984 0.703237
O O6 0.746393 0.417373 0.631262
O O7 0.711840 0.429779 0.847773
O O8 0.500000 0.222001 0.733512
O O9 0.289707 0.166592 0.756296
O O10 0.240994 0.250449 0.715793
O O11 0.341481 0.204829 0.558383
O O12 0.195696 0.375485 0.446564
O O13 0.000000 0.387574 0.291234
O O14 0.203552 0.668763 0.132576
O O15 0.000000 0.611248 0.101069
O O16 0.500000 0.785910 0.729941
O O17 0.715739 0.815272 0.847907
O O18 0.749826 0.872392 0.010280
O O19 0.000000 0.895478 0.955193
O O20 0.000000 0.351382 0.946820
#
# Coordination Sequence:
#
# PCOD8175358 Si02
#       8
#     8   8   8   8   8   8   8   8
#     4  10  22  38  59  86 116 150 189 234 284 336
#     4  10  22  38  59  86 116 150 189 234 284 336
#     4  10  22  38  58  83 112 146 187 232 281 334
#     4  10  22  40  59  83 116 152 190 232 281 338
#     4  10  22  40  59  83 116 152 190 232 281 338
#     4  10  22  38  58  83 112 146 187 232 281 334
#     4  10  20  36  58  85 112 145 191 236 281 335
#     4  10  20  38  60  81 108 147 191 234 279 335
#
# _framework density 18.546856999999999
#
# number of rings (size 3 to 8) (size 9 to 14) (size 15 to 20)
#    0.000    2.000    2.500    0.000    3.500    3.000 
#    0.000    0.000    0.000    0.000    0.000    0.000 
#    0.000    0.000    0.000    0.000    0.000    0.000 
#
# Total GULP energy -396850.141061 kJ/mol
# GULP energy per Si atom -12401.566908 kJ/mol
# Density = 1.850464 g / cm^3
# Si number density = 18.546857 Si / 1000 Ang^3
#
#
#
# Elastic Constant Matrix: (Units=GPa)
#
#
# Indices 1 2 3 4 5 6 
#
# 1 61.2470 61.4938 34.7209 0.0000 0.0000 0.0000
# 2 61.4938 137.5977 46.2398 0.0000 0.0000 0.0000
# 3 34.7209 46.2398 114.0145 0.0000 0.0000 0.0000
# 4 0.0000 0.0000 0.0000 23.5585 0.0000 0.0000
# 5 0.0000 0.0000 0.0000 0.0000 23.9823 0.0000
# 6 0.0000 0.0000 0.0000 0.0000 0.0000 34.4704
#
#
#
# Elastic Compliance Matrix: (Units=1/GPa)
#
#
# Indices 1 2 3 4 5 6 
#
# 1 0.031488 -0.012562 -0.004494 0.000000 0.000000 0.000000
# 2 -0.012562 0.013426 -0.001620 0.000000 0.000000 0.000000
# 3 -0.004494 -0.001620 0.010796 0.000000 0.000000 0.000000
# 4 0.000000 0.000000 0.000000 0.042448 0.000000 0.000000
# 5 0.000000 0.000000 0.000000 0.000000 0.041697 0.000000
# 6 0.000000 0.000000 0.000000 0.000000 0.000000 0.029010
#
#
# Mechanical properties :
#
#
# Convention : Reuss Voigt Hill
#
# Bulk Modulus (GPa) = 54.47120 66.41870 60.44495
# Shear Modulus (GPa) = 23.54760 27.76256 25.65508
#
# Velocity S-wave (km/s) = 3.56705 3.87316 3.72325
# Velocity P-wave (km/s) = 6.81164 7.47602 7.15155
#
# Compressibility (1/GPa) = 0.01835833
#
# Stress axis : x y z
#
# Youngs Moduli (GPa) = 31.75851 74.48346 92.62427
#
# Poissons Ratio (x) = 0.93565 0.41629
# Poissons Ratio (y) = 0.39894 0.15001
# Poissons Ratio (z) = 0.14273 0.12063
#
# Static dielectric constant tensor:
#      x y z
#    x 3.365440 0.000000 0.000000 
#    y 0.000000 3.291170 0.000000 
#    z 0.000000 0.000000 3.630470 
# 
# 
# High freq. dielectric constant tensor:
#      x y z
#    x 1.714810 0.000000 0.000000 
#    y 0.000000 1.716440 0.000000 
#    z 0.000000 0.000000 1.735790 
# 
# From -- ./inp_files/7160.got.cif
#   From: 2010.03.12/outbox.cif.g09.slc.cpg/sg36_4_cif.got.tgz:7160.got - 2010.04.14 02:13:53.
