data_PCOD8175015
_publ_section_title
;
Structure prediction by ZEFSAII (Michael W. Deem and Ramdas Pophale) SiO2 
 PCOD8175015
Probable space group: C M C 21
;
_chemical_formula_sum "Si O2"
_cell_formula_units_Z 48
_cell_length_a 8.866208
_cell_length_b 27.055762
_cell_length_c 9.957908
_cell_angle_alpha 90.000000
_cell_angle_beta 90.000000
_cell_angle_gamma 90.000000
_cell_volume 2388.723021
_symmetry_space_group_name_H-M "C M C 21"
_symmetry_group_IT_number 36
_symmetry_cell_setting 'orthorhombic'
loop_
_space_group_symop_operation_xyz
x,y,z
-x,-y,1/2+z
x,-y,1/2+z
-x,y,z
1/2+x,1/2+y,z
1/2-x,1/2-y,1/2+z
1/2+x,1/2-y,1/2+z
1/2-x,1/2+y,z
loop_
_atom_site_type_symbol
_atom_site_label
_atom_site_fract_x
_atom_site_fract_y
_atom_site_fract_z
Si Si1 0.822324 0.926612 0.411590
Si Si2 0.321240 0.388721 0.697299
Si Si3 0.174504 0.795864 0.071994
Si Si4 0.177998 0.604174 0.645625
Si Si5 0.177824 0.959732 0.930775
Si Si6 0.174910 0.220601 0.269455
O O1 0.761468 0.905136 0.552156
O O2 0.737494 0.896088 0.297410
O O3 0.000000 0.918278 0.395559
O O4 0.779375 0.983999 0.400797
O O5 0.500000 0.391499 0.701801
O O6 0.258564 0.426660 0.808619
O O7 0.265144 0.333686 0.730034
O O8 0.267011 0.846407 0.072417
O O9 0.227308 0.760122 0.189974
O O10 0.000000 0.809149 0.093215
O O11 0.199827 0.770068 0.927745
O O12 0.242190 0.556621 0.567984
O O13 0.000000 0.602671 0.645779
O O14 0.000000 0.953293 0.952229
O O15 0.000000 0.226899 0.229828
#
# Coordination Sequence:
#
# PCOD8175015 Si02
#       6
#     8   8   8   8   8   8
#     4  10  21  37  64  95 121 160 208 251 299 360
#     4   9  18  36  61  89 120 154 196 252 304 357
#     4  11  24  43  66  89 120 160 204 251 306 370
#     4  12  25  40  60  90 130 166 202 250 304 361
#     4  10  19  39  66  91 120 158 208 254 302 362
#     4  10  22  41  63  90 123 154 198 256 311 364
#
# _framework density 20.094417
#
# number of rings (size 3 to 8) (size 9 to 14) (size 15 to 20)
#    0.000    1.667    1.667    3.000    2.333    4.667 
#    0.000    0.833    0.000    0.000    0.000    0.000 
#    0.000    0.000    0.000    0.000    0.000    0.000 
#
# Total GULP energy -297727.198386 kJ/mol
# GULP energy per Si atom -12405.299933 kJ/mol
# Density = 2.004868 g / cm^3
# Si number density = 20.094417 Si / 1000 Ang^3
#
#
#
# Elastic Constant Matrix: (Units=GPa)
#
#
# Indices 1 2 3 4 5 6 
#
# 1 62.4866 27.0863 37.1345 0.0000 0.0000 0.0000
# 2 27.0863 69.8818 24.2295 0.0000 0.0000 0.0000
# 3 37.1345 24.2295 118.3348 0.0000 0.0000 0.0000
# 4 0.0000 0.0000 0.0000 40.5759 0.0000 0.0000
# 5 0.0000 0.0000 0.0000 0.0000 25.0802 0.0000
# 6 0.0000 0.0000 0.0000 0.0000 0.0000 25.0140
#
#
#
# Elastic Compliance Matrix: (Units=1/GPa)
#
#
# Indices 1 2 3 4 5 6 
#
# 1 0.022229 -0.006671 -0.005610 0.000000 0.000000 0.000000
# 2 -0.006671 0.017405 -0.001470 0.000000 0.000000 0.000000
# 3 -0.005610 -0.001470 0.010512 0.000000 0.000000 0.000000
# 4 0.000000 0.000000 0.000000 0.024645 0.000000 0.000000
# 5 0.000000 0.000000 0.000000 0.000000 0.039872 0.000000
# 6 0.000000 0.000000 0.000000 0.000000 0.000000 0.039978
#
#
# Mechanical properties :
#
#
# Convention : Reuss Voigt Hill
#
# Bulk Modulus (GPa) = 44.16154 47.51155 45.83654
# Shear Modulus (GPa) = 26.35864 28.95089 27.65477
#
# Velocity S-wave (km/s) = 3.62572 3.79983 3.71380
# Velocity P-wave (km/s) = 6.28908 6.55340 6.42260
#
# Compressibility (1/GPa) = 0.02264414
#
# Stress axis : x y z
#
# Youngs Moduli (GPa) = 44.98669 57.45362 95.12897
#
# Poissons Ratio (x) = 0.38327 0.53364
# Poissons Ratio (y) = 0.30010 0.13988
# Poissons Ratio (z) = 0.25236 0.08448
#
# Static dielectric constant tensor:
#      x y z
#    x 3.331320 0.000000 0.000000 
#    y 0.000000 3.699220 0.000000 
#    z 0.000000 0.000000 3.841620 
# 
# 
# High freq. dielectric constant tensor:
#      x y z
#    x 1.755670 0.000000 0.000000 
#    y 0.000000 1.790370 0.000000 
#    z 0.000000 0.000000 1.801610 
# 
# From -- ./inp_files/2659.got.cif
#   From: 2010.03.12/outbox.cif.g09.slc.cpg/sg36_2_cif.got.tgz:2659.got - 2010.04.14 02:13:53.
