data_PCOD8175920
_publ_section_title
;
Structure prediction by ZEFSAII (Michael W. Deem and Ramdas Pophale) SiO2 
 PCOD8175920
Probable space group: C M C 21
;
_chemical_formula_sum "Si O2"
_cell_formula_units_Z 64
_cell_length_a 8.621124
_cell_length_b 30.646853
_cell_length_c 11.995919
_cell_angle_alpha 90.000000
_cell_angle_beta 90.000000
_cell_angle_gamma 90.000000
_cell_volume 3169.445597
_symmetry_space_group_name_H-M "C M C 21"
_symmetry_group_IT_number 36
_symmetry_cell_setting 'orthorhombic'
loop_
_space_group_symop_operation_xyz
x,y,z
-x,-y,1/2+z
x,-y,1/2+z
-x,y,z
1/2+x,1/2+y,z
1/2-x,1/2-y,1/2+z
1/2+x,1/2-y,1/2+z
1/2-x,1/2+y,z
loop_
_atom_site_type_symbol
_atom_site_label
_atom_site_fract_x
_atom_site_fract_y
_atom_site_fract_z
Si Si1 0.317530 0.831406 0.055660
Si Si2 0.675053 0.459038 0.292639
Si Si3 0.826169 0.075635 0.545644
Si Si4 0.316841 0.881152 0.436365
Si Si5 0.183058 0.126685 0.182865
Si Si6 0.316616 0.202337 0.790181
Si Si7 0.317478 0.795986 0.823347
Si Si8 0.680444 0.950820 0.829928
O O1 0.500000 0.832544 0.059330
O O2 0.258665 0.879419 0.050602
O O3 0.255577 0.809175 0.167271
O O4 0.256752 0.806905 0.946744
O O5 0.500000 0.470427 0.331905
O O6 0.675135 0.444062 0.166745
O O7 0.740390 0.422234 0.374782
O O8 0.782010 0.501474 0.284876
O O9 0.731321 0.046347 0.458748
O O10 0.000000 0.081350 0.500379
O O11 0.500000 0.887700 0.430358
O O12 0.263699 0.879656 0.563778
O O13 0.268057 0.836159 0.375250
O O14 0.232004 0.173466 0.233426
O O15 0.229777 0.087349 0.264639
O O16 0.000000 0.126267 0.165021
O O17 0.500000 0.211050 0.795519
O O18 0.222746 0.245635 0.814736
O O19 0.500000 0.803809 0.808817
O O20 0.500000 0.940491 0.817868
#
# Coordination Sequence:
#
# PCOD8175920 Si02
#       8
#     8   8   8   8   8   8   8   8
#     4  10  21  41  66  92 126 167 212 267 322 378
#     4  11  25  44  67  98 133 171 217 265 322 384
#     4  11  23  41  68  97 128 167 213 267 325 383
#     4  11  24  44  68  96 131 172 218 266 323 386
#     4  12  26  45  67  93 132 172 214 268 328 389
#     4  10  23  42  65  95 130 170 214 263 320 381
#     4  11  24  41  65  97 130 168 217 266 320 384
#     4  12  26  44  68  96 130 171 219 268 322 385
#
# _framework density 20.192806999999998
#
# number of rings (size 3 to 8) (size 9 to 14) (size 15 to 20)
#    0.000    1.000    2.500    3.750    3.500    3.500 
#    0.000    0.000    0.000    0.000    0.000    0.000 
#    0.000    0.000    0.000    0.000    0.000    0.000 
#
# Total GULP energy -396833.323359 kJ/mol
# GULP energy per Si atom -12401.041355 kJ/mol
# Density = 2.014685 g / cm^3
# Si number density = 20.192807 Si / 1000 Ang^3
#
#
#
# Elastic Constant Matrix: (Units=GPa)
#
#
# Indices 1 2 3 4 5 6 
#
# 1 73.7281 30.0882 29.6400 0.0000 0.0000 0.0000
# 2 30.0882 115.7794 28.5283 0.0000 0.0000 0.0000
# 3 29.6400 28.5283 114.6191 0.0000 0.0000 0.0000
# 4 0.0000 0.0000 0.0000 24.1802 0.0000 0.0000
# 5 0.0000 0.0000 0.0000 0.0000 42.2068 0.0000
# 6 0.0000 0.0000 0.0000 0.0000 0.0000 38.3309
#
#
#
# Elastic Compliance Matrix: (Units=1/GPa)
#
#
# Indices 1 2 3 4 5 6 
#
# 1 0.016309 -0.003408 -0.003369 0.000000 0.000000 0.000000
# 2 -0.003408 0.009914 -0.001586 0.000000 0.000000 0.000000
# 3 -0.003369 -0.001586 0.009991 0.000000 0.000000 0.000000
# 4 0.000000 0.000000 0.000000 0.041356 0.000000 0.000000
# 5 0.000000 0.000000 0.000000 0.000000 0.023693 0.000000
# 6 0.000000 0.000000 0.000000 0.000000 0.000000 0.026089
#
#
# Mechanical properties :
#
#
# Convention : Reuss Voigt Hill
#
# Bulk Modulus (GPa) = 51.31835 53.40438 52.36137
# Shear Modulus (GPa) = 33.20662 35.33492 34.27077
#
# Velocity S-wave (km/s) = 4.05962 4.18769 4.12415
# Velocity P-wave (km/s) = 6.88791 7.06307 6.97604
#
# Compressibility (1/GPa) = 0.01948621
#
# Stress axis : x y z
#
# Youngs Moduli (GPa) = 61.31736 100.87137 100.09442
#
# Poissons Ratio (x) = 0.34377 0.33723
# Poissons Ratio (y) = 0.20897 0.15877
# Poissons Ratio (z) = 0.20658 0.16000
#
# Static dielectric constant tensor:
#      x y z
#    x 3.735960 0.000000 0.000000 
#    y 0.000000 3.693330 0.000000 
#    z 0.000000 0.000000 3.998510 
# 
# 
# High freq. dielectric constant tensor:
#      x y z
#    x 1.797330 0.000000 0.000000 
#    y 0.000000 1.798760 0.000000 
#    z 0.000000 0.000000 1.807080 
# 
# From -- ./inp_files/7109.got.cif
#   From: 2010.03.12/outbox.cif.g09.slc.cpg/sg36_4_cif.got.tgz:7109.got - 2010.04.14 02:13:53.
