data_PCOD8175242
_publ_section_title
;
Structure prediction by ZEFSAII (Michael W. Deem and Ramdas Pophale) SiO2 
 PCOD8175242
Probable space group: C M C 21
;
_chemical_formula_sum "Si O2"
_cell_formula_units_Z 64
_cell_length_a 9.089597
_cell_length_b 24.372925
_cell_length_c 14.577285
_cell_angle_alpha 90.000000
_cell_angle_beta 90.000000
_cell_angle_gamma 90.000000
_cell_volume 3229.452680
_symmetry_space_group_name_H-M "C M C 21"
_symmetry_group_IT_number 36
_symmetry_cell_setting 'orthorhombic'
loop_
_space_group_symop_operation_xyz
x,y,z
-x,-y,1/2+z
x,-y,1/2+z
-x,y,z
1/2+x,1/2+y,z
1/2-x,1/2-y,1/2+z
1/2+x,1/2-y,1/2+z
1/2-x,1/2+y,z
loop_
_atom_site_type_symbol
_atom_site_label
_atom_site_fract_x
_atom_site_fract_y
_atom_site_fract_z
Si Si1 0.830670 0.694622 0.209080
Si Si2 0.830277 0.384077 0.552807
Si Si3 0.171424 0.498577 0.477226
Si Si4 0.826545 0.796676 0.082148
Si Si5 0.668029 0.937474 0.302806
Si Si6 0.326548 0.338254 0.388471
Si Si7 0.326482 0.270539 0.876120
Si Si8 0.830461 0.409092 0.103735
O O1 0.811587 0.636473 0.156645
O O2 0.777338 0.745095 0.144226
O O3 0.729832 0.686763 0.299224
O O4 0.000000 0.703454 0.237679
O O5 0.772853 0.446012 0.536271
O O6 0.733910 0.343153 0.491425
O O7 0.000000 0.378273 0.521297
O O8 0.207376 0.490073 0.368439
O O9 0.239247 0.554773 0.519653
O O10 0.000000 0.504783 0.495492
O O11 0.755566 0.852712 0.118827
O O12 0.000000 0.803852 0.086563
O O13 0.774407 0.788357 0.977163
O O14 0.500000 0.919952 0.326475
O O15 0.779479 0.889560 0.327760
O O16 0.685012 0.948109 0.194476
O O17 0.500000 0.332329 0.387959
O O18 0.254456 0.284772 0.343938
O O19 0.500000 0.262918 0.871454
O O20 0.000000 0.393490 0.086593
#
# Coordination Sequence:
#
# PCOD8175242 Si02
#       8
#     8   8   8   8   8   8   8   8
#     4  10  20  36  57  84 111 142 184 228 276 335
#     4   9  17  35  58  78 107 142 176 223 282 327
#     4   8  16  33  56  81 107 138 180 228 274 325
#     4  10  22  39  56  77 114 153 181 220 280 337
#     4   9  18  34  56  80 109 146 184 228 284 328
#     4  11  20  31  53  82 109 139 185 233 269 320
#     4  11  22  37  54  77 112 152 184 220 280 339
#     4  10  20  35  56  83 109 142 190 232 271 327
#
# _framework density 19.817599999999999
#
# number of rings (size 3 to 8) (size 9 to 14) (size 15 to 20)
#    0.000    2.250    1.250    3.000    0.000    4.500 
#    2.250    2.500    0.000    0.000    0.000    0.000 
#    0.000    0.000    0.000    0.000    0.000    0.000 
#
# Total GULP energy -396596.881141 kJ/mol
# GULP energy per Si atom -12393.652536 kJ/mol
# Density = 1.977249 g / cm^3
# Si number density = 19.817600 Si / 1000 Ang^3
#
#
#
# Elastic Constant Matrix: (Units=GPa)
#
#
# Indices 1 2 3 4 5 6 
#
# 1 52.7539 5.1487 20.8007 0.0000 0.0000 0.0000
# 2 5.1487 47.7377 6.9440 0.0000 0.0000 0.0000
# 3 20.8007 6.9440 93.7532 0.0000 0.0000 0.0000
# 4 0.0000 0.0000 0.0000 25.7460 0.0000 0.0000
# 5 0.0000 0.0000 0.0000 0.0000 28.6046 0.0000
# 6 0.0000 0.0000 0.0000 0.0000 0.0000 17.9993
#
#
#
# Elastic Compliance Matrix: (Units=1/GPa)
#
#
# Indices 1 2 3 4 5 6 
#
# 1 0.020893 -0.001596 -0.004517 0.000000 0.000000 0.000000
# 2 -0.001596 0.021298 -0.001223 0.000000 0.000000 0.000000
# 3 -0.004517 -0.001223 0.011759 0.000000 0.000000 0.000000
# 4 0.000000 0.000000 0.000000 0.038841 0.000000 0.000000
# 5 0.000000 0.000000 0.000000 0.000000 0.034959 0.000000
# 6 0.000000 0.000000 0.000000 0.000000 0.000000 0.055558
#
#
# Mechanical properties :
#
#
# Convention : Reuss Voigt Hill
#
# Bulk Modulus (GPa) = 25.46063 28.89239 27.17651
# Shear Modulus (GPa) = 23.68839 25.22672 24.45755
#
# Velocity S-wave (km/s) = 3.46109 3.57171 3.51683
# Velocity P-wave (km/s) = 5.37099 5.62319 5.49854
#
# Compressibility (1/GPa) = 0.03927633
#
# Stress axis : x y z
#
# Youngs Moduli (GPa) = 47.86323 46.95292 85.04039
#
# Poissons Ratio (x) = 0.07495 0.38414
# Poissons Ratio (y) = 0.07640 0.10403
# Poissons Ratio (z) = 0.21621 0.05744
#
# Static dielectric constant tensor:
#      x y z
#    x 3.311260 0.000000 0.000000 
#    y 0.000000 3.530550 0.000000 
#    z 0.000000 0.000000 3.809870 
# 
# 
# High freq. dielectric constant tensor:
#      x y z
#    x 1.744780 0.000000 0.000000 
#    y 0.000000 1.754550 0.000000 
#    z 0.000000 0.000000 1.780990 
# 
# From -- ./inp_files/10998.got.cif
#   From: 2010.03.12/outbox.cif.g09.slc.cpg/sg36_6_cif.got.tgz:10998.got - 2010.04.14 02:13:53.
