data_PCOD8175362
_publ_section_title
;
Structure prediction by ZEFSAII (Michael W. Deem and Ramdas Pophale) SiO2 
 PCOD8175362
Probable space group: C M C 21
;
_chemical_formula_sum "Si O2"
_cell_formula_units_Z 64
_cell_length_a 15.290556
_cell_length_b 23.133973
_cell_length_c 8.975331
_cell_angle_alpha 90.000000
_cell_angle_beta 90.000000
_cell_angle_gamma 90.000000
_cell_volume 3174.855589
_symmetry_space_group_name_H-M "C M C 21"
_symmetry_group_IT_number 36
_symmetry_cell_setting 'orthorhombic'
loop_
_space_group_symop_operation_xyz
x,y,z
-x,-y,1/2+z
x,-y,1/2+z
-x,y,z
1/2+x,1/2+y,z
1/2-x,1/2-y,1/2+z
1/2+x,1/2-y,1/2+z
1/2-x,1/2+y,z
loop_
_atom_site_type_symbol
_atom_site_label
_atom_site_fract_x
_atom_site_fract_y
_atom_site_fract_z
Si Si1 0.897825 0.840974 0.358270
Si Si2 0.675171 0.679028 0.547148
Si Si3 0.247275 0.941386 0.014753
Si Si4 0.594604 0.227597 0.859205
Si Si5 0.238179 0.055198 0.861771
Si Si6 0.896840 0.612383 0.008412
Si Si7 0.402155 0.883591 0.855521
Si Si8 0.360278 0.227044 0.534614
O O1 0.889234 0.819037 0.188205
O O2 0.836088 0.896367 0.388537
O O3 0.863848 0.790895 0.466953
O O4 0.000000 0.855788 0.388772
O O5 0.684944 0.613652 0.489431
O O6 0.643944 0.714333 0.404161
O O7 0.765818 0.708209 0.596606
O O8 0.258218 0.953783 0.188871
O O9 0.342031 0.927880 0.945552
O O10 0.202263 0.995448 0.931816
O O11 0.500000 0.230741 0.935139
O O12 0.581615 0.224701 0.682292
O O13 0.638412 0.170280 0.926967
O O14 0.331924 0.064464 0.942064
O O15 0.877521 0.617542 0.182571
O O16 0.000000 0.599102 0.974609
O O17 0.500000 0.906476 0.879104
O O18 0.394794 0.817880 0.912590
#
# Coordination Sequence:
#
# PCOD8175362 Si02
#       8
#     8   8   8   8   8   8   8   8
#     4  11  23  40  61  87 119 159 201 244 294 350
#     4  10  21  38  59  83 112 152 194 237 289 348
#     4  10  23  39  60  82 109 150 196 246 297 346
#     4  11  21  34  54  85 117 146 182 229 281 340
#     4  11  23  42  61  83 114 152 199 251 297 349
#     4  10  21  36  59  88 121 158 193 234 293 359
#     4  10  20  36  58  88 121 154 190 235 294 362
#     4  11  21  35  57  88 121 151 187 236 293 350
#
# _framework density 20.158397000000001
#
# number of rings (size 3 to 8) (size 9 to 14) (size 15 to 20)
#    0.000    1.500    0.000    6.750    0.000    7.000 
#    0.000    3.125    0.000    0.000    0.000    0.000 
#    0.000    0.000    0.000    0.000    0.000    0.000 
#
# Total GULP energy -396773.673677 kJ/mol
# GULP energy per Si atom -12399.177302 kJ/mol
# Density = 2.011252 g / cm^3
# Si number density = 20.158397 Si / 1000 Ang^3
#
#
#
# Elastic Constant Matrix: (Units=GPa)
#
#
# Indices 1 2 3 4 5 6 
#
# 1 72.9809 36.8134 24.0701 0.0000 0.0000 0.0000
# 2 36.8134 116.8415 48.3226 0.0000 0.0000 0.0000
# 3 24.0701 48.3226 107.5792 0.0000 0.0000 0.0000
# 4 0.0000 0.0000 0.0000 37.6291 0.0000 0.0000
# 5 0.0000 0.0000 0.0000 0.0000 29.7014 0.0000
# 6 0.0000 0.0000 0.0000 0.0000 0.0000 14.7228
#
#
#
# Elastic Compliance Matrix: (Units=1/GPa)
#
#
# Indices 1 2 3 4 5 6 
#
# 1 0.016532 -0.004518 -0.001669 0.000000 0.000000 0.000000
# 2 -0.004518 0.011746 -0.004265 0.000000 0.000000 0.000000
# 3 -0.001669 -0.004265 0.011585 0.000000 0.000000 0.000000
# 4 0.000000 0.000000 0.000000 0.026575 0.000000 0.000000
# 5 0.000000 0.000000 0.000000 0.000000 0.033668 0.000000
# 6 0.000000 0.000000 0.000000 0.000000 0.000000 0.067922
#
#
# Mechanical properties :
#
#
# Convention : Reuss Voigt Hill
#
# Bulk Modulus (GPa) = 52.75055 57.31264 55.03160
# Shear Modulus (GPa) = 25.60777 28.95703 27.28240
#
# Velocity S-wave (km/s) = 3.56803 3.79420 3.68285
# Velocity P-wave (km/s) = 6.57262 6.90561 6.74117
#
# Compressibility (1/GPa) = 0.01895715
#
# Stress axis : x y z
#
# Youngs Moduli (GPa) = 60.48893 85.13393 86.31966
#
# Poissons Ratio (x) = 0.38466 0.14410
# Poissons Ratio (y) = 0.27331 0.36817
# Poissons Ratio (z) = 0.10098 0.36312
#
# Static dielectric constant tensor:
#      x y z
#    x 3.652320 0.000000 0.000000 
#    y 0.000000 3.661970 0.000000 
#    z 0.000000 0.000000 3.632460 
# 
# 
# High freq. dielectric constant tensor:
#      x y z
#    x 1.781740 0.000000 0.000000 
#    y 0.000000 1.785760 0.000000 
#    z 0.000000 0.000000 1.795760 
# 
# From -- ./inp_files/4355.got.cif
#   From: 2010.03.12/outbox.cif.g09.slc.cpg/sg36_3_cif.got.tgz:4355.got - 2010.04.14 02:13:53.
