data_PCOD8175310
_publ_section_title
;
Structure prediction by ZEFSAII (Michael W. Deem and Ramdas Pophale) SiO2 
 PCOD8175310
Probable space group: C M C 21
;
_chemical_formula_sum "Si O2"
_cell_formula_units_Z 64
_cell_length_a 30.692848
_cell_length_b 5.128560
_cell_length_c 19.102992
_cell_angle_alpha 90.000000
_cell_angle_beta 90.000000
_cell_angle_gamma 90.000000
_cell_volume 3007.004121
_symmetry_space_group_name_H-M "C M C 21"
_symmetry_group_IT_number 36
_symmetry_cell_setting 'orthorhombic'
loop_
_space_group_symop_operation_xyz
x,y,z
-x,-y,1/2+z
x,-y,1/2+z
-x,y,z
1/2+x,1/2+y,z
1/2-x,1/2-y,1/2+z
1/2+x,1/2-y,1/2+z
1/2-x,1/2+y,z
loop_
_atom_site_type_symbol
_atom_site_label
_atom_site_fract_x
_atom_site_fract_y
_atom_site_fract_z
Si Si1 0.395142 0.424777 0.472280
Si Si2 0.451793 0.346973 0.723394
Si Si3 0.869061 0.603313 0.351133
Si Si4 0.868932 0.558472 0.051564
Si Si5 0.271387 0.018035 0.027626
Si Si6 0.549032 0.262979 0.879480
Si Si7 0.772913 0.447635 0.365816
Si Si8 0.099160 0.665642 0.200856
O O1 0.365152 0.349829 0.404275
O O2 0.373464 0.661937 0.514549
O O3 0.441335 0.528744 0.441518
O O4 0.401519 0.166469 0.521134
O O5 0.500000 0.374945 0.692701
O O6 0.450236 0.416914 0.805837
O O7 0.422101 0.555104 0.682994
O O8 0.437747 0.050312 0.712116
O O9 0.912467 0.452000 0.377998
O O10 0.825283 0.432368 0.356642
O O11 0.871875 0.692124 0.270570
O O12 0.821481 0.445962 0.037341
O O13 0.872529 0.585702 0.134568
O O14 0.242766 0.789379 0.063585
O O15 0.259661 0.046127 0.946594
O O16 0.500000 0.144614 0.891002
O O17 0.749380 0.200126 0.329702
#
# Coordination Sequence:
#
# PCOD8175310 Si02
#       8
#     8   8   8   8   8   8   8   8
#     4  12  22  41  66  91 128 166 211 262 320 373
#     4  10  21  40  66  92 119 162 217 259 306 382
#     4  11  23  42  70  95 129 169 219 270 321 381
#     4  12  25  41  62  93 129 171 208 261 322 391
#     4  10  20  35  59  88 119 160 211 255 309 379
#     4  10  22  40  68 101 127 163 217 273 323 377
#     4  10  22  35  61  95 125 159 211 266 320 374
#     4  11  24  42  64  91 126 170 208 256 325 383
#
# _framework density 21.283640999999999
#
# number of rings (size 3 to 8) (size 9 to 14) (size 15 to 20)
#    0.000    1.250    3.750    1.875    5.250    1.000 
#    0.000    5.000    0.000    0.000    0.000    0.000 
#    0.000    0.000    0.000    0.000    0.000    0.000 
#
# Total GULP energy -396631.883803 kJ/mol
# GULP energy per Si atom -12394.746369 kJ/mol
# Density = 2.123520 g / cm^3
# Si number density = 21.283641 Si / 1000 Ang^3
#
#
#
# Elastic Constant Matrix: (Units=GPa)
#
#
# Indices 1 2 3 4 5 6 
#
# 1 107.3697 46.4918 11.8385 0.0000 0.0000 0.0000
# 2 46.4918 124.7128 31.5948 0.0000 0.0000 0.0000
# 3 11.8385 31.5948 96.7322 0.0000 0.0000 0.0000
# 4 0.0000 0.0000 0.0000 23.6911 0.0000 0.0000
# 5 0.0000 0.0000 0.0000 0.0000 13.8310 0.0000
# 6 0.0000 0.0000 0.0000 0.0000 0.0000 32.6066
#
#
#
# Elastic Compliance Matrix: (Units=1/GPa)
#
#
# Indices 1 2 3 4 5 6 
#
# 1 0.011106 -0.004138 -0.000008 0.000000 0.000000 0.000000
# 2 -0.004138 0.010284 -0.002852 0.000000 0.000000 0.000000
# 3 -0.000008 -0.002852 0.011270 0.000000 0.000000 0.000000
# 4 0.000000 0.000000 0.000000 0.042210 0.000000 0.000000
# 5 0.000000 0.000000 0.000000 0.000000 0.072301 0.000000
# 6 0.000000 0.000000 0.000000 0.000000 0.000000 0.030669
#
#
# Mechanical properties :
#
#
# Convention : Reuss Voigt Hill
#
# Bulk Modulus (GPa) = 53.57967 56.51831 55.04899
# Shear Modulus (GPa) = 25.24504 29.95171 27.59837
#
# Velocity S-wave (km/s) = 3.44775 3.75542 3.60487
# Velocity P-wave (km/s) = 6.40922 6.73919 6.57628
#
# Compressibility (1/GPa) = 0.01866380
#
# Stress axis : x y z
#
# Youngs Moduli (GPa) = 90.03794 97.23989 88.72788
#
# Poissons Ratio (x) = 0.40242 0.00067
# Poissons Ratio (y) = 0.37262 0.25309
# Poissons Ratio (z) = 0.00068 0.27737
#
# Static dielectric constant tensor:
#      x y z
#    x 3.687530 0.000000 0.000000 
#    y 0.000000 4.127960 0.000000 
#    z 0.000000 0.000000 3.731330 
# 
# 
# High freq. dielectric constant tensor:
#      x y z
#    x 1.822210 0.000000 0.000000 
#    y 0.000000 1.848190 0.000000 
#    z 0.000000 0.000000 1.803620 
# 
# From -- ./inp_files/15194.got.cif
#   From: 2010.03.12/outbox.cif.g09.slc.cpg/sg36_8_cif.got.tgz:15194.got - 2010.04.14 02:13:53.
