data_PCOD8175636
_publ_section_title
;
Structure prediction by ZEFSAII (Michael W. Deem and Ramdas Pophale) SiO2 
 PCOD8175636
Probable space group: C M C 21
;
_chemical_formula_sum "Si O2"
_cell_formula_units_Z 64
_cell_length_a 9.200452
_cell_length_b 31.094948
_cell_length_c 10.703633
_cell_angle_alpha 90.000000
_cell_angle_beta 90.000000
_cell_angle_gamma 90.000000
_cell_volume 3062.176425
_symmetry_space_group_name_H-M "C M C 21"
_symmetry_group_IT_number 36
_symmetry_cell_setting 'orthorhombic'
loop_
_space_group_symop_operation_xyz
x,y,z
-x,-y,1/2+z
x,-y,1/2+z
-x,y,z
1/2+x,1/2+y,z
1/2-x,1/2-y,1/2+z
1/2+x,1/2-y,1/2+z
1/2-x,1/2+y,z
loop_
_atom_site_type_symbol
_atom_site_label
_atom_site_fract_x
_atom_site_fract_y
_atom_site_fract_z
Si Si1 0.830584 0.964371 0.944260
Si Si2 0.327406 0.271711 0.691071
Si Si3 0.339251 0.162398 0.345290
Si Si4 0.827845 0.715695 0.937272
Si Si5 0.670167 0.373874 0.059680
Si Si6 0.842654 0.570685 0.234073
Si Si7 0.333218 0.636078 0.841987
Si Si8 0.834943 0.941386 0.508388
O O1 0.752815 0.963029 0.810845
O O2 0.000000 0.965691 0.915771
O O3 0.788524 0.923696 0.030980
O O4 0.779231 0.009520 0.001944
O O5 0.500000 0.276096 0.670499
O O6 0.257813 0.316219 0.737684
O O7 0.251379 0.260848 0.556461
O O8 0.291452 0.238629 0.804520
O O9 0.500000 0.184240 0.358541
O O10 0.254101 0.161711 0.476985
O O11 0.361338 0.113329 0.312635
O O12 0.767560 0.667229 0.924988
O O13 0.000000 0.715155 0.963547
O O14 0.500000 0.366945 0.036053
O O15 0.717550 0.362670 0.199242
O O16 0.763795 0.583120 0.107034
O O17 0.000000 0.550069 0.207267
O O18 0.500000 0.651414 0.857157
O O19 0.317254 0.586171 0.882061
O O20 0.000000 0.940635 0.555074
#
# Coordination Sequence:
#
# PCOD8175636 Si02
#       8
#     8   8   8   8   8   8   8   8
#     4   9  19  35  58  84 114 152 200 251 295 352
#     4  11  25  44  68  97 128 164 210 260 312 373
#     4  10  21  38  62  89 120 158 200 247 306 369
#     4  11  26  45  66  96 130 167 211 258 318 381
#     4   9  19  36  59  89 123 161 206 256 306 363
#     4  10  21  36  54  80 115 150 190 239 296 362
#     4  10  22  39  61  90 125 163 207 256 311 369
#     4  10  21  35  58  85 113 153 200 249 298 353
#
# _framework density 20.900165999999999
#
# number of rings (size 3 to 8) (size 9 to 14) (size 15 to 20)
#    0.000    2.000    0.000    2.250    3.500    7.000 
#    0.000    0.000    0.000    0.000    0.000    0.000 
#    0.000    0.000    0.000    0.000    0.000    0.000 
#
# Total GULP energy -396650.879591 kJ/mol
# GULP energy per Si atom -12395.339987 kJ/mol
# Density = 2.085260 g / cm^3
# Si number density = 20.900166 Si / 1000 Ang^3
#
#
#
# Elastic Constant Matrix: (Units=GPa)
#
#
# Indices 1 2 3 4 5 6 
#
# 1 100.3274 36.9924 58.2156 0.0000 0.0000 0.0000
# 2 36.9924 63.5197 27.6302 0.0000 0.0000 0.0000
# 3 58.2156 27.6302 130.1745 0.0000 0.0000 0.0000
# 4 0.0000 0.0000 0.0000 24.7743 0.0000 0.0000
# 5 0.0000 0.0000 0.0000 0.0000 18.9465 0.0000
# 6 0.0000 0.0000 0.0000 0.0000 0.0000 22.7202
#
#
#
# Elastic Compliance Matrix: (Units=1/GPa)
#
#
# Indices 1 2 3 4 5 6 
#
# 1 0.015682 -0.006701 -0.005591 0.000000 0.000000 0.000000
# 2 -0.006701 0.020208 -0.001292 0.000000 0.000000 0.000000
# 3 -0.005591 -0.001292 0.010457 0.000000 0.000000 0.000000
# 4 0.000000 0.000000 0.000000 0.040364 0.000000 0.000000
# 5 0.000000 0.000000 0.000000 0.000000 0.052780 0.000000
# 6 0.000000 0.000000 0.000000 0.000000 0.000000 0.044014
#
#
# Mechanical properties :
#
#
# Convention : Reuss Voigt Hill
#
# Bulk Modulus (GPa) = 52.14321 59.96643 56.05482
# Shear Modulus (GPa) = 23.03436 24.70041 23.86739
#
# Velocity S-wave (km/s) = 3.32341 3.44150 3.38297
# Velocity P-wave (km/s) = 6.30314 6.67428 6.49137
#
# Compressibility (1/GPa) = 0.01917795
#
# Stress axis : x y z
#
# Youngs Moduli (GPa) = 63.76580 49.48564 95.63254
#
# Poissons Ratio (x) = 0.33161 0.53468
# Poissons Ratio (y) = 0.42730 0.12360
# Poissons Ratio (z) = 0.35652 0.06396
#
# Static dielectric constant tensor:
#      x y z
#    x 4.032230 0.000000 0.000000 
#    y 0.000000 3.664910 0.000000 
#    z 0.000000 0.000000 3.825660 
# 
# 
# High freq. dielectric constant tensor:
#      x y z
#    x 1.818720 0.000000 0.000000 
#    y 0.000000 1.809460 0.000000 
#    z 0.000000 0.000000 1.822710 
# 
# From -- ./inp_files/7251.got.cif
#   From: 2010.03.12/outbox.cif.g09.slc.cpg/sg36_4_cif.got.tgz:7251.got - 2010.04.14 02:13:53.
