data_PCOD8175165
_publ_section_title
;
Structure prediction by ZEFSAII (Michael W. Deem and Ramdas Pophale) SiO2 
 PCOD8175165
Probable space group: C M C 21
;
_chemical_formula_sum "Si O2"
_cell_formula_units_Z 64
_cell_length_a 9.234645
_cell_length_b 15.342410
_cell_length_c 23.844106
_cell_angle_alpha 90.000000
_cell_angle_beta 90.000000
_cell_angle_gamma 90.000000
_cell_volume 3378.273707
_symmetry_space_group_name_H-M "C M C 21"
_symmetry_group_IT_number 36
_symmetry_cell_setting 'orthorhombic'
loop_
_space_group_symop_operation_xyz
x,y,z
-x,-y,1/2+z
x,-y,1/2+z
-x,y,z
1/2+x,1/2+y,z
1/2-x,1/2-y,1/2+z
1/2+x,1/2-y,1/2+z
1/2-x,1/2+y,z
loop_
_atom_site_type_symbol
_atom_site_label
_atom_site_fract_x
_atom_site_fract_y
_atom_site_fract_z
Si Si1 0.828484 0.869873 0.709650
Si Si2 0.672398 0.473128 0.288240
Si Si3 0.827483 0.888004 0.583652
Si Si4 0.333347 0.770458 0.008918
Si Si5 0.662342 0.776948 0.404920
Si Si6 0.333812 0.963369 0.020823
Si Si7 0.336060 0.021179 0.900147
Si Si8 0.828366 0.294185 0.279387
O O1 0.767722 0.877921 0.646754
O O2 0.773729 0.778564 0.735744
O O3 0.000000 0.868230 0.710004
O O4 0.774796 0.952125 0.745641
O O5 0.500000 0.462647 0.289742
O O6 0.726919 0.501015 0.349868
O O7 0.743938 0.383470 0.267061
O O8 0.768091 0.805592 0.548197
O O9 0.000000 0.891894 0.583026
O O10 0.768283 0.977604 0.558687
O O11 0.500000 0.750928 0.997699
O O12 0.311618 0.863200 0.039881
O O13 0.261256 0.775045 0.948011
O O14 0.500000 0.743422 0.414228
O O15 0.676480 0.878712 0.417839
O O16 0.711567 0.758366 0.341199
O O17 0.500000 0.993561 0.028678
O O18 0.290778 0.967527 0.955183
O O19 0.500000 0.999526 0.880677
O O20 0.000000 0.313559 0.275794
#
# Coordination Sequence:
#
# PCOD8175165 Si02
#       8
#     8   8   8   8   8   8   8   8
#     4   9  20  38  58  78 109 150 186 222 268 329
#     4  10  20  34  55  83 110 139 182 232 269 311
#     4  10  21  39  58  79 109 146 188 228 268 321
#     4  10  21  34  53  81 109 140 180 225 272 318
#     4   9  17  31  54  79 108 143 177 214 266 328
#     4  10  21  37  55  80 112 144 179 226 278 325
#     4   9  18  34  54  77 113 149 173 214 278 335
#     4   9  19  37  57  79 110 149 181 215 275 335
#
# _framework density 18.944586999999999
#
# number of rings (size 3 to 8) (size 9 to 14) (size 15 to 20)
#    0.000    2.500    1.250    1.125    1.750    4.000 
#    0.000    4.375    0.000    0.000    0.000    0.000 
#    0.000    0.000    0.000    0.000    0.000    0.000 
#
# Total GULP energy -396789.125117 kJ/mol
# GULP energy per Si atom -12399.660160 kJ/mol
# Density = 1.890147 g / cm^3
# Si number density = 18.944587 Si / 1000 Ang^3
#
#
#
# Elastic Constant Matrix: (Units=GPa)
#
#
# Indices 1 2 3 4 5 6 
#
# 1 44.2871 30.1518 33.7911 0.0000 0.0000 0.0000
# 2 30.1518 91.0401 54.8722 0.0000 0.0000 0.0000
# 3 33.7911 54.8722 109.1847 0.0000 0.0000 0.0000
# 4 0.0000 0.0000 0.0000 25.4220 0.0000 0.0000
# 5 0.0000 0.0000 0.0000 0.0000 24.0738 0.0000
# 6 0.0000 0.0000 0.0000 0.0000 0.0000 25.0776
#
#
#
# Elastic Compliance Matrix: (Units=1/GPa)
#
#
# Indices 1 2 3 4 5 6 
#
# 1 0.032158 -0.006673 -0.006599 0.000000 0.000000 0.000000
# 2 -0.006673 0.017142 -0.006550 0.000000 0.000000 0.000000
# 3 -0.006599 -0.006550 0.014493 0.000000 0.000000 0.000000
# 4 0.000000 0.000000 0.000000 0.039336 0.000000 0.000000
# 5 0.000000 0.000000 0.000000 0.000000 0.041539 0.000000
# 6 0.000000 0.000000 0.000000 0.000000 0.000000 0.039876
#
#
# Mechanical properties :
#
#
# Convention : Reuss Voigt Hill
#
# Bulk Modulus (GPa) = 41.40892 53.57134 47.49013
# Shear Modulus (GPa) = 21.52974 23.29448 22.41211
#
# Velocity S-wave (km/s) = 3.37480 3.51039 3.44326
# Velocity P-wave (km/s) = 6.09024 6.69102 6.39769
#
# Compressibility (1/GPa) = 0.02414939
#
# Stress axis : x y z
#
# Youngs Moduli (GPa) = 31.09632 58.33647 69.00072
#
# Poissons Ratio (x) = 0.38930 0.45532
# Poissons Ratio (y) = 0.20752 0.45193
# Poissons Ratio (z) = 0.20520 0.38208
#
# Static dielectric constant tensor:
#      x y z
#    x 3.239900 0.000000 0.000000 
#    y 0.000000 3.484890 0.000000 
#    z 0.000000 0.000000 3.534470 
# 
# 
# High freq. dielectric constant tensor:
#      x y z
#    x 1.714770 0.000000 0.000000 
#    y 0.000000 1.741750 0.000000 
#    z 0.000000 0.000000 1.732440 
# 
# From -- ./inp_files/16652.got.cif
#   From: 2010.03.12/outbox.cif.g09.slc.cpg/sg36_9_cif.got.tgz:16652.got - 2010.04.14 02:13:53.
