data_PCOD8175258
_publ_section_title
;
Structure prediction by ZEFSAII (Michael W. Deem and Ramdas Pophale) SiO2 
 PCOD8175258
Probable space group: C M C 21
;
_chemical_formula_sum "Si O2"
_cell_formula_units_Z 64
_cell_length_a 8.986927
_cell_length_b 15.575374
_cell_length_c 23.879540
_cell_angle_alpha 90.000000
_cell_angle_beta 90.000000
_cell_angle_gamma 90.000000
_cell_volume 3342.532621
_symmetry_space_group_name_H-M "C M C 21"
_symmetry_group_IT_number 36
_symmetry_cell_setting 'orthorhombic'
loop_
_space_group_symop_operation_xyz
x,y,z
-x,-y,1/2+z
x,-y,1/2+z
-x,y,z
1/2+x,1/2+y,z
1/2-x,1/2-y,1/2+z
1/2+x,1/2-y,1/2+z
1/2-x,1/2+y,z
loop_
_atom_site_type_symbol
_atom_site_label
_atom_site_fract_x
_atom_site_fract_y
_atom_site_fract_z
Si Si1 0.325248 0.281589 0.869740
Si Si2 0.670140 0.023221 0.750384
Si Si3 0.323395 0.788077 0.256318
Si Si4 0.176757 0.788512 0.993544
Si Si5 0.823422 0.372154 0.566024
Si Si6 0.327486 0.032542 0.493048
Si Si7 0.167231 0.452277 0.867375
Si Si8 0.823697 0.872859 0.685902
O O1 0.500000 0.271571 0.871318
O O2 0.259057 0.222796 0.819749
O O3 0.262552 0.260304 0.931784
O O4 0.284954 0.378697 0.853903
O O5 0.500000 0.005404 0.731476
O O6 0.722585 0.118813 0.732319
O O7 0.682466 0.021941 0.818108
O O8 0.777641 0.955413 0.721717
O O9 0.500000 0.780261 0.259258
O O10 0.261763 0.713291 0.215881
O O11 0.000000 0.797399 0.993002
O O12 0.242950 0.880601 0.010809
O O13 0.230115 0.715915 0.036725
O O14 0.768041 0.453297 0.529719
O O15 0.748199 0.378821 0.625606
O O16 0.000000 0.373156 0.572532
O O17 0.500000 0.048949 0.505066
O O18 0.298887 0.006461 0.428132
O O19 0.000000 0.413351 0.867859
O O20 0.000000 0.871476 0.680070
#
# Coordination Sequence:
#
# PCOD8175258 Si02
#       8
#     8   8   8   8   8   8   8   8
#     4   9  16  31  55  80 112 146 177 218 270 327
#     4  10  20  35  57  83 110 143 183 225 272 327
#     4   9  19  34  55  81 108 142 182 221 270 326
#     4   9  19  34  56  84 112 143 181 225 272 321
#     4  10  22  39  58  80 108 147 189 226 268 322
#     4   9  19  35  55  81 113 145 179 221 272 326
#     4   9  17  30  53  83 113 141 174 221 272 322
#     4  11  23  40  57  78 110 147 187 229 274 323
#
# _framework density 19.147157
#
# number of rings (size 3 to 8) (size 9 to 14) (size 15 to 20)
#    0.000    2.500    1.250    0.375    1.750    2.000 
#    0.000    5.625    0.000    0.000    0.000    0.000 
#    0.000    0.000    0.000    0.000    0.000    0.000 
#
# Total GULP energy -396651.089611 kJ/mol
# GULP energy per Si atom -12395.346550 kJ/mol
# Density = 1.910358 g / cm^3
# Si number density = 19.147157 Si / 1000 Ang^3
#
#
#
# Elastic Constant Matrix: (Units=GPa)
#
#
# Indices 1 2 3 4 5 6 
#
# 1 16.6618 21.6189 27.3098 0.0000 0.0000 0.0000
# 2 21.6189 138.9462 74.4719 0.0000 0.0000 0.0000
# 3 27.3098 74.4719 126.5254 0.0000 0.0000 0.0000
# 4 0.0000 0.0000 0.0000 22.3528 0.0000 0.0000
# 5 0.0000 0.0000 0.0000 0.0000 25.3512 0.0000
# 6 0.0000 0.0000 0.0000 0.0000 0.0000 27.2124
#
#
#
# Elastic Compliance Matrix: (Units=1/GPa)
#
#
# Indices 1 2 3 4 5 6 
#
# 1 0.095749 -0.005582 -0.017382 0.000000 0.000000 0.000000
# 2 -0.005582 0.010839 -0.005175 0.000000 0.000000 0.000000
# 3 -0.017382 -0.005175 0.014701 0.000000 0.000000 0.000000
# 4 0.000000 0.000000 0.000000 0.044737 0.000000 0.000000
# 5 0.000000 0.000000 0.000000 0.000000 0.039446 0.000000
# 6 0.000000 0.000000 0.000000 0.000000 0.000000 0.036748
#
#
# Mechanical properties :
#
#
# Convention : Reuss Voigt Hill
#
# Bulk Modulus (GPa) = 15.38154 58.77053 37.07604
# Shear Modulus (GPa) = 15.61676 25.56546 20.59111
#
# Velocity S-wave (km/s) = 2.85900 3.65802 3.28291
# Velocity P-wave (km/s) = 4.35308 6.97153 5.81169
#
# Compressibility (1/GPa) = 0.06501298
#
# Stress axis : x y z
#
# Youngs Moduli (GPa) = 10.44394 92.25737 68.02107
#
# Poissons Ratio (x) = 0.51495 1.18232
# Poissons Ratio (y) = 0.05829 0.35202
# Poissons Ratio (z) = 0.18153 0.47744
#
# Static dielectric constant tensor:
#      x y z
#    x 3.281220 0.000000 0.000000 
#    y 0.000000 3.559330 0.000000 
#    z 0.000000 0.000000 3.690410 
# 
# 
# High freq. dielectric constant tensor:
#      x y z
#    x 1.717820 0.000000 0.000000 
#    y 0.000000 1.743380 0.000000 
#    z 0.000000 0.000000 1.750950 
# 
# From -- ./inp_files/16560.got.cif
#   From: 2010.03.12/outbox.cif.g09.slc.cpg/sg36_9_cif.got.tgz:16560.got - 2010.04.14 02:13:53.
