data_PCOD8175218
_publ_section_title
;
Structure prediction by ZEFSAII (Michael W. Deem and Ramdas Pophale) SiO2 
 PCOD8175218
Probable space group: C M C 21
;
_chemical_formula_sum "Si O2"
_cell_formula_units_Z 48
_cell_length_a 8.688142
_cell_length_b 18.361134
_cell_length_c 16.261491
_cell_angle_alpha 90.000000
_cell_angle_beta 90.000000
_cell_angle_gamma 90.000000
_cell_volume 2594.100358
_symmetry_space_group_name_H-M "C M C 21"
_symmetry_group_IT_number 36
_symmetry_cell_setting 'orthorhombic'
loop_
_space_group_symop_operation_xyz
x,y,z
-x,-y,1/2+z
x,-y,1/2+z
-x,y,z
1/2+x,1/2+y,z
1/2-x,1/2-y,1/2+z
1/2+x,1/2-y,1/2+z
1/2-x,1/2+y,z
loop_
_atom_site_type_symbol
_atom_site_label
_atom_site_fract_x
_atom_site_fract_y
_atom_site_fract_z
Si Si1 0.180717 0.919625 0.178240
Si Si2 0.330961 0.290267 0.281728
Si Si3 0.330629 0.209289 0.109689
Si Si4 0.321505 0.339034 0.856119
Si Si5 0.180988 0.425650 0.708365
Si Si6 0.178731 0.663366 0.527722
O O1 0.224589 0.872477 0.260181
O O2 0.275704 0.891518 0.100131
O O3 0.000000 0.910936 0.159225
O O4 0.221201 0.002184 0.196770
O O5 0.500000 0.290798 0.324047
O O6 0.342966 0.250838 0.194965
O O7 0.214254 0.246990 0.340848
O O8 0.500000 0.208120 0.067830
O O9 0.275620 0.127302 0.131399
O O10 0.213787 0.252054 0.050416
O O11 0.500000 0.354074 0.841457
O O12 0.224010 0.388880 0.794647
O O13 0.275075 0.360263 0.948152
O O14 0.000000 0.442801 0.708922
O O15 0.000000 0.655648 0.508223
#
# Coordination Sequence:
#
# PCOD8175218 Si02
#       6
#     8   8   8   8   8   8
#     4  10  20  35  55  79 108 140 175 214 260 315
#     4   8  16  32  52  74 101 132 167 208 252 303
#     4   8  16  32  52  74 101 132 167 208 252 303
#     4  11  21  34  54  78 105 137 175 219 264 310
#     4  10  20  35  55  79 108 140 175 214 260 315
#     4  11  21  34  54  78 105 137 175 219 264 310
#
# _framework density 18.503525
#
# number of rings (size 3 to 8) (size 9 to 14) (size 15 to 20)
#    0.000    2.333    0.000    6.000    0.000    7.333 
#    0.000    1.667    0.000    8.000    0.000    0.000 
#    0.000    0.000    0.000    0.000    0.000    0.000 
#
# Total GULP energy -297498.014627 kJ/mol
# GULP energy per Si atom -12395.750609 kJ/mol
# Density = 1.846141 g / cm^3
# Si number density = 18.503525 Si / 1000 Ang^3
#
#
#
# Elastic Constant Matrix: (Units=GPa)
#
#
# Indices 1 2 3 4 5 6 
#
# 1 65.7028 14.1792 11.4242 0.0000 0.0000 0.0000
# 2 14.1792 106.9204 14.8116 0.0000 0.0000 0.0000
# 3 11.4242 14.8116 56.6559 0.0000 0.0000 0.0000
# 4 0.0000 0.0000 0.0000 16.4620 0.0000 0.0000
# 5 0.0000 0.0000 0.0000 0.0000 28.3144 0.0000
# 6 0.0000 0.0000 0.0000 0.0000 0.0000 28.7379
#
#
#
# Elastic Compliance Matrix: (Units=1/GPa)
#
#
# Indices 1 2 3 4 5 6 
#
# 1 0.016081 -0.001747 -0.002786 0.000000 0.000000 0.000000
# 2 -0.001747 0.009894 -0.002234 0.000000 0.000000 0.000000
# 3 -0.002786 -0.002234 0.018796 0.000000 0.000000 0.000000
# 4 0.000000 0.000000 0.000000 0.060746 0.000000 0.000000
# 5 0.000000 0.000000 0.000000 0.000000 0.035318 0.000000
# 6 0.000000 0.000000 0.000000 0.000000 0.000000 0.034797
#
#
# Mechanical properties :
#
#
# Convention : Reuss Voigt Hill
#
# Bulk Modulus (GPa) = 32.01283 34.45656 33.23470
# Shear Modulus (GPa) = 25.05270 27.29380 26.17325
#
# Velocity S-wave (km/s) = 3.68359 3.84482 3.76507
# Velocity P-wave (km/s) = 5.95233 6.19453 6.07464
#
# Compressibility (1/GPa) = 0.03123747
#
# Stress axis : x y z
#
# Youngs Moduli (GPa) = 62.18348 101.07222 53.20186
#
# Poissons Ratio (x) = 0.17654 0.14822
# Poissons Ratio (y) = 0.10861 0.11887
# Poissons Ratio (z) = 0.17325 0.22583
#
# Static dielectric constant tensor:
#      x y z
#    x 3.384230 0.000000 0.000000 
#    y 0.000000 3.723520 0.000000 
#    z 0.000000 0.000000 3.214230 
# 
# 
# High freq. dielectric constant tensor:
#      x y z
#    x 1.723020 0.000000 0.000000 
#    y 0.000000 1.712890 0.000000 
#    z 0.000000 0.000000 1.693060 
# 
# From -- ./inp_files/10407.got.cif
#   From: 2010.03.12/outbox.cif.g09.slc.cpg/sg36_6_cif.got.tgz:10407.got - 2010.04.14 02:13:53.
