data_PCOD8175950
_publ_section_title
;
Structure prediction by ZEFSAII (Michael W. Deem and Ramdas Pophale) SiO2 
 PCOD8175950
Probable space group: C M C 21
;
_chemical_formula_sum "Si O2"
_cell_formula_units_Z 48
_cell_length_a 8.793777
_cell_length_b 30.600190
_cell_length_c 9.369622
_cell_angle_alpha 90.000000
_cell_angle_beta 90.000000
_cell_angle_gamma 90.000000
_cell_volume 2521.283268
_symmetry_space_group_name_H-M "C M C 21"
_symmetry_group_IT_number 36
_symmetry_cell_setting 'orthorhombic'
loop_
_space_group_symop_operation_xyz
x,y,z
-x,-y,1/2+z
x,-y,1/2+z
-x,y,z
1/2+x,1/2+y,z
1/2-x,1/2-y,1/2+z
1/2+x,1/2-y,1/2+z
1/2-x,1/2+y,z
loop_
_atom_site_type_symbol
_atom_site_label
_atom_site_fract_x
_atom_site_fract_y
_atom_site_fract_z
Si Si1 0.821353 0.865020 0.147380
Si Si2 0.178026 0.793557 0.625467
Si Si3 0.320981 0.132478 0.946602
Si Si4 0.327488 0.460566 0.124935
Si Si5 0.325534 0.459437 0.453904
Si Si6 0.322984 0.716205 0.454015
O O1 0.745690 0.850585 0.296025
O O2 0.755083 0.912399 0.097841
O O3 0.000000 0.869775 0.179708
O O4 0.785658 0.830585 0.024012
O O5 0.267161 0.835861 0.572202
O O6 0.221438 0.751903 0.531676
O O7 0.224466 0.785170 0.789106
O O8 0.000000 0.802562 0.611084
O O9 0.500000 0.134003 0.934507
O O10 0.268350 0.083994 0.987402
O O11 0.500000 0.458943 0.069895
O O12 0.315580 0.472421 0.289838
O O13 0.247902 0.499930 0.038283
O O14 0.500000 0.451051 0.501296
O O15 0.500000 0.728272 0.473068
#
# Coordination Sequence:
#
# PCOD8175950 Si02
#       6
#     8   8   8   8   8   8
#     4   9  18  36  59  82 109 141 178 221 268 317
#     4  11  23  38  57  81 109 141 177 219 267 319
#     4  11  22  36  54  78 109 145 184 223 267 318
#     4   8  15  28  51  78 102 134 175 216 258 308
#     4   9  17  32  53  77 105 139 179 222 267 312
#     4  10  22  38  58  84 110 138 175 219 267 320
#
# _framework density 19.037922999999999
#
# number of rings (size 3 to 8) (size 9 to 14) (size 15 to 20)
#    0.000    2.333    0.000    4.000    0.000    6.000 
#    0.000    8.333    0.000    0.000    0.000    0.000 
#    0.000    0.000    0.000    0.000    0.000    0.000 
#
# Total GULP energy -297594.975728 kJ/mol
# GULP energy per Si atom -12399.790655 kJ/mol
# Density = 1.899459 g / cm^3
# Si number density = 19.037923 Si / 1000 Ang^3
#
#
#
# Elastic Constant Matrix: (Units=GPa)
#
#
# Indices 1 2 3 4 5 6 
#
# 1 65.5078 36.3814 34.5071 0.0000 0.0000 0.0000
# 2 36.3814 122.8280 71.8051 0.0000 0.0000 0.0000
# 3 34.5071 71.8051 105.4668 0.0000 0.0000 0.0000
# 4 0.0000 0.0000 0.0000 40.9877 0.0000 0.0000
# 5 0.0000 0.0000 0.0000 0.0000 20.0001 0.0000
# 6 0.0000 0.0000 0.0000 0.0000 0.0000 25.8739
#
#
#
# Elastic Compliance Matrix: (Units=1/GPa)
#
#
# Indices 1 2 3 4 5 6 
#
# 1 0.019241 -0.003354 -0.004012 0.000000 0.000000 0.000000
# 2 -0.003354 0.014109 -0.008508 0.000000 0.000000 0.000000
# 3 -0.004012 -0.008508 0.016587 0.000000 0.000000 0.000000
# 4 0.000000 0.000000 0.000000 0.024398 0.000000 0.000000
# 5 0.000000 0.000000 0.000000 0.000000 0.050000 0.000000
# 6 0.000000 0.000000 0.000000 0.000000 0.000000 0.038649
#
#
# Mechanical properties :
#
#
# Convention : Reuss Voigt Hill
#
# Bulk Modulus (GPa) = 54.97908 64.35440 59.66674
# Shear Modulus (GPa) = 24.90097 27.44628 26.17362
#
# Velocity S-wave (km/s) = 3.62051 3.80104 3.71187
# Velocity P-wave (km/s) = 6.81314 7.28976 7.05547
#
# Compressibility (1/GPa) = 0.01818874
#
# Stress axis : x y z
#
# Youngs Moduli (GPa) = 51.97125 70.87734 60.28748
#
# Poissons Ratio (x) = 0.23771 0.24188
# Poissons Ratio (y) = 0.17430 0.51295
# Poissons Ratio (z) = 0.20852 0.60306
#
# Static dielectric constant tensor:
#      x y z
#    x 3.258270 0.000000 0.000000 
#    y 0.000000 3.765230 0.000000 
#    z 0.000000 0.000000 3.496530 
# 
# 
# High freq. dielectric constant tensor:
#      x y z
#    x 1.712980 0.000000 0.000000 
#    y 0.000000 1.757130 0.000000 
#    z 0.000000 0.000000 1.738700 
# 
# From -- ./inp_files/2684.got.cif
#   From: 2010.03.12/outbox.cif.g09.slc.cpg/sg36_2_cif.got.tgz:2684.got - 2010.04.14 02:13:53.
