data_PCOD8175608
_publ_section_title
;
Structure prediction by ZEFSAII (Michael W. Deem and Ramdas Pophale) SiO2 
 PCOD8175608
Probable space group: C M C 21
;
_chemical_formula_sum "Si O2"
_cell_formula_units_Z 56
_cell_length_a 13.206313
_cell_length_b 32.938611
_cell_length_c 5.455988
_cell_angle_alpha 90.000000
_cell_angle_beta 90.000000
_cell_angle_gamma 90.000000
_cell_volume 2373.341722
_symmetry_space_group_name_H-M "C M C 21"
_symmetry_group_IT_number 36
_symmetry_cell_setting 'orthorhombic'
loop_
_space_group_symop_operation_xyz
x,y,z
-x,-y,1/2+z
x,-y,1/2+z
-x,y,z
1/2+x,1/2+y,z
1/2-x,1/2-y,1/2+z
1/2+x,1/2-y,1/2+z
1/2-x,1/2+y,z
loop_
_atom_site_type_symbol
_atom_site_label
_atom_site_fract_x
_atom_site_fract_y
_atom_site_fract_z
Si Si1 0.613651 0.668772 0.716110
Si Si2 0.778535 0.897521 0.911818
Si Si3 0.303336 0.163329 0.038390
Si Si4 0.690986 0.250110 0.045816
Si Si5 0.111418 0.406115 0.265107
Si Si6 0.879634 0.022489 0.271003
Si Si7 0.615491 0.983598 0.535093
O O1 0.500000 0.663939 0.817215
O O2 0.638611 0.628560 0.560005
O O3 0.618668 0.710624 0.557400
O O4 0.689291 0.672238 0.944444
O O5 0.708359 0.865640 0.769208
O O6 0.835361 0.931684 0.753073
O O7 0.698562 0.921207 0.083138
O O8 0.359758 0.205833 0.102144
O O9 0.370761 0.140624 0.836090
O O10 0.773062 0.253944 0.263994
O O11 0.119706 0.434979 0.505112
O O12 0.000000 0.410475 0.145387
O O13 0.000000 0.025841 0.274517
O O14 0.843035 0.000047 0.521917
O O15 0.500000 0.000197 0.551106
O O16 0.668794 0.995612 0.792925
#
# Coordination Sequence:
#
# PCOD8175608 Si02
#       7
#     8   8   8   8   8   8   8
#     4  10  22  40  67 101 130 173 225 275 334 405
#     4  11  23  42  66  95 132 180 224 285 337 404
#     4  10  23  41  65  94 136 176 214 280 336 401
#     4  10  20  42  66  92 133 172 213 269 331 394
#     4  10  24  41  61  91 127 175 228 276 337 402
#     4  10  24  44  68 100 138 178 224 281 346 412
#     4   9  19  36  57  83 116 156 208 270 321 374
#
# _framework density 23.595421000000002
#
# number of rings (size 3 to 8) (size 9 to 14) (size 15 to 20)
#    0.000    2.000    1.429    0.429    6.000    3.429 
#    0.000    0.000    0.000    0.000    0.000    0.000 
#    0.000    0.000    0.000    0.000    0.000    0.000 
#
# Total GULP energy -346984.730388 kJ/mol
# GULP energy per Si atom -12392.311800 kJ/mol
# Density = 2.354172 g / cm^3
# Si number density = 23.595421 Si / 1000 Ang^3
#
#
#
# Elastic Constant Matrix: (Units=GPa)
#
#
# Indices 1 2 3 4 5 6 
#
# 1 79.0409 35.7652 31.2016 0.0000 0.0000 0.0000
# 2 35.7652 145.7481 32.1435 0.0000 0.0000 0.0000
# 3 31.2016 32.1435 107.1706 0.0000 0.0000 0.0000
# 4 0.0000 0.0000 0.0000 40.8324 0.0000 0.0000
# 5 0.0000 0.0000 0.0000 0.0000 16.5954 0.0000
# 6 0.0000 0.0000 0.0000 0.0000 0.0000 19.4996
#
#
#
# Elastic Compliance Matrix: (Units=1/GPa)
#
#
# Indices 1 2 3 4 5 6 
#
# 1 0.015424 -0.002993 -0.003593 0.000000 0.000000 0.000000
# 2 -0.002993 0.007928 -0.001507 0.000000 0.000000 0.000000
# 3 -0.003593 -0.001507 0.010829 0.000000 0.000000 0.000000
# 4 0.000000 0.000000 0.000000 0.024490 0.000000 0.000000
# 5 0.000000 0.000000 0.000000 0.000000 0.060258 0.000000
# 6 0.000000 0.000000 0.000000 0.000000 0.000000 0.051283
#
#
# Mechanical properties :
#
#
# Convention : Reuss Voigt Hill
#
# Bulk Modulus (GPa) = 55.56616 58.90891 57.23753
# Shear Modulus (GPa) = 25.98825 30.90879 28.44852
#
# Velocity S-wave (km/s) = 3.32235 3.62325 3.47606
# Velocity P-wave (km/s) = 6.19016 6.52107 6.35777
#
# Compressibility (1/GPa) = 0.01799657
#
# Stress axis : x y z
#
# Youngs Moduli (GPa) = 64.83352 126.13943 92.34605
#
# Poissons Ratio (x) = 0.37747 0.33180
# Poissons Ratio (y) = 0.19402 0.13912
# Poissons Ratio (z) = 0.23295 0.19003
#
# Static dielectric constant tensor:
#      x y z
#    x 3.979730 0.000000 0.000000 
#    y 0.000000 4.705340 0.000000 
#    z 0.000000 0.000000 4.266710 
# 
# 
# High freq. dielectric constant tensor:
#      x y z
#    x 1.911900 0.000000 0.000000 
#    y 0.000000 1.957810 0.000000 
#    z 0.000000 0.000000 1.930370 
# 
# From -- ./inp_files/929.got.cif
#   From: 2010.03.12/outbox.cif.g09.slc.cpg/sg36_1_cif.got.tgz:929.got - 2010.04.14 02:13:53.
