data_PCOD8175736
_publ_section_title
;
Structure prediction by ZEFSAII (Michael W. Deem and Ramdas Pophale) SiO2 
 PCOD8175736
Probable space group: C M C 21
;
_chemical_formula_sum "Si O2"
_cell_formula_units_Z 48
_cell_length_a 8.402326
_cell_length_b 23.880697
_cell_length_c 11.843867
_cell_angle_alpha 90.000000
_cell_angle_beta 90.000000
_cell_angle_gamma 90.000000
_cell_volume 2376.512198
_symmetry_space_group_name_H-M "C M C 21"
_symmetry_group_IT_number 36
_symmetry_cell_setting 'orthorhombic'
loop_
_space_group_symop_operation_xyz
x,y,z
-x,-y,1/2+z
x,-y,1/2+z
-x,y,z
1/2+x,1/2+y,z
1/2-x,1/2-y,1/2+z
1/2+x,1/2-y,1/2+z
1/2-x,1/2+y,z
loop_
_atom_site_type_symbol
_atom_site_label
_atom_site_fract_x
_atom_site_fract_y
_atom_site_fract_z
Si Si1 0.684493 0.145242 0.467060
Si Si2 0.816911 0.790940 0.171454
Si Si3 0.687845 0.957730 0.112638
Si Si4 0.817376 0.174208 0.230860
Si Si5 0.689424 0.918516 0.567421
Si Si6 0.688448 0.115667 0.817853
O O1 0.500000 0.145603 0.431135
O O2 0.709756 0.190467 0.565844
O O3 0.738636 0.084204 0.512164
O O4 0.792618 0.160124 0.361465
O O5 0.792097 0.725706 0.194276
O O6 0.768558 0.825613 0.283319
O O7 0.000000 0.801710 0.141753
O O8 0.500000 0.962137 0.115490
O O9 0.747643 0.933246 0.232697
O O10 0.758018 0.019188 0.089854
O O11 0.771252 0.120654 0.158199
O O12 0.000000 0.190305 0.211060
O O13 0.500000 0.915726 0.580731
O O14 0.743802 0.899978 0.442985
O O15 0.500000 0.123322 0.809726
#
# Coordination Sequence:
#
# PCOD8175736 Si02
#       6
#     8   8   8   8   8   8
#     4  10  21  41  67  92 119 155 201 250 302 360
#     4  11  23  41  64  88 119 160 202 248 304 361
#     4   8  17  35  63  92 118 154 199 247 296 357
#     4  12  26  41  59  88 125 161 202 250 301 357
#     4  10  21  37  62  92 122 158 204 249 295 351
#     4   9  19  37  61  90 123 158 202 250 296 352
#
# _framework density 20.197665000000001
#
# number of rings (size 3 to 8) (size 9 to 14) (size 15 to 20)
#    0.000    2.000    0.000    4.500    4.667    0.667 
#    0.000    4.167    0.000    0.000    0.000    0.000 
#    0.000    0.000    0.000    0.000    0.000    0.000 
#
# Total GULP energy -297674.629285 kJ/mol
# GULP energy per Si atom -12403.109554 kJ/mol
# Density = 2.015169 g / cm^3
# Si number density = 20.197665 Si / 1000 Ang^3
#
#
#
# Elastic Constant Matrix: (Units=GPa)
#
#
# Indices 1 2 3 4 5 6 
#
# 1 48.5148 13.5614 8.8711 0.0000 0.0000 0.0000
# 2 13.5614 145.2413 49.9607 0.0000 0.0000 0.0000
# 3 8.8711 49.9607 100.2859 0.0000 0.0000 0.0000
# 4 0.0000 0.0000 0.0000 25.2443 0.0000 0.0000
# 5 0.0000 0.0000 0.0000 0.0000 25.6633 0.0000
# 6 0.0000 0.0000 0.0000 0.0000 0.0000 24.7704
#
#
#
# Elastic Compliance Matrix: (Units=1/GPa)
#
#
# Indices 1 2 3 4 5 6 
#
# 1 0.021260 -0.001615 -0.001076 0.000000 0.000000 0.000000
# 2 -0.001615 0.008432 -0.004058 0.000000 0.000000 0.000000
# 3 -0.001076 -0.004058 0.012088 0.000000 0.000000 0.000000
# 4 0.000000 0.000000 0.000000 0.039613 0.000000 0.000000
# 5 0.000000 0.000000 0.000000 0.000000 0.038966 0.000000
# 6 0.000000 0.000000 0.000000 0.000000 0.000000 0.040371
#
#
# Mechanical properties :
#
#
# Convention : Reuss Voigt Hill
#
# Bulk Modulus (GPa) = 35.35719 48.75872 42.05795
# Shear Modulus (GPa) = 27.22493 29.91218 28.56855
#
# Velocity S-wave (km/s) = 3.67539 3.85251 3.76500
# Velocity P-wave (km/s) = 5.96280 6.63192 6.30624
#
# Compressibility (1/GPa) = 0.02828279
#
# Stress axis : x y z
#
# Youngs Moduli (GPa) = 47.03569 118.60072 82.72571
#
# Poissons Ratio (x) = 0.19153 0.08902
# Poissons Ratio (y) = 0.07596 0.33567
# Poissons Ratio (z) = 0.05062 0.48124
#
# Static dielectric constant tensor:
#      x y z
#    x 3.419330 0.000000 0.000000 
#    y 0.000000 3.870060 0.000000 
#    z 0.000000 0.000000 3.733660 
# 
# 
# High freq. dielectric constant tensor:
#      x y z
#    x 1.769380 0.000000 0.000000 
#    y 0.000000 1.797120 0.000000 
#    z 0.000000 0.000000 1.794140 
# 
# From -- ./inp_files/6755.got.cif
#   From: 2010.03.12/outbox.cif.g09.slc.cpg/sg36_4_cif.got.tgz:6755.got - 2010.04.14 02:13:53.
