data_PCOD8175933
_publ_section_title
;
Structure prediction by ZEFSAII (Michael W. Deem and Ramdas Pophale) SiO2 
 PCOD8175933
Probable space group: C M C 21
;
_chemical_formula_sum "Si O2"
_cell_formula_units_Z 48
_cell_length_a 18.526189
_cell_length_b 13.515159
_cell_length_c 8.465424
_cell_angle_alpha 90.000000
_cell_angle_beta 90.000000
_cell_angle_gamma 90.000000
_cell_volume 2119.610024
_symmetry_space_group_name_H-M "C M C 21"
_symmetry_group_IT_number 36
_symmetry_cell_setting 'orthorhombic'
loop_
_space_group_symop_operation_xyz
x,y,z
-x,-y,1/2+z
x,-y,1/2+z
-x,y,z
1/2+x,1/2+y,z
1/2-x,1/2-y,1/2+z
1/2+x,1/2-y,1/2+z
1/2-x,1/2+y,z
loop_
_atom_site_type_symbol
_atom_site_label
_atom_site_fract_x
_atom_site_fract_y
_atom_site_fract_z
Si Si1 0.500000 0.917507 0.050130
Si Si2 0.846527 0.597009 0.696095
Si Si3 0.846585 0.200923 0.363052
Si Si4 0.000000 0.097906 0.732359
Si Si5 0.707443 0.100328 0.361068
Si Si6 0.500000 0.619400 0.360029
Si Si7 0.378106 0.264245 0.203189
Si Si8 0.500000 0.124909 0.176122
O O1 0.571576 0.881410 0.140279
O O2 0.500000 0.034531 0.058565
O O3 0.500000 0.890384 0.865805
O O4 0.823380 0.689753 0.804033
O O5 0.835857 0.492465 0.787144
O O6 0.793449 0.587142 0.548439
O O7 0.790205 0.116007 0.300969
O O8 0.835183 0.193678 0.552878
O O9 0.927552 0.175819 0.304640
O O10 0.926987 0.152902 0.794280
O O11 0.000000 0.105698 0.545146
O O12 0.000000 0.986204 0.780048
O O13 0.670521 0.206920 0.328479
O O14 0.430733 0.184910 0.121302
#
# Coordination Sequence:
#
# PCOD8175933 Si02
#       8
#     4   8   8   4   8   4   8   4
#     4  12  21  38  66 102 135 170 213 278 329 411
#     4  12  25  42  68 100 137 176 219 276 339 409
#     4  11  26  44  68  93 133 175 227 280 332 400
#     4   9  22  40  71  87 127 167 217 272 319 390
#     4  12  25  43  65  98 137 175 220 272 340 405
#     4  10  23  46  63  97 121 174 223 276 330 388
#     4  10  21  43  63  97 130 173 221 271 330 396
#     4  11  22  36  66  96 137 169 219 268 336 399
#
# _framework density 22.645675000000001
#
# number of rings (size 3 to 8) (size 9 to 14) (size 15 to 20)
#    0.000    1.000    3.333    3.000    2.333    5.333 
#    0.000    0.000    0.000    0.000    0.000    0.000 
#    0.000    0.000    0.000    0.000    0.000    0.000 
#
# Total GULP energy -297427.223634 kJ/mol
# GULP energy per Si atom -12392.800985 kJ/mol
# Density = 2.259413 g / cm^3
# Si number density = 22.645675 Si / 1000 Ang^3
#
#
#
# Elastic Constant Matrix: (Units=GPa)
#
#
# Indices 1 2 3 4 5 6 
#
# 1 117.6293 33.2832 24.9366 0.0000 0.0000 0.0000
# 2 33.2832 122.7885 37.2722 0.0000 0.0000 0.0000
# 3 24.9366 37.2722 62.0064 0.0000 0.0000 0.0000
# 4 0.0000 0.0000 0.0000 40.9460 0.0000 0.0000
# 5 0.0000 0.0000 0.0000 0.0000 36.7655 0.0000
# 6 0.0000 0.0000 0.0000 0.0000 0.0000 55.0530
#
#
#
# Elastic Compliance Matrix: (Units=1/GPa)
#
#
# Indices 1 2 3 4 5 6 
#
# 1 0.009591 -0.001748 -0.002806 0.000000 0.000000 0.000000
# 2 -0.001748 0.010280 -0.005477 0.000000 0.000000 0.000000
# 3 -0.002806 -0.005477 0.020548 0.000000 0.000000 0.000000
# 4 0.000000 0.000000 0.000000 0.024422 0.000000 0.000000
# 5 0.000000 0.000000 0.000000 0.000000 0.027199 0.000000
# 6 0.000000 0.000000 0.000000 0.000000 0.000000 0.018164
#
#
# Mechanical properties :
#
#
# Convention : Reuss Voigt Hill
#
# Bulk Modulus (GPa) = 49.12225 54.82315 51.97270
# Shear Modulus (GPa) = 36.48235 40.34839 38.41537
#
# Velocity S-wave (km/s) = 4.01809 4.22563 4.12317
# Velocity P-wave (km/s) = 6.57765 6.93322 6.75778
#
# Compressibility (1/GPa) = 0.02035737
#
# Stress axis : x y z
#
# Youngs Moduli (GPa) = 104.26697 97.27395 48.66655
#
# Poissons Ratio (x) = 0.17001 0.13658
# Poissons Ratio (y) = 0.18224 0.26653
# Poissons Ratio (z) = 0.29262 0.53273
#
# Static dielectric constant tensor:
#      x y z
#    x 3.948470 0.000000 0.000000 
#    y 0.000000 3.526270 0.000000 
#    z 0.000000 0.000000 3.879480 
# 
# 
# High freq. dielectric constant tensor:
#      x y z
#    x 1.904900 0.000000 0.000000 
#    y 0.000000 1.893540 0.000000 
#    z 0.000000 0.000000 1.875190 
# 
# From -- ./inp_files/5161.got.cif
#   From: 2010.03.12/outbox.cif.g09.slc.cpg/sg36_3_cif.got.tgz:5161.got - 2010.04.14 02:13:53.
