data_PCOD8175317
_publ_section_title
;
Structure prediction by ZEFSAII (Michael W. Deem and Ramdas Pophale) SiO2 
 PCOD8175317
Probable space group: C M C 21
;
_chemical_formula_sum "Si O2"
_cell_formula_units_Z 56
_cell_length_a 19.548745
_cell_length_b 13.656468
_cell_length_c 9.464944
_cell_angle_alpha 90.000000
_cell_angle_beta 90.000000
_cell_angle_gamma 90.000000
_cell_volume 2526.825912
_symmetry_space_group_name_H-M "C M C 21"
_symmetry_group_IT_number 36
_symmetry_cell_setting 'orthorhombic'
loop_
_space_group_symop_operation_xyz
x,y,z
-x,-y,1/2+z
x,-y,1/2+z
-x,y,z
1/2+x,1/2+y,z
1/2-x,1/2-y,1/2+z
1/2+x,1/2-y,1/2+z
1/2-x,1/2+y,z
loop_
_atom_site_type_symbol
_atom_site_label
_atom_site_fract_x
_atom_site_fract_y
_atom_site_fract_z
Si Si1 0.824480 0.473201 0.063310
Si Si2 0.077170 0.365064 0.646502
Si Si3 0.243518 0.131819 0.927439
Si Si4 0.642259 0.274675 0.933267
Si Si5 0.822471 0.929171 0.166196
Si Si6 0.866225 0.859185 0.636766
Si Si7 0.422776 0.803459 0.953593
O O1 0.874214 0.540748 0.157742
O O2 0.759707 0.441681 0.155493
O O3 0.793542 0.536772 0.932825
O O4 0.866907 0.378379 0.015387
O O5 0.092510 0.304706 0.503648
O O6 0.088342 0.297024 0.784347
O O7 0.000000 0.403636 0.636642
O O8 0.285321 0.228313 0.887670
O O9 0.177305 0.115198 0.825083
O O10 0.212423 0.153615 0.084107
O O11 0.612521 0.314519 0.787313
O O12 0.651166 0.360391 0.044103
O O13 0.872426 0.023003 0.152360
O O14 0.914224 0.804589 0.522079
O O15 0.500000 0.840714 0.985002
#
# Coordination Sequence:
#
# PCOD8175317 Si02
#       7
#     8   8   8   8   8   8   8
#     4  10  20  36  62  93 123 153 196 253 315 374
#     4  10  23  41  61  88 121 161 207 256 310 365
#     4  10  20  35  60  90 121 154 192 247 310 370
#     4  11  22  37  60  88 121 158 200 250 302 365
#     4  11  22  38  61  92 125 156 195 248 309 369
#     4  11  23  37  56  86 120 159 203 244 296 359
#     4  11  23  40  62  87 122 167 211 254 302 364
#
# _framework density 22.162192000000001
#
# number of rings (size 3 to 8) (size 9 to 14) (size 15 to 20)
#    0.000    1.429    0.000    6.429    0.000    6.286 
#    0.000    0.714    0.000    2.571    0.000    0.000 
#    0.000    0.000    0.000    0.000    0.000    0.000 
#
# Total GULP energy -346922.285882 kJ/mol
# GULP energy per Si atom -12390.081639 kJ/mol
# Density = 2.211175 g / cm^3
# Si number density = 22.162192 Si / 1000 Ang^3
#
#
#
# Elastic Constant Matrix: (Units=GPa)
#
#
# Indices 1 2 3 4 5 6 
#
# 1 64.7142 4.8960 13.5261 0.0000 0.0000 0.0000
# 2 4.8960 64.3893 18.9050 0.0000 0.0000 0.0000
# 3 13.5261 18.9050 96.6307 0.0000 0.0000 0.0000
# 4 0.0000 0.0000 0.0000 37.6923 0.0000 0.0000
# 5 0.0000 0.0000 0.0000 0.0000 28.4674 0.0000
# 6 0.0000 0.0000 0.0000 0.0000 0.0000 25.3422
#
#
#
# Elastic Compliance Matrix: (Units=1/GPa)
#
#
# Indices 1 2 3 4 5 6 
#
# 1 0.015939 -0.000591 -0.002116 0.000000 0.000000 0.000000
# 2 -0.000591 0.016499 -0.003145 0.000000 0.000000 0.000000
# 3 -0.002116 -0.003145 0.011260 0.000000 0.000000 0.000000
# 4 0.000000 0.000000 0.000000 0.026531 0.000000 0.000000
# 5 0.000000 0.000000 0.000000 0.000000 0.035128 0.000000
# 6 0.000000 0.000000 0.000000 0.000000 0.000000 0.039460
#
#
# Mechanical properties :
#
#
# Convention : Reuss Voigt Hill
#
# Bulk Modulus (GPa) = 31.25459 33.37650 32.31554
# Shear Modulus (GPa) = 29.90698 30.86087 30.38392
#
# Velocity S-wave (km/s) = 3.67748 3.73567 3.70669
# Velocity P-wave (km/s) = 5.67143 5.80515 5.73868
#
# Compressibility (1/GPa) = 0.03199530
#
# Stress axis : x y z
#
# Youngs Moduli (GPa) = 62.73750 60.61009 88.80890
#
# Poissons Ratio (x) = 0.03581 0.18788
# Poissons Ratio (y) = 0.03707 0.27932
# Poissons Ratio (z) = 0.13273 0.19063
#
# Static dielectric constant tensor:
#      x y z
#    x 3.758620 0.000000 0.000000 
#    y 0.000000 4.063870 0.000000 
#    z 0.000000 0.000000 4.082080 
# 
# 
# High freq. dielectric constant tensor:
#      x y z
#    x 1.843240 0.000000 0.000000 
#    y 0.000000 1.874950 0.000000 
#    z 0.000000 0.000000 1.882950 
# 
# From -- ./inp_files/5210.got.cif
#   From: 2010.03.12/outbox.cif.g09.slc.cpg/sg36_3_cif.got.tgz:5210.got - 2010.04.14 02:13:53.
