data_PCOD8175306
_publ_section_title
;
Structure prediction by ZEFSAII (Michael W. Deem and Ramdas Pophale) SiO2 
 PCOD8175306
Probable space group: C M C 21
;
_chemical_formula_sum "Si O2"
_cell_formula_units_Z 64
_cell_length_a 8.711196
_cell_length_b 24.006219
_cell_length_c 15.400064
_cell_angle_alpha 90.000000
_cell_angle_beta 90.000000
_cell_angle_gamma 90.000000
_cell_volume 3220.505719
_symmetry_space_group_name_H-M "C M C 21"
_symmetry_group_IT_number 36
_symmetry_cell_setting 'orthorhombic'
loop_
_space_group_symop_operation_xyz
x,y,z
-x,-y,1/2+z
x,-y,1/2+z
-x,y,z
1/2+x,1/2+y,z
1/2-x,1/2-y,1/2+z
1/2+x,1/2-y,1/2+z
1/2-x,1/2+y,z
loop_
_atom_site_type_symbol
_atom_site_label
_atom_site_fract_x
_atom_site_fract_y
_atom_site_fract_z
Si Si1 0.683370 0.928468 0.827890
Si Si2 0.175082 0.765982 0.159183
Si Si3 0.172879 0.117381 0.741126
Si Si4 0.317907 0.197667 0.326299
Si Si5 0.820496 0.770355 0.487629
Si Si6 0.820044 0.625410 0.918666
Si Si7 0.182124 0.505137 0.983526
Si Si8 0.319656 0.007943 0.676397
O O1 0.500000 0.929498 0.827796
O O2 0.747712 0.865460 0.825873
O O3 0.746235 0.961211 0.742641
O O4 0.744656 0.959011 0.915456
O O5 0.182783 0.831632 0.175390
O O6 0.238013 0.730221 0.240623
O O7 0.289247 0.757280 0.079795
O O8 0.000000 0.748119 0.137473
O O9 0.225242 0.141149 0.833364
O O10 0.286703 0.068845 0.712958
O O11 0.000000 0.094036 0.746282
O O12 0.500000 0.195804 0.328715
O O13 0.257697 0.229618 0.411781
O O14 0.725521 0.827935 0.488448
O O15 0.000000 0.782358 0.475711
O O16 0.000000 0.625836 0.899351
O O17 0.764849 0.565590 0.952059
O O18 0.253284 0.496688 0.079899
O O19 0.000000 0.501168 0.988120
O O20 0.500000 0.999590 0.670122
#
# Coordination Sequence:
#
# PCOD8175306 Si02
#       8
#     8   8   8   8   8   8   8   8
#     4   9  17  32  54  82 113 144 186 236 280 332
#     4  10  22  40  59  83 115 156 198 234 287 353
#     4  11  22  39  60  84 120 156 192 242 296 348
#     4   9  19  36  57  80 115 155 189 235 293 344
#     4  11  23  39  59  89 119 151 195 244 297 348
#     4  11  21  38  63  87 114 153 199 244 291 346
#     4   9  19  33  55  88 114 141 191 242 280 334
#     4  10  20  35  59  87 112 144 192 241 286 341
#
# _framework density 19.872654000000001
#
# number of rings (size 3 to 8) (size 9 to 14) (size 15 to 20)
#    0.000    2.000    2.500    1.125    3.500    1.000 
#    0.000    1.250    0.000    1.500    0.000    0.000 
#    0.000    0.000    0.000    0.000    0.000    0.000 
#
# Total GULP energy -396820.687672 kJ/mol
# GULP energy per Si atom -12400.646490 kJ/mol
# Density = 1.982742 g / cm^3
# Si number density = 19.872654 Si / 1000 Ang^3
#
#
#
# Elastic Constant Matrix: (Units=GPa)
#
#
# Indices 1 2 3 4 5 6 
#
# 1 18.2613 17.7988 19.4054 0.0000 0.0000 0.0000
# 2 17.7988 132.1343 46.9638 0.0000 0.0000 0.0000
# 3 19.4054 46.9638 136.3440 0.0000 0.0000 0.0000
# 4 0.0000 0.0000 0.0000 28.1690 0.0000 0.0000
# 5 0.0000 0.0000 0.0000 0.0000 22.9351 0.0000
# 6 0.0000 0.0000 0.0000 0.0000 0.0000 22.6910
#
#
#
# Elastic Compliance Matrix: (Units=1/GPa)
#
#
# Indices 1 2 3 4 5 6 
#
# 1 0.069281 -0.006641 -0.007573 0.000000 0.000000 0.000000
# 2 -0.006641 0.009260 -0.002245 0.000000 0.000000 0.000000
# 3 -0.007573 -0.002245 0.009185 0.000000 0.000000 0.000000
# 4 0.000000 0.000000 0.000000 0.035500 0.000000 0.000000
# 5 0.000000 0.000000 0.000000 0.000000 0.043601 0.000000
# 6 0.000000 0.000000 0.000000 0.000000 0.000000 0.044070
#
#
# Mechanical properties :
#
#
# Convention : Reuss Voigt Hill
#
# Bulk Modulus (GPa) = 18.24493 50.56398 34.40445
# Shear Modulus (GPa) = 19.07780 28.26379 23.67079
#
# Velocity S-wave (km/s) = 3.10175 3.77536 3.45501
# Velocity P-wave (km/s) = 4.69347 6.67111 5.76768
#
# Compressibility (1/GPa) = 0.05480976
#
# Stress axis : x y z
#
# Youngs Moduli (GPa) = 14.43404 107.98726 108.86833
#
# Poissons Ratio (x) = 0.71710 0.82448
# Poissons Ratio (y) = 0.09585 0.24437
# Poissons Ratio (z) = 0.10931 0.24239
#
# Static dielectric constant tensor:
#      x y z
#    x 3.134290 0.000000 0.000000 
#    y 0.000000 3.718150 0.000000 
#    z 0.000000 0.000000 3.831440 
# 
# 
# High freq. dielectric constant tensor:
#      x y z
#    x 1.730310 0.000000 0.000000 
#    y 0.000000 1.786600 0.000000 
#    z 0.000000 0.000000 1.785270 
# 
# From -- ./inp_files/10955.got.cif
#   From: 2010.03.12/outbox.cif.g09.slc.cpg/sg36_6_cif.got.tgz:10955.got - 2010.04.14 02:13:53.
