data_PCOD8175070
_publ_section_title
;
Structure prediction by ZEFSAII (Michael W. Deem and Ramdas Pophale) SiO2 
 PCOD8175070
Probable space group: C M C 21
;
_chemical_formula_sum "Si O2"
_cell_formula_units_Z 64
_cell_length_a 8.935089
_cell_length_b 19.725446
_cell_length_c 20.302496
_cell_angle_alpha 90.000000
_cell_angle_beta 90.000000
_cell_angle_gamma 90.000000
_cell_volume 3578.286813
_symmetry_space_group_name_H-M "C M C 21"
_symmetry_group_IT_number 36
_symmetry_cell_setting 'orthorhombic'
loop_
_space_group_symop_operation_xyz
x,y,z
-x,-y,1/2+z
x,-y,1/2+z
-x,y,z
1/2+x,1/2+y,z
1/2-x,1/2-y,1/2+z
1/2+x,1/2-y,1/2+z
1/2-x,1/2+y,z
loop_
_atom_site_type_symbol
_atom_site_label
_atom_site_fract_x
_atom_site_fract_y
_atom_site_fract_z
Si Si1 0.676199 0.827291 0.740730
Si Si2 0.175782 0.828495 0.236708
Si Si3 0.326094 0.325783 0.875000
Si Si4 0.677211 0.573922 0.489639
Si Si5 0.676778 0.079396 0.627826
Si Si6 0.324307 0.073902 0.130400
Si Si7 0.676782 0.933317 0.483630
Si Si8 0.174443 0.670839 0.871344
O O1 0.500000 0.836434 0.745484
O O2 0.719714 0.749807 0.725790
O O3 0.742269 0.851711 0.810024
O O4 0.747515 0.873950 0.682876
O O5 0.261509 0.870151 0.181871
O O6 0.230860 0.852818 0.308279
O O7 0.000000 0.841281 0.230482
O O8 0.500000 0.335263 0.861173
O O9 0.286319 0.247792 0.890790
O O10 0.273366 0.370071 0.936644
O O11 0.500000 0.569925 0.498169
O O12 0.749403 0.597030 0.558140
O O13 0.739190 0.502150 0.464268
O O14 0.500000 0.087837 0.620844
O O15 0.720289 0.002918 0.648943
O O16 0.500000 0.083909 0.133438
O O17 0.269482 0.090646 0.056241
O O18 0.500000 0.948155 0.483553
O O19 0.722964 0.875403 0.432543
O O20 0.000000 0.662092 0.854501
#
# Coordination Sequence:
#
# PCOD8175070 Si02
#       8
#     8   8   8   8   8   8   8   8
#     4   9  18  33  53  74  98 130 167 207 248 292
#     4  10  20  33  51  76 104 131 161 205 257 300
#     4   9  19  34  51  73 101 132 166 204 246 293
#     4  10  20  34  52  75 103 132 163 206 257 301
#     4  10  20  35  54  74  99 132 169 207 245 297
#     4   8  16  32  52  73  95 124 167 210 243 284
#     4   9  18  33  53  74  97 130 170 208 245 292
#     4   9  18  34  54  73  97 133 173 207 241 291
#
# _framework density 17.885653999999999
#
# number of rings (size 3 to 8) (size 9 to 14) (size 15 to 20)
#    0.000    2.750    0.000    1.875    0.000    4.000 
#    0.000   10.625    0.000    3.000    0.000    0.000 
#    0.000    0.000    0.000    0.000    0.000    0.000 
#
# Total GULP energy -396805.239028 kJ/mol
# GULP energy per Si atom -12400.163720 kJ/mol
# Density = 1.784495 g / cm^3
# Si number density = 17.885654 Si / 1000 Ang^3
#
#
#
# Elastic Constant Matrix: (Units=GPa)
#
#
# Indices 1 2 3 4 5 6 
#
# 1 48.5308 41.6349 54.7278 0.0000 0.0000 0.0000
# 2 41.6349 108.5970 104.5957 0.0000 0.0000 0.0000
# 3 54.7278 104.5957 159.3683 0.0000 0.0000 0.0000
# 4 0.0000 0.0000 0.0000 40.5114 0.0000 0.0000
# 5 0.0000 0.0000 0.0000 0.0000 32.2316 0.0000
# 6 0.0000 0.0000 0.0000 0.0000 0.0000 26.2157
#
#
#
# Elastic Compliance Matrix: (Units=1/GPa)
#
#
# Indices 1 2 3 4 5 6 
#
# 1 0.034579 -0.004948 -0.008627 0.000000 0.000000 0.000000
# 2 -0.004948 0.025740 -0.015194 0.000000 0.000000 0.000000
# 3 -0.008627 -0.015194 0.019210 0.000000 0.000000 0.000000
# 4 0.000000 0.000000 0.000000 0.024684 0.000000 0.000000
# 5 0.000000 0.000000 0.000000 0.000000 0.031025 0.000000
# 6 0.000000 0.000000 0.000000 0.000000 0.000000 0.038145
#
#
# Mechanical properties :
#
#
# Convention : Reuss Voigt Hill
#
# Bulk Modulus (GPa) = 45.47572 79.82366 62.64969
# Shear Modulus (GPa) = 20.98615 27.49423 24.24019
#
# Velocity S-wave (km/s) = 3.42914 3.92500 3.68542
# Velocity P-wave (km/s) = 6.41558 8.07884 7.29477
#
# Compressibility (1/GPa) = 0.02198976
#
# Stress axis : x y z
#
# Youngs Moduli (GPa) = 28.91910 38.85047 52.05724
#
# Poissons Ratio (x) = 0.19223 0.44911
# Poissons Ratio (y) = 0.14309 0.79097
# Poissons Ratio (z) = 0.24949 0.59030
#
# Static dielectric constant tensor:
#      x y z
#    x 3.200540 0.000000 0.000000 
#    y 0.000000 3.430320 0.000000 
#    z 0.000000 0.000000 3.508390 
# 
# 
# High freq. dielectric constant tensor:
#      x y z
#    x 1.682170 0.000000 0.000000 
#    y 0.000000 1.691650 0.000000 
#    z 0.000000 0.000000 1.699950 
# 
# From -- ./inp_files/13832.got.cif
#   From: 2010.03.12/outbox.cif.g09.slc.cpg/sg36_7_cif.got.tgz:13832.got - 2010.04.14 02:13:53.
