data_PCOD8175209
_publ_section_title
;
Structure prediction by ZEFSAII (Michael W. Deem and Ramdas Pophale) SiO2 
 PCOD8175209
Probable space group: C M C 21
;
_chemical_formula_sum "Si O2"
_cell_formula_units_Z 56
_cell_length_a 16.574896
_cell_length_b 20.234251
_cell_length_c 9.382700
_cell_angle_alpha 90.000000
_cell_angle_beta 90.000000
_cell_angle_gamma 90.000000
_cell_volume 3146.775612
_symmetry_space_group_name_H-M "C M C 21"
_symmetry_group_IT_number 36
_symmetry_cell_setting 'orthorhombic'
loop_
_space_group_symop_operation_xyz
x,y,z
-x,-y,1/2+z
x,-y,1/2+z
-x,y,z
1/2+x,1/2+y,z
1/2-x,1/2-y,1/2+z
1/2+x,1/2-y,1/2+z
1/2-x,1/2+y,z
loop_
_atom_site_type_symbol
_atom_site_label
_atom_site_fract_x
_atom_site_fract_y
_atom_site_fract_z
Si Si1 0.727244 0.940866 0.945420
Si Si2 0.405932 0.259101 0.296639
Si Si3 0.784636 0.653279 0.192014
Si Si4 0.907661 0.614202 0.653078
Si Si5 0.695880 0.352096 0.140801
Si Si6 0.330289 0.755437 0.088518
Si Si7 0.797942 0.590338 0.892203
O O1 0.729321 0.911162 0.787323
O O2 0.735787 0.018773 0.932619
O O3 0.645994 0.919268 0.028907
O O4 0.806302 0.915590 0.036029
O O5 0.500000 0.244932 0.303954
O O6 0.361358 0.192491 0.251241
O O7 0.389177 0.318756 0.183362
O O8 0.370782 0.278469 0.451127
O O9 0.701800 0.696938 0.192197
O O10 0.809036 0.632585 0.033527
O O11 0.894806 0.694066 0.659175
O O12 0.882905 0.584138 0.807161
O O13 0.000000 0.597123 0.621189
O O14 0.750337 0.298949 0.052530
O O15 0.737054 0.370818 0.290046
#
# Coordination Sequence:
#
# PCOD8175209 Si02
#       7
#     8   8   8   8   8   8   8
#     4  10  20  35  55  76 104 143 188 222 258 316
#     4  11  20  33  56  84 111 140 175 226 284 322
#     4  11  19  33  56  82 102 139 190 222 255 328
#     4  10  21  35  49  75 116 145 169 220 277 320
#     4   9  19  35  53  81 103 140 181 226 262 314
#     4   9  18  32  54  74 107 140 176 221 266 321
#     4  10  20  35  54  76 105 143 191 215 255 313
#
# _framework density 17.795992999999999
#
# number of rings (size 3 to 8) (size 9 to 14) (size 15 to 20)
#    0.000    2.286    4.286    2.143    0.000    1.143 
#    0.000    1.429    0.000    1.714    0.000    0.000 
#    0.000    0.000    0.000    0.000    0.000    0.000 
#
# Total GULP energy -346938.093359 kJ/mol
# GULP energy per Si atom -12390.646191 kJ/mol
# Density = 1.775549 g / cm^3
# Si number density = 17.795993 Si / 1000 Ang^3
#
#
#
# Elastic Constant Matrix: (Units=GPa)
#
#
# Indices 1 2 3 4 5 6 
#
# 1 59.0921 20.4958 19.8844 0.0000 0.0000 0.0000
# 2 20.4958 60.0317 7.7560 0.0000 0.0000 0.0000
# 3 19.8844 7.7560 79.8674 0.0000 0.0000 0.0000
# 4 0.0000 0.0000 0.0000 29.9001 0.0000 0.0000
# 5 0.0000 0.0000 0.0000 0.0000 18.8776 0.0000
# 6 0.0000 0.0000 0.0000 0.0000 0.0000 13.3772
#
#
#
# Elastic Compliance Matrix: (Units=1/GPa)
#
#
# Indices 1 2 3 4 5 6 
#
# 1 0.020692 -0.006480 -0.004522 0.000000 0.000000 0.000000
# 2 -0.006480 0.018899 -0.000222 0.000000 0.000000 0.000000
# 3 -0.004522 -0.000222 0.013668 0.000000 0.000000 0.000000
# 4 0.000000 0.000000 0.000000 0.033445 0.000000 0.000000
# 5 0.000000 0.000000 0.000000 0.000000 0.052973 0.000000
# 6 0.000000 0.000000 0.000000 0.000000 0.000000 0.074754
#
#
# Mechanical properties :
#
#
# Convention : Reuss Voigt Hill
#
# Bulk Modulus (GPa) = 32.45681 32.80707 32.63194
# Shear Modulus (GPa) = 20.23062 22.48799 21.35930
#
# Velocity S-wave (km/s) = 3.37532 3.55865 3.46819
# Velocity P-wave (km/s) = 5.78517 5.94646 5.86637
#
# Compressibility (1/GPa) = 0.03081017
#
# Stress axis : x y z
#
# Youngs Moduli (GPa) = 48.32745 52.91277 73.16242
#
# Poissons Ratio (x) = 0.34289 0.33087
# Poissons Ratio (y) = 0.31318 0.01624
# Poissons Ratio (z) = 0.21855 0.01174
#
# Static dielectric constant tensor:
#      x y z
#    x 2.977460 0.000000 0.000000 
#    y 0.000000 3.395520 0.000000 
#    z 0.000000 0.000000 3.468690 
# 
# 
# High freq. dielectric constant tensor:
#      x y z
#    x 1.642200 0.000000 0.000000 
#    y 0.000000 1.686520 0.000000 
#    z 0.000000 0.000000 1.699230 
# 
# From -- ./inp_files/4892.got.cif
#   From: 2010.03.12/outbox.cif.g09.slc.cpg/sg36_3_cif.got.tgz:4892.got - 2010.04.14 02:13:53.
