data_PCOD8175100
_publ_section_title
;
Structure prediction by ZEFSAII (Michael W. Deem and Ramdas Pophale) SiO2 
 PCOD8175100
Probable space group: C M C 21
;
_chemical_formula_sum "Si O2"
_cell_formula_units_Z 64
_cell_length_a 8.948806
_cell_length_b 19.796622
_cell_length_c 19.596977
_cell_angle_alpha 90.000000
_cell_angle_beta 90.000000
_cell_angle_gamma 90.000000
_cell_volume 3471.724600
_symmetry_space_group_name_H-M "C M C 21"
_symmetry_group_IT_number 36
_symmetry_cell_setting 'orthorhombic'
loop_
_space_group_symop_operation_xyz
x,y,z
-x,-y,1/2+z
x,-y,1/2+z
-x,y,z
1/2+x,1/2+y,z
1/2-x,1/2-y,1/2+z
1/2+x,1/2-y,1/2+z
1/2-x,1/2+y,z
loop_
_atom_site_type_symbol
_atom_site_label
_atom_site_fract_x
_atom_site_fract_y
_atom_site_fract_z
Si Si1 0.172153 0.267192 0.472060
Si Si2 0.328657 0.919463 0.453339
Si Si3 0.826709 0.273412 0.833766
Si Si4 0.829850 0.906984 0.842196
Si Si5 0.172337 0.049560 0.496314
Si Si6 0.171283 0.169971 0.714180
Si Si7 0.327733 0.555278 0.815861
Si Si8 0.675877 0.833839 0.073673
O O1 0.190271 0.346500 0.488326
O O2 0.228640 0.251403 0.396603
O O3 0.265250 0.227037 0.527745
O O4 0.000000 0.244191 0.476380
O O5 0.500000 0.942469 0.451510
O O6 0.271216 0.913977 0.376010
O O7 0.237262 0.973874 0.497332
O O8 0.781068 0.349826 0.814353
O O9 0.791530 0.227154 0.769196
O O10 0.000000 0.270084 0.854159
O O11 0.803620 0.916702 0.922746
O O12 0.000000 0.885421 0.827506
O O13 0.789754 0.976573 0.803143
O O14 0.255677 0.094462 0.552114
O O15 0.000000 0.045331 0.516641
O O16 0.202571 0.096383 0.746846
O O17 0.280855 0.181170 0.651362
O O18 0.000000 0.175461 0.689458
O O19 0.500000 0.562469 0.839675
O O20 0.500000 0.837795 0.065930
#
# Coordination Sequence:
#
# PCOD8175100 Si02
#       8
#     8   8   8   8   8   8   8   8
#     4  11  22  37  58  85 119 156 192 241 297 345
#     4  10  20  33  56  88 117 145 187 241 286 334
#     4  11  21  34  58  87 115 151 194 242 287 343
#     4   9  18  32  55  84 114 145 183 233 284 337
#     4  10  20  36  58  83 115 152 187 233 291 348
#     4  10  22  40  59  81 114 156 198 239 294 354
#     4   9  18  35  57  81 111 151 190 229 283 346
#     4  12  25  39  59  85 115 154 201 246 292 353
#
# _framework density 18.434642
#
# number of rings (size 3 to 8) (size 9 to 14) (size 15 to 20)
#    0.000    1.750    2.500    3.375    0.000    5.000 
#    0.000    1.250    0.000    3.000    0.000    0.000 
#    0.000    0.000    0.000    0.000    0.000    0.000 
#
# Total GULP energy -396919.012064 kJ/mol
# GULP energy per Si atom -12403.719127 kJ/mol
# Density = 1.839268 g / cm^3
# Si number density = 18.434642 Si / 1000 Ang^3
#
#
#
# Elastic Constant Matrix: (Units=GPa)
#
#
# Indices 1 2 3 4 5 6 
#
# 1 128.5793 60.7890 53.7510 0.0000 0.0000 0.0000
# 2 60.7890 117.3468 47.7990 0.0000 0.0000 0.0000
# 3 53.7510 47.7990 85.4204 0.0000 0.0000 0.0000
# 4 0.0000 0.0000 0.0000 18.8131 0.0000 0.0000
# 5 0.0000 0.0000 0.0000 0.0000 29.9671 0.0000
# 6 0.0000 0.0000 0.0000 0.0000 0.0000 32.9891
#
#
#
# Elastic Compliance Matrix: (Units=1/GPa)
#
#
# Indices 1 2 3 4 5 6 
#
# 1 0.011856 -0.004019 -0.005212 0.000000 0.000000 0.000000
# 2 -0.004019 0.012400 -0.004410 0.000000 0.000000 0.000000
# 3 -0.005212 -0.004410 0.017454 0.000000 0.000000 0.000000
# 4 0.000000 0.000000 0.000000 0.053154 0.000000 0.000000
# 5 0.000000 0.000000 0.000000 0.000000 0.033370 0.000000
# 6 0.000000 0.000000 0.000000 0.000000 0.000000 0.030313
#
#
# Mechanical properties :
#
#
# Convention : Reuss Voigt Hill
#
# Bulk Modulus (GPa) = 69.30366 72.89161 71.09764
# Shear Modulus (GPa) = 26.22786 27.62104 26.92445
#
# Velocity S-wave (km/s) = 3.77603 3.87502 3.82584
# Velocity P-wave (km/s) = 7.52908 7.72317 7.62674
#
# Compressibility (1/GPa) = 0.01442925
#
# Stress axis : x y z
#
# Youngs Moduli (GPa) = 84.34591 80.64601 57.29437
#
# Poissons Ratio (x) = 0.32411 0.29859
# Poissons Ratio (y) = 0.33898 0.25265
# Poissons Ratio (z) = 0.43957 0.35563
#
# Static dielectric constant tensor:
#      x y z
#    x 3.466810 0.000000 0.000000 
#    y 0.000000 3.677100 0.000000 
#    z 0.000000 0.000000 3.137430 
# 
# 
# High freq. dielectric constant tensor:
#      x y z
#    x 1.723510 0.000000 0.000000 
#    y 0.000000 1.731510 0.000000 
#    z 0.000000 0.000000 1.682750 
# 
# From -- ./inp_files/13847.got.cif
#   From: 2010.03.12/outbox.cif.g09.slc.cpg/sg36_7_cif.got.tgz:13847.got - 2010.04.14 02:13:53.
