data_PCOD8175558
_publ_section_title
;
Structure prediction by ZEFSAII (Michael W. Deem and Ramdas Pophale) SiO2 
 PCOD8175558
Probable space group: C M C 21
;
_chemical_formula_sum "Si O2"
_cell_formula_units_Z 64
_cell_length_a 8.955028
_cell_length_b 28.246172
_cell_length_c 12.460696
_cell_angle_alpha 90.000000
_cell_angle_beta 90.000000
_cell_angle_gamma 90.000000
_cell_volume 3151.874004
_symmetry_space_group_name_H-M "C M C 21"
_symmetry_group_IT_number 36
_symmetry_cell_setting 'orthorhombic'
loop_
_space_group_symop_operation_xyz
x,y,z
-x,-y,1/2+z
x,-y,1/2+z
-x,y,z
1/2+x,1/2+y,z
1/2-x,1/2-y,1/2+z
1/2+x,1/2-y,1/2+z
1/2-x,1/2+y,z
loop_
_atom_site_type_symbol
_atom_site_label
_atom_site_fract_x
_atom_site_fract_y
_atom_site_fract_z
Si Si1 0.825050 0.221403 0.250000
Si Si2 0.672563 0.033131 0.543202
Si Si3 0.837686 0.316803 0.937266
Si Si4 0.172558 0.569260 0.963683
Si Si5 0.322350 0.416639 0.243980
Si Si6 0.164503 0.583539 0.331667
Si Si7 0.176297 0.124579 0.141194
Si Si8 0.322986 0.823527 0.174535
O O1 0.766422 0.218849 0.371872
O O2 0.771642 0.177548 0.175396
O O3 0.767716 0.271119 0.204737
O O4 0.000000 0.219760 0.257098
O O5 0.500000 0.049252 0.557331
O O6 0.766237 0.053602 0.641812
O O7 0.733610 0.053029 0.429137
O O8 0.689095 0.976759 0.539139
O O9 0.856400 0.363348 0.868851
O O10 0.000000 0.292432 0.954535
O O11 0.770304 0.330413 0.052110
O O12 0.257854 0.559998 0.852039
O O13 0.000000 0.580467 0.938961
O O14 0.244804 0.613117 0.028141
O O15 0.500000 0.417704 0.246142
O O16 0.264365 0.362602 0.242815
O O17 0.274066 0.585109 0.229348
O O18 0.000000 0.563243 0.298339
O O19 0.000000 0.120961 0.126510
O O20 0.500000 0.830552 0.191052
#
# Coordination Sequence:
#
# PCOD8175558 Si02
#       8
#     8   8   8   8   8   8   8   8
#     4   9  20  36  58  87 121 161 205 253 309 366
#     4  10  22  42  66  89 117 159 210 252 294 364
#     4   9  17  32  56  82 112 151 200 252 301 354
#     4  11  25  43  65  90 123 169 212 250 300 371
#     4  12  26  42  63  94 129 159 198 257 320 368
#     4   9  17  34  60  86 110 150 204 254 298 356
#     4  10  21  38  58  89 130 162 199 257 315 362
#     4  10  20  39  62  85 118 163 208 251 301 367
#
# _framework density 20.305381000000001
#
# number of rings (size 3 to 8) (size 9 to 14) (size 15 to 20)
#    0.000    2.000    1.250    1.875    1.750    4.000 
#    0.000    1.250    0.000    0.000    0.000    0.000 
#    0.000    0.000    0.000    0.000    0.000    0.000 
#
# Total GULP energy -396741.618226 kJ/mol
# GULP energy per Si atom -12398.175570 kJ/mol
# Density = 2.025916 g / cm^3
# Si number density = 20.305381 Si / 1000 Ang^3
#
#
#
# Elastic Constant Matrix: (Units=GPa)
#
#
# Indices 1 2 3 4 5 6 
#
# 1 85.9250 44.6723 44.5536 0.0000 0.0000 0.0000
# 2 44.6723 79.4313 31.9168 0.0000 0.0000 0.0000
# 3 44.5536 31.9168 92.4897 0.0000 0.0000 0.0000
# 4 0.0000 0.0000 0.0000 24.3101 0.0000 0.0000
# 5 0.0000 0.0000 0.0000 0.0000 33.9748 0.0000
# 6 0.0000 0.0000 0.0000 0.0000 0.0000 23.8857
#
#
#
# Elastic Compliance Matrix: (Units=1/GPa)
#
#
# Indices 1 2 3 4 5 6 
#
# 1 0.019261 -0.008248 -0.006432 0.000000 0.000000 0.000000
# 2 -0.008248 0.018148 -0.002289 0.000000 0.000000 0.000000
# 3 -0.006432 -0.002289 0.014701 0.000000 0.000000 0.000000
# 4 0.000000 0.000000 0.000000 0.041135 0.000000 0.000000
# 5 0.000000 0.000000 0.000000 0.000000 0.029434 0.000000
# 6 0.000000 0.000000 0.000000 0.000000 0.000000 0.041866
#
#
# Mechanical properties :
#
#
# Convention : Reuss Voigt Hill
#
# Bulk Modulus (GPa) = 55.03375 55.57017 55.30196
# Shear Modulus (GPa) = 24.44494 25.54769 24.99632
#
# Velocity S-wave (km/s) = 3.47344 3.55092 3.51239
# Velocity P-wave (km/s) = 6.57634 6.65122 6.61389
#
# Compressibility (1/GPa) = 0.01817067
#
# Stress axis : x y z
#
# Youngs Moduli (GPa) = 51.91713 55.10193 68.02461
#
# Poissons Ratio (x) = 0.45449 0.43755
# Poissons Ratio (y) = 0.42822 0.15574
# Poissons Ratio (z) = 0.33394 0.12615
#
# Static dielectric constant tensor:
#      x y z
#    x 3.713140 0.000000 0.000000 
#    y 0.000000 3.728930 0.000000 
#    z 0.000000 0.000000 3.740830 
# 
# 
# High freq. dielectric constant tensor:
#      x y z
#    x 1.780230 0.000000 0.000000 
#    y 0.000000 1.787700 0.000000 
#    z 0.000000 0.000000 1.798670 
# 
# From -- ./inp_files/7154.got.cif
#   From: 2010.03.12/outbox.cif.g09.slc.cpg/sg36_4_cif.got.tgz:7154.got - 2010.04.14 02:13:53.
