data_PCOD8175936
_publ_section_title
;
Structure prediction by ZEFSAII (Michael W. Deem and Ramdas Pophale) SiO2 
 PCOD8175936
Probable space group: C M C 21
;
_chemical_formula_sum "Si O2"
_cell_formula_units_Z 40
_cell_length_a 15.464729
_cell_length_b 9.252739
_cell_length_c 13.027483
_cell_angle_alpha 90.000000
_cell_angle_beta 90.000000
_cell_angle_gamma 90.000000
_cell_volume 1864.116888
_symmetry_space_group_name_H-M "C M C 21"
_symmetry_group_IT_number 36
_symmetry_cell_setting 'orthorhombic'
loop_
_space_group_symop_operation_xyz
x,y,z
-x,-y,1/2+z
x,-y,1/2+z
-x,y,z
1/2+x,1/2+y,z
1/2-x,1/2-y,1/2+z
1/2+x,1/2-y,1/2+z
1/2-x,1/2+y,z
loop_
_atom_site_type_symbol
_atom_site_label
_atom_site_fract_x
_atom_site_fract_y
_atom_site_fract_z
Si Si1 0.500000 0.818959 0.664820
Si Si2 0.000000 0.086014 0.841611
Si Si3 0.500000 0.866548 0.240657
Si Si4 0.000000 0.159392 0.065371
Si Si5 0.864126 0.163256 0.334659
Si Si6 0.315965 0.450830 0.634414
Si Si7 0.675826 0.246901 0.058139
O O1 0.500000 0.682934 0.740493
O O2 0.417003 0.817520 0.590262
O O3 0.500000 0.960706 0.736989
O O4 0.918335 0.982770 0.844055
O O5 0.000000 0.185550 0.943565
O O6 0.500000 0.813266 0.122165
O O7 0.416685 0.805539 0.300173
O O8 0.915887 0.069665 0.100968
O O9 0.795653 0.120422 0.245829
O O10 0.820767 0.193963 0.442575
O O11 0.297978 0.621899 0.633765
O O12 0.248605 0.375659 0.558014
#
# Coordination Sequence:
#
# PCOD8175936 Si02
#       7
#     4   4   4   4   8   8   8
#     4  12  25  44  69 103 140 188 236 284 342 421
#     4  11  19  40  79  98 126 193 243 264 345 427
#     4   9  23  41  67 104 139 177 226 297 336 399
#     4  10  21  43  71  95 137 184 227 277 347 405
#     4  10  22  44  71  98 139 181 228 289 349 406
#     4  11  25  44  69 102 137 181 232 283 342 418
#     4  12  26  44  72 103 140 183 232 285 348 420
#
# _framework density 21.457882000000001
#
# number of rings (size 3 to 8) (size 9 to 14) (size 15 to 20)
#    0.000    1.200    4.000    2.400    5.600    4.800 
#    0.000    0.000    0.000    0.000    0.000    0.000 
#    0.000    0.000    0.000    0.000    0.000    0.000 
#
# Total GULP energy -247983.258514 kJ/mol
# GULP energy per Si atom -12399.162926 kJ/mol
# Density = 2.140904 g / cm^3
# Si number density = 21.457882 Si / 1000 Ang^3
#
#
#
# Elastic Constant Matrix: (Units=GPa)
#
#
# Indices 1 2 3 4 5 6 
#
# 1 94.1386 39.6589 16.8375 0.0000 0.0000 0.0000
# 2 39.6589 108.4910 15.3587 0.0000 0.0000 0.0000
# 3 16.8375 15.3587 107.8774 0.0000 0.0000 0.0000
# 4 0.0000 0.0000 0.0000 31.1184 0.0000 0.0000
# 5 0.0000 0.0000 0.0000 0.0000 4.1634 0.0000
# 6 0.0000 0.0000 0.0000 0.0000 0.0000 136.4438
#
#
#
# Elastic Compliance Matrix: (Units=1/GPa)
#
#
# Indices 1 2 3 4 5 6 
#
# 1 0.012747 -0.004468 -0.001353 0.000000 0.000000 0.000000
# 2 -0.004468 0.010973 -0.000865 0.000000 0.000000 0.000000
# 3 -0.001353 -0.000865 0.009604 0.000000 0.000000 0.000000
# 4 0.000000 0.000000 0.000000 0.032135 0.000000 0.000000
# 5 0.000000 0.000000 0.000000 0.000000 0.240186 0.000000
# 6 0.000000 0.000000 0.000000 0.000000 0.000000 0.007329
#
#
# Mechanical properties :
#
#
# Convention : Reuss Voigt Hill
#
# Bulk Modulus (GPa) = 50.12151 50.46857 50.29504
# Shear Modulus (GPa) = 15.01512 50.25526 32.63519
#
# Velocity S-wave (km/s) = 2.64815 4.84471 3.90410
# Velocity P-wave (km/s) = 5.72355 7.40715 6.61910
#
# Compressibility (1/GPa) = 0.01995151
#
# Stress axis : x y z
#
# Youngs Moduli (GPa) = 78.44971 91.13200 104.12155
#
# Poissons Ratio (x) = 0.40718 0.14092
# Poissons Ratio (y) = 0.35052 0.09005
# Poissons Ratio (z) = 0.10618 0.07882
#
# Static dielectric constant tensor:
#      x y z
#    x 3.764430 0.000000 0.000000 
#    y 0.000000 3.762130 0.000000 
#    z 0.000000 0.000000 4.154300 
# 
# 
# High freq. dielectric constant tensor:
#      x y z
#    x 1.826350 0.000000 0.000000 
#    y 0.000000 1.839980 0.000000 
#    z 0.000000 0.000000 1.851030 
# 
# From -- ./inp_files/8801.got.cif
#   From: 2010.03.12/outbox.cif.g09.slc.cpg/sg36_5_cif.got.tgz:8801.got - 2010.04.14 02:13:53.
