data_PCOD8175710
_publ_section_title
;
Structure prediction by ZEFSAII (Michael W. Deem and Ramdas Pophale) SiO2 
 PCOD8175710
Probable space group: C M C 21
;
_chemical_formula_sum "Si O2"
_cell_formula_units_Z 48
_cell_length_a 25.942298
_cell_length_b 9.766267
_cell_length_c 8.902165
_cell_angle_alpha 90.000000
_cell_angle_beta 90.000000
_cell_angle_gamma 90.000000
_cell_volume 2255.447262
_symmetry_space_group_name_H-M "C M C 21"
_symmetry_group_IT_number 36
_symmetry_cell_setting 'orthorhombic'
loop_
_space_group_symop_operation_xyz
x,y,z
-x,-y,1/2+z
x,-y,1/2+z
-x,y,z
1/2+x,1/2+y,z
1/2-x,1/2-y,1/2+z
1/2+x,1/2-y,1/2+z
1/2-x,1/2+y,z
loop_
_atom_site_type_symbol
_atom_site_label
_atom_site_fract_x
_atom_site_fract_y
_atom_site_fract_z
Si Si1 0.276152 0.105431 0.035270
Si Si2 0.391494 0.856567 0.547614
Si Si3 0.275205 0.622911 0.351336
Si Si4 0.941425 0.855730 0.628602
Si Si5 0.890400 0.068136 0.428839
Si Si6 0.058573 0.567782 0.745136
O O1 0.238344 0.125476 0.175800
O O2 0.334335 0.098283 0.095958
O O3 0.270674 0.224700 0.913388
O O4 0.263764 0.966612 0.948685
O O5 0.396968 0.691800 0.549530
O O6 0.402347 0.912760 0.381425
O O7 0.430848 0.922921 0.665643
O O8 0.332632 0.562335 0.364998
O O9 0.930629 0.910482 0.795384
O O10 0.932875 0.691441 0.625648
O O11 0.000000 0.893793 0.586808
O O12 0.902958 0.925055 0.509687
O O13 0.000000 0.569117 0.805794
#
# Coordination Sequence:
#
# PCOD8175710 Si02
#       6
#     8   8   8   8   8   8
#     4  11  23  40  62  89 121 159 203 249 300 358
#     4  10  22  39  59  86 117 153 195 240 292 348
#     4  11  23  39  61  89 121 159 202 249 301 357
#     4  10  21  37  58  84 116 154 195 240 289 345
#     4  10  22  39  58  85 118 153 194 241 293 347
#     4  10  21  38  60  87 119 154 193 239 291 349
#
# _framework density 21.281811000000001
#
# number of rings (size 3 to 8) (size 9 to 14) (size 15 to 20)
#    0.000    1.667    0.000    4.000    0.000    8.667 
#    0.000    0.000    0.000    0.000    0.000    0.000 
#    0.000    0.000    0.000    0.000    0.000    0.000 
#
# Total GULP energy -297721.969929 kJ/mol
# GULP energy per Si atom -12405.082080 kJ/mol
# Density = 2.123337 g / cm^3
# Si number density = 21.281811 Si / 1000 Ang^3
#
#
#
# Elastic Constant Matrix: (Units=GPa)
#
#
# Indices 1 2 3 4 5 6 
#
# 1 99.0868 30.4092 22.3636 0.0000 0.0000 0.0000
# 2 30.4092 40.2136 2.2730 0.0000 0.0000 0.0000
# 3 22.3636 2.2730 53.5580 0.0000 0.0000 0.0000
# 4 0.0000 0.0000 0.0000 29.8404 0.0000 0.0000
# 5 0.0000 0.0000 0.0000 0.0000 37.6133 0.0000
# 6 0.0000 0.0000 0.0000 0.0000 0.0000 32.6312
#
#
#
# Elastic Compliance Matrix: (Units=1/GPa)
#
#
# Indices 1 2 3 4 5 6 
#
# 1 0.014681 -0.010781 -0.005673 0.000000 0.000000 0.000000
# 2 -0.010781 0.032844 0.003108 0.000000 0.000000 0.000000
# 3 -0.005673 0.003108 0.020908 0.000000 0.000000 0.000000
# 4 0.000000 0.000000 0.000000 0.033512 0.000000 0.000000
# 5 0.000000 0.000000 0.000000 0.000000 0.026586 0.000000
# 6 0.000000 0.000000 0.000000 0.000000 0.000000 0.030646
#
#
# Mechanical properties :
#
#
# Convention : Reuss Voigt Hill
#
# Bulk Modulus (GPa) = 23.95698 33.66110 28.80904
# Shear Modulus (GPa) = 25.02720 29.20447 27.11584
#
# Velocity S-wave (km/s) = 3.43299 3.70844 3.57337
# Velocity P-wave (km/s) = 5.19571 5.84704 5.53097
#
# Compressibility (1/GPa) = 0.04174148
#
# Stress axis : x y z
#
# Youngs Moduli (GPa) = 68.11470 30.44685 47.82831
#
# Poissons Ratio (x) = 0.32825 0.27131
# Poissons Ratio (y) = 0.73435 -0.14864
# Poissons Ratio (z) = 0.38639 -0.09462
#
# Static dielectric constant tensor:
#      x y z
#    x 3.883620 0.000000 0.000000 
#    y 0.000000 3.918770 0.000000 
#    z 0.000000 0.000000 3.587230 
# 
# 
# High freq. dielectric constant tensor:
#      x y z
#    x 1.844830 0.000000 0.000000 
#    y 0.000000 1.837290 0.000000 
#    z 0.000000 0.000000 1.824660 
# 
# From -- ./inp_files/5983.got.cif
#   From: 2010.03.12/outbox.cif.g09.slc.cpg/sg36_3_cif.got.tgz:5983.got - 2010.04.14 02:13:53.
