data_PCOD8175169
_publ_section_title
;
Structure prediction by ZEFSAII (Michael W. Deem and Ramdas Pophale) SiO2 
 PCOD8175169
Probable space group: C M C 21
;
_chemical_formula_sum "Si O2"
_cell_formula_units_Z 48
_cell_length_a 8.424267
_cell_length_b 30.514183
_cell_length_c 9.338314
_cell_angle_alpha 90.000000
_cell_angle_beta 90.000000
_cell_angle_gamma 90.000000
_cell_volume 2400.503494
_symmetry_space_group_name_H-M "C M C 21"
_symmetry_group_IT_number 36
_symmetry_cell_setting 'orthorhombic'
loop_
_space_group_symop_operation_xyz
x,y,z
-x,-y,1/2+z
x,-y,1/2+z
-x,y,z
1/2+x,1/2+y,z
1/2-x,1/2-y,1/2+z
1/2+x,1/2-y,1/2+z
1/2-x,1/2+y,z
loop_
_atom_site_type_symbol
_atom_site_label
_atom_site_fract_x
_atom_site_fract_y
_atom_site_fract_z
Si Si1 0.182955 0.790371 0.662610
Si Si2 0.685402 0.882610 0.645567
Si Si3 0.314609 0.210874 0.466604
Si Si4 0.683061 0.461053 0.482424
Si Si5 0.685473 0.963087 0.168198
Si Si6 0.814435 0.613335 0.468686
O O1 0.285124 0.831672 0.608426
O O2 0.210490 0.780058 0.827816
O O3 0.237931 0.746649 0.581334
O O4 0.000000 0.800901 0.633393
O O5 0.500000 0.892815 0.631603
O O6 0.780853 0.911640 0.532030
O O7 0.750992 0.892333 0.806432
O O8 0.500000 0.213666 0.425409
O O9 0.276118 0.162137 0.526790
O O10 0.500000 0.472522 0.507658
O O11 0.791067 0.493018 0.577172
O O12 0.721354 0.466566 0.315968
O O13 0.500000 0.956682 0.201677
O O14 0.758706 0.922382 0.077043
O O15 0.000000 0.604502 0.460957
#
# Coordination Sequence:
#
# PCOD8175169 Si02
#       6
#     8   8   8   8   8   8
#     4  10  20  34  55  84 115 148 190 238 285 334
#     4  10  20  38  61  83 111 150 193 236 288 348
#     4   9  19  36  55  79 113 150 189 233 282 337
#     4  12  25  40  58  86 120 150 187 239 292 338
#     4  11  22  39  62  86 113 152 197 234 280 345
#     4   8  17  35  59  82 106 142 190 236 275 330
#
# _framework density 19.995806000000002
#
# number of rings (size 3 to 8) (size 9 to 14) (size 15 to 20)
#    0.000    2.000    0.000    5.000    0.000    4.000 
#    0.000    9.167    0.000    0.000    0.000    0.000 
#    0.000    0.000    0.000    0.000    0.000    0.000 
#
# Total GULP energy -297646.162934 kJ/mol
# GULP energy per Si atom -12401.923456 kJ/mol
# Density = 1.995029 g / cm^3
# Si number density = 19.995806 Si / 1000 Ang^3
#
#
#
# Elastic Constant Matrix: (Units=GPa)
#
#
# Indices 1 2 3 4 5 6 
#
# 1 47.0282 20.7086 17.9420 0.0000 0.0000 0.0000
# 2 20.7086 116.3680 54.3650 0.0000 0.0000 0.0000
# 3 17.9420 54.3650 91.1883 0.0000 0.0000 0.0000
# 4 0.0000 0.0000 0.0000 45.4617 0.0000 0.0000
# 5 0.0000 0.0000 0.0000 0.0000 29.4687 0.0000
# 6 0.0000 0.0000 0.0000 0.0000 0.0000 29.4426
#
#
#
# Elastic Compliance Matrix: (Units=1/GPa)
#
#
# Indices 1 2 3 4 5 6 
#
# 1 0.023638 -0.002819 -0.002970 0.000000 0.000000 0.000000
# 2 -0.002819 0.012247 -0.006747 0.000000 0.000000 0.000000
# 3 -0.002970 -0.006747 0.015573 0.000000 0.000000 0.000000
# 4 0.000000 0.000000 0.000000 0.021997 0.000000 0.000000
# 5 0.000000 0.000000 0.000000 0.000000 0.033934 0.000000
# 6 0.000000 0.000000 0.000000 0.000000 0.000000 0.033964
#
#
# Mechanical properties :
#
#
# Convention : Reuss Voigt Hill
#
# Bulk Modulus (GPa) = 37.89860 48.95728 43.42794
# Shear Modulus (GPa) = 28.53526 31.64584 30.09055
#
# Velocity S-wave (km/s) = 3.78175 3.98254 3.88344
# Velocity P-wave (km/s) = 6.16954 6.75902 6.47100
#
# Compressibility (1/GPa) = 0.02638620
#
# Stress axis : x y z
#
# Youngs Moduli (GPa) = 42.30402 81.65209 64.21305
#
# Poissons Ratio (x) = 0.23017 0.19074
# Poissons Ratio (y) = 0.11925 0.43324
# Poissons Ratio (z) = 0.12566 0.55090
#
# Static dielectric constant tensor:
#      x y z
#    x 3.416240 0.000000 0.000000 
#    y 0.000000 3.838070 0.000000 
#    z 0.000000 0.000000 3.638910 
# 
# 
# High freq. dielectric constant tensor:
#      x y z
#    x 1.766310 0.000000 0.000000 
#    y 0.000000 1.793680 0.000000 
#    z 0.000000 0.000000 1.773380 
# 
# From -- ./inp_files/2682.got.cif
#   From: 2010.03.12/outbox.cif.g09.slc.cpg/sg36_2_cif.got.tgz:2682.got - 2010.04.14 02:13:53.
