data_PCOD8175884
_publ_section_title
;
Structure prediction by ZEFSAII (Michael W. Deem and Ramdas Pophale) SiO2 
 PCOD8175884
Probable space group: C M C 21
;
_chemical_formula_sum "Si O2"
_cell_formula_units_Z 48
_cell_length_a 15.815264
_cell_length_b 16.230773
_cell_length_c 8.281382
_cell_angle_alpha 90.000000
_cell_angle_beta 90.000000
_cell_angle_gamma 90.000000
_cell_volume 2125.780739
_symmetry_space_group_name_H-M "C M C 21"
_symmetry_group_IT_number 36
_symmetry_cell_setting 'orthorhombic'
loop_
_space_group_symop_operation_xyz
x,y,z
-x,-y,1/2+z
x,-y,1/2+z
-x,y,z
1/2+x,1/2+y,z
1/2-x,1/2-y,1/2+z
1/2+x,1/2-y,1/2+z
1/2-x,1/2+y,z
loop_
_atom_site_type_symbol
_atom_site_label
_atom_site_fract_x
_atom_site_fract_y
_atom_site_fract_z
Si Si1 0.695626 0.740310 0.109520
Si Si2 0.744255 0.369675 0.337985
Si Si3 0.095528 0.884154 0.808250
Si Si4 0.097520 0.051518 0.654895
Si Si5 0.906172 0.624208 0.434501
Si Si6 0.403365 0.973733 0.251159
O O1 0.759772 0.798241 0.203405
O O2 0.637498 0.700349 0.248915
O O3 0.649081 0.796275 0.974115
O O4 0.742411 0.667292 0.017316
O O5 0.658834 0.419349 0.299199
O O6 0.831296 0.420374 0.339462
O O7 0.000000 0.860282 0.843507
O O8 0.102921 0.952215 0.666431
O O9 0.131888 0.918308 0.980049
O O10 0.000000 0.079198 0.688435
O O11 0.882143 0.572086 0.272743
O O12 0.898143 0.550308 0.564616
O O13 0.000000 0.660313 0.423815
O O14 0.500000 0.955867 0.315817
#
# Coordination Sequence:
#
# PCOD8175884 Si02
#       6
#     8   8   8   8   8   8
#     4  11  23  37  57  87 123 158 199 252 309 359
#     4  11  24  39  59  88 122 162 204 250 303 362
#     4  10  21  40  64  89 121 160 202 251 306 366
#     4  10  22  40  63  90 120 160 206 248 299 368
#     4   9  19  37  60  84 111 148 194 243 295 350
#     4   9  20  39  60  82 111 150 197 242 290 353
#
# _framework density 22.579940000000001
#
# number of rings (size 3 to 8) (size 9 to 14) (size 15 to 20)
#    0.000    2.000    0.000    2.500    0.000   11.333 
#    0.000    0.833    0.000    0.000    0.000    0.000 
#    0.000    0.000    0.000    0.000    0.000    0.000 
#
# Total GULP energy -297368.434773 kJ/mol
# GULP energy per Si atom -12390.351449 kJ/mol
# Density = 2.252855 g / cm^3
# Si number density = 22.579940 Si / 1000 Ang^3
#
#
#
# Elastic Constant Matrix: (Units=GPa)
#
#
# Indices 1 2 3 4 5 6 
#
# 1 86.4371 35.8518 22.0931 0.0000 0.0000 0.0000
# 2 35.8518 71.0545 11.3443 0.0000 0.0000 0.0000
# 3 22.0931 11.3443 33.7793 0.0000 0.0000 0.0000
# 4 0.0000 0.0000 0.0000 51.1345 0.0000 0.0000
# 5 0.0000 0.0000 0.0000 0.0000 20.0453 0.0000
# 6 0.0000 0.0000 0.0000 0.0000 0.0000 18.0490
#
#
#
# Elastic Compliance Matrix: (Units=1/GPa)
#
#
# Indices 1 2 3 4 5 6 
#
# 1 0.016676 -0.007051 -0.008539 0.000000 0.000000 0.000000
# 2 -0.007051 0.017852 -0.001384 0.000000 0.000000 0.000000
# 3 -0.008539 -0.001384 0.035653 0.000000 0.000000 0.000000
# 4 0.000000 0.000000 0.000000 0.019556 0.000000 0.000000
# 5 0.000000 0.000000 0.000000 0.000000 0.049887 0.000000
# 6 0.000000 0.000000 0.000000 0.000000 0.000000 0.055405
#
#
# Mechanical properties :
#
#
# Convention : Reuss Voigt Hill
#
# Bulk Modulus (GPa) = 27.59801 36.64993 32.12397
# Shear Modulus (GPa) = 20.74210 25.97787 23.35999
#
# Velocity S-wave (km/s) = 3.03414 3.39556 3.21993
# Velocity P-wave (km/s) = 4.95213 5.62490 5.29920
#
# Compressibility (1/GPa) = 0.03623450
#
# Stress axis : x y z
#
# Youngs Moduli (GPa) = 59.96571 56.01508 28.04774
#
# Poissons Ratio (x) = 0.39496 0.23950
# Poissons Ratio (y) = 0.42282 0.03881
# Poissons Ratio (z) = 0.51204 0.07752
#
# Static dielectric constant tensor:
#      x y z
#    x 4.002160 0.000000 0.000000 
#    y 0.000000 3.980470 0.000000 
#    z 0.000000 0.000000 3.949070 
# 
# 
# High freq. dielectric constant tensor:
#      x y z
#    x 1.887420 0.000000 0.000000 
#    y 0.000000 1.886620 0.000000 
#    z 0.000000 0.000000 1.883840 
# 
# From -- ./inp_files/4652.got.cif
#   From: 2010.03.12/outbox.cif.g09.slc.cpg/sg36_3_cif.got.tgz:4652.got - 2010.04.14 02:13:53.
