data_PCOD8175380
_publ_section_title
;
Structure prediction by ZEFSAII (Michael W. Deem and Ramdas Pophale) SiO2 
 PCOD8175380
Probable space group: C M C 21
;
_chemical_formula_sum "Si O2"
_cell_formula_units_Z 48
_cell_length_a 12.467992
_cell_length_b 21.866617
_cell_length_c 9.053452
_cell_angle_alpha 90.000000
_cell_angle_beta 90.000000
_cell_angle_gamma 90.000000
_cell_volume 2468.268021
_symmetry_space_group_name_H-M "C M C 21"
_symmetry_group_IT_number 36
_symmetry_cell_setting 'orthorhombic'
loop_
_space_group_symop_operation_xyz
x,y,z
-x,-y,1/2+z
x,-y,1/2+z
-x,y,z
1/2+x,1/2+y,z
1/2-x,1/2-y,1/2+z
1/2+x,1/2-y,1/2+z
1/2-x,1/2+y,z
loop_
_atom_site_type_symbol
_atom_site_label
_atom_site_fract_x
_atom_site_fract_y
_atom_site_fract_z
Si Si1 0.621881 0.613142 0.030840
Si Si2 0.375566 0.928180 0.231322
Si Si3 0.259361 0.191914 0.813383
Si Si4 0.236961 0.499769 0.971184
Si Si5 0.624291 0.278853 0.039312
Si Si6 0.119851 0.896954 0.857155
O O1 0.500000 0.606990 0.979266
O O2 0.632825 0.636937 0.199190
O O3 0.674741 0.661404 0.922539
O O4 0.672816 0.546149 0.025630
O O5 0.500000 0.926281 0.194635
O O6 0.333090 0.859006 0.236137
O O7 0.355249 0.963093 0.385235
O O8 0.315169 0.965569 0.106927
O O9 0.194246 0.229628 0.688198
O O10 0.334706 0.236074 0.907651
O O11 0.293180 0.450349 0.866048
O O12 0.500000 0.262473 0.071867
O O13 0.636884 0.348787 0.988318
O O14 0.000000 0.925057 0.868523
#
# Coordination Sequence:
#
# PCOD8175380 Si02
#       6
#     8   8   8   8   8   8
#     4  10  21  37  61  91 122 157 199 247 307 365
#     4  11  23  39  61  87 121 164 204 248 301 363
#     4  11  23  41  65  88 129 158 210 253 311 361
#     4  11  20  38  59  87 122 157 199 247 300 366
#     4  11  23  41  65  91 122 164 211 259 309 364
#     4  10  20  36  59  88 120 156 199 250 308 359
#
# _framework density 19.446833999999999
#
# number of rings (size 3 to 8) (size 9 to 14) (size 15 to 20)
#    0.000    1.333    3.333    3.000    0.000    0.000 
#    0.000    2.500    0.000    0.000    0.000    0.000 
#    0.000    0.000    0.000    0.000    0.000    0.000 
#
# Total GULP energy -297650.007732 kJ/mol
# GULP energy per Si atom -12402.083656 kJ/mol
# Density = 1.940257 g / cm^3
# Si number density = 19.446834 Si / 1000 Ang^3
#
#
#
# Elastic Constant Matrix: (Units=GPa)
#
#
# Indices 1 2 3 4 5 6 
#
# 1 98.3281 37.0095 14.0837 0.0000 0.0000 0.0000
# 2 37.0095 65.5433 20.7335 0.0000 0.0000 0.0000
# 3 14.0837 20.7335 67.5947 0.0000 0.0000 0.0000
# 4 0.0000 0.0000 0.0000 38.7494 0.0000 0.0000
# 5 0.0000 0.0000 0.0000 0.0000 26.3021 0.0000
# 6 0.0000 0.0000 0.0000 0.0000 0.0000 23.6485
#
#
#
# Elastic Compliance Matrix: (Units=1/GPa)
#
#
# Indices 1 2 3 4 5 6 
#
# 1 0.012930 -0.007142 -0.000503 0.000000 0.000000 0.000000
# 2 -0.007142 0.020841 -0.004905 0.000000 0.000000 0.000000
# 3 -0.000503 -0.004905 0.016403 0.000000 0.000000 0.000000
# 4 0.000000 0.000000 0.000000 0.025807 0.000000 0.000000
# 5 0.000000 0.000000 0.000000 0.000000 0.038020 0.000000
# 6 0.000000 0.000000 0.000000 0.000000 0.000000 0.042286
#
#
# Mechanical properties :
#
#
# Convention : Reuss Voigt Hill
#
# Bulk Modulus (GPa) = 39.88042 41.67993 40.78018
# Shear Modulus (GPa) = 26.35104 28.38263 27.36683
#
# Velocity S-wave (km/s) = 3.68507 3.82448 3.75542
# Velocity P-wave (km/s) = 6.21757 6.40168 6.31030
#
# Compressibility (1/GPa) = 0.02507496
#
# Stress axis : x y z
#
# Youngs Moduli (GPa) = 77.33791 47.98163 60.96313
#
# Poissons Ratio (x) = 0.34268 0.03069
# Poissons Ratio (y) = 0.55234 0.29900
# Poissons Ratio (z) = 0.03893 0.23533
#
# Static dielectric constant tensor:
#      x y z
#    x 3.542730 0.000000 0.000000 
#    y 0.000000 3.487580 0.000000 
#    z 0.000000 0.000000 3.596970 
# 
# 
# High freq. dielectric constant tensor:
#      x y z
#    x 1.762420 0.000000 0.000000 
#    y 0.000000 1.751020 0.000000 
#    z 0.000000 0.000000 1.768500 
# 
# From -- ./inp_files/3297.got.cif
#   From: 2010.03.12/outbox.cif.g09.slc.cpg/sg36_2_cif.got.tgz:3297.got - 2010.04.14 02:13:53.
