data_PCOD8175441
_publ_section_title
;
Structure prediction by ZEFSAII (Michael W. Deem and Ramdas Pophale) SiO2 
 PCOD8175441
Probable space group: C M C 21
;
_chemical_formula_sum "Si O2"
_cell_formula_units_Z 64
_cell_length_a 8.995926
_cell_length_b 15.487509
_cell_length_c 23.842092
_cell_angle_alpha 90.000000
_cell_angle_beta 90.000000
_cell_angle_gamma 90.000000
_cell_volume 3321.787187
_symmetry_space_group_name_H-M "C M C 21"
_symmetry_group_IT_number 36
_symmetry_cell_setting 'orthorhombic'
loop_
_space_group_symop_operation_xyz
x,y,z
-x,-y,1/2+z
x,-y,1/2+z
-x,y,z
1/2+x,1/2+y,z
1/2-x,1/2-y,1/2+z
1/2+x,1/2-y,1/2+z
1/2-x,1/2+y,z
loop_
_atom_site_type_symbol
_atom_site_label
_atom_site_fract_x
_atom_site_fract_y
_atom_site_fract_z
Si Si1 0.676870 0.882954 0.088150
Si Si2 0.168338 0.025576 0.891253
Si Si3 0.830001 0.227672 0.888815
Si Si4 0.324330 0.291568 0.782274
Si Si5 0.323472 0.873599 0.215015
Si Si6 0.824882 0.968079 0.519247
Si Si7 0.823503 0.774784 0.513911
Si Si8 0.324533 0.963843 0.785586
O O1 0.500000 0.886273 0.085432
O O2 0.736157 0.878010 0.151625
O O3 0.737532 0.797550 0.056435
O O4 0.738942 0.969381 0.060794
O O5 0.183251 0.126255 0.878230
O O6 0.000000 0.994658 0.879924
O O7 0.277941 0.973669 0.850560
O O8 0.213882 0.006224 0.955321
O O9 0.723460 0.277660 0.846472
O O10 0.000000 0.258553 0.880088
O O11 0.770936 0.249643 0.951189
O O12 0.500000 0.300019 0.778765
O O13 0.263469 0.213524 0.743909
O O14 0.250059 0.378835 0.759161
O O15 0.500000 0.873406 0.216153
O O16 0.263472 0.955658 0.249539
O O17 0.767320 0.870353 0.531401
O O18 0.000000 0.975729 0.530042
O O19 0.000000 0.778770 0.513190
O O20 0.500000 0.955110 0.781837
#
# Coordination Sequence:
#
# PCOD8175441 Si02
#       8
#     8   8   8   8   8   8   8   8
#     4  10  20  37  60  82 107 149 194 229 270 331
#     4   9  18  34  56  82 117 150 182 229 282 333
#     4   9  17  33  56  83 114 147 182 227 276 335
#     4  11  22  37  56  83 112 148 188 232 285 335
#     4   9  21  40  57  77 113 150 188 234 278 329
#     4   9  19  36  55  82 116 146 179 228 279 328
#     4   8  17  34  56  80 110 146 181 218 274 335
#     4  11  22  37  56  81 111 148 190 235 284 334
#
# _framework density 19.266736999999999
#
# number of rings (size 3 to 8) (size 9 to 14) (size 15 to 20)
#    0.000    2.500    1.250    2.250    1.750    1.500 
#    0.000    6.250    0.000    0.000    0.000    0.000 
#    0.000    0.000    0.000    0.000    0.000    0.000 
#
# Total GULP energy -396803.544694 kJ/mol
# GULP energy per Si atom -12400.110772 kJ/mol
# Density = 1.922288 g / cm^3
# Si number density = 19.266737 Si / 1000 Ang^3
#
#
#
# Elastic Constant Matrix: (Units=GPa)
#
#
# Indices 1 2 3 4 5 6 
#
# 1 48.0353 34.8613 29.8672 0.0000 0.0000 0.0000
# 2 34.8613 139.3971 76.9685 0.0000 0.0000 0.0000
# 3 29.8672 76.9685 130.4796 0.0000 0.0000 0.0000
# 4 0.0000 0.0000 0.0000 27.1881 0.0000 0.0000
# 5 0.0000 0.0000 0.0000 0.0000 23.3710 0.0000
# 6 0.0000 0.0000 0.0000 0.0000 0.0000 28.9930
#
#
#
# Elastic Compliance Matrix: (Units=1/GPa)
#
#
# Indices 1 2 3 4 5 6 
#
# 1 0.026291 -0.004823 -0.003173 0.000000 0.000000 0.000000
# 2 -0.004823 0.011524 -0.005694 0.000000 0.000000 0.000000
# 3 -0.003173 -0.005694 0.011749 0.000000 0.000000 0.000000
# 4 0.000000 0.000000 0.000000 0.036781 0.000000 0.000000
# 5 0.000000 0.000000 0.000000 0.000000 0.042788 0.000000
# 6 0.000000 0.000000 0.000000 0.000000 0.000000 0.034491
#
#
# Mechanical properties :
#
#
# Convention : Reuss Voigt Hill
#
# Bulk Modulus (GPa) = 45.07691 66.81177 55.94434
# Shear Modulus (GPa) = 25.20184 27.65811 26.42997
#
# Velocity S-wave (km/s) = 3.62062 3.79296 3.70779
# Velocity P-wave (km/s) = 6.39731 7.34402 6.88695
#
# Compressibility (1/GPa) = 0.02218431
#
# Stress axis : x y z
#
# Youngs Moduli (GPa) = 38.03551 86.77751 85.11348
#
# Poissons Ratio (x) = 0.41853 0.27007
# Poissons Ratio (y) = 0.18345 0.48461
# Poissons Ratio (z) = 0.12069 0.49409
#
# Static dielectric constant tensor:
#      x y z
#    x 3.160010 0.000000 0.000000 
#    y 0.000000 3.709260 0.000000 
#    z 0.000000 0.000000 3.624660 
# 
# 
# High freq. dielectric constant tensor:
#      x y z
#    x 1.718570 0.000000 0.000000 
#    y 0.000000 1.761410 0.000000 
#    z 0.000000 0.000000 1.746290 
# 
# From -- ./inp_files/16679.got.cif
#   From: 2010.03.12/outbox.cif.g09.slc.cpg/sg36_9_cif.got.tgz:16679.got - 2010.04.14 02:13:53.
