data_PCOD8175410
_publ_section_title
;
Structure prediction by ZEFSAII (Michael W. Deem and Ramdas Pophale) SiO2 
 PCOD8175410
Probable space group: C M C 21
;
_chemical_formula_sum "Si O2"
_cell_formula_units_Z 48
_cell_length_a 27.711589
_cell_length_b 8.906543
_cell_length_c 9.386011
_cell_angle_alpha 90.000000
_cell_angle_beta 90.000000
_cell_angle_gamma 90.000000
_cell_volume 2316.603227
_symmetry_space_group_name_H-M "C M C 21"
_symmetry_group_IT_number 36
_symmetry_cell_setting 'orthorhombic'
loop_
_space_group_symop_operation_xyz
x,y,z
-x,-y,1/2+z
x,-y,1/2+z
-x,y,z
1/2+x,1/2+y,z
1/2-x,1/2-y,1/2+z
1/2+x,1/2-y,1/2+z
1/2-x,1/2+y,z
loop_
_atom_site_type_symbol
_atom_site_label
_atom_site_fract_x
_atom_site_fract_y
_atom_site_fract_z
Si Si1 0.051600 0.151886 0.883820
Si Si2 0.622285 0.343026 0.611035
Si Si3 0.284216 0.156914 0.568831
Si Si4 0.295203 0.842894 0.725490
Si Si5 0.888562 0.812660 0.128826
Si Si6 0.445910 0.306745 0.871177
O O1 0.062275 0.174781 0.718713
O O2 0.000000 0.228445 0.921034
O O3 0.047625 0.977004 0.922407
O O4 0.097235 0.217659 0.967635
O O5 0.672765 0.260550 0.626628
O O6 0.634048 0.520687 0.608428
O O7 0.582268 0.294458 0.724506
O O8 0.281501 0.147635 0.394810
O O9 0.235919 0.224210 0.636082
O O10 0.289714 0.997396 0.642296
O O11 0.350336 0.791892 0.708545
O O12 0.908511 0.733622 0.984975
O O13 0.500000 0.232952 0.861246
#
# Coordination Sequence:
#
# PCOD8175410 Si02
#       6
#     8   8   8   8   8   8
#     4   9  16  32  56  89 126 165 210 261 306 363
#     4  10  20  36  62  93 129 166 212 258 315 372
#     4  12  27  46  69  95 126 165 211 264 324 388
#     4  12  27  46  69  95 126 165 211 264 324 388
#     4  10  20  36  62  93 129 166 212 258 315 372
#     4   9  18  30  56  95 130 165 210 263 310 361
#
# _framework density 20.719991
#
# number of rings (size 3 to 8) (size 9 to 14) (size 15 to 20)
#    0.000    1.667    1.667    3.000    4.667    4.000 
#    0.000    0.000    0.000    6.000    0.000    0.000 
#    0.000    0.000    0.000    0.000    0.000    0.000 
#
# Total GULP energy -297327.042973 kJ/mol
# GULP energy per Si atom -12388.626791 kJ/mol
# Density = 2.067283 g / cm^3
# Si number density = 20.719991 Si / 1000 Ang^3
#
#
#
# Elastic Constant Matrix: (Units=GPa)
#
#
# Indices 1 2 3 4 5 6 
#
# 1 92.9921 19.5562 31.8389 0.0000 0.0000 0.0000
# 2 19.5562 63.9128 32.8530 0.0000 0.0000 0.0000
# 3 31.8389 32.8530 127.2642 0.0000 0.0000 0.0000
# 4 0.0000 0.0000 0.0000 24.1175 0.0000 0.0000
# 5 0.0000 0.0000 0.0000 0.0000 24.1755 0.0000
# 6 0.0000 0.0000 0.0000 0.0000 0.0000 16.9992
#
#
#
# Elastic Compliance Matrix: (Units=1/GPa)
#
#
# Indices 1 2 3 4 5 6 
#
# 1 0.012091 -0.002473 -0.002386 0.000000 0.000000 0.000000
# 2 -0.002473 0.018546 -0.004169 0.000000 0.000000 0.000000
# 3 -0.002386 -0.004169 0.009531 0.000000 0.000000 0.000000
# 4 0.000000 0.000000 0.000000 0.041464 0.000000 0.000000
# 5 0.000000 0.000000 0.000000 0.000000 0.041364 0.000000
# 6 0.000000 0.000000 0.000000 0.000000 0.000000 0.058826
#
#
# Mechanical properties :
#
#
# Convention : Reuss Voigt Hill
#
# Bulk Modulus (GPa) = 45.22627 50.29614 47.76120
# Shear Modulus (GPa) = 24.12562 26.38651 25.25606
#
# Velocity S-wave (km/s) = 3.41598 3.57246 3.49509
# Velocity P-wave (km/s) = 6.11828 6.42989 6.27602
#
# Compressibility (1/GPa) = 0.02211104
#
# Stress axis : x y z
#
# Youngs Moduli (GPa) = 82.70798 53.92021 104.92160
#
# Poissons Ratio (x) = 0.13334 0.25039
# Poissons Ratio (y) = 0.20452 0.43741
# Poissons Ratio (z) = 0.19738 0.22479
#
# Static dielectric constant tensor:
#      x y z
#    x 3.945650 0.000000 0.000000 
#    y 0.000000 3.365020 0.000000 
#    z 0.000000 0.000000 3.933860 
# 
# 
# High freq. dielectric constant tensor:
#      x y z
#    x 1.830250 0.000000 0.000000 
#    y 0.000000 1.759740 0.000000 
#    z 0.000000 0.000000 1.830690 
# 
# From -- ./inp_files/5970.got.cif
#   From: 2010.03.12/outbox.cif.g09.slc.cpg/sg36_3_cif.got.tgz:5970.got - 2010.04.14 02:13:53.
