data_PCOD8175615
_publ_section_title
;
Structure prediction by ZEFSAII (Michael W. Deem and Ramdas Pophale) SiO2 
 PCOD8175615
Probable space group: C M C 21
;
_chemical_formula_sum "Si O2"
_cell_formula_units_Z 48
_cell_length_a 17.239064
_cell_length_b 36.578847
_cell_length_c 4.950150
_cell_angle_alpha 90.000000
_cell_angle_beta 90.000000
_cell_angle_gamma 90.000000
_cell_volume 3121.490756
_symmetry_space_group_name_H-M "C M C 21"
_symmetry_group_IT_number 36
_symmetry_cell_setting 'orthorhombic'
loop_
_space_group_symop_operation_xyz
x,y,z
-x,-y,1/2+z
x,-y,1/2+z
-x,y,z
1/2+x,1/2+y,z
1/2-x,1/2-y,1/2+z
1/2+x,1/2-y,1/2+z
1/2-x,1/2+y,z
loop_
_atom_site_type_symbol
_atom_site_label
_atom_site_fract_x
_atom_site_fract_y
_atom_site_fract_z
Si Si1 0.374492 0.353631 0.485180
Si Si2 0.836903 0.724290 0.632275
Si Si3 0.500000 0.248653 0.738602
Si Si4 0.750693 0.201005 0.122700
Si Si5 0.588118 0.602178 0.499590
Si Si6 0.407750 0.522272 0.365729
Si Si7 0.000000 0.200673 0.758116
O O1 0.297325 0.337118 0.625798
O O2 0.417809 0.372320 0.735387
O O3 0.423909 0.322783 0.326077
O O4 0.358280 0.382762 0.244997
O O5 0.924886 0.722453 0.742380
O O6 0.812991 0.766649 0.651890
O O7 0.818496 0.706105 0.341353
O O8 0.786197 0.700165 0.829855
O O9 0.500000 0.263662 0.436997
O O10 0.500000 0.282622 0.952580
O O11 0.500000 0.598922 0.613091
O O12 0.624418 0.562960 0.419090
O O13 0.376931 0.507016 0.082946
O O14 0.500000 0.524548 0.370892
#
# Coordination Sequence:
#
# PCOD8175615 Si02
#       7
#     8   8   4   8   8   8   4
#     4  12  21  32  45  64  94 116 144 188 237 286
#     4  10  21  34  47  64  81 111 145 182 224 277
#     4  12  22  34  52  66  82 109 154 192 228 281
#     4  10  21  33  46  62  88 111 139 179 233 277
#     4  11  20  30  44  66  87 115 153 189 227 271
#     4   9  17  29  43  58  82 113 147 188 226 253
#     4  12  22  30  46  70  86 115 142 188 244 271
#
# _framework density 15.377269
#
# number of rings (size 3 to 8) (size 9 to 14) (size 15 to 20)
#    0.000    1.333    3.333    4.000    4.667    2.667 
#    0.000    0.000    0.000    0.000    0.000    0.000 
#    0.000    0.000    0.000    0.000    0.000    0.000 
#
# Total GULP energy -297410.083561 kJ/mol
# GULP energy per Si atom -12392.086815 kJ/mol
# Density = 1.534227 g / cm^3
# Si number density = 15.377269 Si / 1000 Ang^3
#
#
#
# Elastic Constant Matrix: (Units=GPa)
#
#
# Indices 1 2 3 4 5 6 
#
# 1 53.1422 21.5743 7.8129 0.0000 0.0000 0.0000
# 2 21.5743 57.1278 12.6955 0.0000 0.0000 0.0000
# 3 7.8129 12.6955 69.3576 0.0000 0.0000 0.0000
# 4 0.0000 0.0000 0.0000 25.6094 0.0000 0.0000
# 5 0.0000 0.0000 0.0000 0.0000 8.8453 0.0000
# 6 0.0000 0.0000 0.0000 0.0000 0.0000 7.7953
#
#
#
# Elastic Compliance Matrix: (Units=1/GPa)
#
#
# Indices 1 2 3 4 5 6 
#
# 1 0.022293 -0.008194 -0.001011 0.000000 0.000000 0.000000
# 2 -0.008194 0.021259 -0.002968 0.000000 0.000000 0.000000
# 3 -0.001011 -0.002968 0.015075 0.000000 0.000000 0.000000
# 4 0.000000 0.000000 0.000000 0.039048 0.000000 0.000000
# 5 0.000000 0.000000 0.000000 0.000000 0.113055 0.000000
# 6 0.000000 0.000000 0.000000 0.000000 0.000000 0.128282
#
#
# Mechanical properties :
#
#
# Convention : Reuss Voigt Hill
#
# Bulk Modulus (GPa) = 29.17206 29.31035 29.24121
# Shear Modulus (GPa) = 13.34099 17.61967 15.48033
#
# Velocity S-wave (km/s) = 2.94866 3.38868 3.17630
# Velocity P-wave (km/s) = 5.53217 5.86626 5.70166
#
# Compressibility (1/GPa) = 0.03427938
#
# Stress axis : x y z
#
# Youngs Moduli (GPa) = 44.85779 47.03952 66.33377
#
# Poissons Ratio (x) = 0.38545 0.06708
# Poissons Ratio (y) = 0.36757 0.19690
# Poissons Ratio (z) = 0.04537 0.13963
#
# Static dielectric constant tensor:
#      x y z
#    x 2.708130 0.000000 0.000000 
#    y 0.000000 2.909740 0.000000 
#    z 0.000000 0.000000 3.165990 
# 
# 
# High freq. dielectric constant tensor:
#      x y z
#    x 1.532660 0.000000 0.000000 
#    y 0.000000 1.564540 0.000000 
#    z 0.000000 0.000000 1.617000 
# 
# From -- ./inp_files/1156.got.cif
#   From: 2010.03.12/outbox.cif.g09.slc.cpg/sg36_1_cif.got.tgz:1156.got - 2010.04.14 02:13:53.
