data_PCOD8175178
_publ_section_title
;
Structure prediction by ZEFSAII (Michael W. Deem and Ramdas Pophale) SiO2 
 PCOD8175178
Probable space group: C M C 21
;
_chemical_formula_sum "Si O2"
_cell_formula_units_Z 64
_cell_length_a 9.142451
_cell_length_b 23.960587
_cell_length_c 14.316187
_cell_angle_alpha 90.000000
_cell_angle_beta 90.000000
_cell_angle_gamma 90.000000
_cell_volume 3136.082344
_symmetry_space_group_name_H-M "C M C 21"
_symmetry_group_IT_number 36
_symmetry_cell_setting 'orthorhombic'
loop_
_space_group_symop_operation_xyz
x,y,z
-x,-y,1/2+z
x,-y,1/2+z
-x,y,z
1/2+x,1/2+y,z
1/2-x,1/2-y,1/2+z
1/2+x,1/2-y,1/2+z
1/2-x,1/2+y,z
loop_
_atom_site_type_symbol
_atom_site_label
_atom_site_fract_x
_atom_site_fract_y
_atom_site_fract_z
Si Si1 0.166528 0.144889 0.390390
Si Si2 0.333361 0.968042 0.568503
Si Si3 0.335286 0.202438 0.656588
Si Si4 0.673674 0.953612 0.353600
Si Si5 0.669136 0.246749 0.462904
Si Si6 0.669088 0.553195 0.244994
Si Si7 0.839260 0.591985 0.546874
Si Si8 0.670068 0.338978 0.322587
O O1 0.255057 0.202381 0.394289
O O2 0.188162 0.113755 0.292222
O O3 0.217192 0.101593 0.469344
O O4 0.000000 0.160468 0.409430
O O5 0.500000 0.947970 0.582652
O O6 0.283235 0.958476 0.462328
O O7 0.228202 0.935984 0.640275
O O8 0.313225 0.032889 0.595852
O O9 0.500000 0.220790 0.685520
O O10 0.275464 0.240957 0.570544
O O11 0.332614 0.138045 0.626557
O O12 0.227693 0.205445 0.745143
O O13 0.500000 0.953445 0.338420
O O14 0.739451 0.895701 0.316812
O O15 0.739703 0.005816 0.298480
O O16 0.500000 0.229634 0.463366
O O17 0.694123 0.308973 0.423316
O O18 0.500000 0.534770 0.243341
O O19 0.000000 0.591853 0.498117
O O20 0.500000 0.351535 0.304708
#
# Coordination Sequence:
#
# PCOD8175178 Si02
#       8
#     8   8   8   8   8   8   8   8
#     4  10  20  34  56  85 112 142 186 238 290 339
#     4  10  21  36  57  85 117 158 200 236 285 351
#     4   9  18  35  61  88 113 150 197 242 292 348
#     4  11  23  40  62  88 120 161 202 241 291 353
#     4   9  21  41  62  83 113 154 195 240 295 350
#     4  11  23  37  57  88 122 156 193 240 298 353
#     4   9  17  33  56  81 111 148 190 236 282 334
#     4  11  23  40  61  88 120 155 195 245 301 350
#
# _framework density 20.407624999999999
#
# number of rings (size 3 to 8) (size 9 to 14) (size 15 to 20)
#    0.000    2.000    1.250    3.000    0.000    7.000 
#    2.250    0.000    0.000    0.000    0.000    0.000 
#    0.000    0.000    0.000    0.000    0.000    0.000 
#
# Total GULP energy -396744.534323 kJ/mol
# GULP energy per Si atom -12398.266698 kJ/mol
# Density = 2.036118 g / cm^3
# Si number density = 20.407625 Si / 1000 Ang^3
#
#
#
# Elastic Constant Matrix: (Units=GPa)
#
#
# Indices 1 2 3 4 5 6 
#
# 1 87.9692 18.3916 39.0452 0.0000 0.0000 0.0000
# 2 18.3916 37.1299 3.5788 0.0000 0.0000 0.0000
# 3 39.0452 3.5788 88.2324 0.0000 0.0000 0.0000
# 4 0.0000 0.0000 0.0000 22.4675 0.0000 0.0000
# 5 0.0000 0.0000 0.0000 0.0000 33.6294 0.0000
# 6 0.0000 0.0000 0.0000 0.0000 0.0000 21.0942
#
#
#
# Elastic Compliance Matrix: (Units=1/GPa)
#
#
# Indices 1 2 3 4 5 6 
#
# 1 0.015860 -0.007208 -0.006726 0.000000 0.000000 0.000000
# 2 -0.007208 0.030314 0.001960 0.000000 0.000000 0.000000
# 3 -0.006726 0.001960 0.014231 0.000000 0.000000 0.000000
# 4 0.000000 0.000000 0.000000 0.044509 0.000000 0.000000
# 5 0.000000 0.000000 0.000000 0.000000 0.029736 0.000000
# 6 0.000000 0.000000 0.000000 0.000000 0.000000 0.047406
#
#
# Mechanical properties :
#
#
# Convention : Reuss Voigt Hill
#
# Bulk Modulus (GPa) = 27.42965 37.26253 32.34609
# Shear Modulus (GPa) = 22.91950 25.59261 24.25605
#
# Velocity S-wave (km/s) = 3.35488 3.54513 3.45132
# Velocity P-wave (km/s) = 5.33639 5.92081 5.63618
#
# Compressibility (1/GPa) = 0.03645689
#
# Stress axis : x y z
#
# Youngs Moduli (GPa) = 63.05227 32.98842 70.27073
#
# Poissons Ratio (x) = 0.23777 0.47265
# Poissons Ratio (y) = 0.45445 -0.13773
# Poissons Ratio (z) = 0.42409 -0.06466
#
# Static dielectric constant tensor:
#      x y z
#    x 3.714480 0.000000 0.000000 
#    y 0.000000 3.523770 0.000000 
#    z 0.000000 0.000000 3.730920 
# 
# 
# High freq. dielectric constant tensor:
#      x y z
#    x 1.796750 0.000000 0.000000 
#    y 0.000000 1.782780 0.000000 
#    z 0.000000 0.000000 1.798670 
# 
# From -- ./inp_files/10985.got.cif
#   From: 2010.03.12/outbox.cif.g09.slc.cpg/sg36_6_cif.got.tgz:10985.got - 2010.04.14 02:13:53.
