data_PCOD8175153
_publ_section_title
;
Structure prediction by ZEFSAII (Michael W. Deem and Ramdas Pophale) SiO2 
 PCOD8175153
Probable space group: C M C 21
;
_chemical_formula_sum "Si O2"
_cell_formula_units_Z 40
_cell_length_a 16.589945
_cell_length_b 21.584458
_cell_length_c 5.253547
_cell_angle_alpha 90.000000
_cell_angle_beta 90.000000
_cell_angle_gamma 90.000000
_cell_volume 1881.216226
_symmetry_space_group_name_H-M "C M C 21"
_symmetry_group_IT_number 36
_symmetry_cell_setting 'orthorhombic'
loop_
_space_group_symop_operation_xyz
x,y,z
-x,-y,1/2+z
x,-y,1/2+z
-x,y,z
1/2+x,1/2+y,z
1/2-x,1/2-y,1/2+z
1/2+x,1/2-y,1/2+z
1/2-x,1/2+y,z
loop_
_atom_site_type_symbol
_atom_site_label
_atom_site_fract_x
_atom_site_fract_y
_atom_site_fract_z
Si Si1 0.589268 0.975271 0.757250
Si Si2 0.797471 0.157792 0.099976
Si Si3 0.634282 0.843600 0.819640
Si Si4 0.594148 0.460407 0.513513
Si Si5 0.160471 0.720271 0.832019
O O1 0.500000 0.005537 0.734470
O O2 0.577514 0.902431 0.791971
O O3 0.636097 0.993746 0.497284
O O4 0.725833 0.130863 0.277530
O O5 0.855012 0.103280 0.001759
O O6 0.846399 0.206866 0.273211
O O7 0.754641 0.197374 0.867885
O O8 0.612490 0.794300 0.594599
O O9 0.620138 0.815672 0.097115
O O10 0.616173 0.501181 0.266734
O O11 0.500000 0.442300 0.511974
#
# Coordination Sequence:
#
# PCOD8175153 Si02
#       5
#     8   8   8   8   8
#     4  10  21  37  54  74 111 155 186 226 279 324
#     4  10  21  37  63  80 120 143 185 234 294 324
#     4  10  20  34  54  85 111 140 189 233 274 345
#     4  10  24  41  58  84 118 155 195 235 282 341
#     4  10  20  35  57  85 112 141 179 232 291 330
#
# _framework density 21.262839
#
# number of rings (size 3 to 8) (size 9 to 14) (size 15 to 20)
#    1.200    0.800    2.000    1.200    2.800    1.600 
#    0.000    2.000    0.000    0.000    0.000    0.000 
#    0.000    0.000    0.000    0.000    0.000    0.000 
#
# Total GULP energy -247768.385936 kJ/mol
# GULP energy per Si atom -12388.419297 kJ/mol
# Density = 2.121444 g / cm^3
# Si number density = 21.262839 Si / 1000 Ang^3
#
#
#
# Elastic Constant Matrix: (Units=GPa)
#
#
# Indices 1 2 3 4 5 6 
#
# 1 28.9579 20.9341 5.0443 0.0000 0.0000 0.0000
# 2 20.9341 113.8325 35.0240 0.0000 0.0000 0.0000
# 3 5.0443 35.0240 157.7345 0.0000 0.0000 0.0000
# 4 0.0000 0.0000 0.0000 34.8597 0.0000 0.0000
# 5 0.0000 0.0000 0.0000 0.0000 8.5562 0.0000
# 6 0.0000 0.0000 0.0000 0.0000 0.0000 20.6673
#
#
#
# Elastic Compliance Matrix: (Units=1/GPa)
#
#
# Indices 1 2 3 4 5 6 
#
# 1 0.039849 -0.007445 0.000379 0.000000 0.000000 0.000000
# 2 -0.007445 0.010820 -0.002164 0.000000 0.000000 0.000000
# 3 0.000379 -0.002164 0.006808 0.000000 0.000000 0.000000
# 4 0.000000 0.000000 0.000000 0.028686 0.000000 0.000000
# 5 0.000000 0.000000 0.000000 0.000000 0.116874 0.000000
# 6 0.000000 0.000000 0.000000 0.000000 0.000000 0.048386
#
#
# Mechanical properties :
#
#
# Convention : Reuss Voigt Hill
#
# Bulk Modulus (GPa) = 25.63048 46.94772 36.28910
# Shear Modulus (GPa) = 17.67474 28.78481 23.22978
#
# Velocity S-wave (km/s) = 2.88627 3.68334 3.30889
# Velocity P-wave (km/s) = 4.81536 6.34169 5.63048
#
# Compressibility (1/GPa) = 0.03901604
#
# Stress axis : x y z
#
# Youngs Moduli (GPa) = 25.09477 92.42215 146.88063
#
# Poissons Ratio (x) = 0.68807 -0.05563
# Poissons Ratio (y) = 0.18683 0.31791
# Poissons Ratio (z) = -0.00950 0.20004
#
# Static dielectric constant tensor:
#      x y z
#    x 3.373840 0.000000 0.000000 
#    y 0.000000 3.542990 0.000000 
#    z 0.000000 0.000000 4.132450 
# 
# 
# High freq. dielectric constant tensor:
#      x y z
#    x 1.785390 0.000000 0.000000 
#    y 0.000000 1.827350 0.000000 
#    z 0.000000 0.000000 1.851850 
# 
# From -- ./inp_files/744.got.cif
#   From: 2010.03.12/outbox.cif.g09.slc.cpg/sg36_1_cif.got.tgz:744.got - 2010.04.14 02:13:53.
