data_PCOD8175305
_publ_section_title
;
Structure prediction by ZEFSAII (Michael W. Deem and Ramdas Pophale) SiO2 
 PCOD8175305
Probable space group: C M C 21
;
_chemical_formula_sum "Si O2"
_cell_formula_units_Z 64
_cell_length_a 8.883712
_cell_length_b 31.856120
_cell_length_c 11.110802
_cell_angle_alpha 90.000000
_cell_angle_beta 90.000000
_cell_angle_gamma 90.000000
_cell_volume 3144.363583
_symmetry_space_group_name_H-M "C M C 21"
_symmetry_group_IT_number 36
_symmetry_cell_setting 'orthorhombic'
loop_
_space_group_symop_operation_xyz
x,y,z
-x,-y,1/2+z
x,-y,1/2+z
-x,y,z
1/2+x,1/2+y,z
1/2-x,1/2-y,1/2+z
1/2+x,1/2-y,1/2+z
1/2-x,1/2+y,z
loop_
_atom_site_type_symbol
_atom_site_label
_atom_site_fract_x
_atom_site_fract_y
_atom_site_fract_z
Si Si1 0.176847 0.826298 0.466540
Si Si2 0.675768 0.981086 0.991886
Si Si3 0.671856 0.327203 0.850591
Si Si4 0.678048 0.968737 0.722892
Si Si5 0.175707 0.242481 0.534978
Si Si6 0.825746 0.375417 0.655931
Si Si7 0.668953 0.819527 0.215141
Si Si8 0.667700 0.113917 0.522701
O O1 0.231841 0.785231 0.537702
O O2 0.230747 0.868520 0.534461
O O3 0.251170 0.827472 0.338559
O O4 0.000000 0.825830 0.454153
O O5 0.500000 0.990804 0.985324
O O6 0.739682 0.986905 0.853082
O O7 0.710871 0.934349 0.036678
O O8 0.746374 0.009929 0.100136
O O9 0.500000 0.331176 0.806516
O O10 0.784025 0.335885 0.740775
O O11 0.703423 0.281491 0.907734
O O12 0.703262 0.363095 0.948340
O O13 0.500000 0.975193 0.721888
O O14 0.719406 0.919325 0.718582
O O15 0.235901 0.214298 0.642543
O O16 0.000000 0.251507 0.554588
O O17 0.000000 0.374075 0.622420
O O18 0.500000 0.801880 0.234185
O O19 0.662805 0.864962 0.153028
O O20 0.500000 0.118045 0.461219
#
# Coordination Sequence:
#
# PCOD8175305 Si02
#       8
#     8   8   8   8   8   8   8   8
#     4  12  26  41  58  83 118 158 198 247 304 363
#     4   9  16  30  53  88 121 153 196 253 308 363
#     4  10  20  35  59  86 114 149 193 239 289 352
#     4   9  18  31  54  86 122 154 197 255 313 364
#     4  10  22  40  61  86 115 152 197 246 298 355
#     4  11  22  38  59  85 117 157 202 249 302 357
#     4  10  21  38  59  86 118 151 194 246 299 361
#     4   9  17  33  59  86 113 148 193 241 293 351
#
# _framework density 20.353881000000001
#
# number of rings (size 3 to 8) (size 9 to 14) (size 15 to 20)
#    0.000    2.000    1.250    2.625    1.750    3.000 
#    0.000    3.750    0.000    1.500    0.000    0.000 
#    0.000    0.000    0.000    0.000    0.000    0.000 
#
# Total GULP energy -396597.632602 kJ/mol
# GULP energy per Si atom -12393.676019 kJ/mol
# Density = 2.030756 g / cm^3
# Si number density = 20.353881 Si / 1000 Ang^3
#
#
#
# Elastic Constant Matrix: (Units=GPa)
#
#
# Indices 1 2 3 4 5 6 
#
# 1 111.1287 31.8809 40.1553 0.0000 0.0000 0.0000
# 2 31.8809 65.5848 38.6794 0.0000 0.0000 0.0000
# 3 40.1553 38.6794 142.1549 0.0000 0.0000 0.0000
# 4 0.0000 0.0000 0.0000 21.0505 0.0000 0.0000
# 5 0.0000 0.0000 0.0000 0.0000 27.8172 0.0000
# 6 0.0000 0.0000 0.0000 0.0000 0.0000 15.9584
#
#
#
# Elastic Compliance Matrix: (Units=1/GPa)
#
#
# Indices 1 2 3 4 5 6 
#
# 1 0.010892 -0.004145 -0.001949 0.000000 0.000000 0.000000
# 2 -0.004145 0.019739 -0.004200 0.000000 0.000000 0.000000
# 3 -0.001949 -0.004200 0.008728 0.000000 0.000000 0.000000
# 4 0.000000 0.000000 0.000000 0.047505 0.000000 0.000000
# 5 0.000000 0.000000 0.000000 0.000000 0.035949 0.000000
# 6 0.000000 0.000000 0.000000 0.000000 0.000000 0.062663
#
#
# Mechanical properties :
#
#
# Convention : Reuss Voigt Hill
#
# Bulk Modulus (GPa) = 53.27347 60.03328 56.65337
# Shear Modulus (GPa) = 23.54920 26.84206 25.19563
#
# Velocity S-wave (km/s) = 3.40514 3.63543 3.52217
# Velocity P-wave (km/s) = 6.45681 6.86881 6.66599
#
# Compressibility (1/GPa) = 0.01877107
#
# Stress axis : x y z
#
# Youngs Moduli (GPa) = 91.81083 50.65995 114.57541
#
# Poissons Ratio (x) = 0.21000 0.22329
# Poissons Ratio (y) = 0.38058 0.48122
# Poissons Ratio (z) = 0.17892 0.21277
#
# Static dielectric constant tensor:
#      x y z
#    x 3.503040 0.000000 0.000000 
#    y 0.000000 3.849460 0.000000 
#    z 0.000000 0.000000 4.013140 
# 
# 
# High freq. dielectric constant tensor:
#      x y z
#    x 1.767310 0.000000 0.000000 
#    y 0.000000 1.787310 0.000000 
#    z 0.000000 0.000000 1.808200 
# 
# From -- ./inp_files/7209.got.cif
#   From: 2010.03.12/outbox.cif.g09.slc.cpg/sg36_4_cif.got.tgz:7209.got - 2010.04.14 02:13:53.
