data_PCOD8175084
_publ_section_title
;
Structure prediction by ZEFSAII (Michael W. Deem and Ramdas Pophale) SiO2 
 PCOD8175084
Probable space group: C M C 21
;
_chemical_formula_sum "Si O2"
_cell_formula_units_Z 64
_cell_length_a 9.190180
_cell_length_b 22.331073
_cell_length_c 16.434443
_cell_angle_alpha 90.000000
_cell_angle_beta 90.000000
_cell_angle_gamma 90.000000
_cell_volume 3372.784539
_symmetry_space_group_name_H-M "C M C 21"
_symmetry_group_IT_number 36
_symmetry_cell_setting 'orthorhombic'
loop_
_space_group_symop_operation_xyz
x,y,z
-x,-y,1/2+z
x,-y,1/2+z
-x,y,z
1/2+x,1/2+y,z
1/2-x,1/2-y,1/2+z
1/2+x,1/2-y,1/2+z
1/2-x,1/2+y,z
loop_
_atom_site_type_symbol
_atom_site_label
_atom_site_fract_x
_atom_site_fract_y
_atom_site_fract_z
Si Si1 0.673452 0.718749 0.311780
Si Si2 0.826925 0.463513 0.050727
Si Si3 0.831629 0.916100 0.515975
Si Si4 0.343260 0.713917 0.585438
Si Si5 0.170054 0.842210 0.355739
Si Si6 0.829168 0.104123 0.687742
Si Si7 0.660138 0.372682 0.942091
Si Si8 0.333378 0.685234 0.134858
O O1 0.500000 0.727391 0.314710
O O2 0.744644 0.780032 0.344091
O O3 0.719958 0.658708 0.360776
O O4 0.733651 0.700144 0.222954
O O5 0.774817 0.528010 0.020832
O O6 0.759196 0.447717 0.139751
O O7 0.000000 0.461642 0.057565
O O8 0.775023 0.418710 0.979683
O O9 0.785738 0.874072 0.440096
O O10 0.808320 0.881529 0.601588
O O11 0.000000 0.936228 0.506453
O O12 0.500000 0.736768 0.617202
O O13 0.277565 0.667483 0.650953
O O14 0.362479 0.683450 0.499730
O O15 0.238568 0.769652 0.570955
O O16 0.205354 0.890946 0.283912
O O17 0.000000 0.826160 0.354135
O O18 0.000000 0.092609 0.669893
O O19 0.500000 0.403497 0.929034
O O20 0.500000 0.701550 0.136638
#
# Coordination Sequence:
#
# PCOD8175084 Si02
#       8
#     8   8   8   8   8   8   8   8
#     4  10  20  34  55  86 120 149 181 227 281 334
#     4  11  23  39  59  82 108 144 192 240 289 334
#     4  10  22  40  58  79 113 154 194 234 279 339
#     4   9  16  29  52  78 106 141 178 221 272 325
#     4  10  20  36  60  87 114 151 192 231 281 340
#     4   9  18  35  58  83 111 147 188 228 276 338
#     4   9  19  36  56  78 109 149 187 223 273 336
#     4  10  20  33  52  81 115 147 180 224 275 332
#
# _framework density 18.975418000000001
#
# number of rings (size 3 to 8) (size 9 to 14) (size 15 to 20)
#    0.000    2.250    1.250    2.625    0.000    4.000 
#    2.250    0.000    0.000    0.000    0.000    0.000 
#    0.000    0.000    0.000    0.000    0.000    0.000 
#
# Total GULP energy -396554.169686 kJ/mol
# GULP energy per Si atom -12392.317803 kJ/mol
# Density = 1.893223 g / cm^3
# Si number density = 18.975418 Si / 1000 Ang^3
#
#
#
# Elastic Constant Matrix: (Units=GPa)
#
#
# Indices 1 2 3 4 5 6 
#
# 1 78.7875 57.5878 39.8957 0.0000 0.0000 0.0000
# 2 57.5878 97.6552 48.9067 0.0000 0.0000 0.0000
# 3 39.8957 48.9067 90.1656 0.0000 0.0000 0.0000
# 4 0.0000 0.0000 0.0000 23.4815 0.0000 0.0000
# 5 0.0000 0.0000 0.0000 0.0000 18.7194 0.0000
# 6 0.0000 0.0000 0.0000 0.0000 0.0000 33.7375
#
#
#
# Elastic Compliance Matrix: (Units=1/GPa)
#
#
# Indices 1 2 3 4 5 6 
#
# 1 0.023274 -0.011763 -0.003918 0.000000 0.000000 0.000000
# 2 -0.011763 0.020004 -0.005646 0.000000 0.000000 0.000000
# 3 -0.003918 -0.005646 0.015887 0.000000 0.000000 0.000000
# 4 0.000000 0.000000 0.000000 0.042587 0.000000 0.000000
# 5 0.000000 0.000000 0.000000 0.000000 0.053420 0.000000
# 6 0.000000 0.000000 0.000000 0.000000 0.000000 0.029641
#
#
# Mechanical properties :
#
#
# Convention : Reuss Voigt Hill
#
# Bulk Modulus (GPa) = 60.56207 62.15427 61.35817
# Shear Modulus (GPa) = 21.46213 23.20224 22.33218
#
# Velocity S-wave (km/s) = 3.36676 3.50058 3.43432
# Velocity P-wave (km/s) = 6.86285 7.01178 6.93771
#
# Compressibility (1/GPa) = 0.01651198
#
# Stress axis : x y z
#
# Youngs Moduli (GPa) = 42.96675 49.98993 62.94630
#
# Poissons Ratio (x) = 0.58801 0.24661
# Poissons Ratio (y) = 0.50540 0.35538
# Poissons Ratio (z) = 0.16834 0.28223
#
# Static dielectric constant tensor:
#      x y z
#    x 3.469540 0.000000 0.000000 
#    y 0.000000 3.261840 0.000000 
#    z 0.000000 0.000000 3.860580 
# 
# 
# High freq. dielectric constant tensor:
#      x y z
#    x 1.724660 0.000000 0.000000 
#    y 0.000000 1.721600 0.000000 
#    z 0.000000 0.000000 1.744880 
# 
# From -- ./inp_files/13866.got.cif
#   From: 2010.03.12/outbox.cif.g09.slc.cpg/sg36_7_cif.got.tgz:13866.got - 2010.04.14 02:13:53.
