data_PCOD8175872
_publ_section_title
;
Structure prediction by ZEFSAII (Michael W. Deem and Ramdas Pophale) SiO2 
 PCOD8175872
Probable space group: C M C 21
;
_chemical_formula_sum "Si O2"
_cell_formula_units_Z 64
_cell_length_a 8.916607
_cell_length_b 24.949100
_cell_length_c 14.353136
_cell_angle_alpha 90.000000
_cell_angle_beta 90.000000
_cell_angle_gamma 90.000000
_cell_volume 3193.017576
_symmetry_space_group_name_H-M "C M C 21"
_symmetry_group_IT_number 36
_symmetry_cell_setting 'orthorhombic'
loop_
_space_group_symop_operation_xyz
x,y,z
-x,-y,1/2+z
x,-y,1/2+z
-x,y,z
1/2+x,1/2+y,z
1/2-x,1/2-y,1/2+z
1/2+x,1/2-y,1/2+z
1/2-x,1/2+y,z
loop_
_atom_site_type_symbol
_atom_site_label
_atom_site_fract_x
_atom_site_fract_y
_atom_site_fract_z
Si Si1 0.321878 0.163372 0.076930
Si Si2 0.172639 0.090194 0.782574
Si Si3 0.168383 0.050783 0.095611
Si Si4 0.322098 0.566936 0.581596
Si Si5 0.821609 0.808294 0.389541
Si Si6 0.326498 0.885626 0.914259
Si Si7 0.665106 0.527704 0.313306
Si Si8 0.322486 0.795381 0.777058
O O1 0.500000 0.165781 0.071534
O O2 0.273186 0.101010 0.071121
O O3 0.261805 0.191275 0.172928
O O4 0.253286 0.197486 0.991374
O O5 0.248627 0.084220 0.680953
O O6 0.244403 0.137295 0.844207
O O7 0.000000 0.105576 0.768103
O O8 0.191132 0.034574 0.837538
O O9 0.167305 0.038470 0.204433
O O10 0.000000 0.064970 0.060922
O O11 0.225554 0.994075 0.050857
O O12 0.500000 0.567975 0.588769
O O13 0.263006 0.611667 0.510693
O O14 0.771023 0.761915 0.317234
O O15 0.000000 0.807750 0.403974
O O16 0.500000 0.877118 0.936067
O O17 0.300479 0.941023 0.860412
O O18 0.258807 0.838613 0.850445
O O19 0.500000 0.544829 0.352780
O O20 0.500000 0.800310 0.773714
#
# Coordination Sequence:
#
# PCOD8175872 Si02
#       8
#     8   8   8   8   8   8   8   8
#     4  11  22  38  58  85 117 148 185 237 290 342
#     4   8  17  35  58  81 108 141 186 238 287 327
#     4   9  18  34  56  81 112 150 192 234 283 337
#     4   9  19  35  55  83 115 150 192 239 281 336
#     4  10  21  40  63  84 108 151 198 237 284 337
#     4  11  21  34  52  81 116 157 190 225 287 344
#     4   9  17  32  54  81 109 142 186 238 280 330
#     4   9  21  40  58  78 115 157 191 228 280 343
#
# _framework density 20.043735000000002
#
# number of rings (size 3 to 8) (size 9 to 14) (size 15 to 20)
#    0.000    2.500    1.250    2.250    1.750    1.500 
#    0.000    6.250    0.000    0.000    0.000    0.000 
#    0.000    0.000    0.000    0.000    0.000    0.000 
#
# Total GULP energy -396595.640260 kJ/mol
# GULP energy per Si atom -12393.613758 kJ/mol
# Density = 1.999811 g / cm^3
# Si number density = 20.043735 Si / 1000 Ang^3
#
#
#
# Elastic Constant Matrix: (Units=GPa)
#
#
# Indices 1 2 3 4 5 6 
#
# 1 36.0293 23.5370 21.0527 0.0000 0.0000 0.0000
# 2 23.5370 107.7992 54.1255 0.0000 0.0000 0.0000
# 3 21.0527 54.1255 91.4478 0.0000 0.0000 0.0000
# 4 0.0000 0.0000 0.0000 32.0454 0.0000 0.0000
# 5 0.0000 0.0000 0.0000 0.0000 27.6290 0.0000
# 6 0.0000 0.0000 0.0000 0.0000 0.0000 19.5515
#
#
#
# Elastic Compliance Matrix: (Units=1/GPa)
#
#
# Indices 1 2 3 4 5 6 
#
# 1 0.033826 -0.004945 -0.004860 0.000000 0.000000 0.000000
# 2 -0.004945 0.013922 -0.007102 0.000000 0.000000 0.000000
# 3 -0.004860 -0.007102 0.016257 0.000000 0.000000 0.000000
# 4 0.000000 0.000000 0.000000 0.031206 0.000000 0.000000
# 5 0.000000 0.000000 0.000000 0.000000 0.036194 0.000000
# 6 0.000000 0.000000 0.000000 0.000000 0.000000 0.051147
#
#
# Mechanical properties :
#
#
# Convention : Reuss Voigt Hill
#
# Bulk Modulus (GPa) = 33.12257 48.07853 40.60055
# Shear Modulus (GPa) = 22.08196 24.94925 23.51560
#
# Velocity S-wave (km/s) = 3.32277 3.53192 3.42894
# Velocity P-wave (km/s) = 5.59304 6.37742 5.99806
#
# Compressibility (1/GPa) = 0.03019089
#
# Stress axis : x y z
#
# Youngs Moduli (GPa) = 29.56331 71.82924 61.51078
#
# Poissons Ratio (x) = 0.35521 0.29896
# Poissons Ratio (y) = 0.14620 0.43682
# Poissons Ratio (z) = 0.14369 0.51010
#
# Static dielectric constant tensor:
#      x y z
#    x 3.240870 0.000000 0.000000 
#    y 0.000000 3.803180 0.000000 
#    z 0.000000 0.000000 3.877700 
# 
# 
# High freq. dielectric constant tensor:
#      x y z
#    x 1.738350 0.000000 0.000000 
#    y 0.000000 1.777950 0.000000 
#    z 0.000000 0.000000 1.796100 
# 
# From -- ./inp_files/10932.got.cif
#   From: 2010.03.12/outbox.cif.g09.slc.cpg/sg36_6_cif.got.tgz:10932.got - 2010.04.14 02:13:53.
