data_PCOD8175054
_publ_section_title
;
Structure prediction by ZEFSAII (Michael W. Deem and Ramdas Pophale) SiO2 
 PCOD8175054
Probable space group: C M C 21
;
_chemical_formula_sum "Si O2"
_cell_formula_units_Z 64
_cell_length_a 8.999526
_cell_length_b 18.822675
_cell_length_c 20.763297
_cell_angle_alpha 90.000000
_cell_angle_beta 90.000000
_cell_angle_gamma 90.000000
_cell_volume 3517.201873
_symmetry_space_group_name_H-M "C M C 21"
_symmetry_group_IT_number 36
_symmetry_cell_setting 'orthorhombic'
loop_
_space_group_symop_operation_xyz
x,y,z
-x,-y,1/2+z
x,-y,1/2+z
-x,y,z
1/2+x,1/2+y,z
1/2-x,1/2-y,1/2+z
1/2+x,1/2-y,1/2+z
1/2-x,1/2+y,z
loop_
_atom_site_type_symbol
_atom_site_label
_atom_site_fract_x
_atom_site_fract_y
_atom_site_fract_z
Si Si1 0.333941 0.058225 0.720580
Si Si2 0.674317 0.465633 0.820814
Si Si3 0.665196 0.298171 0.940149
Si Si4 0.828635 0.274288 0.205686
Si Si5 0.335213 0.533974 0.461380
Si Si6 0.170199 0.439154 0.079207
Si Si7 0.674100 0.291580 0.080086
Si Si8 0.824846 0.315033 0.814765
O O1 0.500000 0.043298 0.746715
O O2 0.305769 0.142026 0.715483
O O3 0.316731 0.023084 0.649079
O O4 0.215215 0.024716 0.768518
O O5 0.500000 0.448674 0.817566
O O6 0.715725 0.497070 0.891803
O O7 0.760686 0.393521 0.805506
O O8 0.500000 0.273654 0.919183
O O9 0.666058 0.381883 0.951650
O O10 0.778060 0.279183 0.882875
O O11 0.709396 0.260485 0.008233
O O12 0.767565 0.251024 0.135118
O O13 0.733607 0.234360 0.258447
O O14 0.000000 0.251904 0.210587
O O15 0.500000 0.506785 0.479391
O O16 0.223507 0.510880 0.519412
O O17 0.281501 0.373622 0.080092
O O18 0.000000 0.414415 0.067697
O O19 0.500000 0.285387 0.095608
O O20 0.000000 0.319318 0.811465
#
# Coordination Sequence:
#
# PCOD8175054 Si02
#       8
#     8   8   8   8   8   8   8   8
#     4   9  19  33  49  72  99 127 160 198 239 286
#     4  10  20  33  50  72  99 130 162 199 243 288
#     4   8  15  28  45  67  96 125 156 198 242 281
#     4  10  20  34  51  72 101 131 161 201 246 291
#     4   8  15  27  43  66  93 121 156 197 238 281
#     4   9  16  26  43  68  95 123 156 196 240 283
#     4   9  16  27  45  69  95 123 158 199 240 283
#     4  11  21  32  50  74 100 130 165 202 240 289
#
# _framework density 18.196282
#
# number of rings (size 3 to 8) (size 9 to 14) (size 15 to 20)
#    0.000    2.750    0.000    4.875    0.000    8.500 
#    0.000    0.000    0.000    1.500    0.000    5.250 
#    0.000    0.000    0.000    0.000    0.000    0.000 
#
# Total GULP energy -396520.689643 kJ/mol
# GULP energy per Si atom -12391.271551 kJ/mol
# Density = 1.815487 g / cm^3
# Si number density = 18.196282 Si / 1000 Ang^3
#
#
#
# Elastic Constant Matrix: (Units=GPa)
#
#
# Indices 1 2 3 4 5 6 
#
# 1 793.5825 366.8116 1486.2038 0.0000 0.0000 0.0000
# 2 366.8116 194.0653 742.4307 0.0000 0.0000 0.0000
# 3 1486.2038 742.4307 3096.3392 0.0000 0.0000 0.0000
# 4 0.0000 0.0000 0.0000 20.1523 0.0000 0.0000
# 5 0.0000 0.0000 0.0000 0.0000 39.0903 0.0000
# 6 0.0000 0.0000 0.0000 0.0000 0.0000 20.8983
#
#
#
# Elastic Compliance Matrix: (Units=1/GPa)
#
#
# Indices 1 2 3 4 5 6 
#
# 1 0.013622 -0.008874 -0.004410 0.000000 0.000000 0.000000
# 2 -0.008874 0.068096 -0.012068 0.000000 0.000000 0.000000
# 3 -0.004410 -0.012068 0.005334 0.000000 0.000000 0.000000
# 4 0.000000 0.000000 0.000000 0.049622 0.000000 0.000000
# 5 0.000000 0.000000 0.000000 0.000000 0.025582 0.000000
# 6 0.000000 0.000000 0.000000 0.000000 0.000000 0.047851
#
#
# Mechanical properties :
#
#
# Convention : Reuss Voigt Hill
#
# Bulk Modulus (GPa) = 27.51378 1030.54212 529.02795
# Shear Modulus (GPa) = 18.31998 115.26423 66.79210
#
# Velocity S-wave (km/s) = 3.17645 7.96759 6.06516
# Velocity P-wave (km/s) = 5.34850 25.53861 18.45030
#
# Compressibility (1/GPa) = 0.03634543
#
# Stress axis : x y z
#
# Youngs Moduli (GPa) = 73.41296 14.68524 187.48875
#
# Poissons Ratio (x) = 0.13031 0.82691
# Poissons Ratio (y) = 0.65145 2.26270
# Poissons Ratio (z) = 0.32378 0.17723
#
# Static dielectric constant tensor:
#      x y z
#    x 3.447770 0.000000 0.000000 
#    y 0.000000 2.712080 0.000000 
#    z 0.000000 0.000000 4.157800 
# 
# 
# High freq. dielectric constant tensor:
#      x y z
#    x 1.714280 0.000000 0.000000 
#    y 0.000000 1.628310 0.000000 
#    z 0.000000 0.000000 1.732180 
# 
# From -- ./inp_files/15773.got.cif
#   From: 2010.03.12/outbox.cif.g09.slc.cpg/sg36_8_cif.got.tgz:15773.got - 2010.04.14 02:13:53.
