data_PCOD8175413
_publ_section_title
;
Structure prediction by ZEFSAII (Michael W. Deem and Ramdas Pophale) SiO2 
 PCOD8175413
Probable space group: C M C 21
;
_chemical_formula_sum "Si O2"
_cell_formula_units_Z 56
_cell_length_a 21.925965
_cell_length_b 7.400264
_cell_length_c 16.733901
_cell_angle_alpha 90.000000
_cell_angle_beta 90.000000
_cell_angle_gamma 90.000000
_cell_volume 2715.208128
_symmetry_space_group_name_H-M "C M C 21"
_symmetry_group_IT_number 36
_symmetry_cell_setting 'orthorhombic'
loop_
_space_group_symop_operation_xyz
x,y,z
-x,-y,1/2+z
x,-y,1/2+z
-x,y,z
1/2+x,1/2+y,z
1/2-x,1/2-y,1/2+z
1/2+x,1/2-y,1/2+z
1/2-x,1/2+y,z
loop_
_atom_site_type_symbol
_atom_site_label
_atom_site_fract_x
_atom_site_fract_y
_atom_site_fract_z
Si Si1 0.429903 0.837653 0.889070
Si Si2 0.192934 0.568750 0.099183
Si Si3 0.121559 0.290027 0.449082
Si Si4 0.828352 0.336440 0.769591
Si Si5 0.802855 0.746656 0.801520
Si Si6 0.825869 0.844121 0.631642
Si Si7 0.431214 0.450334 0.523665
O O1 0.500000 0.819946 0.862968
O O2 0.389911 0.770814 0.813179
O O3 0.414272 0.710222 0.963412
O O4 0.416064 0.043092 0.913623
O O5 0.171992 0.698094 0.173712
O O6 0.169310 0.366824 0.111350
O O7 0.266266 0.567008 0.091484
O O8 0.166145 0.647202 0.018705
O O9 0.163826 0.192153 0.382444
O O10 0.073675 0.143003 0.479987
O O11 0.824379 0.548642 0.781032
O O12 0.770326 0.243305 0.812211
O O13 0.821989 0.877465 0.727617
O O14 0.885780 0.942910 0.598769
O O15 0.500000 0.428043 0.555705
#
# Coordination Sequence:
#
# PCOD8175413 Si02
#       7
#     8   8   8   8   8   8   8
#     4  10  22  41  60  82 121 158 197 247 290 359
#     4  10  20  36  63  90 121 157 194 261 299 355
#     4  11  22  39  64  90 117 156 206 251 306 343
#     4   9  20  37  58  88 120 155 198 239 310 353
#     4   9  21  35  60  90 119 156 190 257 301 354
#     4  10  20  40  58  90 126 156 202 243 308 357
#     4  11  24  40  61  86 119 160 201 244 294 363
#
# _framework density 20.624571
#
# number of rings (size 3 to 8) (size 9 to 14) (size 15 to 20)
#    0.000    2.000    1.429    1.286    4.000    2.286 
#    0.000    8.571    0.000    0.000    0.000    0.000 
#    0.000    0.000    0.000    0.000    0.000    0.000 
#
# Total GULP energy -347240.619523 kJ/mol
# GULP energy per Si atom -12401.450697 kJ/mol
# Density = 2.057763 g / cm^3
# Si number density = 20.624571 Si / 1000 Ang^3
#
#
#
# Elastic Constant Matrix: (Units=GPa)
#
#
# Indices 1 2 3 4 5 6 
#
# 1 134.3725 10.8505 68.2455 0.0000 0.0000 0.0000
# 2 10.8505 37.9511 10.8807 0.0000 0.0000 0.0000
# 3 68.2455 10.8807 102.9534 0.0000 0.0000 0.0000
# 4 0.0000 0.0000 0.0000 21.5354 0.0000 0.0000
# 5 0.0000 0.0000 0.0000 0.0000 25.7070 0.0000
# 6 0.0000 0.0000 0.0000 0.0000 0.0000 28.0768
#
#
#
# Elastic Compliance Matrix: (Units=1/GPa)
#
#
# Indices 1 2 3 4 5 6 
#
# 1 0.011264 -0.001114 -0.007349 0.000000 0.000000 0.000000
# 2 -0.001114 0.027283 -0.002145 0.000000 0.000000 0.000000
# 3 -0.007349 -0.002145 0.014812 0.000000 0.000000 0.000000
# 4 0.000000 0.000000 0.000000 0.046435 0.000000 0.000000
# 5 0.000000 0.000000 0.000000 0.000000 0.038900 0.000000
# 6 0.000000 0.000000 0.000000 0.000000 0.000000 0.035617
#
#
# Mechanical properties :
#
#
# Convention : Reuss Voigt Hill
#
# Bulk Modulus (GPa) = 31.11108 50.58115 40.84611
# Shear Modulus (GPa) = 24.24345 27.41721 25.83033
#
# Velocity S-wave (km/s) = 3.43222 3.64998 3.54277
# Velocity P-wave (km/s) = 5.55195 6.50700 6.04835
#
# Compressibility (1/GPa) = 0.03214289
#
# Stress axis : x y z
#
# Youngs Moduli (GPa) = 88.77458 36.65271 67.51499
#
# Poissons Ratio (x) = 0.04081 0.49619
# Poissons Ratio (y) = 0.09885 0.14484
# Poissons Ratio (z) = 0.65243 0.07863
#
# Static dielectric constant tensor:
#      x y z
#    x 3.703130 0.000000 0.000000 
#    y 0.000000 3.726200 0.000000 
#    z 0.000000 0.000000 4.064720 
# 
# 
# High freq. dielectric constant tensor:
#      x y z
#    x 1.795310 0.000000 0.000000 
#    y 0.000000 1.812240 0.000000 
#    z 0.000000 0.000000 1.805430 
# 
# From -- ./inp_files/12853.got.cif
#   From: 2010.03.12/outbox.cif.g09.slc.cpg/sg36_7_cif.got.tgz:12853.got - 2010.04.14 02:13:53.
