data_PCOD8175385
_publ_section_title
;
Structure prediction by ZEFSAII (Michael W. Deem and Ramdas Pophale) SiO2 
 PCOD8175385
Probable space group: C M C 21
;
_chemical_formula_sum "Si O2"
_cell_formula_units_Z 64
_cell_length_a 9.303225
_cell_length_b 28.780033
_cell_length_c 12.418582
_cell_angle_alpha 90.000000
_cell_angle_beta 90.000000
_cell_angle_gamma 90.000000
_cell_volume 3325.039596
_symmetry_space_group_name_H-M "C M C 21"
_symmetry_group_IT_number 36
_symmetry_cell_setting 'orthorhombic'
loop_
_space_group_symop_operation_xyz
x,y,z
-x,-y,1/2+z
x,-y,1/2+z
-x,y,z
1/2+x,1/2+y,z
1/2-x,1/2-y,1/2+z
1/2+x,1/2-y,1/2+z
1/2-x,1/2+y,z
loop_
_atom_site_type_symbol
_atom_site_label
_atom_site_fract_x
_atom_site_fract_y
_atom_site_fract_z
Si Si1 0.344575 0.433352 0.313910
Si Si2 0.672231 0.382190 0.993336
Si Si3 0.830749 0.332012 0.577768
Si Si4 0.837136 0.021041 0.590113
Si Si5 0.169334 0.223760 0.894792
Si Si6 0.833716 0.325797 0.824891
Si Si7 0.332012 0.935263 0.515697
Si Si8 0.659681 0.664316 0.704611
O O1 0.500000 0.443578 0.369392
O O2 0.325273 0.466985 0.214354
O O3 0.213369 0.442767 0.392813
O O4 0.343680 0.380730 0.277814
O O5 0.500000 0.378956 0.989962
O O6 0.718137 0.435471 0.017461
O O7 0.733496 0.348440 0.089867
O O8 0.740777 0.366408 0.880693
O O9 0.749128 0.296680 0.498784
O O10 0.788205 0.319899 0.700435
O O11 0.780624 0.384752 0.555953
O O12 0.000000 0.325877 0.557097
O O13 0.000000 0.009368 0.556654
O O14 0.740347 0.975719 0.583449
O O15 0.196638 0.278614 0.890113
O O16 0.234069 0.202904 0.781692
O O17 0.000000 0.211829 0.903664
O O18 0.000000 0.340419 0.831245
O O19 0.500000 0.940805 0.527619
O O20 0.500000 0.682279 0.677469
#
# Coordination Sequence:
#
# PCOD8175385 Si02
#       8
#     8   8   8   8   8   8   8   8
#     4   9  17  34  57  79 106 143 188 239 285 330
#     4   9  19  37  60  84 111 147 193 236 283 338
#     4  10  23  41  57  81 119 155 188 231 288 347
#     4   9  20  37  58  84 111 148 198 242 284 337
#     4  10  20  36  60  85 108 145 194 236 279 335
#     4  10  23  39  56  83 121 158 188 228 288 347
#     4  11  22  35  55  84 116 151 188 232 291 350
#     4   8  15  31  57  82 104 137 183 236 282 324
#
# _framework density 19.247890999999999
#
# number of rings (size 3 to 8) (size 9 to 14) (size 15 to 20)
#    0.000    2.500    1.250    1.875    1.750    3.500 
#    0.000    5.000    0.000    0.000    0.000    0.000 
#    0.000    0.000    0.000    0.000    0.000    0.000 
#
# Total GULP energy -396601.903312 kJ/mol
# GULP energy per Si atom -12393.809479 kJ/mol
# Density = 1.920408 g / cm^3
# Si number density = 19.247891 Si / 1000 Ang^3
#
#
#
# Elastic Constant Matrix: (Units=GPa)
#
#
# Indices 1 2 3 4 5 6 
#
# 1 50.0476 40.4153 33.3387 0.0000 0.0000 0.0000
# 2 40.4153 92.0520 42.0995 0.0000 0.0000 0.0000
# 3 33.3387 42.0995 72.8510 0.0000 0.0000 0.0000
# 4 0.0000 0.0000 0.0000 21.2430 0.0000 0.0000
# 5 0.0000 0.0000 0.0000 0.0000 50.2015 0.0000
# 6 0.0000 0.0000 0.0000 0.0000 0.0000 26.6441
#
#
#
# Elastic Compliance Matrix: (Units=1/GPa)
#
#
# Indices 1 2 3 4 5 6 
#
# 1 0.035479 -0.011080 -0.009833 0.000000 0.000000 0.000000
# 2 -0.011080 0.018226 -0.005462 0.000000 0.000000 0.000000
# 3 -0.009833 -0.005462 0.021383 0.000000 0.000000 0.000000
# 4 0.000000 0.000000 0.000000 0.047074 0.000000 0.000000
# 5 0.000000 0.000000 0.000000 0.000000 0.019920 0.000000
# 6 0.000000 0.000000 0.000000 0.000000 0.000000 0.037532
#
#
# Mechanical properties :
#
#
# Convention : Reuss Voigt Hill
#
# Bulk Modulus (GPa) = 44.76762 49.62863 47.19812
# Shear Modulus (GPa) = 20.84988 26.22419 23.53704
#
# Velocity S-wave (km/s) = 3.29482 3.69514 3.50070
# Velocity P-wave (km/s) = 6.14682 6.63666 6.39643
#
# Compressibility (1/GPa) = 0.02233757
#
# Stress axis : x y z
#
# Youngs Moduli (GPa) = 28.18606 54.86659 46.76585
#
# Poissons Ratio (x) = 0.60790 0.45986
# Poissons Ratio (y) = 0.31229 0.25544
# Poissons Ratio (z) = 0.27716 0.29969
#
# Static dielectric constant tensor:
#      x y z
#    x 3.290210 0.000000 0.000000 
#    y 0.000000 3.555960 0.000000 
#    z 0.000000 0.000000 3.627440 
# 
# 
# High freq. dielectric constant tensor:
#      x y z
#    x 1.721090 0.000000 0.000000 
#    y 0.000000 1.754110 0.000000 
#    z 0.000000 0.000000 1.752420 
# 
# From -- ./inp_files/7236.got.cif
#   From: 2010.03.12/outbox.cif.g09.slc.cpg/sg36_4_cif.got.tgz:7236.got - 2010.04.14 02:13:53.
