data_PCOD8175906
_publ_section_title
;
Structure prediction by ZEFSAII (Michael W. Deem and Ramdas Pophale) SiO2 
 PCOD8175906
Probable space group: C M C 21
;
_chemical_formula_sum "Si O2"
_cell_formula_units_Z 64
_cell_length_a 8.951049
_cell_length_b 24.736759
_cell_length_c 14.376984
_cell_angle_alpha 90.000000
_cell_angle_beta 90.000000
_cell_angle_gamma 90.000000
_cell_volume 3183.350962
_symmetry_space_group_name_H-M "C M C 21"
_symmetry_group_IT_number 36
_symmetry_cell_setting 'orthorhombic'
loop_
_space_group_symop_operation_xyz
x,y,z
-x,-y,1/2+z
x,-y,1/2+z
-x,y,z
1/2+x,1/2+y,z
1/2-x,1/2-y,1/2+z
1/2+x,1/2-y,1/2+z
1/2-x,1/2+y,z
loop_
_atom_site_type_symbol
_atom_site_label
_atom_site_fract_x
_atom_site_fract_y
_atom_site_fract_z
Si Si1 0.173968 0.941157 0.497280
Si Si2 0.330515 0.710446 0.775812
Si Si3 0.335436 0.729408 0.558256
Si Si4 0.171461 0.653080 0.103691
Si Si5 0.824005 0.820387 0.792640
Si Si6 0.324606 0.446557 0.094519
Si Si7 0.175151 0.909750 0.294669
Si Si8 0.173614 0.639667 0.463588
O O1 0.276845 0.895611 0.540293
O O2 0.214469 0.944633 0.386939
O O3 0.000000 0.926506 0.509956
O O4 0.215444 0.995485 0.551697
O O5 0.500000 0.717404 0.812993
O O6 0.327269 0.714180 0.665479
O O7 0.233008 0.759705 0.816824
O O8 0.260726 0.651737 0.803186
O O9 0.500000 0.712364 0.519802
O O10 0.310444 0.792966 0.542445
O O11 0.204466 0.699166 0.504328
O O12 0.275003 0.657808 0.193191
O O13 0.000000 0.645482 0.135524
O O14 0.757296 0.863865 0.865002
O O15 0.000000 0.820552 0.798384
O O16 0.500000 0.434697 0.086460
O O17 0.268015 0.441457 0.202039
O O18 0.236892 0.403554 0.034489
O O19 0.000000 0.902419 0.283193
O O20 0.000000 0.629999 0.448379
#
# Coordination Sequence:
#
# PCOD8175906 Si02
#       8
#     8   8   8   8   8   8   8   8
#     4  10  22  38  63  94 120 161 216 257 305 367
#     4   9  17  34  58  84 120 159 199 249 309 361
#     4   9  18  35  58  84 117 160 197 240 306 370
#     4  10  22  41  61  86 125 162 199 251 313 367
#     4  11  23  38  59  88 125 163 206 250 304 376
#     4  10  21  41  63  86 124 168 212 259 307 362
#     4   9  18  36  60  87 119 157 201 255 305 356
#     4  12  24  37  58  89 122 160 208 257 309 365
#
# _framework density 20.104602
#
# number of rings (size 3 to 8) (size 9 to 14) (size 15 to 20)
#    0.000    2.000    1.250    3.375    1.750    4.000 
#    0.000    3.125    0.000    0.000    0.000    0.000 
#    0.000    0.000    0.000    0.000    0.000    0.000 
#
# Total GULP energy -396735.964078 kJ/mol
# GULP energy per Si atom -12397.998877 kJ/mol
# Density = 2.005884 g / cm^3
# Si number density = 20.104602 Si / 1000 Ang^3
#
#
#
# Elastic Constant Matrix: (Units=GPa)
#
#
# Indices 1 2 3 4 5 6 
#
# 1 87.1755 45.0884 32.7068 0.0000 0.0000 0.0000
# 2 45.0884 105.4286 68.9366 0.0000 0.0000 0.0000
# 3 32.7068 68.9366 86.2419 0.0000 0.0000 0.0000
# 4 0.0000 0.0000 0.0000 24.3656 0.0000 0.0000
# 5 0.0000 0.0000 0.0000 0.0000 26.8791 0.0000
# 6 0.0000 0.0000 0.0000 0.0000 0.0000 28.3132
#
#
#
# Elastic Compliance Matrix: (Units=1/GPa)
#
#
# Indices 1 2 3 4 5 6 
#
# 1 0.014784 -0.005565 -0.001158 0.000000 0.000000 0.000000
# 2 -0.005565 0.021966 -0.015448 0.000000 0.000000 0.000000
# 3 -0.001158 -0.015448 0.024382 0.000000 0.000000 0.000000
# 4 0.000000 0.000000 0.000000 0.041042 0.000000 0.000000
# 5 0.000000 0.000000 0.000000 0.000000 0.037204 0.000000
# 6 0.000000 0.000000 0.000000 0.000000 0.000000 0.035319
#
#
# Mechanical properties :
#
#
# Convention : Reuss Voigt Hill
#
# Bulk Modulus (GPa) = 59.55871 63.58995 61.57433
# Shear Modulus (GPa) = 22.25823 24.71919 23.48871
#
# Velocity S-wave (km/s) = 3.33095 3.51027 3.42179
# Velocity P-wave (km/s) = 6.66951 6.93740 6.80477
#
# Compressibility (1/GPa) = 0.01679016
#
# Stress axis : x y z
#
# Youngs Moduli (GPa) = 67.63998 45.52492 41.01316
#
# Poissons Ratio (x) = 0.25337 0.04750
# Poissons Ratio (y) = 0.37645 0.63356
# Poissons Ratio (z) = 0.07834 0.70325
#
# Static dielectric constant tensor:
#      x y z
#    x 3.457530 0.000000 0.000000 
#    y 0.000000 3.800920 0.000000 
#    z 0.000000 0.000000 3.842130 
# 
# 
# High freq. dielectric constant tensor:
#      x y z
#    x 1.765120 0.000000 0.000000 
#    y 0.000000 1.778130 0.000000 
#    z 0.000000 0.000000 1.794360 
# 
# From -- ./inp_files/10896.got.cif
#   From: 2010.03.12/outbox.cif.g09.slc.cpg/sg36_6_cif.got.tgz:10896.got - 2010.04.14 02:13:53.
