data_PCOD8175182
_publ_section_title
;
Structure prediction by ZEFSAII (Michael W. Deem and Ramdas Pophale) SiO2 
 PCOD8175182
Probable space group: C M C 21
;
_chemical_formula_sum "Si O2"
_cell_formula_units_Z 64
_cell_length_a 9.472564
_cell_length_b 22.564220
_cell_length_c 15.922313
_cell_angle_alpha 90.000000
_cell_angle_beta 90.000000
_cell_angle_gamma 90.000000
_cell_volume 3403.251390
_symmetry_space_group_name_H-M "C M C 21"
_symmetry_group_IT_number 36
_symmetry_cell_setting 'orthorhombic'
loop_
_space_group_symop_operation_xyz
x,y,z
-x,-y,1/2+z
x,-y,1/2+z
-x,y,z
1/2+x,1/2+y,z
1/2-x,1/2-y,1/2+z
1/2+x,1/2-y,1/2+z
1/2-x,1/2+y,z
loop_
_atom_site_type_symbol
_atom_site_label
_atom_site_fract_x
_atom_site_fract_y
_atom_site_fract_z
Si Si1 0.664952 0.902273 0.858590
Si Si2 0.159980 0.862480 0.010273
Si Si3 0.335566 0.708848 0.673002
Si Si4 0.835216 0.345630 0.682500
Si Si5 0.840890 0.078997 0.063714
Si Si6 0.659334 0.033792 0.912602
Si Si7 0.153926 0.958539 0.141822
Si Si8 0.659351 0.113027 0.756670
O O1 0.500000 0.890772 0.870605
O O2 0.713317 0.879309 0.766980
O O3 0.703118 0.971982 0.867437
O O4 0.742336 0.861628 0.928085
O O5 0.208476 0.813179 0.079273
O O6 0.175043 0.927526 0.051312
O O7 0.000000 0.849626 0.981306
O O8 0.500000 0.695969 0.686490
O O9 0.298074 0.776632 0.689128
O O10 0.251283 0.672034 0.743662
O O11 0.749199 0.367407 0.601327
O O12 0.000000 0.356178 0.664578
O O13 0.000000 0.100130 0.041503
O O14 0.844262 0.028796 0.134713
O O15 0.769543 0.049612 0.983616
O O16 0.500000 0.027109 0.948785
O O17 0.664855 0.090224 0.851363
O O18 0.280580 0.940759 0.201790
O O19 0.000000 0.938039 0.177557
O O20 0.500000 0.126282 0.727926
#
# Coordination Sequence:
#
# PCOD8175182 Si02
#       8
#     8   8   8   8   8   8   8   8
#     4  10  20  35  58  86 112 145 189 233 281 341
#     4   9  17  33  56  81 109 145 185 228 278 333
#     4   9  20  40  60  78 111 154 192 231 285 341
#     4  10  22  41  60  80 114 156 192 233 290 342
#     4  11  22  36  56  83 114 148 188 232 279 337
#     4  10  21  36  54  83 119 148 182 229 288 346
#     4   9  18  33  53  80 113 145 180 222 282 342
#     4  10  20  34  57  85 110 143 188 234 275 328
#
# _framework density 18.805544999999999
#
# number of rings (size 3 to 8) (size 9 to 14) (size 15 to 20)
#    0.000    2.250    1.250    2.250    0.000    6.000 
#    2.250    0.000    0.000    0.000    0.000    0.000 
#    0.000    0.000    0.000    0.000    0.000    0.000 
#
# Total GULP energy -396714.550997 kJ/mol
# GULP energy per Si atom -12397.329719 kJ/mol
# Density = 1.876274 g / cm^3
# Si number density = 18.805545 Si / 1000 Ang^3
#
#
#
# Elastic Constant Matrix: (Units=GPa)
#
#
# Indices 1 2 3 4 5 6 
#
# 1 91.4562 49.7546 47.5120 0.0000 0.0000 0.0000
# 2 49.7546 105.4551 42.4614 0.0000 0.0000 0.0000
# 3 47.5120 42.4614 72.5038 0.0000 0.0000 0.0000
# 4 0.0000 0.0000 0.0000 26.5601 0.0000 0.0000
# 5 0.0000 0.0000 0.0000 0.0000 23.1155 0.0000
# 6 0.0000 0.0000 0.0000 0.0000 0.0000 25.9939
#
#
#
# Elastic Compliance Matrix: (Units=1/GPa)
#
#
# Indices 1 2 3 4 5 6 
#
# 1 0.018398 -0.005006 -0.009124 0.000000 0.000000 0.000000
# 2 -0.005006 0.013771 -0.004784 0.000000 0.000000 0.000000
# 3 -0.009124 -0.004784 0.022573 0.000000 0.000000 0.000000
# 4 0.000000 0.000000 0.000000 0.037650 0.000000 0.000000
# 5 0.000000 0.000000 0.000000 0.000000 0.043261 0.000000
# 6 0.000000 0.000000 0.000000 0.000000 0.000000 0.038471
#
#
# Mechanical properties :
#
#
# Convention : Reuss Voigt Hill
#
# Bulk Modulus (GPa) = 59.12744 60.98567 60.05656
# Shear Modulus (GPa) = 22.97882 23.77973 23.37928
#
# Velocity S-wave (km/s) = 3.49939 3.55985 3.52975
# Velocity P-wave (km/s) = 6.91646 7.02828 6.97259
#
# Compressibility (1/GPa) = 0.01691262
#
# Stress axis : x y z
#
# Youngs Moduli (GPa) = 54.35402 72.61553 44.29993
#
# Poissons Ratio (x) = 0.36354 0.40420
# Poissons Ratio (y) = 0.27212 0.21194
# Poissons Ratio (z) = 0.49594 0.34741
#
# Static dielectric constant tensor:
#      x y z
#    x 3.522630 0.000000 0.000000 
#    y 0.000000 3.412010 0.000000 
#    z 0.000000 0.000000 3.239430 
# 
# 
# High freq. dielectric constant tensor:
#      x y z
#    x 1.734290 0.000000 0.000000 
#    y 0.000000 1.723180 0.000000 
#    z 0.000000 0.000000 1.714700 
# 
# From -- ./inp_files/10875.got.cif
#   From: 2010.03.12/outbox.cif.g09.slc.cpg/sg36_6_cif.got.tgz:10875.got - 2010.04.14 02:13:53.
