data_PCOD8175225
_publ_section_title
;
Structure prediction by ZEFSAII (Michael W. Deem and Ramdas Pophale) SiO2 
 PCOD8175225
Probable space group: C M C 21
;
_chemical_formula_sum "Si O2"
_cell_formula_units_Z 64
_cell_length_a 9.325865
_cell_length_b 24.085770
_cell_length_c 14.355948
_cell_angle_alpha 90.000000
_cell_angle_beta 90.000000
_cell_angle_gamma 90.000000
_cell_volume 3224.642220
_symmetry_space_group_name_H-M "C M C 21"
_symmetry_group_IT_number 36
_symmetry_cell_setting 'orthorhombic'
loop_
_space_group_symop_operation_xyz
x,y,z
-x,-y,1/2+z
x,-y,1/2+z
-x,y,z
1/2+x,1/2+y,z
1/2-x,1/2-y,1/2+z
1/2+x,1/2-y,1/2+z
1/2-x,1/2+y,z
loop_
_atom_site_type_symbol
_atom_site_label
_atom_site_fract_x
_atom_site_fract_y
_atom_site_fract_z
Si Si1 0.667403 0.446029 0.598370
Si Si2 0.842536 0.902137 0.919029
Si Si3 0.338815 0.347629 0.724670
Si Si4 0.334885 0.806970 0.992830
Si Si5 0.331748 0.957905 0.208690
Si Si6 0.169911 0.249493 0.809574
Si Si7 0.335777 0.831405 0.193848
Si Si8 0.335272 0.473034 0.395618
O O1 0.500000 0.458352 0.618884
O O2 0.712835 0.386014 0.639217
O O3 0.755644 0.496801 0.643497
O O4 0.695796 0.437271 0.488311
O O5 0.836902 0.889636 0.810209
O O6 0.731596 0.866740 0.976585
O O7 0.000000 0.889059 0.959560
O O8 0.802456 0.965558 0.932102
O O9 0.500000 0.323669 0.708407
O O10 0.230065 0.297100 0.741065
O O11 0.500000 0.815331 0.972672
O O12 0.279516 0.761481 0.917059
O O13 0.305794 0.793168 0.101352
O O14 0.500000 0.971826 0.211594
O O15 0.302445 0.895694 0.170483
O O16 0.271634 0.957401 0.313555
O O17 0.236114 0.190817 0.777588
O O18 0.000000 0.246404 0.799721
O O19 0.500000 0.824898 0.225759
O O20 0.500000 0.466773 0.361259
#
# Coordination Sequence:
#
# PCOD8175225 Si02
#       8
#     8   8   8   8   8   8   8   8
#     4  10  20  36  59  85 115 153 194 233 280 342
#     4   9  16  29  52  80 109 141 181 228 272 320
#     4   9  17  33  55  78 108 144 180 225 282 335
#     4   9  19  36  58  83 109 141 187 234 280 333
#     4  11  23  37  57  85 119 156 190 234 292 345
#     4  10  21  37  59  86 108 138 188 242 283 329
#     4  10  22  41  59  79 114 155 187 227 287 346
#     4  10  20  35  55  82 116 154 193 231 278 342
#
# _framework density 19.847162000000001
#
# number of rings (size 3 to 8) (size 9 to 14) (size 15 to 20)
#    0.000    2.250    1.250    1.500    0.000    3.500 
#    2.250    0.000    0.000    0.000    0.000    0.000 
#    0.000    0.000    0.000    0.000    0.000    0.000 
#
# Total GULP energy -396636.773792 kJ/mol
# GULP energy per Si atom -12394.899181 kJ/mol
# Density = 1.980199 g / cm^3
# Si number density = 19.847162 Si / 1000 Ang^3
#
#
#
# Elastic Constant Matrix: (Units=GPa)
#
#
# Indices 1 2 3 4 5 6 
#
# 1 53.1060 -26.5025 45.0164 0.0000 0.0000 0.0000
# 2 -26.5025 -165.7201 34.2615 0.0000 0.0000 0.0000
# 3 45.0164 34.2615 80.4271 0.0000 0.0000 0.0000
# 4 0.0000 0.0000 0.0000 21.5744 0.0000 0.0000
# 5 0.0000 0.0000 0.0000 0.0000 24.8981 0.0000
# 6 0.0000 0.0000 0.0000 0.0000 0.0000 30.2401
#
#
#
# Elastic Compliance Matrix: (Units=1/GPa)
#
#
# Indices 1 2 3 4 5 6 
#
# 1 0.025328 -0.006416 -0.011443 0.000000 0.000000 0.000000
# 2 -0.006416 -0.003920 0.005261 0.000000 0.000000 0.000000
# 3 -0.011443 0.005261 0.016597 0.000000 0.000000 0.000000
# 4 0.000000 0.000000 0.000000 0.046351 0.000000 0.000000
# 5 0.000000 0.000000 0.000000 0.000000 0.040164 0.000000
# 6 0.000000 0.000000 0.000000 0.000000 0.000000 0.033069
#
#
# Mechanical properties :
#
#
# Convention : Reuss Voigt Hill
#
# Bulk Modulus (GPa) = 78.07238 8.15153 43.11195
# Shear Modulus (GPa) = 26.73010 9.67837 18.20423
#
# Velocity S-wave (km/s) = 3.67385 2.21066 3.03185
# Velocity P-wave (km/s) = 7.57750 3.26069 5.83312
#
# Compressibility (1/GPa) = 0.01280863
#
# Stress axis : x y z
#
# Youngs Moduli (GPa) = 39.48151 -255.07758 60.25075
#
# Poissons Ratio (x) = -1.63668 0.68947
# Poissons Ratio (y) = 0.25333 -0.31700
# Poissons Ratio (z) = 0.45180 1.34207
#
# Static dielectric constant tensor:
#      x y z
#    x 3.558460 0.000000 0.000000 
#    y 0.000000 3.478250 0.000000 
#    z 0.000000 0.000000 4.092790 
# 
# 
# High freq. dielectric constant tensor:
#      x y z
#    x 1.766270 0.000000 0.000000 
#    y 0.000000 1.761930 0.000000 
#    z 0.000000 0.000000 1.777760 
# 
# From -- ./inp_files/10872.got.cif
#   From: 2010.03.12/outbox.cif.g09.slc.cpg/sg36_6_cif.got.tgz:10872.got - 2010.04.14 02:13:53.
