data_PCOD8175111
_publ_section_title
;
Structure prediction by ZEFSAII (Michael W. Deem and Ramdas Pophale) SiO2 
 PCOD8175111
Probable space group: C M C 21
;
_chemical_formula_sum "Si O2"
_cell_formula_units_Z 64
_cell_length_a 8.994040
_cell_length_b 18.715320
_cell_length_c 20.241713
_cell_angle_alpha 90.000000
_cell_angle_beta 90.000000
_cell_angle_gamma 90.000000
_cell_volume 3407.213398
_symmetry_space_group_name_H-M "C M C 21"
_symmetry_group_IT_number 36
_symmetry_cell_setting 'orthorhombic'
loop_
_space_group_symop_operation_xyz
x,y,z
-x,-y,1/2+z
x,-y,1/2+z
-x,y,z
1/2+x,1/2+y,z
1/2-x,1/2-y,1/2+z
1/2+x,1/2-y,1/2+z
1/2-x,1/2+y,z
loop_
_atom_site_type_symbol
_atom_site_label
_atom_site_fract_x
_atom_site_fract_y
_atom_site_fract_z
Si Si1 0.676569 0.202476 0.388100
Si Si2 0.176687 0.793848 0.263483
Si Si3 0.827629 0.057058 0.993674
Si Si4 0.674417 0.196439 0.145819
Si Si5 0.824891 0.296541 0.495031
Si Si6 0.174414 0.050869 0.379590
Si Si7 0.326310 0.449155 0.643347
Si Si8 0.323850 0.452823 0.259471
O O1 0.500000 0.203482 0.394060
O O2 0.733949 0.249256 0.326277
O O3 0.746568 0.234094 0.454491
O O4 0.731114 0.122350 0.378337
O O5 0.232302 0.757388 0.195587
O O6 0.245202 0.873582 0.266465
O O7 0.000000 0.796914 0.264284
O O8 0.785607 0.032478 0.067739
O O9 0.000000 0.078929 0.987501
O O10 0.733354 0.126007 0.971989
O O11 0.789411 0.990826 0.947048
O O12 0.500000 0.185183 0.152352
O O13 0.747987 0.122561 0.167645
O O14 0.718796 0.217408 0.071309
O O15 0.000000 0.292983 0.483388
O O16 0.000000 0.068972 0.373771
O O17 0.231549 0.002269 0.319228
O O18 0.500000 0.436446 0.652507
O O19 0.271265 0.513930 0.689653
O O20 0.500000 0.446686 0.262529
#
# Coordination Sequence:
#
# PCOD8175111 Si02
#       8
#     8   8   8   8   8   8   8   8
#     4  11  22  35  53  76 104 138 174 214 259 306
#     4   9  18  33  53  76 101 132 172 213 254 303
#     4   9  18  33  53  76 102 134 170 208 253 305
#     4   9  18  33  54  77 102 133 167 206 251 301
#     4  10  20  34  54  79 106 137 172 211 255 304
#     4  10  20  34  52  74 101 133 171 213 256 304
#     4   9  17  30  51  76 100 128 163 204 250 302
#     4   9  17  30  50  74  98 127 165 209 254 301
#
# _framework density 18.783678999999999
#
# number of rings (size 3 to 8) (size 9 to 14) (size 15 to 20)
#    0.000    2.500    0.000    2.250    0.000    4.000 
#    0.000    4.375    0.000    3.000    0.000    0.000 
#    0.000    0.000    0.000    0.000    0.000    0.000 
#
# Total GULP energy -396838.463220 kJ/mol
# GULP energy per Si atom -12401.201976 kJ/mol
# Density = 1.874093 g / cm^3
# Si number density = 18.783679 Si / 1000 Ang^3
#
#
#
# Elastic Constant Matrix: (Units=GPa)
#
#
# Indices 1 2 3 4 5 6 
#
# 1 40.3006 39.0083 29.4382 0.0000 0.0000 0.0000
# 2 39.0083 164.0186 84.3156 0.0000 0.0000 0.0000
# 3 29.4382 84.3156 117.3313 0.0000 0.0000 0.0000
# 4 0.0000 0.0000 0.0000 38.2245 0.0000 0.0000
# 5 0.0000 0.0000 0.0000 0.0000 18.9330 0.0000
# 6 0.0000 0.0000 0.0000 0.0000 0.0000 32.4201
#
#
#
# Elastic Compliance Matrix: (Units=1/GPa)
#
#
# Indices 1 2 3 4 5 6 
#
# 1 0.033520 -0.005786 -0.004252 0.000000 0.000000 0.000000
# 2 -0.005786 0.010667 -0.006214 0.000000 0.000000 0.000000
# 3 -0.004252 -0.006214 0.014055 0.000000 0.000000 0.000000
# 4 0.000000 0.000000 0.000000 0.026161 0.000000 0.000000
# 5 0.000000 0.000000 0.000000 0.000000 0.052818 0.000000
# 6 0.000000 0.000000 0.000000 0.000000 0.000000 0.030845
#
#
# Mechanical properties :
#
#
# Convention : Reuss Voigt Hill
#
# Bulk Modulus (GPa) = 38.85280 69.68606 54.26943
# Shear Modulus (GPa) = 23.90622 29.17476 26.54049
#
# Velocity S-wave (km/s) = 3.57138 3.94534 3.76301
# Velocity P-wave (km/s) = 6.14293 7.61144 6.91627
#
# Compressibility (1/GPa) = 0.02573817
#
# Stress axis : x y z
#
# Youngs Moduli (GPa) = 29.83275 93.74419 71.14855
#
# Poissons Ratio (x) = 0.54242 0.30253
# Poissons Ratio (y) = 0.17262 0.44211
# Poissons Ratio (z) = 0.12685 0.58252
#
# Static dielectric constant tensor:
#      x y z
#    x 3.171250 0.000000 0.000000 
#    y 0.000000 3.570400 0.000000 
#    z 0.000000 0.000000 3.710380 
# 
# 
# High freq. dielectric constant tensor:
#      x y z
#    x 1.699790 0.000000 0.000000 
#    y 0.000000 1.731980 0.000000 
#    z 0.000000 0.000000 1.744530 
# 
# From -- ./inp_files/15586.got.cif
#   From: 2010.03.12/outbox.cif.g09.slc.cpg/sg36_8_cif.got.tgz:15586.got - 2010.04.14 02:13:53.
