data_PCOD8175447
_publ_section_title
;
Structure prediction by ZEFSAII (Michael W. Deem and Ramdas Pophale) SiO2 
 PCOD8175447
Probable space group: C M C 21
;
_chemical_formula_sum "Si O2"
_cell_formula_units_Z 64
_cell_length_a 9.077915
_cell_length_b 26.961724
_cell_length_c 12.962742
_cell_angle_alpha 90.000000
_cell_angle_beta 90.000000
_cell_angle_gamma 90.000000
_cell_volume 3172.711975
_symmetry_space_group_name_H-M "C M C 21"
_symmetry_group_IT_number 36
_symmetry_cell_setting 'orthorhombic'
loop_
_space_group_symop_operation_xyz
x,y,z
-x,-y,1/2+z
x,-y,1/2+z
-x,y,z
1/2+x,1/2+y,z
1/2-x,1/2-y,1/2+z
1/2+x,1/2-y,1/2+z
1/2-x,1/2+y,z
loop_
_atom_site_type_symbol
_atom_site_label
_atom_site_fract_x
_atom_site_fract_y
_atom_site_fract_z
Si Si1 0.336137 0.047304 0.721060
Si Si2 0.325053 0.308840 0.989409
Si Si3 0.161108 0.480381 0.901151
Si Si4 0.670677 0.479088 0.577527
Si Si5 0.668971 0.125773 0.321805
Si Si6 0.674328 0.875823 0.590114
Si Si7 0.825700 0.299250 0.418965
Si Si8 0.174482 0.339330 0.199622
O O1 0.500000 0.040889 0.672093
O O2 0.280893 0.103145 0.707259
O O3 0.342226 0.032646 0.840865
O O4 0.218400 0.008527 0.678379
O O5 0.500000 0.312475 0.999714
O O6 0.255633 0.315749 0.102095
O O7 0.270425 0.349551 0.908311
O O8 0.272560 0.255801 0.946375
O O9 0.191501 0.433519 0.826954
O O10 0.000000 0.472828 0.953828
O O11 0.288411 0.483142 0.985637
O O12 0.500000 0.467358 0.580719
O O13 0.755569 0.428117 0.562623
O O14 0.500000 0.141073 0.343119
O O15 0.717777 0.141838 0.206208
O O16 0.500000 0.882461 0.583342
O O17 0.735676 0.836112 0.507481
O O18 0.767627 0.313246 0.304668
O O19 0.000000 0.303299 0.419155
O O20 0.000000 0.332557 0.186193
#
# Coordination Sequence:
#
# PCOD8175447 Si02
#       8
#     8   8   8   8   8   8   8   8
#     4  10  20  38  62  85 111 156 207 246 283 339
#     4  11  24  40  61  91 126 160 194 246 317 369
#     4  10  20  37  60  85 114 157 209 247 282 340
#     4  12  24  35  54  89 129 161 189 237 308 363
#     4  10  21  38  64  93 119 157 208 255 294 351
#     4  10  20  41  67  89 117 159 215 255 289 352
#     4   9  21  41  66  91 116 156 204 256 306 355
#     4  10  21  40  64  89 118 156 208 254 295 355
#
# _framework density 20.172018000000001
#
# number of rings (size 3 to 8) (size 9 to 14) (size 15 to 20)
#    0.000    1.750    1.250    3.000    1.750    7.000 
#    0.000    3.750    0.000    0.000    0.000    0.000 
#    0.000    0.000    0.000    0.000    0.000    0.000 
#
# Total GULP energy -396756.323787 kJ/mol
# GULP energy per Si atom -12398.635118 kJ/mol
# Density = 2.012611 g / cm^3
# Si number density = 20.172018 Si / 1000 Ang^3
#
#
#
# Elastic Constant Matrix: (Units=GPa)
#
#
# Indices 1 2 3 4 5 6 
#
# 1 58.6546 32.8697 43.7310 0.0000 0.0000 0.0000
# 2 32.8697 116.9047 56.9920 0.0000 0.0000 0.0000
# 3 43.7310 56.9920 146.5220 0.0000 0.0000 0.0000
# 4 0.0000 0.0000 0.0000 35.6869 0.0000 0.0000
# 5 0.0000 0.0000 0.0000 0.0000 18.2419 0.0000
# 6 0.0000 0.0000 0.0000 0.0000 0.0000 16.2998
#
#
#
# Elastic Compliance Matrix: (Units=1/GPa)
#
#
# Indices 1 2 3 4 5 6 
#
# 1 0.023284 -0.003898 -0.005433 0.000000 0.000000 0.000000
# 2 -0.003898 0.011208 -0.003196 0.000000 0.000000 0.000000
# 3 -0.005433 -0.003196 0.009690 0.000000 0.000000 0.000000
# 4 0.000000 0.000000 0.000000 0.028021 0.000000 0.000000
# 5 0.000000 0.000000 0.000000 0.000000 0.054819 0.000000
# 6 0.000000 0.000000 0.000000 0.000000 0.000000 0.061351
#
#
# Mechanical properties :
#
#
# Convention : Reuss Voigt Hill
#
# Bulk Modulus (GPa) = 52.28141 65.47407 58.87774
# Shear Modulus (GPa) = 22.74760 26.61163 24.67961
#
# Velocity S-wave (km/s) = 3.36174 3.63607 3.50159
# Velocity P-wave (km/s) = 6.40644 7.08211 6.75273
#
# Compressibility (1/GPa) = 0.01912726
#
# Stress axis : x y z
#
# Youngs Moduli (GPa) = 42.94754 89.22103 103.20220
#
# Poissons Ratio (x) = 0.34778 0.56072
# Poissons Ratio (y) = 0.16741 0.32985
# Poissons Ratio (z) = 0.23334 0.28517
#
# Static dielectric constant tensor:
#      x y z
#    x 3.370420 0.000000 0.000000 
#    y 0.000000 3.699630 0.000000 
#    z 0.000000 0.000000 3.787650 
# 
# 
# High freq. dielectric constant tensor:
#      x y z
#    x 1.758370 0.000000 0.000000 
#    y 0.000000 1.790800 0.000000 
#    z 0.000000 0.000000 1.802170 
# 
# From -- ./inp_files/7115.got.cif
#   From: 2010.03.12/outbox.cif.g09.slc.cpg/sg36_4_cif.got.tgz:7115.got - 2010.04.14 02:13:53.
