data_PCOD8175249
_publ_section_title
;
Structure prediction by ZEFSAII (Michael W. Deem and Ramdas Pophale) SiO2 
 PCOD8175249
Probable space group: C M C 21
;
_chemical_formula_sum "Si O2"
_cell_formula_units_Z 64
_cell_length_a 16.229934
_cell_length_b 21.559511
_cell_length_c 9.043725
_cell_angle_alpha 90.000000
_cell_angle_beta 90.000000
_cell_angle_gamma 90.000000
_cell_volume 3164.484756
_symmetry_space_group_name_H-M "C M C 21"
_symmetry_group_IT_number 36
_symmetry_cell_setting 'orthorhombic'
loop_
_space_group_symop_operation_xyz
x,y,z
-x,-y,1/2+z
x,-y,1/2+z
-x,y,z
1/2+x,1/2+y,z
1/2-x,1/2-y,1/2+z
1/2+x,1/2-y,1/2+z
1/2-x,1/2+y,z
loop_
_atom_site_type_symbol
_atom_site_label
_atom_site_fract_x
_atom_site_fract_y
_atom_site_fract_z
Si Si1 0.591804 0.705507 0.316200
Si Si2 0.594184 0.222837 0.322358
Si Si3 0.092421 0.321797 0.497639
Si Si4 0.305935 0.535290 0.572315
Si Si5 0.378714 0.660533 0.997967
Si Si6 0.723544 0.094307 0.083125
Si Si7 0.740244 0.139689 0.398430
Si Si8 0.409672 0.467289 0.361228
O O1 0.500000 0.688778 0.383936
O O2 0.610695 0.777446 0.357293
O O3 0.667962 0.667579 0.382614
O O4 0.583192 0.694520 0.141071
O O5 0.500000 0.200497 0.358379
O O6 0.614270 0.215471 0.149069
O O7 0.603948 0.295620 0.357883
O O8 0.664397 0.187660 0.420868
O O9 0.140684 0.387205 0.496296
O O10 0.000000 0.344672 0.496894
O O11 0.250727 0.474473 0.544635
O O12 0.248134 0.594388 0.539534
O O13 0.381425 0.527195 0.456476
O O14 0.342357 0.543794 0.734662
O O15 0.418152 0.593168 0.966071
O O16 0.283036 0.649396 0.027284
O O17 0.715806 0.097473 0.259342
O O18 0.500000 0.482650 0.295135
#
# Coordination Sequence:
#
# PCOD8175249 Si02
#       8
#     8   8   8   8   8   8   8   8
#     4  10  20  35  56  85 121 152 184 230 289 354
#     4  10  20  37  59  83 114 148 192 241 290 347
#     4   9  19  35  59  86 112 148 191 239 291 349
#     4  11  22  40  56  82 112 155 197 247 291 350
#     4  10  21  37  57  85 119 154 187 238 291 348
#     4   9  19  39  57  79 114 151 193 237 292 342
#     4  10  21  37  56  82 113 152 190 237 294 344
#     4  11  23  38  59  84 115 156 199 243 296 354
#
# _framework density 20.224461000000002
#
# number of rings (size 3 to 8) (size 9 to 14) (size 15 to 20)
#    0.000    2.000    1.250    2.250    1.750    1.000 
#    4.500    0.625    0.000    0.000    0.000    0.000 
#    0.000    0.000    0.000    0.000    0.000    0.000 
#
# Total GULP energy -396526.882473 kJ/mol
# GULP energy per Si atom -12391.465077 kJ/mol
# Density = 2.017843 g / cm^3
# Si number density = 20.224461 Si / 1000 Ang^3
#
#
#
# Elastic Constant Matrix: (Units=GPa)
#
#
# Indices 1 2 3 4 5 6 
#
# 1 98.6517 42.2586 24.0996 0.0000 0.0000 0.0000
# 2 42.2586 72.8099 20.3581 0.0000 0.0000 0.0000
# 3 24.0996 20.3581 64.7732 0.0000 0.0000 0.0000
# 4 0.0000 0.0000 0.0000 33.6596 0.0000 0.0000
# 5 0.0000 0.0000 0.0000 0.0000 20.1880 0.0000
# 6 0.0000 0.0000 0.0000 0.0000 0.0000 13.2247
#
#
#
# Elastic Compliance Matrix: (Units=1/GPa)
#
#
# Indices 1 2 3 4 5 6 
#
# 1 0.013972 -0.007297 -0.002905 0.000000 0.000000 0.000000
# 2 -0.007297 0.018869 -0.003215 0.000000 0.000000 0.000000
# 3 -0.002905 -0.003215 0.017530 0.000000 0.000000 0.000000
# 4 0.000000 0.000000 0.000000 0.029709 0.000000 0.000000
# 5 0.000000 0.000000 0.000000 0.000000 0.049534 0.000000
# 6 0.000000 0.000000 0.000000 0.000000 0.000000 0.075616
#
#
# Mechanical properties :
#
#
# Convention : Reuss Voigt Hill
#
# Bulk Modulus (GPa) = 42.48876 45.51860 44.00368
# Shear Modulus (GPa) = 20.84110 23.38236 22.11173
#
# Velocity S-wave (km/s) = 3.21361 3.40390 3.31012
# Velocity P-wave (km/s) = 5.90118 6.16476 6.03441
#
# Compressibility (1/GPa) = 0.02353563
#
# Stress axis : x y z
#
# Youngs Moduli (GPa) = 71.57100 52.99792 57.04536
#
# Poissons Ratio (x) = 0.38673 0.16572
# Poissons Ratio (y) = 0.52226 0.18342
# Poissons Ratio (z) = 0.20792 0.17041
#
# Static dielectric constant tensor:
#      x y z
#    x 3.895550 0.000000 0.000000 
#    y 0.000000 3.470480 0.000000 
#    z 0.000000 0.000000 3.557760 
# 
# 
# High freq. dielectric constant tensor:
#      x y z
#    x 1.795380 0.000000 0.000000 
#    y 0.000000 1.770850 0.000000 
#    z 0.000000 0.000000 1.777310 
# 
# From -- ./inp_files/4921.got.cif
#   From: 2010.03.12/outbox.cif.g09.slc.cpg/sg36_3_cif.got.tgz:4921.got - 2010.04.14 02:13:53.
