data_PCOD8175772
_publ_section_title
;
Structure prediction by ZEFSAII (Michael W. Deem and Ramdas Pophale) SiO2 
 PCOD8175772
Probable space group: C M C 21
;
_chemical_formula_sum "Si O2"
_cell_formula_units_Z 64
_cell_length_a 8.958346
_cell_length_b 22.295016
_cell_length_c 16.338215
_cell_angle_alpha 90.000000
_cell_angle_beta 90.000000
_cell_angle_gamma 90.000000
_cell_volume 3263.173966
_symmetry_space_group_name_H-M "C M C 21"
_symmetry_group_IT_number 36
_symmetry_cell_setting 'orthorhombic'
loop_
_space_group_symop_operation_xyz
x,y,z
-x,-y,1/2+z
x,-y,1/2+z
-x,y,z
1/2+x,1/2+y,z
1/2-x,1/2-y,1/2+z
1/2+x,1/2-y,1/2+z
1/2-x,1/2+y,z
loop_
_atom_site_type_symbol
_atom_site_label
_atom_site_fract_x
_atom_site_fract_y
_atom_site_fract_z
Si Si1 0.827828 0.897219 0.472760
Si Si2 0.324787 0.790473 0.850272
Si Si3 0.827953 0.911489 0.144813
Si Si4 0.823221 0.157774 0.806700
Si Si5 0.832154 0.814292 0.014311
Si Si6 0.667905 0.370684 0.727583
Si Si7 0.836932 0.783955 0.583073
Si Si8 0.176265 0.535030 0.113370
O O1 0.769983 0.887754 0.379450
O O2 0.805132 0.833207 0.514301
O O3 0.735587 0.947366 0.522762
O O4 0.000000 0.917898 0.476171
O O5 0.500000 0.794189 0.834850
O O6 0.260786 0.725735 0.819606
O O7 0.289214 0.800907 0.945194
O O8 0.247718 0.848203 0.809203
O O9 0.770797 0.869792 0.220068
O O10 0.000000 0.930345 0.160280
O O11 0.722450 0.968356 0.137542
O O12 0.813023 0.877991 0.058035
O O13 0.000000 0.162424 0.812300
O O14 0.000000 0.806478 0.980643
O O15 0.795981 0.764368 0.083112
O O16 0.500000 0.393604 0.746795
O O17 0.664268 0.312483 0.671666
O O18 0.758278 0.423394 0.684481
O O19 0.000000 0.754696 0.566825
O O20 0.000000 0.541150 0.112796
#
# Coordination Sequence:
#
# PCOD8175772 Si02
#       8
#     8   8   8   8   8   8   8   8
#     4   9  17  35  61  87 115 153 194 238 293 354
#     4  11  21  37  60  90 124 153 190 242 299 353
#     4  10  22  41  61  83 114 159 206 246 289 351
#     4   9  18  36  63  90 117 153 195 241 298 354
#     4  11  22  35  55  85 122 159 197 236 289 355
#     4  10  21  38  60  86 115 152 194 237 291 355
#     4   9  17  32  56  84 116 150 185 230 288 346
#     4  11  23  40  60  85 115 153 199 248 299 346
#
# _framework density 19.612807
#
# number of rings (size 3 to 8) (size 9 to 14) (size 15 to 20)
#    0.000    2.000    1.250    3.750    0.000    4.500 
#    2.250    1.875    0.000    0.000    0.000    0.000 
#    0.000    0.000    0.000    0.000    0.000    0.000 
#
# Total GULP energy -396690.511148 kJ/mol
# GULP energy per Si atom -12396.578473 kJ/mol
# Density = 1.956817 g / cm^3
# Si number density = 19.612807 Si / 1000 Ang^3
#
#
#
# Elastic Constant Matrix: (Units=GPa)
#
#
# Indices 1 2 3 4 5 6 
#
# 1 99.0297 48.1995 33.5617 0.0000 0.0000 0.0000
# 2 48.1995 91.3516 41.6434 0.0000 0.0000 0.0000
# 3 33.5617 41.6434 74.8311 0.0000 0.0000 0.0000
# 4 0.0000 0.0000 0.0000 24.0183 0.0000 0.0000
# 5 0.0000 0.0000 0.0000 0.0000 27.8710 0.0000
# 6 0.0000 0.0000 0.0000 0.0000 0.0000 31.0964
#
#
#
# Elastic Compliance Matrix: (Units=1/GPa)
#
#
# Indices 1 2 3 4 5 6 
#
# 1 0.014046 -0.006082 -0.002915 0.000000 0.000000 0.000000
# 2 -0.006082 0.017302 -0.006900 0.000000 0.000000 0.000000
# 3 -0.002915 -0.006900 0.018511 0.000000 0.000000 0.000000
# 4 0.000000 0.000000 0.000000 0.041635 0.000000 0.000000
# 5 0.000000 0.000000 0.000000 0.000000 0.035880 0.000000
# 6 0.000000 0.000000 0.000000 0.000000 0.000000 0.032158
#
#
# Mechanical properties :
#
#
# Convention : Reuss Voigt Hill
#
# Bulk Modulus (GPa) = 55.36077 56.89129 56.12603
# Shear Modulus (GPa) = 25.33604 26.05101 25.69353
#
# Velocity S-wave (km/s) = 3.59808 3.64849 3.62337
# Velocity P-wave (km/s) = 6.74905 6.84243 6.79590
#
# Compressibility (1/GPa) = 0.01806333
#
# Stress axis : x y z
#
# Youngs Moduli (GPa) = 71.19332 57.79836 54.02266
#
# Poissons Ratio (x) = 0.35155 0.15747
# Poissons Ratio (y) = 0.43303 0.37277
# Poissons Ratio (z) = 0.20752 0.39883
#
# Static dielectric constant tensor:
#      x y z
#    x 3.526060 0.000000 0.000000 
#    y 0.000000 3.418080 0.000000 
#    z 0.000000 0.000000 3.709960 
# 
# 
# High freq. dielectric constant tensor:
#      x y z
#    x 1.750610 0.000000 0.000000 
#    y 0.000000 1.750390 0.000000 
#    z 0.000000 0.000000 1.768690 
# 
# From -- ./inp_files/13865.got.cif
#   From: 2010.03.12/outbox.cif.g09.slc.cpg/sg36_7_cif.got.tgz:13865.got - 2010.04.14 02:13:53.
