data_PCOD8175121
_publ_section_title
;
Structure prediction by ZEFSAII (Michael W. Deem and Ramdas Pophale) SiO2 
 PCOD8175121
Probable space group: C M C 21
;
_chemical_formula_sum "Si O2"
_cell_formula_units_Z 64
_cell_length_a 11.305320
_cell_length_b 33.131238
_cell_length_c 8.411517
_cell_angle_alpha 90.000000
_cell_angle_beta 90.000000
_cell_angle_gamma 90.000000
_cell_volume 3150.611479
_symmetry_space_group_name_H-M "C M C 21"
_symmetry_group_IT_number 36
_symmetry_cell_setting 'orthorhombic'
loop_
_space_group_symop_operation_xyz
x,y,z
-x,-y,1/2+z
x,-y,1/2+z
-x,y,z
1/2+x,1/2+y,z
1/2-x,1/2-y,1/2+z
1/2+x,1/2-y,1/2+z
1/2-x,1/2+y,z
loop_
_atom_site_type_symbol
_atom_site_label
_atom_site_fract_x
_atom_site_fract_y
_atom_site_fract_z
Si Si1 0.365321 0.838189 0.657710
Si Si2 0.635198 0.862633 0.011771
Si Si3 0.242799 0.491624 0.637531
Si Si4 0.631378 0.757542 0.472863
Si Si5 0.131595 0.950434 0.364986
Si Si6 0.365878 0.051655 0.417923
Si Si7 0.774830 0.802729 0.218519
Si Si8 0.865755 0.861309 0.462898
O O1 0.500000 0.855736 0.615027
O O2 0.347786 0.838962 0.846376
O O3 0.361685 0.792115 0.604907
O O4 0.249419 0.859619 0.579442
O O5 0.500000 0.866672 0.061131
O O6 0.691143 0.907824 0.994576
O O7 0.690514 0.838481 0.158161
O O8 0.286687 0.530463 0.732029
O O9 0.344754 0.470583 0.536002
O O10 0.193878 0.456279 0.748153
O O11 0.142999 0.511429 0.524794
O O12 0.500000 0.751379 0.406933
O O13 0.707762 0.767782 0.317114
O O14 0.667712 0.716476 0.561849
O O15 0.151561 0.902726 0.367935
O O16 0.000000 0.961596 0.316110
O O17 0.500000 0.061758 0.379593
O O18 0.866763 0.824082 0.338448
O O19 0.000000 0.860824 0.542856
#
# Coordination Sequence:
#
# PCOD8175121 Si02
#       8
#     8   8   8   8   8   8   8   8
#     4   9  19  37  59  83 111 146 187 228 274 327
#     4  10  20  35  56  81 110 145 186 231 276 326
#     4  10  20  34  53  77 106 142 183 222 269 324
#     4  10  21  37  57  81 109 142 181 225 272 325
#     4  10  20  35  54  77 107 143 183 226 271 321
#     4  10  20  34  53  79 110 141 177 224 274 323
#     4  11  21  37  57  81 110 142 180 223 275 330
#     4  10  21  37  57  83 114 147 185 229 276 326
#
# _framework density 20.313517999999998
#
# number of rings (size 3 to 8) (size 9 to 14) (size 15 to 20)
#    0.000    2.000    0.000    3.750    0.000    0.500 
#    0.000   12.500    0.000    6.000    0.000    0.000 
#    0.000    0.000    0.000    0.000    0.000    0.000 
#
# Total GULP energy -396507.187530 kJ/mol
# GULP energy per Si atom -12390.849610 kJ/mol
# Density = 2.026728 g / cm^3
# Si number density = 20.313518 Si / 1000 Ang^3
#
#
#
# Elastic Constant Matrix: (Units=GPa)
#
#
# Indices 1 2 3 4 5 6 
#
# 1 97.4905 17.6280 17.3869 0.0000 0.0000 0.0000
# 2 17.6280 68.7596 12.6140 0.0000 0.0000 0.0000
# 3 17.3869 12.6140 61.7002 0.0000 0.0000 0.0000
# 4 0.0000 0.0000 0.0000 39.1967 0.0000 0.0000
# 5 0.0000 0.0000 0.0000 0.0000 21.3217 0.0000
# 6 0.0000 0.0000 0.0000 0.0000 0.0000 28.3129
#
#
#
# Elastic Compliance Matrix: (Units=1/GPa)
#
#
# Indices 1 2 3 4 5 6 
#
# 1 0.011161 -0.002373 -0.002660 0.000000 0.000000 0.000000
# 2 -0.002373 0.015615 -0.002523 0.000000 0.000000 0.000000
# 3 -0.002660 -0.002523 0.017473 0.000000 0.000000 0.000000
# 4 0.000000 0.000000 0.000000 0.025512 0.000000 0.000000
# 5 0.000000 0.000000 0.000000 0.000000 0.046901 0.000000
# 6 0.000000 0.000000 0.000000 0.000000 0.000000 0.035320
#
#
# Mechanical properties :
#
#
# Convention : Reuss Voigt Hill
#
# Bulk Modulus (GPa) = 34.32290 35.91203 35.11747
# Shear Modulus (GPa) = 28.27952 29.78768 29.03360
#
# Velocity S-wave (km/s) = 3.73520 3.83351 3.78468
# Velocity P-wave (km/s) = 5.96117 6.10833 6.03520
#
# Compressibility (1/GPa) = 0.02913507
#
# Stress axis : x y z
#
# Youngs Moduli (GPa) = 89.59821 64.04173 57.23162
#
# Poissons Ratio (x) = 0.15200 0.15223
# Poissons Ratio (y) = 0.21265 0.14442
# Poissons Ratio (z) = 0.23832 0.16161
#
# Static dielectric constant tensor:
#      x y z
#    x 3.779220 0.000000 0.000000 
#    y 0.000000 3.701270 0.000000 
#    z 0.000000 0.000000 3.512210 
# 
# 
# High freq. dielectric constant tensor:
#      x y z
#    x 1.789080 0.000000 0.000000 
#    y 0.000000 1.800120 0.000000 
#    z 0.000000 0.000000 1.786910 
# 
# From -- ./inp_files/3584.got.cif
#   From: 2010.03.12/outbox.cif.g09.slc.cpg/sg36_2_cif.got.tgz:3584.got - 2010.04.14 02:13:53.
