data_PCOD8175436
_publ_section_title
;
Structure prediction by ZEFSAII (Michael W. Deem and Ramdas Pophale) SiO2 
 PCOD8175436
Probable space group: C M C 21
;
_chemical_formula_sum "Si O2"
_cell_formula_units_Z 64
_cell_length_a 13.461804
_cell_length_b 26.947335
_cell_length_c 9.151604
_cell_angle_alpha 90.000000
_cell_angle_beta 90.000000
_cell_angle_gamma 90.000000
_cell_volume 3319.833507
_symmetry_space_group_name_H-M "C M C 21"
_symmetry_group_IT_number 36
_symmetry_cell_setting 'orthorhombic'
loop_
_space_group_symop_operation_xyz
x,y,z
-x,-y,1/2+z
x,-y,1/2+z
-x,y,z
1/2+x,1/2+y,z
1/2-x,1/2-y,1/2+z
1/2+x,1/2-y,1/2+z
1/2-x,1/2+y,z
loop_
_atom_site_type_symbol
_atom_site_label
_atom_site_fract_x
_atom_site_fract_y
_atom_site_fract_z
Si Si1 0.263706 0.094668 0.783160
Si Si2 0.770352 0.989971 0.648206
Si Si3 0.192127 0.853464 0.015424
Si Si4 0.884864 0.411707 0.551747
Si Si5 0.113432 0.953925 0.908818
Si Si6 0.388612 0.270123 0.205598
Si Si7 0.270882 0.828490 0.705758
Si Si8 0.884705 0.845082 0.460595
O O1 0.270988 0.129677 0.640458
O O2 0.164568 0.107970 0.877345
O O3 0.262664 0.037520 0.739570
O O4 0.359343 0.104418 0.885265
O O5 0.673018 0.961993 0.591660
O O6 0.831999 0.952869 0.752287
O O7 0.837899 0.004596 0.511494
O O8 0.120839 0.899816 0.980736
O O9 0.253048 0.835729 0.876528
O O10 0.123756 0.809362 0.074516
O O11 0.855338 0.367194 0.658981
O O12 0.000000 0.423274 0.567932
O O13 0.000000 0.968701 0.885014
O O14 0.500000 0.248614 0.197332
O O15 0.309898 0.226844 0.181236
O O16 0.371211 0.296147 0.361889
O O17 0.169416 0.835781 0.614833
O O18 0.000000 0.857272 0.490144
#
# Coordination Sequence:
#
# PCOD8175436 Si02
#       8
#     8   8   8   8   8   8   8   8
#     4   9  21  40  60  81 118 154 199 247 295 362
#     4  11  21  40  56  89 120 155 205 245 293 361
#     4  10  21  38  61  88 125 149 198 253 302 361
#     4  11  23  41  60  82 117 162 204 252 302 352
#     4  11  22  37  60  90 126 161 196 246 306 363
#     4  10  20  37  59  85 118 161 199 240 304 366
#     4  11  21  38  60  89 118 154 201 256 299 358
#     4   9  20  37  59  86 120 158 197 245 308 365
#
# _framework density 19.278074
#
# number of rings (size 3 to 8) (size 9 to 14) (size 15 to 20)
#    0.000    1.750    2.500    1.875    0.000    5.000 
#    0.000    1.250    0.000    6.000    0.000    0.000 
#    0.000    0.000    0.000    0.000    0.000    0.000 
#
# Total GULP energy -396888.356588 kJ/mol
# GULP energy per Si atom -12402.761143 kJ/mol
# Density = 1.923420 g / cm^3
# Si number density = 19.278074 Si / 1000 Ang^3
#
#
#
# Elastic Constant Matrix: (Units=GPa)
#
#
# Indices 1 2 3 4 5 6 
#
# 1 138.6238 45.1267 60.4737 0.0000 0.0000 0.0000
# 2 45.1267 93.2567 36.2459 0.0000 0.0000 0.0000
# 3 60.4737 36.2459 129.5320 0.0000 0.0000 0.0000
# 4 0.0000 0.0000 0.0000 23.6940 0.0000 0.0000
# 5 0.0000 0.0000 0.0000 0.0000 17.2332 0.0000
# 6 0.0000 0.0000 0.0000 0.0000 0.0000 28.4735
#
#
#
# Elastic Compliance Matrix: (Units=1/GPa)
#
#
# Indices 1 2 3 4 5 6 
#
# 1 0.009919 -0.003366 -0.003689 0.000000 0.000000 0.000000
# 2 -0.003366 0.013174 -0.002115 0.000000 0.000000 0.000000
# 3 -0.003689 -0.002115 0.010034 0.000000 0.000000 0.000000
# 4 0.000000 0.000000 0.000000 0.042205 0.000000 0.000000
# 5 0.000000 0.000000 0.000000 0.000000 0.058027 0.000000
# 6 0.000000 0.000000 0.000000 0.000000 0.000000 0.035120
#
#
# Mechanical properties :
#
#
# Convention : Reuss Voigt Hill
#
# Bulk Modulus (GPa) = 67.62545 71.67836 69.65190
# Shear Modulus (GPa) = 26.07595 28.51790 27.29693
#
# Velocity S-wave (km/s) = 3.68179 3.85033 3.76700
# Velocity P-wave (km/s) = 7.29584 7.55174 7.42489
#
# Compressibility (1/GPa) = 0.01478733
#
# Stress axis : x y z
#
# Youngs Moduli (GPa) = 100.81959 75.90804 99.66041
#
# Poissons Ratio (x) = 0.25550 0.36763
# Poissons Ratio (y) = 0.33935 0.21077
# Poissons Ratio (z) = 0.37191 0.16054
#
# Static dielectric constant tensor:
#      x y z
#    x 3.260750 0.000000 0.000000 
#    y 0.000000 3.496240 0.000000 
#    z 0.000000 0.000000 3.733930 
# 
# 
# High freq. dielectric constant tensor:
#      x y z
#    x 1.727230 0.000000 0.000000 
#    y 0.000000 1.756200 0.000000 
#    z 0.000000 0.000000 1.765190 
# 
# From -- ./inp_files/3624.got.cif
#   From: 2010.03.12/outbox.cif.g09.slc.cpg/sg36_2_cif.got.tgz:3624.got - 2010.04.14 02:13:53.
