data_PCOD8175081
_publ_section_title
;
Structure prediction by ZEFSAII (Michael W. Deem and Ramdas Pophale) SiO2 
 PCOD8175081
Probable space group: C M C 21
;
_chemical_formula_sum "Si O2"
_cell_formula_units_Z 64
_cell_length_a 8.991749
_cell_length_b 28.420020
_cell_length_c 14.065687
_cell_angle_alpha 90.000000
_cell_angle_beta 90.000000
_cell_angle_gamma 90.000000
_cell_volume 3594.425639
_symmetry_space_group_name_H-M "C M C 21"
_symmetry_group_IT_number 36
_symmetry_cell_setting 'orthorhombic'
loop_
_space_group_symop_operation_xyz
x,y,z
-x,-y,1/2+z
x,-y,1/2+z
-x,y,z
1/2+x,1/2+y,z
1/2-x,1/2-y,1/2+z
1/2+x,1/2-y,1/2+z
1/2-x,1/2+y,z
loop_
_atom_site_type_symbol
_atom_site_label
_atom_site_fract_x
_atom_site_fract_y
_atom_site_fract_z
Si Si1 0.824668 0.944686 0.328740
Si Si2 0.671880 0.553172 0.322718
Si Si3 0.825111 0.378758 0.183026
Si Si4 0.824350 0.378966 0.473559
Si Si5 0.170141 0.124612 0.485284
Si Si6 0.325523 0.801543 0.329998
Si Si7 0.674562 0.303108 0.823774
Si Si8 0.824726 0.375548 0.691347
O O1 0.756921 0.922127 0.233553
O O2 0.756553 0.922680 0.424003
O O3 0.000000 0.936834 0.328281
O O4 0.781259 0.999285 0.330324
O O5 0.500000 0.559713 0.294532
O O6 0.702936 0.578078 0.423582
O O7 0.768722 0.576819 0.240312
O O8 0.779681 0.330080 0.235183
O O9 0.000000 0.387704 0.191381
O O10 0.779298 0.375428 0.074076
O O11 0.771883 0.330703 0.422298
O O12 0.774490 0.376763 0.582110
O O13 0.000000 0.386345 0.460988
O O14 0.206463 0.170742 0.423074
O O15 0.000000 0.125287 0.520892
O O16 0.500000 0.794635 0.335406
O O17 0.255373 0.749332 0.329630
O O18 0.500000 0.303415 0.801275
O O19 0.754144 0.329368 0.737507
O O20 0.000000 0.372250 0.701991
#
# Coordination Sequence:
#
# PCOD8175081 Si02
#       8
#     8   8   8   8   8   8   8   8
#     4  10  20  35  55  76  98 129 171 212 248 292
#     4   9  20  37  54  73 100 134 169 208 251 295
#     4  10  20  34  52  75 105 136 164 202 254 303
#     4   9  19  35  52  74 105 135 164 203 253 302
#     4   9  18  33  52  74  99 129 169 211 249 293
#     4   8  16  33  53  71  98 136 170 202 247 299
#     4   9  18  34  54  73  98 135 173 208 247 292
#     4  10  20  33  52  78 105 132 164 206 253 300
#
# _framework density 17.805347000000001
#
# number of rings (size 3 to 8) (size 9 to 14) (size 15 to 20)
#    0.000    2.750    0.000    2.625    0.000    6.000 
#    0.000    8.125    0.000    0.000    0.000    0.000 
#    0.000    0.000    0.000    0.000    0.000    0.000 
#
# Total GULP energy -396810.286335 kJ/mol
# GULP energy per Si atom -12400.321448 kJ/mol
# Density = 1.776482 g / cm^3
# Si number density = 17.805347 Si / 1000 Ang^3
#
#
#
# Elastic Constant Matrix: (Units=GPa)
#
#
# Indices 1 2 3 4 5 6 
#
# 1 54.0965 46.5623 50.8042 0.0000 0.0000 0.0000
# 2 46.5623 172.6729 76.7760 0.0000 0.0000 0.0000
# 3 50.8042 76.7760 147.2917 0.0000 0.0000 0.0000
# 4 0.0000 0.0000 0.0000 12.1882 0.0000 0.0000
# 5 0.0000 0.0000 0.0000 0.0000 31.4233 0.0000
# 6 0.0000 0.0000 0.0000 0.0000 0.0000 24.9810
#
#
#
# Elastic Compliance Matrix: (Units=1/GPa)
#
#
# Indices 1 2 3 4 5 6 
#
# 1 0.029821 -0.004514 -0.007933 0.000000 0.000000 0.000000
# 2 -0.004514 0.008222 -0.002729 0.000000 0.000000 0.000000
# 3 -0.007933 -0.002729 0.010948 0.000000 0.000000 0.000000
# 4 0.000000 0.000000 0.000000 0.082047 0.000000 0.000000
# 5 0.000000 0.000000 0.000000 0.000000 0.031824 0.000000
# 6 0.000000 0.000000 0.000000 0.000000 0.000000 0.040030
#
#
# Mechanical properties :
#
#
# Convention : Reuss Voigt Hill
#
# Bulk Modulus (GPa) = 53.65018 80.26066 66.95542
# Shear Modulus (GPa) = 20.88068 27.04641 23.96354
#
# Velocity S-wave (km/s) = 3.42821 3.90167 3.67258
# Velocity P-wave (km/s) = 6.77253 8.09147 7.46120
#
# Compressibility (1/GPa) = 0.01863927
#
# Stress axis : x y z
#
# Youngs Moduli (GPa) = 33.53325 121.62801 91.34285
#
# Poissons Ratio (x) = 0.54906 0.72462
# Poissons Ratio (y) = 0.15138 0.24923
# Poissons Ratio (z) = 0.26602 0.33187
#
# Static dielectric constant tensor:
#      x y z
#    x 3.167950 0.000000 0.000000 
#    y 0.000000 3.568880 0.000000 
#    z 0.000000 0.000000 3.277610 
# 
# 
# High freq. dielectric constant tensor:
#      x y z
#    x 1.680060 0.000000 0.000000 
#    y 0.000000 1.694880 0.000000 
#    z 0.000000 0.000000 1.689390 
# 
# From -- ./inp_files/11221.got.cif
#   From: 2010.03.12/outbox.cif.g09.slc.cpg/sg36_6_cif.got.tgz:11221.got - 2010.04.14 02:13:53.
