data_PCOD8175005
_publ_section_title
;
Structure prediction by ZEFSAII (Michael W. Deem and Ramdas Pophale) SiO2 
 PCOD8175005
Probable space group: C M C 21
;
_chemical_formula_sum "Si O2"
_cell_formula_units_Z 48
_cell_length_a 24.321551
_cell_length_b 17.028603
_cell_length_c 5.249679
_cell_angle_alpha 90.000000
_cell_angle_beta 90.000000
_cell_angle_gamma 90.000000
_cell_volume 2174.217745
_symmetry_space_group_name_H-M "C M C 21"
_symmetry_group_IT_number 36
_symmetry_cell_setting 'orthorhombic'
loop_
_space_group_symop_operation_xyz
x,y,z
-x,-y,1/2+z
x,-y,1/2+z
-x,y,z
1/2+x,1/2+y,z
1/2-x,1/2-y,1/2+z
1/2+x,1/2-y,1/2+z
1/2-x,1/2+y,z
loop_
_atom_site_type_symbol
_atom_site_label
_atom_site_fract_x
_atom_site_fract_y
_atom_site_fract_z
Si Si1 0.222308 0.218428 0.505140
Si Si2 0.436185 0.950906 0.543671
Si Si3 0.608280 0.535884 0.030413
Si Si4 0.438185 0.701658 0.033869
Si Si5 0.269723 0.467980 0.015085
Si Si6 0.101359 0.719106 0.037730
O O1 0.237795 0.250927 0.227113
O O2 0.223769 0.124684 0.498731
O O3 0.162025 0.247594 0.572463
O O4 0.500000 0.925202 0.546140
O O5 0.397771 0.874656 0.553702
O O6 0.421600 0.002795 0.787817
O O7 0.578766 0.501470 0.778487
O O8 0.671882 0.512386 0.033116
O O9 0.604266 0.629557 0.037557
O O10 0.500000 0.669361 0.062855
O O11 0.424593 0.758382 0.267553
O O12 0.434638 0.748181 0.769946
O O13 0.237587 0.503748 0.770075
#
# Coordination Sequence:
#
# PCOD8175005 Si02
#       6
#     8   8   8   8   8   8
#     4  12  26  45  68  97 127 171 227 277 326 378
#     4  10  21  39  64  93 126 166 209 257 326 401
#     4  10  20  35  57  87 125 169 208 248 301 368
#     4  12  24  39  66 103 137 172 213 255 315 395
#     4  10  19  38  64  89 121 166 211 255 319 385
#     4  12  24  44  67  93 135 172 214 274 328 383
#
# _framework density 22.076903999999999
#
# number of rings (size 3 to 8) (size 9 to 14) (size 15 to 20)
#    0.000    1.000    0.000    9.500    0.000    2.000 
#    0.000    5.000    0.000    0.000    0.000    0.000 
#    0.000    0.000    0.000    0.000    0.000    0.000 
#
# Total GULP energy -297643.010515 kJ/mol
# GULP energy per Si atom -12401.792105 kJ/mol
# Density = 2.202666 g / cm^3
# Si number density = 22.076904 Si / 1000 Ang^3
#
#
#
# Elastic Constant Matrix: (Units=GPa)
#
#
# Indices 1 2 3 4 5 6 
#
# 1 30.9811 -9.4153 1.3404 0.0000 0.0000 0.0000
# 2 -9.4153 127.3822 52.0275 0.0000 0.0000 0.0000
# 3 1.3404 52.0275 183.9543 0.0000 0.0000 0.0000
# 4 0.0000 0.0000 0.0000 41.1938 0.0000 0.0000
# 5 0.0000 0.0000 0.0000 0.0000 -1.2055 0.0000
# 6 0.0000 0.0000 0.0000 0.0000 0.0000 13.5116
#
#
#
# Elastic Compliance Matrix: (Units=1/GPa)
#
#
# Indices 1 2 3 4 5 6 
#
# 1 0.033201 0.002886 -0.001058 0.000000 0.000000 0.000000
# 2 0.002886 0.009127 -0.002602 0.000000 0.000000 0.000000
# 3 -0.001058 -0.002602 0.006180 0.000000 0.000000 0.000000
# 4 0.000000 0.000000 0.000000 0.024275 0.000000 0.000000
# 5 0.000000 0.000000 0.000000 0.000000 -0.829504 0.000000
# 6 0.000000 0.000000 0.000000 0.000000 0.000000 0.074010
#
#
# Mechanical properties :
#
#
# Convention : Reuss Voigt Hill
#
# Bulk Modulus (GPa) = 21.29541 47.80252 34.54896
# Shear Modulus (GPa) = -7.51304 30.59098 11.53897
#
# Velocity S-wave (km/s) = -1.84676 3.72648 2.28868
# Velocity P-wave (km/s) = 2.26265 6.34155 4.76103
#
# Compressibility (1/GPa) = 0.04695848
#
# Stress axis : x y z
#
# Youngs Moduli (GPa) = 30.11988 109.56996 161.81638
#
# Poissons Ratio (x) = -0.31624 0.17124
# Poissons Ratio (y) = -0.08693 0.42109
# Poissons Ratio (z) = 0.03187 0.28513
#
# Static dielectric constant tensor:
#      x y z
#    x 3.964780 0.000000 0.000000 
#    y 0.000000 3.964580 0.000000 
#    z 0.000000 0.000000 8.083540 
# 
# 
# High freq. dielectric constant tensor:
#      x y z
#    x 1.833880 0.000000 0.000000 
#    y 0.000000 1.879410 0.000000 
#    z 0.000000 0.000000 1.906540 
# 
# From -- ./inp_files/1734.got.cif
#   From: 2010.03.12/outbox.cif.g09.slc.cpg/sg36_1_cif.got.tgz:1734.got - 2010.04.14 02:13:53.
