data_PCOD8175599
_publ_section_title
;
Structure prediction by ZEFSAII (Michael W. Deem and Ramdas Pophale) SiO2 
 PCOD8175599
Probable space group: C M C 21
;
_chemical_formula_sum "Si O2"
_cell_formula_units_Z 64
_cell_length_a 16.215508
_cell_length_b 11.317977
_cell_length_c 15.810005
_cell_angle_alpha 90.000000
_cell_angle_beta 90.000000
_cell_angle_gamma 90.000000
_cell_volume 2901.558781
_symmetry_space_group_name_H-M "C M C 21"
_symmetry_group_IT_number 36
_symmetry_cell_setting 'orthorhombic'
loop_
_space_group_symop_operation_xyz
x,y,z
-x,-y,1/2+z
x,-y,1/2+z
-x,y,z
1/2+x,1/2+y,z
1/2-x,1/2-y,1/2+z
1/2+x,1/2-y,1/2+z
1/2-x,1/2+y,z
loop_
_atom_site_type_symbol
_atom_site_label
_atom_site_fract_x
_atom_site_fract_y
_atom_site_fract_z
Si Si1 0.096737 0.938172 0.297670
Si Si2 0.159350 0.570198 0.554180
Si Si3 0.405762 0.178994 0.024310
Si Si4 0.658192 0.384256 0.118424
Si Si5 0.091895 0.285646 0.197768
Si Si6 0.162294 0.247626 0.920011
Si Si7 0.591476 0.605902 0.053062
Si Si8 0.657456 0.309604 0.862918
O O1 0.154694 0.922756 0.215888
O O2 0.106892 0.813639 0.347666
O O3 0.000000 0.955422 0.275203
O O4 0.129336 0.054182 0.348146
O O5 0.151705 0.435624 0.526525
O O6 0.252531 0.605618 0.576139
O O7 0.109713 0.599248 0.640470
O O8 0.122203 0.644514 0.474258
O O9 0.500000 0.139783 0.034010
O O10 0.376915 0.253160 0.106125
O O11 0.394994 0.254040 0.938828
O O12 0.596807 0.466653 0.065069
O O13 0.104639 0.167205 0.143548
O O14 0.148984 0.272250 0.279840
O O15 0.000000 0.295370 0.233235
O O16 0.246952 0.299260 0.885513
O O17 0.166245 0.144578 0.991288
O O18 0.500000 0.635802 0.015843
#
# Coordination Sequence:
#
# PCOD8175599 Si02
#       8
#     8   8   8   8   8   8   8   8
#     4  12  26  45  73 108 141 177 233 294 353 412
#     4  11  26  46  69  98 143 188 235 277 346 429
#     4  12  26  44  68 100 142 184 230 287 344 412
#     4  12  24  43  71 102 140 178 232 292 352 406
#     4  10  21  42  70  98 131 181 232 279 341 416
#     4  11  25  43  68 100 138 183 229 281 345 418
#     4  10  20  40  70  98 133 177 230 282 343 409
#     4  12  24  43  71 104 140 176 235 292 352 410
#
# _framework density 22.057107999999999
#
# number of rings (size 3 to 8) (size 9 to 14) (size 15 to 20)
#    0.000    0.750    2.500    5.250    3.500    2.500 
#    2.250    0.000    0.000    0.000    0.000    0.000 
#    0.000    0.000    0.000    0.000    0.000    0.000 
#
# Total GULP energy -396549.602893 kJ/mol
# GULP energy per Si atom -12392.175090 kJ/mol
# Density = 2.200691 g / cm^3
# Si number density = 22.057108 Si / 1000 Ang^3
#
#
#
# Elastic Constant Matrix: (Units=GPa)
#
#
# Indices 1 2 3 4 5 6 
#
# 1 77.4051 26.7662 26.7727 0.0000 0.0000 0.0000
# 2 26.7662 131.8178 53.4622 0.0000 0.0000 0.0000
# 3 26.7727 53.4622 102.3547 0.0000 0.0000 0.0000
# 4 0.0000 0.0000 0.0000 33.1277 0.0000 0.0000
# 5 0.0000 0.0000 0.0000 0.0000 32.6449 0.0000
# 6 0.0000 0.0000 0.0000 0.0000 0.0000 31.3362
#
#
#
# Elastic Compliance Matrix: (Units=1/GPa)
#
#
# Indices 1 2 3 4 5 6 
#
# 1 0.014529 -0.001787 -0.002867 0.000000 0.000000 0.000000
# 2 -0.001787 0.009845 -0.004675 0.000000 0.000000 0.000000
# 3 -0.002867 -0.004675 0.012962 0.000000 0.000000 0.000000
# 4 0.000000 0.000000 0.000000 0.030186 0.000000 0.000000
# 5 0.000000 0.000000 0.000000 0.000000 0.030633 0.000000
# 6 0.000000 0.000000 0.000000 0.000000 0.000000 0.031912
#
#
# Mechanical properties :
#
#
# Convention : Reuss Voigt Hill
#
# Bulk Modulus (GPa) = 53.54015 58.39773 55.96894
# Shear Modulus (GPa) = 32.26853 33.06021 32.66437
#
# Velocity S-wave (km/s) = 3.82901 3.87569 3.85242
# Velocity P-wave (km/s) = 6.62378 6.82357 6.72442
#
# Compressibility (1/GPa) = 0.01867757
#
# Stress axis : x y z
#
# Youngs Moduli (GPa) = 68.82966 101.57256 77.15150
#
# Poissons Ratio (x) = 0.18156 0.22116
# Poissons Ratio (y) = 0.12303 0.36067
# Poissons Ratio (z) = 0.19731 0.47483
#
# Static dielectric constant tensor:
#      x y z
#    x 3.889010 0.000000 0.000000 
#    y 0.000000 4.069940 0.000000 
#    z 0.000000 0.000000 4.152180 
# 
# 
# High freq. dielectric constant tensor:
#      x y z
#    x 1.864400 0.000000 0.000000 
#    y 0.000000 1.867890 0.000000 
#    z 0.000000 0.000000 1.875780 
# 
# From -- ./inp_files/12659.got.cif
#   From: 2010.03.12/outbox.cif.g09.slc.cpg/sg36_7_cif.got.tgz:12659.got - 2010.04.14 02:13:53.
