data_PCOD8175860
_publ_section_title
;
Structure prediction by ZEFSAII (Michael W. Deem and Ramdas Pophale) SiO2 
 PCOD8175860
Probable space group: C M C 21
;
_chemical_formula_sum "Si O2"
_cell_formula_units_Z 56
_cell_length_a 21.869249
_cell_length_b 14.051391
_cell_length_c 8.833311
_cell_angle_alpha 90.000000
_cell_angle_beta 90.000000
_cell_angle_gamma 90.000000
_cell_volume 2714.417893
_symmetry_space_group_name_H-M "C M C 21"
_symmetry_group_IT_number 36
_symmetry_cell_setting 'orthorhombic'
loop_
_space_group_symop_operation_xyz
x,y,z
-x,-y,1/2+z
x,-y,1/2+z
-x,y,z
1/2+x,1/2+y,z
1/2-x,1/2-y,1/2+z
1/2+x,1/2-y,1/2+z
1/2-x,1/2+y,z
loop_
_atom_site_type_symbol
_atom_site_label
_atom_site_fract_x
_atom_site_fract_y
_atom_site_fract_z
Si Si1 0.435078 0.778299 0.375000
Si Si2 0.068524 0.050382 0.864780
Si Si3 0.195039 0.215703 0.294532
Si Si4 0.711469 0.667397 0.631814
Si Si5 0.152406 0.959125 0.647139
Si Si6 0.911070 0.243889 0.717947
Si Si7 0.000000 0.374652 0.875718
Si Si8 0.000000 0.568493 0.723789
O O1 0.500000 0.726380 0.330425
O O2 0.377782 0.727703 0.301443
O O3 0.432547 0.781832 0.556001
O O4 0.439807 0.885158 0.304396
O O5 0.062782 0.138955 0.750528
O O6 0.000000 0.022791 0.922086
O O7 0.099476 0.963690 0.774487
O O8 0.116508 0.072207 0.997538
O O9 0.226098 0.309606 0.221910
O O10 0.222630 0.197484 0.459350
O O11 0.202371 0.121835 0.189183
O O12 0.690484 0.557685 0.636172
O O13 0.662446 0.736882 0.714404
O O14 0.938225 0.313026 0.847126
O O15 0.000000 0.457082 0.751296
O O16 0.000000 0.413041 0.044718
#
# Coordination Sequence:
#
# PCOD8175860 Si02
#       8
#     8   8   8   8   8   8   4   4
#     4   9  20  42  63 100 130 172 219 281 337 402
#     4  11  22  38  65 102 138 179 209 275 336 406
#     4  11  24  43  71  90 134 177 221 280 336 402
#     4  10  25  44  64  98 127 183 222 280 332 398
#     4  11  24  43  63 100 140 168 232 275 330 409
#     4  10  21  39  66  92 137 175 223 267 344 400
#     4  12  20  40  64  95 132 179 221 283 338 396
#     4  10  24  36  66  95 134 167 227 283 332 398
#
# _framework density 20.630575
#
# number of rings (size 3 to 8) (size 9 to 14) (size 15 to 20)
#    0.429    1.143    2.857    1.286    6.000    1.143 
#    2.571    0.000    0.000    0.000    0.000    0.000 
#    0.000    0.000    0.000    0.000    0.000    0.000 
#
# Total GULP energy -346916.406285 kJ/mol
# GULP energy per Si atom -12389.871653 kJ/mol
# Density = 2.058362 g / cm^3
# Si number density = 20.630575 Si / 1000 Ang^3
#
#
#
# Elastic Constant Matrix: (Units=GPa)
#
#
# Indices 1 2 3 4 5 6 
#
# 1 91.5378 30.2823 41.1966 0.0000 0.0000 0.0000
# 2 30.2823 79.2685 23.6131 0.0000 0.0000 0.0000
# 3 41.1966 23.6131 91.6152 0.0000 0.0000 0.0000
# 4 0.0000 0.0000 0.0000 33.2507 0.0000 0.0000
# 5 0.0000 0.0000 0.0000 0.0000 29.8704 0.0000
# 6 0.0000 0.0000 0.0000 0.0000 0.0000 26.9020
#
#
#
# Elastic Compliance Matrix: (Units=1/GPa)
#
#
# Indices 1 2 3 4 5 6 
#
# 1 0.014765 -0.003967 -0.005617 0.000000 0.000000 0.000000
# 2 -0.003967 0.014731 -0.002013 0.000000 0.000000 0.000000
# 3 -0.005617 -0.002013 0.013960 0.000000 0.000000 0.000000
# 4 0.000000 0.000000 0.000000 0.030075 0.000000 0.000000
# 5 0.000000 0.000000 0.000000 0.000000 0.033478 0.000000
# 6 0.000000 0.000000 0.000000 0.000000 0.000000 0.037172
#
#
# Mechanical properties :
#
#
# Convention : Reuss Voigt Hill
#
# Bulk Modulus (GPa) = 49.35480 50.28949 49.82215
# Shear Modulus (GPa) = 28.71476 29.15992 28.93734
#
# Velocity S-wave (km/s) = 3.73480 3.76364 3.74925
# Velocity P-wave (km/s) = 6.52483 6.58147 6.55321
#
# Compressibility (1/GPa) = 0.02026145
#
# Stress axis : x y z
#
# Youngs Moduli (GPa) = 67.72915 67.88634 71.63507
#
# Poissons Ratio (x) = 0.26932 0.40235
# Poissons Ratio (y) = 0.26870 0.14418
# Poissons Ratio (z) = 0.38041 0.13664
#
# Static dielectric constant tensor:
#      x y z
#    x 3.727490 0.000000 0.000000 
#    y 0.000000 3.582210 0.000000 
#    z 0.000000 0.000000 3.789830 
# 
# 
# High freq. dielectric constant tensor:
#      x y z
#    x 1.794930 0.000000 0.000000 
#    y 0.000000 1.793990 0.000000 
#    z 0.000000 0.000000 1.816700 
# 
# From -- ./inp_files/5242.got.cif
#   From: 2010.03.12/outbox.cif.g09.slc.cpg/sg36_3_cif.got.tgz:5242.got - 2010.04.14 02:13:53.
