data_PCOD8175232
_publ_section_title
;
Structure prediction by ZEFSAII (Michael W. Deem and Ramdas Pophale) SiO2 
 PCOD8175232
Probable space group: C M C 21
;
_chemical_formula_sum "Si O2"
_cell_formula_units_Z 64
_cell_length_a 24.199680
_cell_length_b 14.766400
_cell_length_c 9.063843
_cell_angle_alpha 90.000000
_cell_angle_beta 90.000000
_cell_angle_gamma 90.000000
_cell_volume 3238.893188
_symmetry_space_group_name_H-M "C M C 21"
_symmetry_group_IT_number 36
_symmetry_cell_setting 'orthorhombic'
loop_
_space_group_symop_operation_xyz
x,y,z
-x,-y,1/2+z
x,-y,1/2+z
-x,y,z
1/2+x,1/2+y,z
1/2-x,1/2-y,1/2+z
1/2+x,1/2-y,1/2+z
1/2-x,1/2+y,z
loop_
_atom_site_type_symbol
_atom_site_label
_atom_site_fract_x
_atom_site_fract_y
_atom_site_fract_z
Si Si1 0.857927 0.071326 0.637880
Si Si2 0.762098 0.446624 0.117393
Si Si3 0.619236 0.072686 0.671103
Si Si4 0.736726 0.112477 0.299833
Si Si5 0.564108 0.769410 0.340436
Si Si6 0.063111 0.227850 0.675227
Si Si7 0.883391 0.384431 0.833686
Si Si8 0.857725 0.885962 0.803297
O O1 0.794366 0.101671 0.672839
O O2 0.899217 0.141334 0.717235
O O3 0.869975 0.073203 0.463987
O O4 0.865998 0.968339 0.690161
O O5 0.816095 0.397793 0.186402
O O6 0.763288 0.552204 0.154532
O O7 0.763600 0.453035 0.941445
O O8 0.581653 0.134519 0.774502
O O9 0.602940 0.082745 0.499181
O O10 0.610848 0.969468 0.723261
O O11 0.677736 0.164394 0.311969
O O12 0.796359 0.163122 0.298079
O O13 0.500000 0.752797 0.308962
O O14 0.577971 0.767153 0.513975
O O15 0.598194 0.690288 0.258803
O O16 0.072451 0.308083 0.791984
O O17 0.000000 0.195556 0.683916
#
# Coordination Sequence:
#
# PCOD8175232 Si02
#       8
#     8   8   8   8   8   8   8   8
#     4   9  18  34  55  78 106 138 170 209 257 306
#     4   8  15  29  50  77 105 131 163 204 254 310
#     4  10  20  35  56  80 105 134 169 212 261 310
#     4   8  15  29  50  77 105 131 163 204 254 310
#     4  10  22  38  53  73 104 141 179 215 253 301
#     4  10  22  38  53  73 104 141 179 215 253 301
#     4  10  20  35  56  80 105 134 169 212 261 310
#     4   9  18  34  55  78 106 138 170 209 257 306
#
# _framework density 19.759836
#
# number of rings (size 3 to 8) (size 9 to 14) (size 15 to 20)
#    0.000    2.750    0.000    0.750    0.000    4.500 
#    0.000    0.000    0.000    0.000    0.000    0.000 
#    0.000    0.000    0.000    0.000    0.000    0.000 
#
# Total GULP energy -396441.466257 kJ/mol
# GULP energy per Si atom -12388.795821 kJ/mol
# Density = 1.971486 g / cm^3
# Si number density = 19.759836 Si / 1000 Ang^3
#
#
#
# Elastic Constant Matrix: (Units=GPa)
#
#
# Indices 1 2 3 4 5 6 
#
# 1 77.0387 20.1117 12.2158 0.0000 0.0000 0.0000
# 2 20.1117 52.6223 6.2590 0.0000 0.0000 0.0000
# 3 12.2158 6.2590 36.8220 0.0000 0.0000 0.0000
# 4 0.0000 0.0000 0.0000 27.6169 0.0000 0.0000
# 5 0.0000 0.0000 0.0000 0.0000 23.6741 0.0000
# 6 0.0000 0.0000 0.0000 0.0000 0.0000 33.2045
#
#
#
# Elastic Compliance Matrix: (Units=1/GPa)
#
#
# Indices 1 2 3 4 5 6 
#
# 1 0.014998 -0.005246 -0.004084 0.000000 0.000000 0.000000
# 2 -0.005246 0.021231 -0.001868 0.000000 0.000000 0.000000
# 3 -0.004084 -0.001868 0.028830 0.000000 0.000000 0.000000
# 4 0.000000 0.000000 0.000000 0.036210 0.000000 0.000000
# 5 0.000000 0.000000 0.000000 0.000000 0.042240 0.000000
# 6 0.000000 0.000000 0.000000 0.000000 0.000000 0.030116
#
#
# Mechanical properties :
#
#
# Convention : Reuss Voigt Hill
#
# Bulk Modulus (GPa) = 23.44021 27.07287 25.25654
# Shear Modulus (GPa) = 23.78215 25.42554 24.60384
#
# Velocity S-wave (km/s) = 3.47300 3.59099 3.53249
# Velocity P-wave (km/s) = 5.28872 5.56096 5.42655
#
# Compressibility (1/GPa) = 0.04266173
#
# Stress axis : x y z
#
# Youngs Moduli (GPa) = 66.67734 47.10184 34.68600
#
# Poissons Ratio (x) = 0.24710 0.14165
# Poissons Ratio (y) = 0.34980 0.06481
# Poissons Ratio (z) = 0.27229 0.08800
#
# Static dielectric constant tensor:
#      x y z
#    x 3.890050 0.000000 0.000000 
#    y 0.000000 3.195850 0.000000 
#    z 0.000000 0.000000 3.537090 
# 
# 
# High freq. dielectric constant tensor:
#      x y z
#    x 1.781980 0.000000 0.000000 
#    y 0.000000 1.732890 0.000000 
#    z 0.000000 0.000000 1.766430 
# 
# From -- ./inp_files/5654.got.cif
#   From: 2010.03.12/outbox.cif.g09.slc.cpg/sg36_3_cif.got.tgz:5654.got - 2010.04.14 02:13:53.
