data_PCOD8175403
_publ_section_title
;
Structure prediction by ZEFSAII (Michael W. Deem and Ramdas Pophale) SiO2 
 PCOD8175403
Probable space group: C M C 21
;
_chemical_formula_sum "Si O2"
_cell_formula_units_Z 64
_cell_length_a 8.606345
_cell_length_b 15.435815
_cell_length_c 23.736749
_cell_angle_alpha 90.000000
_cell_angle_beta 90.000000
_cell_angle_gamma 90.000000
_cell_volume 3153.330953
_symmetry_space_group_name_H-M "C M C 21"
_symmetry_group_IT_number 36
_symmetry_cell_setting 'orthorhombic'
loop_
_space_group_symop_operation_xyz
x,y,z
-x,-y,1/2+z
x,-y,1/2+z
-x,y,z
1/2+x,1/2+y,z
1/2-x,1/2-y,1/2+z
1/2+x,1/2-y,1/2+z
1/2-x,1/2+y,z
loop_
_atom_site_type_symbol
_atom_site_label
_atom_site_fract_x
_atom_site_fract_y
_atom_site_fract_z
Si Si1 0.816706 0.840851 0.341530
Si Si2 0.182642 0.163066 0.603675
Si Si3 0.682114 0.662023 0.335791
Si Si4 0.818853 0.505103 0.536222
Si Si5 0.682858 0.501756 0.415020
Si Si6 0.184740 0.096925 0.722486
Si Si7 0.315622 0.596764 0.217533
Si Si8 0.182723 0.842659 0.596331
O O1 0.760329 0.747189 0.362319
O O2 0.760221 0.913269 0.385491
O O3 0.747370 0.859928 0.279215
O O4 0.000000 0.843586 0.338375
O O5 0.238465 0.151731 0.668316
O O6 0.271317 0.245709 0.577623
O O7 0.000000 0.179500 0.599531
O O8 0.222426 0.076988 0.569558
O O9 0.500000 0.677503 0.334552
O O10 0.725209 0.580204 0.373716
O O11 0.748337 0.646708 0.272563
O O12 0.782121 0.514527 0.470726
O O13 0.769756 0.409868 0.556260
O O14 0.000000 0.519854 0.547038
O O15 0.500000 0.499470 0.429196
O O16 0.000000 0.091627 0.724883
O O17 0.253272 0.000171 0.717009
O O18 0.500000 0.592100 0.221103
O O19 0.261049 0.644576 0.160811
O O20 0.000000 0.857515 0.589318
#
# Coordination Sequence:
#
# PCOD8175403 Si02
#       8
#     8   8   8   8   8   8   8   8
#     4  10  20  36  61  89 119 153 193 237 291 355
#     4  11  22  39  64  92 124 160 198 244 299 359
#     4  10  20  36  61  89 119 153 193 237 291 355
#     4  12  26  43  62  86 118 157 207 258 301 354
#     4  10  22  41  62  82 112 159 203 242 295 356
#     4   9  16  32  60  90 120 156 192 232 291 358
#     4   9  16  32  60  90 120 156 192 232 291 358
#     4  11  22  39  64  92 124 160 198 244 299 359
#
# _framework density 20.295999999999999
#
# number of rings (size 3 to 8) (size 9 to 14) (size 15 to 20)
#    0.000    1.750    2.500    2.625    0.000    2.000 
#    0.000    3.750    0.000    0.000    0.000    0.000 
#    0.000    0.000    0.000    0.000    0.000    0.000 
#
# Total GULP energy -396880.611017 kJ/mol
# GULP energy per Si atom -12402.519094 kJ/mol
# Density = 2.024981 g / cm^3
# Si number density = 20.296000 Si / 1000 Ang^3
#
#
#
# Elastic Constant Matrix: (Units=GPa)
#
#
# Indices 1 2 3 4 5 6 
#
# 1 32.4871 11.7537 23.4530 0.0000 0.0000 0.0000
# 2 11.7537 99.2544 -0.3192 0.0000 0.0000 0.0000
# 3 23.4530 -0.3192 78.5937 0.0000 0.0000 0.0000
# 4 0.0000 0.0000 0.0000 12.2731 0.0000 0.0000
# 5 0.0000 0.0000 0.0000 0.0000 19.6480 0.0000
# 6 0.0000 0.0000 0.0000 0.0000 0.0000 30.8431
#
#
#
# Elastic Compliance Matrix: (Units=1/GPa)
#
#
# Indices 1 2 3 4 5 6 
#
# 1 0.041539 -0.004959 -0.012416 0.000000 0.000000 0.000000
# 2 -0.004959 0.010667 0.001523 0.000000 0.000000 0.000000
# 3 -0.012416 0.001523 0.016435 0.000000 0.000000 0.000000
# 4 0.000000 0.000000 0.000000 0.081479 0.000000 0.000000
# 5 0.000000 0.000000 0.000000 0.000000 0.050896 0.000000
# 6 0.000000 0.000000 0.000000 0.000000 0.000000 0.032422
#
#
# Mechanical properties :
#
#
# Convention : Reuss Voigt Hill
#
# Bulk Modulus (GPa) = 27.07254 31.12336 29.09795
# Shear Modulus (GPa) = 18.02105 24.24934 21.13519
#
# Velocity S-wave (km/s) = 2.98302 3.46031 3.23049
# Velocity P-wave (km/s) = 5.02318 5.59759 5.31815
#
# Compressibility (1/GPa) = 0.03693780
#
# Stress axis : x y z
#
# Youngs Moduli (GPa) = 24.07395 93.74484 60.84656
#
# Poissons Ratio (x) = 0.46487 0.75545
# Poissons Ratio (y) = 0.11938 -0.09268
# Poissons Ratio (z) = 0.29889 -0.14278
#
# Static dielectric constant tensor:
#      x y z
#    x 3.294990 0.000000 0.000000 
#    y 0.000000 3.815450 0.000000 
#    z 0.000000 0.000000 3.797480 
# 
# 
# High freq. dielectric constant tensor:
#      x y z
#    x 1.762010 0.000000 0.000000 
#    y 0.000000 1.808140 0.000000 
#    z 0.000000 0.000000 1.793000 
# 
# From -- ./inp_files/16592.got.cif
#   From: 2010.03.12/outbox.cif.g09.slc.cpg/sg36_9_cif.got.tgz:16592.got - 2010.04.14 02:13:53.
