data_PCOD8175708
_publ_section_title
;
Structure prediction by ZEFSAII (Michael W. Deem and Ramdas Pophale) SiO2 
 PCOD8175708
Probable space group: C M C 21
;
_chemical_formula_sum "Si O2"
_cell_formula_units_Z 64
_cell_length_a 8.707864
_cell_length_b 15.430985
_cell_length_c 24.026277
_cell_angle_alpha 90.000000
_cell_angle_beta 90.000000
_cell_angle_gamma 90.000000
_cell_volume 3228.432915
_symmetry_space_group_name_H-M "C M C 21"
_symmetry_group_IT_number 36
_symmetry_cell_setting 'orthorhombic'
loop_
_space_group_symop_operation_xyz
x,y,z
-x,-y,1/2+z
x,-y,1/2+z
-x,y,z
1/2+x,1/2+y,z
1/2-x,1/2-y,1/2+z
1/2+x,1/2-y,1/2+z
1/2-x,1/2+y,z
loop_
_atom_site_type_symbol
_atom_site_label
_atom_site_fract_x
_atom_site_fract_y
_atom_site_fract_z
Si Si1 0.318106 0.401339 0.277290
Si Si2 0.677353 0.903823 0.005132
Si Si3 0.319864 0.661859 0.399203
Si Si4 0.180175 0.153088 0.899985
Si Si5 0.681773 0.404870 0.780399
Si Si6 0.318843 0.747031 0.080524
Si Si7 0.175513 0.597172 0.010059
Si Si8 0.817301 0.250803 0.205371
O O1 0.500000 0.391169 0.271984
O O2 0.263536 0.377730 0.339493
O O3 0.261732 0.499065 0.263707
O O4 0.237893 0.338930 0.233539
O O5 0.500000 0.885347 0.989502
O O6 0.740932 0.832434 0.048504
O O7 0.781726 0.901772 0.949966
O O8 0.694571 0.998936 0.032372
O O9 0.500000 0.684168 0.397233
O O10 0.220932 0.747289 0.409094
O O11 0.263047 0.616621 0.342675
O O12 0.266985 0.097793 0.946566
O O13 0.000000 0.138415 0.907581
O O14 0.500000 0.402915 0.778605
O O15 0.749243 0.332990 0.738168
O O16 0.500000 0.749369 0.084061
O O17 0.250545 0.747146 0.142870
O O18 0.271978 0.659890 0.049243
O O19 0.000000 0.627998 0.011897
O O20 0.000000 0.249821 0.206322
#
# Coordination Sequence:
#
# PCOD8175708 Si02
#       8
#     8   8   8   8   8   8   8   8
#     4  10  21  37  58  84 115 151 186 231 288 338
#     4  10  22  39  57  83 119 152 187 236 291 342
#     4  11  20  34  60  88 115 150 191 231 283 349
#     4  11  21  35  57  85 119 151 184 232 293 348
#     4   9  19  36  57  83 116 148 185 234 281 337
#     4  10  22  40  60  81 113 156 193 238 297 344
#     4  11  23  38  59  86 115 150 193 240 285 340
#     4  10  21  39  60  82 112 152 197 240 286 336
#
# _framework density 19.823858999999999
#
# number of rings (size 3 to 8) (size 9 to 14) (size 15 to 20)
#    0.000    1.750    2.500    1.875    0.000    4.000 
#    0.000    1.875    0.000    0.000    0.000    0.000 
#    0.000    0.000    0.000    0.000    0.000    0.000 
#
# Total GULP energy -396870.502131 kJ/mol
# GULP energy per Si atom -12402.203192 kJ/mol
# Density = 1.977874 g / cm^3
# Si number density = 19.823859 Si / 1000 Ang^3
#
#
#
# Elastic Constant Matrix: (Units=GPa)
#
#
# Indices 1 2 3 4 5 6 
#
# 1 6.1867 6.9458 12.0922 0.0000 0.0000 0.0000
# 2 6.9458 141.3259 61.3923 0.0000 0.0000 0.0000
# 3 12.0922 61.3923 151.9435 0.0000 0.0000 0.0000
# 4 0.0000 0.0000 0.0000 14.9958 0.0000 0.0000
# 5 0.0000 0.0000 0.0000 0.0000 25.5373 0.0000
# 6 0.0000 0.0000 0.0000 0.0000 0.0000 24.6614
#
#
#
# Elastic Compliance Matrix: (Units=1/GPa)
#
#
# Indices 1 2 3 4 5 6 
#
# 1 0.192756 -0.003408 -0.013963 0.000000 0.000000 0.000000
# 2 -0.003408 0.008642 -0.003221 0.000000 0.000000 0.000000
# 3 -0.013963 -0.003221 0.008994 0.000000 0.000000 0.000000
# 4 0.000000 0.000000 0.000000 0.066685 0.000000 0.000000
# 5 0.000000 0.000000 0.000000 0.000000 0.039158 0.000000
# 6 0.000000 0.000000 0.000000 0.000000 0.000000 0.040549
#
#
# Mechanical properties :
#
#
# Convention : Reuss Voigt Hill
#
# Bulk Modulus (GPa) = 5.90985 51.14630 28.52807
# Shear Modulus (GPa) = 11.00419 27.64060 19.32240
#
# Velocity S-wave (km/s) = 2.35861 3.73810 3.12541
# Velocity P-wave (km/s) = 3.22568 6.66990 5.23892
#
# Compressibility (1/GPa) = 0.16920904
#
# Stress axis : x y z
#
# Youngs Moduli (GPa) = 5.18790 115.70824 111.18552
#
# Poissons Ratio (x) = 0.39431 1.55252
# Poissons Ratio (y) = 0.01768 0.35810
# Poissons Ratio (z) = 0.07244 0.37267
#
# Static dielectric constant tensor:
#      x y z
#    x 3.362620 0.000000 0.000000 
#    y 0.000000 3.772010 0.000000 
#    z 0.000000 0.000000 3.802620 
# 
# 
# High freq. dielectric constant tensor:
#      x y z
#    x 1.752720 0.000000 0.000000 
#    y 0.000000 1.787270 0.000000 
#    z 0.000000 0.000000 1.771180 
# 
# From -- ./inp_files/16584.got.cif
#   From: 2010.03.12/outbox.cif.g09.slc.cpg/sg36_9_cif.got.tgz:16584.got - 2010.04.14 02:13:53.
