data_PCOD8175521
_publ_section_title
;
Structure prediction by ZEFSAII (Michael W. Deem and Ramdas Pophale) SiO2 
 PCOD8175521
Probable space group: C M C 21
;
_chemical_formula_sum "Si O2"
_cell_formula_units_Z 48
_cell_length_a 8.653253
_cell_length_b 15.266479
_cell_length_c 18.381941
_cell_angle_alpha 90.000000
_cell_angle_beta 90.000000
_cell_angle_gamma 90.000000
_cell_volume 2428.340897
_symmetry_space_group_name_H-M "C M C 21"
_symmetry_group_IT_number 36
_symmetry_cell_setting 'orthorhombic'
loop_
_space_group_symop_operation_xyz
x,y,z
-x,-y,1/2+z
x,-y,1/2+z
-x,y,z
1/2+x,1/2+y,z
1/2-x,1/2-y,1/2+z
1/2+x,1/2-y,1/2+z
1/2-x,1/2+y,z
loop_
_atom_site_type_symbol
_atom_site_label
_atom_site_fract_x
_atom_site_fract_y
_atom_site_fract_z
Si Si1 0.182814 0.175008 0.623690
Si Si2 0.681271 0.348579 0.286310
Si Si3 0.678709 0.669506 0.301186
Si Si4 0.319603 0.641857 0.134797
Si Si5 0.182897 0.000422 0.390168
Si Si6 0.180651 0.513633 0.545378
O O1 0.244128 0.145695 0.703568
O O2 0.265029 0.265650 0.601455
O O3 0.000000 0.189887 0.623155
O O4 0.227797 0.101624 0.565779
O O5 0.500000 0.358362 0.284394
O O6 0.726454 0.256073 0.322180
O O7 0.748451 0.427538 0.334422
O O8 0.500000 0.693825 0.306802
O O9 0.718497 0.637094 0.220218
O O10 0.725782 0.594940 0.357949
O O11 0.500000 0.627835 0.118601
O O12 0.223574 0.564327 0.099212
O O13 0.000000 0.990594 0.402659
O O14 0.271948 0.985699 0.464758
O O15 0.000000 0.532656 0.550137
#
# Coordination Sequence:
#
# PCOD8175521 Si02
#       6
#     8   8   8   8   8   8
#     4  10  20  38  62  87 113 145 185 233 282 333
#     4   9  19  36  60  85 109 140 182 228 279 332
#     4   9  19  36  60  85 109 140 182 228 279 332
#     4  10  20  38  62  87 113 145 185 233 282 333
#     4  10  21  38  56  78 112 152 185 224 278 334
#     4  12  25  38  54  82 116 154 193 230 276 332
#
# _framework density 19.766582
#
# number of rings (size 3 to 8) (size 9 to 14) (size 15 to 20)
#    0.000    2.000    0.000    3.500    0.000    6.667 
#    0.000    5.000    0.000    0.000    0.000    0.000 
#    0.000    0.000    0.000    0.000    0.000    0.000 
#
# Total GULP energy -297699.427469 kJ/mol
# GULP energy per Si atom -12404.142811 kJ/mol
# Density = 1.972159 g / cm^3
# Si number density = 19.766582 Si / 1000 Ang^3
#
#
#
# Elastic Constant Matrix: (Units=GPa)
#
#
# Indices 1 2 3 4 5 6 
#
# 1 37.6421 9.9215 21.9301 0.0000 0.0000 0.0000
# 2 9.9215 71.4691 16.4097 0.0000 0.0000 0.0000
# 3 21.9301 16.4097 46.8683 0.0000 0.0000 0.0000
# 4 0.0000 0.0000 0.0000 15.3452 0.0000 0.0000
# 5 0.0000 0.0000 0.0000 0.0000 25.3455 0.0000
# 6 0.0000 0.0000 0.0000 0.0000 0.0000 37.2124
#
#
#
# Elastic Compliance Matrix: (Units=1/GPa)
#
#
# Indices 1 2 3 4 5 6 
#
# 1 0.036624 -0.001250 -0.016699 0.000000 0.000000 0.000000
# 2 -0.001250 0.015258 -0.004757 0.000000 0.000000 0.000000
# 3 -0.016699 -0.004757 0.030816 0.000000 0.000000 0.000000
# 4 0.000000 0.000000 0.000000 0.065167 0.000000 0.000000
# 5 0.000000 0.000000 0.000000 0.000000 0.039455 0.000000
# 6 0.000000 0.000000 0.000000 0.000000 0.000000 0.026873
#
#
# Mechanical properties :
#
#
# Convention : Reuss Voigt Hill
#
# Bulk Modulus (GPa) = 26.82047 28.05581 27.43814
# Shear Modulus (GPa) = 18.38009 22.76185 20.57097
#
# Velocity S-wave (km/s) = 3.05266 3.39710 3.22948
# Velocity P-wave (km/s) = 5.10128 5.44164 5.27421
#
# Compressibility (1/GPa) = 0.03728495
#
# Stress axis : x y z
#
# Youngs Moduli (GPa) = 27.30421 65.53996 32.45100
#
# Poissons Ratio (x) = 0.08193 0.54191
# Poissons Ratio (y) = 0.03413 0.15438
# Poissons Ratio (z) = 0.45596 0.31179
#
# Static dielectric constant tensor:
#      x y z
#    x 3.486870 0.000000 0.000000 
#    y 0.000000 3.761400 0.000000 
#    z 0.000000 0.000000 3.624870 
# 
# 
# High freq. dielectric constant tensor:
#      x y z
#    x 1.764410 0.000000 0.000000 
#    y 0.000000 1.782970 0.000000 
#    z 0.000000 0.000000 1.764460 
# 
# From -- ./inp_files/13489.got.cif
#   From: 2010.03.12/outbox.cif.g09.slc.cpg/sg36_7_cif.got.tgz:13489.got - 2010.04.14 02:13:53.
