data_PCOD8175094
_publ_section_title
;
Structure prediction by ZEFSAII (Michael W. Deem and Ramdas Pophale) SiO2 
 PCOD8175094
Probable space group: C M C 21
;
_chemical_formula_sum "Si O2"
_cell_formula_units_Z 64
_cell_length_a 8.608414
_cell_length_b 22.676458
_cell_length_c 16.234471
_cell_angle_alpha 90.000000
_cell_angle_beta 90.000000
_cell_angle_gamma 90.000000
_cell_volume 3169.104111
_symmetry_space_group_name_H-M "C M C 21"
_symmetry_group_IT_number 36
_symmetry_cell_setting 'orthorhombic'
loop_
_space_group_symop_operation_xyz
x,y,z
-x,-y,1/2+z
x,-y,1/2+z
-x,y,z
1/2+x,1/2+y,z
1/2-x,1/2-y,1/2+z
1/2+x,1/2-y,1/2+z
1/2-x,1/2+y,z
loop_
_atom_site_type_symbol
_atom_site_label
_atom_site_fract_x
_atom_site_fract_y
_atom_site_fract_z
Si Si1 0.319712 0.014103 0.746130
Si Si2 0.816111 0.826808 0.559115
Si Si3 0.181478 0.969950 0.917687
Si Si4 0.172661 0.786529 0.089223
Si Si5 0.174239 0.862382 0.249102
Si Si6 0.683425 0.277367 0.385278
Si Si7 0.679512 0.844854 0.939017
Si Si8 0.184185 0.959958 0.579886
O O1 0.500000 0.000127 0.738886
O O2 0.261115 0.990047 0.833491
O O3 0.238375 0.985746 0.666736
O O4 0.289602 0.083270 0.743299
O O5 0.735289 0.778169 0.618672
O O6 0.756545 0.806550 0.469379
O O7 0.754699 0.892725 0.575661
O O8 0.000000 0.824285 0.569964
O O9 0.210297 0.900503 0.927028
O O10 0.000000 0.982251 0.909129
O O11 0.246879 0.004116 0.999240
O O12 0.161228 0.830745 0.163446
O O13 0.000000 0.780323 0.049983
O O14 0.296433 0.816049 0.028185
O O15 0.252916 0.816095 0.311815
O O16 0.000000 0.883073 0.276719
O O17 0.500000 0.282212 0.382779
O O18 0.728002 0.207951 0.375871
O O19 0.500000 0.863917 0.928968
O O20 0.000000 0.962868 0.578099
#
# Coordination Sequence:
#
# PCOD8175094 Si02
#       8
#     8   8   8   8   8   8   8   8
#     4  12  26  40  58  88 122 154 194 245 297 351
#     4   9  18  35  58  81 107 143 188 237 288 340
#     4  11  23  41  64  87 117 158 201 244 293 352
#     4  10  20  33  54  84 114 147 186 232 289 350
#     4  10  20  37  58  78 106 145 189 232 280 342
#     4   8  16  33  57  81 106 141 182 229 285 341
#     4  10  20  36  57  82 114 149 189 236 288 344
#     4  10  22  41  64  87 116 159 203 243 292 350
#
# _framework density 20.194982
#
# number of rings (size 3 to 8) (size 9 to 14) (size 15 to 20)
#    0.000    2.000    0.000    4.500    0.000    8.500 
#    0.000    6.875    0.000    0.000    0.000    0.000 
#    0.000    0.000    0.000    0.000    0.000    0.000 
#
# Total GULP energy -396618.809311 kJ/mol
# GULP energy per Si atom -12394.337791 kJ/mol
# Density = 2.014902 g / cm^3
# Si number density = 20.194982 Si / 1000 Ang^3
#
#
#
# Elastic Constant Matrix: (Units=GPa)
#
#
# Indices 1 2 3 4 5 6 
#
# 1 35.7183 19.7558 12.2349 0.0000 0.0000 0.0000
# 2 19.7558 154.1328 46.8818 0.0000 0.0000 0.0000
# 3 12.2349 46.8818 92.6199 0.0000 0.0000 0.0000
# 4 0.0000 0.0000 0.0000 32.5463 0.0000 0.0000
# 5 0.0000 0.0000 0.0000 0.0000 20.0042 0.0000
# 6 0.0000 0.0000 0.0000 0.0000 0.0000 107.7397
#
#
#
# Elastic Compliance Matrix: (Units=1/GPa)
#
#
# Indices 1 2 3 4 5 6 
#
# 1 0.030589 -0.003181 -0.002430 0.000000 0.000000 0.000000
# 2 -0.003181 0.007999 -0.003629 0.000000 0.000000 0.000000
# 3 -0.002430 -0.003629 0.012955 0.000000 0.000000 0.000000
# 4 0.000000 0.000000 0.000000 0.030726 0.000000 0.000000
# 5 0.000000 0.000000 0.000000 0.000000 0.049990 0.000000
# 6 0.000000 0.000000 0.000000 0.000000 0.000000 0.009282
#
#
# Mechanical properties :
#
#
# Convention : Reuss Voigt Hill
#
# Bulk Modulus (GPa) = 30.24644 48.91291 39.57967
# Shear Modulus (GPa) = 29.23261 45.63126 37.43193
#
# Velocity S-wave (km/s) = 3.80875 4.75861 4.30993
# Velocity P-wave (km/s) = 5.86105 7.38007 6.66398
#
# Compressibility (1/GPa) = 0.03306175
#
# Stress axis : x y z
#
# Youngs Moduli (GPa) = 32.69151 125.00831 77.19212
#
# Poissons Ratio (x) = 0.39771 0.18760
# Poissons Ratio (y) = 0.10401 0.28012
# Poissons Ratio (z) = 0.07945 0.45364
#
# Static dielectric constant tensor:
#      x y z
#    x 4.780240 0.000000 0.000000 
#    y 0.000000 4.070610 0.000000 
#    z 0.000000 0.000000 3.762400 
# 
# 
# High freq. dielectric constant tensor:
#      x y z
#    x 1.772010 0.000000 0.000000 
#    y 0.000000 1.808020 0.000000 
#    z 0.000000 0.000000 1.781670 
# 
# From -- ./inp_files/13789.got.cif
#   From: 2010.03.12/outbox.cif.g09.slc.cpg/sg36_7_cif.got.tgz:13789.got - 2010.04.14 02:13:53.
