data_PCOD8175473
_publ_section_title
;
Structure prediction by ZEFSAII (Michael W. Deem and Ramdas Pophale) SiO2 
 PCOD8175473
Probable space group: C M C 21
;
_chemical_formula_sum "Si O2"
_cell_formula_units_Z 48
_cell_length_a 8.591032
_cell_length_b 20.076360
_cell_length_c 13.855026
_cell_angle_alpha 90.000000
_cell_angle_beta 90.000000
_cell_angle_gamma 90.000000
_cell_volume 2389.668487
_symmetry_space_group_name_H-M "C M C 21"
_symmetry_group_IT_number 36
_symmetry_cell_setting 'orthorhombic'
loop_
_space_group_symop_operation_xyz
x,y,z
-x,-y,1/2+z
x,-y,1/2+z
-x,y,z
1/2+x,1/2+y,z
1/2-x,1/2-y,1/2+z
1/2+x,1/2-y,1/2+z
1/2-x,1/2+y,z
loop_
_atom_site_type_symbol
_atom_site_label
_atom_site_fract_x
_atom_site_fract_y
_atom_site_fract_z
Si Si1 0.320972 0.797164 0.553840
Si Si2 0.679176 0.814517 0.174102
Si Si3 0.681355 0.563140 0.572688
Si Si4 0.820625 0.762478 0.365185
Si Si5 0.321061 0.618545 0.367215
Si Si6 0.320436 0.421118 0.655617
O O1 0.500000 0.778126 0.569455
O O2 0.213163 0.736383 0.587742
O O3 0.282395 0.804548 0.440902
O O4 0.286388 0.864231 0.611057
O O5 0.500000 0.809641 0.205104
O O6 0.717546 0.888321 0.138766
O O7 0.788476 0.794279 0.261957
O O8 0.500000 0.576654 0.592676
O O9 0.721864 0.573091 0.459563
O O10 0.729595 0.489364 0.604726
O O11 0.782674 0.684296 0.364958
O O12 0.000000 0.772053 0.391073
O O13 0.500000 0.641974 0.372661
O O14 0.290918 0.575011 0.270874
O O15 0.500000 0.404214 0.633700
#
# Coordination Sequence:
#
# PCOD8175473 Si02
#       6
#     8   8   8   8   8   8
#     4  12  24  40  63  93 127 165 211 263 313 372
#     4  12  24  40  63  93 127 165 211 263 313 372
#     4  10  22  40  63  93 130 172 214 260 316 379
#     4  12  24  39  64  95 125 165 213 265 320 377
#     4  10  20  37  62  89 125 169 213 259 312 377
#     4  10  22  40  63  93 130 172 214 260 316 379
#
# _framework density 20.086469999999998
#
# number of rings (size 3 to 8) (size 9 to 14) (size 15 to 20)
#    0.000    1.000    3.333    4.500    0.000    2.000 
#    0.000    3.333    0.000    0.000    0.000    0.000 
#    0.000    0.000    0.000    0.000    0.000    0.000 
#
# Total GULP energy -297741.115654 kJ/mol
# GULP energy per Si atom -12405.879819 kJ/mol
# Density = 2.004075 g / cm^3
# Si number density = 20.086470 Si / 1000 Ang^3
#
#
#
# Elastic Constant Matrix: (Units=GPa)
#
#
# Indices 1 2 3 4 5 6 
#
# 1 79.8493 39.6129 29.5174 0.0000 0.0000 0.0000
# 2 39.6129 85.7260 30.6460 0.0000 0.0000 0.0000
# 3 29.5174 30.6460 108.0865 0.0000 0.0000 0.0000
# 4 0.0000 0.0000 0.0000 36.8818 0.0000 0.0000
# 5 0.0000 0.0000 0.0000 0.0000 28.6336 0.0000
# 6 0.0000 0.0000 0.0000 0.0000 0.0000 30.2722
#
#
#
# Elastic Compliance Matrix: (Units=1/GPa)
#
#
# Indices 1 2 3 4 5 6 
#
# 1 0.016916 -0.006860 -0.002674 0.000000 0.000000 0.000000
# 2 -0.006860 0.015763 -0.002596 0.000000 0.000000 0.000000
# 3 -0.002674 -0.002596 0.010718 0.000000 0.000000 0.000000
# 4 0.000000 0.000000 0.000000 0.027114 0.000000 0.000000
# 5 0.000000 0.000000 0.000000 0.000000 0.034924 0.000000
# 6 0.000000 0.000000 0.000000 0.000000 0.000000 0.033034
#
#
# Mechanical properties :
#
#
# Convention : Reuss Voigt Hill
#
# Bulk Modulus (GPa) = 52.25825 52.57937 52.41881
# Shear Modulus (GPa) = 29.56687 30.74988 30.15838
#
# Velocity S-wave (km/s) = 3.84080 3.91688 3.87903
# Velocity P-wave (km/s) = 6.76329 6.83296 6.79821
#
# Compressibility (1/GPa) = 0.01913573
#
# Stress axis : x y z
#
# Youngs Moduli (GPa) = 59.11687 63.43894 93.29934
#
# Poissons Ratio (x) = 0.43522 0.24951
# Poissons Ratio (y) = 0.40557 0.24219
# Poissons Ratio (z) = 0.15810 0.16468
#
# Static dielectric constant tensor:
#      x y z
#    x 3.594340 0.000000 0.000000 
#    y 0.000000 3.512490 0.000000 
#    z 0.000000 0.000000 3.913130 
# 
# 
# High freq. dielectric constant tensor:
#      x y z
#    x 1.781660 0.000000 0.000000 
#    y 0.000000 1.771320 0.000000 
#    z 0.000000 0.000000 1.801740 
# 
# From -- ./inp_files/10335.got.cif
#   From: 2010.03.12/outbox.cif.g09.slc.cpg/sg36_6_cif.got.tgz:10335.got - 2010.04.14 02:13:53.
