data_PCOD8175439
_publ_section_title
;
Structure prediction by ZEFSAII (Michael W. Deem and Ramdas Pophale) SiO2 
 PCOD8175439
Probable space group: C M C 21
;
_chemical_formula_sum "Si O2"
_cell_formula_units_Z 64
_cell_length_a 29.737505
_cell_length_b 8.889515
_cell_length_c 12.691496
_cell_angle_alpha 90.000000
_cell_angle_beta 90.000000
_cell_angle_gamma 90.000000
_cell_volume 3355.022309
_symmetry_space_group_name_H-M "C M C 21"
_symmetry_group_IT_number 36
_symmetry_cell_setting 'orthorhombic'
loop_
_space_group_symop_operation_xyz
x,y,z
-x,-y,1/2+z
x,-y,1/2+z
-x,y,z
1/2+x,1/2+y,z
1/2-x,1/2-y,1/2+z
1/2+x,1/2-y,1/2+z
1/2-x,1/2+y,z
loop_
_atom_site_type_symbol
_atom_site_label
_atom_site_fract_x
_atom_site_fract_y
_atom_site_fract_z
Si Si1 0.669521 0.316817 0.201670
Si Si2 0.449988 0.026443 0.303550
Si Si3 0.714906 0.228692 0.405936
Si Si4 0.201533 0.949589 0.988721
Si Si5 0.882837 0.976228 0.380240
Si Si6 0.901544 0.397503 0.603497
Si Si7 0.879875 0.340162 0.961946
Si Si8 0.448750 0.271704 0.914409
O O1 0.709357 0.268507 0.281867
O O2 0.632121 0.414625 0.265352
O O3 0.643547 0.173986 0.152672
O O4 0.694923 0.410258 0.111289
O O5 0.500000 0.079693 0.337613
O O6 0.442023 0.076424 0.184320
O O7 0.412361 0.106644 0.370405
O O8 0.446246 0.846477 0.318392
O O9 0.760700 0.145223 0.429197
O O10 0.714427 0.375963 0.479513
O O11 0.672044 0.124618 0.434023
O O12 0.155780 0.913659 0.925295
O O13 0.887772 0.840332 0.466111
O O14 0.928595 0.070667 0.372544
O O15 0.890127 0.567600 0.567095
O O16 0.920204 0.290361 0.512374
O O17 0.500000 0.300948 0.949565
#
# Coordination Sequence:
#
# PCOD8175439 Si02
#       8
#     8   8   8   8   8   8   8   8
#     4  10  21  40  64  86 118 163 201 251 315 364
#     4  10  20  37  59  89 122 158 204 250 296 365
#     4  10  23  40  60  92 120 152 208 246 312 369
#     4  10  22  39  62  85 125 155 199 260 297 373
#     4  10  21  42  59  88 127 156 206 252 317 362
#     4  11  19  39  65  84 122 164 206 244 309 365
#     4   9  21  38  60  88 116 159 199 254 297 365
#     4  10  22  37  62  94 124 161 206 255 308 361
#
# _framework density 19.075879
#
# number of rings (size 3 to 8) (size 9 to 14) (size 15 to 20)
#    0.000    2.250    3.750    0.375    1.750    5.000 
#    0.000    0.000    0.000    0.000    0.000    0.000 
#    0.000    0.000    0.000    0.000    0.000    0.000 
#
# Total GULP energy -396593.171060 kJ/mol
# GULP energy per Si atom -12393.536596 kJ/mol
# Density = 1.903246 g / cm^3
# Si number density = 19.075879 Si / 1000 Ang^3
#
#
#
# Elastic Constant Matrix: (Units=GPa)
#
#
# Indices 1 2 3 4 5 6 
#
# 1 113.8206 67.7782 43.5183 0.0000 0.0000 0.0000
# 2 67.7782 92.6874 45.4470 0.0000 0.0000 0.0000
# 3 43.5183 45.4470 103.5330 0.0000 0.0000 0.0000
# 4 0.0000 0.0000 0.0000 25.5386 0.0000 0.0000
# 5 0.0000 0.0000 0.0000 0.0000 21.3996 0.0000
# 6 0.0000 0.0000 0.0000 0.0000 0.0000 39.1059
#
#
#
# Elastic Compliance Matrix: (Units=1/GPa)
#
#
# Indices 1 2 3 4 5 6 
#
# 1 0.015884 -0.010630 -0.002011 0.000000 0.000000 0.000000
# 2 -0.010630 0.020861 -0.004689 0.000000 0.000000 0.000000
# 3 -0.002011 -0.004689 0.012562 0.000000 0.000000 0.000000
# 4 0.000000 0.000000 0.000000 0.039156 0.000000 0.000000
# 5 0.000000 0.000000 0.000000 0.000000 0.046730 0.000000
# 6 0.000000 0.000000 0.000000 0.000000 0.000000 0.025572
#
#
# Mechanical properties :
#
#
# Convention : Reuss Voigt Hill
#
# Bulk Modulus (GPa) = 68.26571 69.28089 68.77330
# Shear Modulus (GPa) = 24.96162 27.42866 26.19514
#
# Velocity S-wave (km/s) = 3.62130 3.79604 3.70970
# Velocity P-wave (km/s) = 7.30405 7.45726 7.38105
#
# Compressibility (1/GPa) = 0.01464864
#
# Stress axis : x y z
#
# Youngs Moduli (GPa) = 62.95549 47.93599 79.60299
#
# Poissons Ratio (x) = 0.50954 0.16006
# Poissons Ratio (y) = 0.66919 0.37328
# Poissons Ratio (z) = 0.12658 0.22479
#
# Static dielectric constant tensor:
#      x y z
#    x 3.576610 0.000000 0.000000 
#    y 0.000000 3.513060 0.000000 
#    z 0.000000 0.000000 3.475050 
# 
# 
# High freq. dielectric constant tensor:
#      x y z
#    x 1.747310 0.000000 0.000000 
#    y 0.000000 1.736690 0.000000 
#    z 0.000000 0.000000 1.734350 
# 
# From -- ./inp_files/9727.got.cif
#   From: 2010.03.12/outbox.cif.g09.slc.cpg/sg36_5_cif.got.tgz:9727.got - 2010.04.14 02:13:53.
