data_PCOD8175458
_publ_section_title
;
Structure prediction by ZEFSAII (Michael W. Deem and Ramdas Pophale) SiO2 
 PCOD8175458
Probable space group: C M C 21
;
_chemical_formula_sum "Si O2"
_cell_formula_units_Z 64
_cell_length_a 8.792788
_cell_length_b 28.879147
_cell_length_c 12.291108
_cell_angle_alpha 90.000000
_cell_angle_beta 90.000000
_cell_angle_gamma 90.000000
_cell_volume 3121.059142
_symmetry_space_group_name_H-M "C M C 21"
_symmetry_group_IT_number 36
_symmetry_cell_setting 'orthorhombic'
loop_
_space_group_symop_operation_xyz
x,y,z
-x,-y,1/2+z
x,-y,1/2+z
-x,y,z
1/2+x,1/2+y,z
1/2-x,1/2-y,1/2+z
1/2+x,1/2-y,1/2+z
1/2-x,1/2+y,z
loop_
_atom_site_type_symbol
_atom_site_label
_atom_site_fract_x
_atom_site_fract_y
_atom_site_fract_z
Si Si1 0.177684 0.066527 0.588710
Si Si2 0.178673 0.525210 0.154328
Si Si3 0.320587 0.086171 0.358975
Si Si4 0.170160 0.184176 0.071436
Si Si5 0.678375 0.811503 0.793874
Si Si6 0.822967 0.722781 0.868163
Si Si7 0.169820 0.913770 0.485295
Si Si8 0.678231 0.362712 0.270418
O O1 0.247999 0.067478 0.469274
O O2 0.213204 0.113991 0.654162
O O3 0.000000 0.058616 0.577352
O O4 0.245404 0.025004 0.660579
O O5 0.237276 0.555587 0.256785
O O6 0.221325 0.547909 0.038075
O O7 0.000000 0.519308 0.159031
O O8 0.500000 0.082007 0.370644
O O9 0.270253 0.139371 0.343054
O O10 0.226559 0.200926 0.187237
O O11 0.167709 0.128763 0.069281
O O12 0.000000 0.203669 0.048223
O O13 0.293498 0.200960 0.985135
O O14 0.500000 0.811837 0.768257
O O15 0.725600 0.770022 0.872991
O O16 0.766172 0.686267 0.776173
O O17 0.000000 0.733224 0.850567
O O18 0.231888 0.897242 0.367456
O O19 0.000000 0.934702 0.473111
O O20 0.500000 0.352259 0.287950
#
# Coordination Sequence:
#
# PCOD8175458 Si02
#       8
#     8   8   8   8   8   8   8   8
#     4  11  25  42  64  92 126 168 210 257 315 377
#     4  11  23  40  62  91 124 159 206 256 310 372
#     4  10  24  44  64  92 127 164 206 257 314 373
#     4  10  20  37  60  88 120 157 204 259 314 370
#     4  11  22  40  64  90 125 165 210 263 316 372
#     4  11  23  38  61  93 126 167 214 257 315 380
#     4   9  18  35  61  88 116 152 199 256 309 364
#     4   9  21  42  62  88 124 162 209 263 315 366
#
# _framework density 20.505859999999998
#
# number of rings (size 3 to 8) (size 9 to 14) (size 15 to 20)
#    0.000    1.750    1.250    3.375    1.750    6.000 
#    0.000    2.500    0.000    0.000    0.000    0.000 
#    0.000    0.000    0.000    0.000    0.000    0.000 
#
# Total GULP energy -396831.050297 kJ/mol
# GULP energy per Si atom -12400.970322 kJ/mol
# Density = 2.045919 g / cm^3
# Si number density = 20.505860 Si / 1000 Ang^3
#
#
#
# Elastic Constant Matrix: (Units=GPa)
#
#
# Indices 1 2 3 4 5 6 
#
# 1 68.4403 41.6760 31.8298 0.0000 0.0000 0.0000
# 2 41.6760 116.1100 37.2761 0.0000 0.0000 0.0000
# 3 31.8298 37.2761 86.1784 0.0000 0.0000 0.0000
# 4 0.0000 0.0000 0.0000 23.2437 0.0000 0.0000
# 5 0.0000 0.0000 0.0000 0.0000 33.4249 0.0000
# 6 0.0000 0.0000 0.0000 0.0000 0.0000 33.4628
#
#
#
# Elastic Compliance Matrix: (Units=1/GPa)
#
#
# Indices 1 2 3 4 5 6 
#
# 1 0.020452 -0.005709 -0.005085 0.000000 0.000000 0.000000
# 2 -0.005709 0.011595 -0.002907 0.000000 0.000000 0.000000
# 3 -0.005085 -0.002907 0.014739 0.000000 0.000000 0.000000
# 4 0.000000 0.000000 0.000000 0.043022 0.000000 0.000000
# 5 0.000000 0.000000 0.000000 0.000000 0.029918 0.000000
# 6 0.000000 0.000000 0.000000 0.000000 0.000000 0.029884
#
#
# Mechanical properties :
#
#
# Convention : Reuss Voigt Hill
#
# Bulk Modulus (GPa) = 51.58400 54.69919 53.14159
# Shear Modulus (GPa) = 27.25203 28.68941 27.97072
#
# Velocity S-wave (km/s) = 3.64948 3.74449 3.69729
# Velocity P-wave (km/s) = 6.55505 6.74001 6.64817
#
# Compressibility (1/GPa) = 0.01938586
#
# Stress axis : x y z
#
# Youngs Moduli (GPa) = 48.89434 86.24594 67.84632
#
# Poissons Ratio (x) = 0.49235 0.34498
# Poissons Ratio (y) = 0.27912 0.19721
# Poissons Ratio (z) = 0.24862 0.25070
#
# Static dielectric constant tensor:
#      x y z
#    x 3.596200 0.000000 0.000000 
#    y 0.000000 3.753120 0.000000 
#    z 0.000000 0.000000 3.624360 
# 
# 
# High freq. dielectric constant tensor:
#      x y z
#    x 1.799900 0.000000 0.000000 
#    y 0.000000 1.802290 0.000000 
#    z 0.000000 0.000000 1.797540 
# 
# From -- ./inp_files/7186.got.cif
#   From: 2010.03.12/outbox.cif.g09.slc.cpg/sg36_4_cif.got.tgz:7186.got - 2010.04.14 02:13:53.
