data_PCOD8175754
_publ_section_title
;
Structure prediction by ZEFSAII (Michael W. Deem and Ramdas Pophale) SiO2 
 PCOD8175754
Probable space group: C M C 21
;
_chemical_formula_sum "Si O2"
_cell_formula_units_Z 64
_cell_length_a 9.123496
_cell_length_b 31.941431
_cell_length_c 10.864468
_cell_angle_alpha 90.000000
_cell_angle_beta 90.000000
_cell_angle_gamma 90.000000
_cell_volume 3166.096299
_symmetry_space_group_name_H-M "C M C 21"
_symmetry_group_IT_number 36
_symmetry_cell_setting 'orthorhombic'
loop_
_space_group_symop_operation_xyz
x,y,z
-x,-y,1/2+z
x,-y,1/2+z
-x,y,z
1/2+x,1/2+y,z
1/2-x,1/2-y,1/2+z
1/2+x,1/2-y,1/2+z
1/2-x,1/2+y,z
loop_
_atom_site_type_symbol
_atom_site_label
_atom_site_fract_x
_atom_site_fract_y
_atom_site_fract_z
Si Si1 0.338823 0.858162 0.121530
Si Si2 0.828841 0.078084 0.479969
Si Si3 0.333799 0.367030 0.506164
Si Si4 0.660126 0.923474 0.339557
Si Si5 0.829613 0.488027 0.146082
Si Si6 0.166051 0.068698 0.200859
Si Si7 0.827090 0.267844 0.208532
Si Si8 0.326234 0.781170 0.486514
O O1 0.500000 0.850957 0.062608
O O2 0.228187 0.876001 0.020036
O O3 0.351399 0.891609 0.227953
O O4 0.278274 0.814899 0.176796
O O5 0.753071 0.039790 0.547218
O O6 0.785044 0.073557 0.339653
O O7 0.000000 0.076356 0.506330
O O8 0.500000 0.353314 0.474177
O O9 0.289373 0.407923 0.427083
O O10 0.320696 0.384531 0.644498
O O11 0.223802 0.329268 0.481271
O O12 0.500000 0.925015 0.405928
O O13 0.698816 0.969160 0.283306
O O14 0.771678 0.535235 0.135465
O O15 0.000000 0.487323 0.112596
O O16 0.000000 0.052047 0.188514
O O17 0.746725 0.238833 0.108028
O O18 0.783792 0.259602 0.353651
O O19 0.000000 0.260577 0.193011
O O20 0.500000 0.779987 0.503202
#
# Coordination Sequence:
#
# PCOD8175754 Si02
#       8
#     8   8   8   8   8   8   8   8
#     4   9  18  37  62  85 115 151 192 242 299 356
#     4  10  21  38  58  83 118 154 198 248 300 364
#     4  11  23  39  61  88 120 160 204 249 303 366
#     4   9  18  36  59  85 115 148 192 242 293 350
#     4  10  22  38  59  86 116 153 199 249 300 357
#     4  10  24  41  56  82 121 160 199 250 305 360
#     4  10  22  42  65  93 129 165 207 262 315 377
#     4  11  24  43  66  94 130 167 211 264 319 380
#
# _framework density 20.214167
#
# number of rings (size 3 to 8) (size 9 to 14) (size 15 to 20)
#    0.000    2.000    1.250    2.250    1.750    7.000 
#    0.000    3.750    0.000    0.000    0.000    0.000 
#    0.000    0.000    0.000    0.000    0.000    0.000 
#
# Total GULP energy -396637.064533 kJ/mol
# GULP energy per Si atom -12394.908267 kJ/mol
# Density = 2.016816 g / cm^3
# Si number density = 20.214167 Si / 1000 Ang^3
#
#
#
# Elastic Constant Matrix: (Units=GPa)
#
#
# Indices 1 2 3 4 5 6 
#
# 1 82.0364 25.3176 54.9882 0.0000 0.0000 0.0000
# 2 25.3176 67.0373 33.3668 0.0000 0.0000 0.0000
# 3 54.9882 33.3668 112.0800 0.0000 0.0000 0.0000
# 4 0.0000 0.0000 0.0000 22.9254 0.0000 0.0000
# 5 0.0000 0.0000 0.0000 0.0000 21.5245 0.0000
# 6 0.0000 0.0000 0.0000 0.0000 0.0000 34.3653
#
#
#
# Elastic Compliance Matrix: (Units=1/GPa)
#
#
# Indices 1 2 3 4 5 6 
#
# 1 0.018637 -0.002920 -0.008274 0.000000 0.000000 0.000000
# 2 -0.002920 0.017970 -0.003917 0.000000 0.000000 0.000000
# 3 -0.008274 -0.003917 0.014148 0.000000 0.000000 0.000000
# 4 0.000000 0.000000 0.000000 0.043620 0.000000 0.000000
# 5 0.000000 0.000000 0.000000 0.000000 0.046459 0.000000
# 6 0.000000 0.000000 0.000000 0.000000 0.000000 0.029099
#
#
# Mechanical properties :
#
#
# Convention : Reuss Voigt Hill
#
# Bulk Modulus (GPa) = 48.70545 54.27767 51.49156
# Shear Modulus (GPa) = 24.15476 25.59512 24.87494
#
# Velocity S-wave (km/s) = 3.46054 3.56223 3.51175
# Velocity P-wave (km/s) = 6.33357 6.62034 6.47854
#
# Compressibility (1/GPa) = 0.02053158
#
# Stress axis : x y z
#
# Youngs Moduli (GPa) = 53.65642 55.64979 70.68236
#
# Poissons Ratio (x) = 0.16251 0.58485
# Poissons Ratio (y) = 0.15669 0.27686
# Poissons Ratio (z) = 0.44397 0.21798
#
# Static dielectric constant tensor:
#      x y z
#    x 3.727290 0.000000 0.000000 
#    y 0.000000 3.700560 0.000000 
#    z 0.000000 0.000000 3.821420 
# 
# 
# High freq. dielectric constant tensor:
#      x y z
#    x 1.791630 0.000000 0.000000 
#    y 0.000000 1.784060 0.000000 
#    z 0.000000 0.000000 1.789440 
# 
# From -- ./inp_files/7194.got.cif
#   From: 2010.03.12/outbox.cif.g09.slc.cpg/sg36_4_cif.got.tgz:7194.got - 2010.04.14 02:13:53.
