data_PCOD8175592
_publ_section_title
;
Structure prediction by ZEFSAII (Michael W. Deem and Ramdas Pophale) SiO2 
 PCOD8175592
Probable space group: C M C 21
;
_chemical_formula_sum "Si O2"
_cell_formula_units_Z 48
_cell_length_a 24.509236
_cell_length_b 8.976323
_cell_length_c 10.424021
_cell_angle_alpha 90.000000
_cell_angle_beta 90.000000
_cell_angle_gamma 90.000000
_cell_volume 2293.314003
_symmetry_space_group_name_H-M "C M C 21"
_symmetry_group_IT_number 36
_symmetry_cell_setting 'orthorhombic'
loop_
_space_group_symop_operation_xyz
x,y,z
-x,-y,1/2+z
x,-y,1/2+z
-x,y,z
1/2+x,1/2+y,z
1/2-x,1/2-y,1/2+z
1/2+x,1/2-y,1/2+z
1/2-x,1/2+y,z
loop_
_atom_site_type_symbol
_atom_site_label
_atom_site_fract_x
_atom_site_fract_y
_atom_site_fract_z
Si Si1 0.500000 0.417528 0.376290
Si Si2 0.500000 0.341265 0.661080
Si Si3 0.622143 0.356068 0.377524
Si Si4 0.169543 0.815936 0.861824
Si Si5 0.291561 0.120352 0.305073
Si Si6 0.110429 0.697284 0.628000
Si Si7 0.669769 0.931317 0.537771
O O1 0.500000 0.445308 0.531803
O O2 0.500000 0.567249 0.293023
O O3 0.557268 0.333010 0.342146
O O4 0.548689 0.225112 0.663675
O O5 0.641215 0.523896 0.351223
O O6 0.659743 0.242849 0.297944
O O7 0.631519 0.321086 0.527176
O O8 0.234016 0.810749 0.841818
O O9 0.146591 0.707492 0.753546
O O10 0.154957 0.739443 0.999627
O O11 0.289400 0.058050 0.159608
O O12 0.300711 0.995100 0.411683
O O13 0.116334 0.530743 0.569348
#
# Coordination Sequence:
#
# PCOD8175592 Si02
#       7
#     4   4   8   8   8   8   8
#     4  10  20  40  66  96 130 166 216 272 326 376
#     4  10  20  42  68  94 134 170 218 280 330 386
#     4  10  24  41  67  98 128 171 220 278 325 386
#     4  12  24  39  67  94 132 177 217 269 331 397
#     4  11  26  41  65  95 137 173 219 270 331 397
#     4  10  23  44  63  95 134 170 218 276 328 392
#     4  11  25  45  62  93 134 177 215 266 333 400
#
# _framework density 20.930409000000001
#
# number of rings (size 3 to 8) (size 9 to 14) (size 15 to 20)
#    0.000    1.333    3.333    1.000    9.333    0.000 
#    0.000    2.500    0.000    0.000    0.000    0.000 
#    0.000    0.000    0.000    0.000    0.000    0.000 
#
# Total GULP energy -297424.994159 kJ/mol
# GULP energy per Si atom -12392.708090 kJ/mol
# Density = 2.088277 g / cm^3
# Si number density = 20.930409 Si / 1000 Ang^3
#
#
#
# Elastic Constant Matrix: (Units=GPa)
#
#
# Indices 1 2 3 4 5 6 
#
# 1 140.8327 40.0342 38.8772 0.0000 0.0000 0.0000
# 2 40.0342 86.5682 37.1205 0.0000 0.0000 0.0000
# 3 38.8772 37.1205 120.6733 0.0000 0.0000 0.0000
# 4 0.0000 0.0000 0.0000 37.4632 0.0000 0.0000
# 5 0.0000 0.0000 0.0000 0.0000 24.9267 0.0000
# 6 0.0000 0.0000 0.0000 0.0000 0.0000 25.1970
#
#
#
# Elastic Compliance Matrix: (Units=1/GPa)
#
#
# Indices 1 2 3 4 5 6 
#
# 1 0.008488 -0.003171 -0.001759 0.000000 0.000000 0.000000
# 2 -0.003171 0.014491 -0.003436 0.000000 0.000000 0.000000
# 3 -0.001759 -0.003436 0.009911 0.000000 0.000000 0.000000
# 4 0.000000 0.000000 0.000000 0.026693 0.000000 0.000000
# 5 0.000000 0.000000 0.000000 0.000000 0.040118 0.000000
# 6 0.000000 0.000000 0.000000 0.000000 0.000000 0.039687
#
#
# Mechanical properties :
#
#
# Convention : Reuss Voigt Hill
#
# Bulk Modulus (GPa) = 61.89120 64.45977 63.17549
# Shear Modulus (GPa) = 30.95874 32.98687 31.97281
#
# Velocity S-wave (km/s) = 3.85011 3.97423 3.91266
# Velocity P-wave (km/s) = 7.02842 7.20579 7.11766
#
# Compressibility (1/GPa) = 0.01615738
#
# Stress axis : x y z
#
# Youngs Moduli (GPa) = 117.81909 69.00630 100.90256
#
# Poissons Ratio (x) = 0.21881 0.17749
# Poissons Ratio (y) = 0.37359 0.34672
# Poissons Ratio (z) = 0.20725 0.23712
#
# Static dielectric constant tensor:
#      x y z
#    x 3.755080 0.000000 0.000000 
#    y 0.000000 3.775950 0.000000 
#    z 0.000000 0.000000 3.950210 
# 
# 
# High freq. dielectric constant tensor:
#      x y z
#    x 1.815930 0.000000 0.000000 
#    y 0.000000 1.810600 0.000000 
#    z 0.000000 0.000000 1.832630 
# 
# From -- ./inp_files/9445.got.cif
#   From: 2010.03.12/outbox.cif.g09.slc.cpg/sg36_5_cif.got.tgz:9445.got - 2010.04.14 02:13:53.
