data_PCOD8175697
_publ_section_title
;
Structure prediction by ZEFSAII (Michael W. Deem and Ramdas Pophale) SiO2 
 PCOD8175697
Probable space group: C M C 21
;
_chemical_formula_sum "Si O2"
_cell_formula_units_Z 48
_cell_length_a 13.923791
_cell_length_b 33.076056
_cell_length_c 5.047753
_cell_angle_alpha 90.000000
_cell_angle_beta 90.000000
_cell_angle_gamma 90.000000
_cell_volume 2324.712816
_symmetry_space_group_name_H-M "C M C 21"
_symmetry_group_IT_number 36
_symmetry_cell_setting 'orthorhombic'
loop_
_space_group_symop_operation_xyz
x,y,z
-x,-y,1/2+z
x,-y,1/2+z
-x,y,z
1/2+x,1/2+y,z
1/2-x,1/2-y,1/2+z
1/2+x,1/2-y,1/2+z
1/2-x,1/2+y,z
loop_
_atom_site_type_symbol
_atom_site_label
_atom_site_fract_x
_atom_site_fract_y
_atom_site_fract_z
Si Si1 0.113174 0.475798 0.047300
Si Si2 0.500000 0.761780 0.288128
Si Si3 0.205439 0.646029 0.216561
Si Si4 0.000000 0.316880 0.789112
Si Si5 0.206207 0.230087 0.210226
Si Si6 0.240822 0.404767 0.205072
Si Si7 0.112148 0.025945 0.761968
O O1 0.150758 0.507192 0.268604
O O2 0.153017 0.431547 0.099729
O O3 0.000000 0.471925 0.056219
O O4 0.500000 0.779985 0.582418
O O5 0.592403 0.733373 0.252707
O O6 0.500000 0.798883 0.084052
O O7 0.265361 0.685072 0.123059
O O8 0.253008 0.630819 0.490430
O O9 0.093161 0.655437 0.252411
O O10 0.215397 0.612419 0.991671
O O11 0.263209 0.239305 0.479595
O O12 0.337079 0.431086 0.225260
O O13 0.000000 0.035454 0.749106
O O14 0.143485 0.994569 0.535530
#
# Coordination Sequence:
#
# PCOD8175697 Si02
#       7
#     8   4   8   4   8   8   8
#     4  10  21  37  57  83 115 156 202 240 283 353
#     4  12  22  44  74  90 120 171 216 277 308 382
#     4  12  26  40  63  94 131 160 204 263 314 385
#     4  12  24  42  68  94 120 173 220 249 320 380
#     4  12  23  45  67  96 126 165 221 260 319 381
#     4  12  24  40  61  92 129 165 194 258 322 365
#     4  10  21  41  69  93 119 165 221 263 306 377
#
# _framework density 20.647714000000001
#
# number of rings (size 3 to 8) (size 9 to 14) (size 15 to 20)
#    0.000    0.667    3.333    5.000    2.333    0.000 
#    3.000    0.000    0.000    0.000    0.000    0.000 
#    0.000    0.000    0.000    0.000    0.000    0.000 
#
# Total GULP energy -297784.926793 kJ/mol
# GULP energy per Si atom -12407.705283 kJ/mol
# Density = 2.060072 g / cm^3
# Si number density = 20.647714 Si / 1000 Ang^3
#
#
#
# Elastic Constant Matrix: (Units=GPa)
#
#
# Indices 1 2 3 4 5 6 
#
# 1 79.5817 37.4017 21.3825 0.0000 0.0000 0.0000
# 2 37.4017 89.5263 10.7795 0.0000 0.0000 0.0000
# 3 21.3825 10.7795 89.0831 0.0000 0.0000 0.0000
# 4 0.0000 0.0000 0.0000 39.6107 0.0000 0.0000
# 5 0.0000 0.0000 0.0000 0.0000 26.2627 0.0000
# 6 0.0000 0.0000 0.0000 0.0000 0.0000 36.2063
#
#
#
# Elastic Compliance Matrix: (Units=1/GPa)
#
#
# Indices 1 2 3 4 5 6 
#
# 1 0.016472 -0.006500 -0.003167 0.000000 0.000000 0.000000
# 2 -0.006500 0.013900 -0.000122 0.000000 0.000000 0.000000
# 3 -0.003167 -0.000122 0.012000 0.000000 0.000000 0.000000
# 4 0.000000 0.000000 0.000000 0.025246 0.000000 0.000000
# 5 0.000000 0.000000 0.000000 0.000000 0.038077 0.000000
# 6 0.000000 0.000000 0.000000 0.000000 0.000000 0.027619
#
#
# Mechanical properties :
#
#
# Convention : Reuss Voigt Hill
#
# Bulk Modulus (GPa) = 43.87079 44.14649 44.00864
# Shear Modulus (GPa) = 31.15459 32.99110 32.07284
#
# Velocity S-wave (km/s) = 3.88862 4.00160 3.94551
# Velocity P-wave (km/s) = 6.43858 6.54046 6.48972
#
# Compressibility (1/GPa) = 0.02279421
#
# Stress axis : x y z
#
# Youngs Moduli (GPa) = 60.71077 71.94185 83.33048
#
# Poissons Ratio (x) = 0.46762 0.26392
# Poissons Ratio (y) = 0.39462 0.01015
# Poissons Ratio (z) = 0.19228 0.00876
#
# Static dielectric constant tensor:
#      x y z
#    x 3.863910 0.000000 0.000000 
#    y 0.000000 3.605240 0.000000 
#    z 0.000000 0.000000 4.016880 
# 
# 
# High freq. dielectric constant tensor:
#      x y z
#    x 1.815220 0.000000 0.000000 
#    y 0.000000 1.802350 0.000000 
#    z 0.000000 0.000000 1.829560 
# 
# From -- ./inp_files/846.got.cif
#   From: 2010.03.12/outbox.cif.g09.slc.cpg/sg36_1_cif.got.tgz:846.got - 2010.04.14 02:13:53.
