data_PCOD8175090
_publ_section_title
;
Structure prediction by ZEFSAII (Michael W. Deem and Ramdas Pophale) SiO2 
 PCOD8175090
Probable space group: C M C 21
;
_chemical_formula_sum "Si O2"
_cell_formula_units_Z 56
_cell_length_a 21.111145
_cell_length_b 17.258721
_cell_length_c 8.103149
_cell_angle_alpha 90.000000
_cell_angle_beta 90.000000
_cell_angle_gamma 90.000000
_cell_volume 2952.393371
_symmetry_space_group_name_H-M "C M C 21"
_symmetry_group_IT_number 36
_symmetry_cell_setting 'orthorhombic'
loop_
_space_group_symop_operation_xyz
x,y,z
-x,-y,1/2+z
x,-y,1/2+z
-x,y,z
1/2+x,1/2+y,z
1/2-x,1/2-y,1/2+z
1/2+x,1/2-y,1/2+z
1/2-x,1/2+y,z
loop_
_atom_site_type_symbol
_atom_site_label
_atom_site_fract_x
_atom_site_fract_y
_atom_site_fract_z
Si Si1 0.072482 0.272197 0.426950
Si Si2 0.352150 0.211413 0.604672
Si Si3 0.844595 0.704123 0.229275
Si Si4 0.072026 0.088643 0.442321
Si Si5 0.225699 0.140489 0.096602
Si Si6 0.848758 0.001700 0.683397
Si Si7 0.266997 0.647098 0.736771
O O1 0.095420 0.303033 0.246527
O O2 0.105222 0.314705 0.584202
O O3 0.080662 0.180157 0.447485
O O4 0.000000 0.296743 0.437029
O O5 0.376498 0.203296 0.413734
O O6 0.327530 0.297370 0.646574
O O7 0.294657 0.150195 0.620996
O O8 0.785213 0.643220 0.223871
O O9 0.818453 0.789236 0.183180
O O10 0.089676 0.046529 0.613630
O O11 0.000000 0.067047 0.393288
O O12 0.125523 0.051764 0.328219
O O13 0.190927 0.058210 0.070893
O O14 0.255582 0.166598 0.922091
O O15 0.796703 0.062891 0.736794
#
# Coordination Sequence:
#
# PCOD8175090 Si02
#       7
#     8   8   8   8   8   8   8
#     4  11  22  39  58  80 114 152 191 230 273 331
#     4  10  21  36  56  82 108 145 184 236 284 330
#     4  10  21  36  56  82 108 145 184 236 284 330
#     4  11  24  37  50  74 118 160 193 226 261 321
#     4  10  20  33  54  78 111 144 183 233 287 325
#     4  12  21  34  54  80 109 152 190 226 276 334
#     4  10  20  33  54  78 111 144 183 233 287 325
#
# _framework density 18.967661
#
# number of rings (size 3 to 8) (size 9 to 14) (size 15 to 20)
#    0.000    1.429    5.714    0.429    4.000    0.571 
#    0.000    0.000    0.000    0.000    0.000    1.000 
#    0.000    0.000    0.000    0.000    0.000    0.000 
#
# Total GULP energy -346901.608088 kJ/mol
# GULP energy per Si atom -12389.343146 kJ/mol
# Density = 1.892449 g / cm^3
# Si number density = 18.967661 Si / 1000 Ang^3
#
#
#
# Elastic Constant Matrix: (Units=GPa)
#
#
# Indices 1 2 3 4 5 6 
#
# 1 95.3308 26.4333 49.0586 0.0000 0.0000 0.0000
# 2 26.4333 42.2349 3.8201 0.0000 0.0000 0.0000
# 3 49.0586 3.8201 102.8541 0.0000 0.0000 0.0000
# 4 0.0000 0.0000 0.0000 12.5343 0.0000 0.0000
# 5 0.0000 0.0000 0.0000 0.0000 27.0464 0.0000
# 6 0.0000 0.0000 0.0000 0.0000 0.0000 26.5394
#
#
#
# Elastic Compliance Matrix: (Units=1/GPa)
#
#
# Indices 1 2 3 4 5 6 
#
# 1 0.017379 -0.010161 -0.007912 0.000000 0.000000 0.000000
# 2 -0.010161 0.029698 0.003744 0.000000 0.000000 0.000000
# 3 -0.007912 0.003744 0.013357 0.000000 0.000000 0.000000
# 4 0.000000 0.000000 0.000000 0.079781 0.000000 0.000000
# 5 0.000000 0.000000 0.000000 0.000000 0.036974 0.000000
# 6 0.000000 0.000000 0.000000 0.000000 0.000000 0.037680
#
#
# Mechanical properties :
#
#
# Convention : Reuss Voigt Hill
#
# Bulk Modulus (GPa) = 31.47105 44.33819 37.90462
# Shear Modulus (GPa) = 19.67584 23.96455 21.82019
#
# Velocity S-wave (km/s) = 3.22426 3.55835 3.39542
# Velocity P-wave (km/s) = 5.52170 6.34893 5.94971
#
# Compressibility (1/GPa) = 0.03177524
#
# Stress axis : x y z
#
# Youngs Moduli (GPa) = 57.54136 33.67227 74.86598
#
# Poissons Ratio (x) = 0.34215 0.59233
# Poissons Ratio (y) = 0.58469 -0.28027
# Poissons Ratio (z) = 0.45526 -0.12605
#
# Static dielectric constant tensor:
#      x y z
#    x 3.294650 0.000000 0.000000 
#    y 0.000000 3.190610 0.000000 
#    z 0.000000 0.000000 3.578370 
# 
# 
# High freq. dielectric constant tensor:
#      x y z
#    x 1.718710 0.000000 0.000000 
#    y 0.000000 1.703320 0.000000 
#    z 0.000000 0.000000 1.750380 
# 
# From -- ./inp_files/4881.got.cif
#   From: 2010.03.12/outbox.cif.g09.slc.cpg/sg36_3_cif.got.tgz:4881.got - 2010.04.14 02:13:53.
