data_PCOD8175733
_publ_section_title
;
Structure prediction by ZEFSAII (Michael W. Deem and Ramdas Pophale) SiO2 
 PCOD8175733
Probable space group: C M C 21
;
_chemical_formula_sum "Si O2"
_cell_formula_units_Z 64
_cell_length_a 8.954338
_cell_length_b 23.608408
_cell_length_c 14.357403
_cell_angle_alpha 90.000000
_cell_angle_beta 90.000000
_cell_angle_gamma 90.000000
_cell_volume 3035.121468
_symmetry_space_group_name_H-M "C M C 21"
_symmetry_group_IT_number 36
_symmetry_cell_setting 'orthorhombic'
loop_
_space_group_symop_operation_xyz
x,y,z
-x,-y,1/2+z
x,-y,1/2+z
-x,y,z
1/2+x,1/2+y,z
1/2-x,1/2-y,1/2+z
1/2+x,1/2-y,1/2+z
1/2-x,1/2+y,z
loop_
_atom_site_type_symbol
_atom_site_label
_atom_site_fract_x
_atom_site_fract_y
_atom_site_fract_z
Si Si1 0.675492 0.003504 0.608990
Si Si2 0.327579 0.780895 0.022426
Si Si3 0.323242 0.691729 0.341434
Si Si4 0.174496 0.210602 0.720918
Si Si5 0.335272 0.652280 0.005365
Si Si6 0.171834 0.080885 0.741147
Si Si7 0.673710 0.053092 0.921072
Si Si8 0.832373 0.901095 0.698011
O O1 0.500000 0.010105 0.612915
O O2 0.727238 0.990035 0.502730
O O3 0.722176 0.952921 0.678444
O O4 0.749394 0.061762 0.644538
O O5 0.500000 0.799023 0.034826
O O6 0.247031 0.818108 0.943426
O O7 0.313055 0.717582 0.982825
O O8 0.242857 0.787488 0.118668
O O9 0.500000 0.701350 0.347165
O O10 0.253672 0.745650 0.289207
O O11 0.283047 0.633171 0.289399
O O12 0.199638 0.147202 0.760538
O O13 0.000000 0.225620 0.715201
O O14 0.500000 0.632156 0.969440
O O15 0.206781 0.616817 0.955134
O O16 0.325245 0.645201 0.116129
O O17 0.237459 0.042749 0.825548
O O18 0.000000 0.066314 0.730385
O O19 0.500000 0.046649 0.900101
O O20 0.000000 0.925595 0.707886
#
# Coordination Sequence:
#
# PCOD8175733 Si02
#       8
#     8   8   8   8   8   8   8   8
#     4  10  22  40  63  91 119 150 197 254 304 353
#     4  11  22  37  57  87 123 163 203 246 302 362
#     4  11  22  38  60  90 124 162 202 245 302 366
#     4  11  24  41  61  89 124 163 207 254 302 362
#     4   9  17  33  56  82 115 153 196 241 288 350
#     4  11  24  42  63  88 120 163 205 246 301 364
#     4  10  21  37  61  93 120 152 199 251 304 354
#     4   9  18  36  59  82 113 152 193 239 293 355
#
# _framework density 21.086469999999998
#
# number of rings (size 3 to 8) (size 9 to 14) (size 15 to 20)
#    0.000    1.750    1.250    3.000    0.000    8.500 
#    2.250    0.000    0.000    0.000    0.000    0.000 
#    0.000    0.000    0.000    0.000    0.000    0.000 
#
# Total GULP energy -396821.790392 kJ/mol
# GULP energy per Si atom -12400.680950 kJ/mol
# Density = 2.103848 g / cm^3
# Si number density = 21.086470 Si / 1000 Ang^3
#
#
#
# Elastic Constant Matrix: (Units=GPa)
#
#
# Indices 1 2 3 4 5 6 
#
# 1 90.1118 15.8650 27.1378 0.0000 0.0000 0.0000
# 2 15.8650 31.2809 -3.1935 0.0000 0.0000 0.0000
# 3 27.1378 -3.1935 88.3817 0.0000 0.0000 0.0000
# 4 0.0000 0.0000 0.0000 26.8670 0.0000 0.0000
# 5 0.0000 0.0000 0.0000 0.0000 37.4470 0.0000
# 6 0.0000 0.0000 0.0000 0.0000 0.0000 32.3034
#
#
#
# Elastic Compliance Matrix: (Units=1/GPa)
#
#
# Indices 1 2 3 4 5 6 
#
# 1 0.013760 -0.007438 -0.004494 0.000000 0.000000 0.000000
# 2 -0.007438 0.036107 0.003588 0.000000 0.000000 0.000000
# 3 -0.004494 0.003588 0.012824 0.000000 0.000000 0.000000
# 4 0.000000 0.000000 0.000000 0.037220 0.000000 0.000000
# 5 0.000000 0.000000 0.000000 0.000000 0.026704 0.000000
# 6 0.000000 0.000000 0.000000 0.000000 0.000000 0.030957
#
#
# Mechanical properties :
#
#
# Convention : Reuss Voigt Hill
#
# Bulk Modulus (GPa) = 21.73673 32.15476 26.94574
# Shear Modulus (GPa) = 26.37221 30.65448 28.51334
#
# Velocity S-wave (km/s) = 3.54032 3.81695 3.68123
# Velocity P-wave (km/s) = 5.20025 5.89131 5.55653
#
# Compressibility (1/GPa) = 0.04600508
#
# Stress axis : x y z
#
# Youngs Moduli (GPa) = 72.67378 27.69550 77.97842
#
# Poissons Ratio (x) = 0.20599 0.35042
# Poissons Ratio (y) = 0.54052 -0.27982
# Poissons Ratio (z) = 0.32658 -0.09938
#
# Static dielectric constant tensor:
#      x y z
#    x 3.828180 0.000000 0.000000 
#    y 0.000000 3.644370 0.000000 
#    z 0.000000 0.000000 3.963310 
# 
# 
# High freq. dielectric constant tensor:
#      x y z
#    x 1.830150 0.000000 0.000000 
#    y 0.000000 1.808710 0.000000 
#    z 0.000000 0.000000 1.836700 
# 
# From -- ./inp_files/10893.got.cif
#   From: 2010.03.12/outbox.cif.g09.slc.cpg/sg36_6_cif.got.tgz:10893.got - 2010.04.14 02:13:53.
