data_PCOD8175606
_publ_section_title
;
Structure prediction by ZEFSAII (Michael W. Deem and Ramdas Pophale) SiO2 
 PCOD8175606
Probable space group: C M C 21
;
_chemical_formula_sum "Si O2"
_cell_formula_units_Z 64
_cell_length_a 21.896109
_cell_length_b 9.242247
_cell_length_c 14.283619
_cell_angle_alpha 90.000000
_cell_angle_beta 90.000000
_cell_angle_gamma 90.000000
_cell_volume 2890.565232
_symmetry_space_group_name_H-M "C M C 21"
_symmetry_group_IT_number 36
_symmetry_cell_setting 'orthorhombic'
loop_
_space_group_symop_operation_xyz
x,y,z
-x,-y,1/2+z
x,-y,1/2+z
-x,y,z
1/2+x,1/2+y,z
1/2-x,1/2-y,1/2+z
1/2+x,1/2-y,1/2+z
1/2-x,1/2+y,z
loop_
_atom_site_type_symbol
_atom_site_label
_atom_site_fract_x
_atom_site_fract_y
_atom_site_fract_z
Si Si1 0.304351 0.829943 0.833500
Si Si2 0.433585 0.356695 0.570280
Si Si3 0.927092 0.416072 0.179037
Si Si4 0.752811 0.937358 0.446558
Si Si5 0.433959 0.828178 0.892099
Si Si6 0.860213 0.120935 0.511513
Si Si7 0.931993 0.358209 0.395596
Si Si8 0.181109 0.631482 0.129292
O O1 0.267046 0.716037 0.897353
O O2 0.376733 0.793422 0.825284
O O3 0.281625 0.848356 0.726824
O O4 0.297947 0.985435 0.883092
O O5 0.500000 0.383680 0.613553
O O6 0.402008 0.233691 0.633698
O O7 0.436689 0.300098 0.465128
O O8 0.402948 0.511877 0.567710
O O9 0.915529 0.397786 0.288851
O O10 0.882480 0.542592 0.140668
O O11 0.000000 0.444594 0.155729
O O12 0.727491 0.932515 0.552238
O O13 0.813983 0.031482 0.447280
O O14 0.500000 0.831923 0.836828
O O15 0.426549 0.983917 0.946145
O O16 0.889175 0.238331 0.441052
O O17 0.831107 0.205971 0.596984
O O18 0.000000 0.293976 0.403321
#
# Coordination Sequence:
#
# PCOD8175606 Si02
#       8
#     8   8   8   8   8   8   8   8
#     4  12  26  48  73 101 140 189 238 299 362 420
#     4  10  21  39  66 100 140 182 221 285 361 428
#     4  10  22  42  72 107 141 180 237 296 363 442
#     4  12  28  48  66 101 147 186 246 297 355 425
#     4  10  20  41  71 101 134 174 226 289 361 428
#     4  12  25  44  65  98 139 184 237 295 351 430
#     4  10  21  41  69 104 139 179 228 294 369 433
#     4  12  28  45  74 104 135 192 247 297 358 432
#
# _framework density 22.140996999999999
#
# number of rings (size 3 to 8) (size 9 to 14) (size 15 to 20)
#    0.000    1.000    3.750    2.625    1.750    3.000 
#    0.000    0.000    0.000    0.000    0.000    0.000 
#    0.000    0.000    0.000    0.000    0.000    0.000 
#
# Total GULP energy -396510.060872 kJ/mol
# GULP energy per Si atom -12390.939402 kJ/mol
# Density = 2.209060 g / cm^3
# Si number density = 22.140997 Si / 1000 Ang^3
#
#
#
# Elastic Constant Matrix: (Units=GPa)
#
#
# Indices 1 2 3 4 5 6 
#
# 1 75.3943 15.4184 27.1879 0.0000 0.0000 0.0000
# 2 15.4184 99.5717 18.5056 0.0000 0.0000 0.0000
# 3 27.1879 18.5056 104.1870 0.0000 0.0000 0.0000
# 4 0.0000 0.0000 0.0000 26.0259 0.0000 0.0000
# 5 0.0000 0.0000 0.0000 0.0000 30.3145 0.0000
# 6 0.0000 0.0000 0.0000 0.0000 0.0000 47.8102
#
#
#
# Elastic Compliance Matrix: (Units=1/GPa)
#
#
# Indices 1 2 3 4 5 6 
#
# 1 0.014895 -0.001638 -0.003596 0.000000 0.000000 0.000000
# 2 -0.001638 0.010566 -0.001449 0.000000 0.000000 0.000000
# 3 -0.003596 -0.001449 0.010794 0.000000 0.000000 0.000000
# 4 0.000000 0.000000 0.000000 0.038423 0.000000 0.000000
# 5 0.000000 0.000000 0.000000 0.000000 0.032988 0.000000
# 6 0.000000 0.000000 0.000000 0.000000 0.000000 0.020916
#
#
# Mechanical properties :
#
#
# Convention : Reuss Voigt Hill
#
# Bulk Modulus (GPa) = 43.69016 44.59743 44.14379
# Shear Modulus (GPa) = 33.42727 35.36621 34.39674
#
# Velocity S-wave (km/s) = 3.88976 4.00098 3.94576
# Velocity P-wave (km/s) = 6.32054 6.44438 6.38276
#
# Compressibility (1/GPa) = 0.02288845
#
# Stress axis : x y z
#
# Youngs Moduli (GPa) = 67.13489 94.64297 92.64467
#
# Poissons Ratio (x) = 0.15504 0.33315
# Poissons Ratio (y) = 0.10998 0.13426
# Poissons Ratio (z) = 0.24142 0.13716
#
# Static dielectric constant tensor:
#      x y z
#    x 4.208570 0.000000 0.000000 
#    y 0.000000 4.111210 0.000000 
#    z 0.000000 0.000000 3.874350 
# 
# 
# High freq. dielectric constant tensor:
#      x y z
#    x 1.877100 0.000000 0.000000 
#    y 0.000000 1.877600 0.000000 
#    z 0.000000 0.000000 1.861420 
# 
# From -- ./inp_files/12977.got.cif
#   From: 2010.03.12/outbox.cif.g09.slc.cpg/sg36_7_cif.got.tgz:12977.got - 2010.04.14 02:13:53.
