data_PCOD8175125
_publ_section_title
;
Structure prediction by ZEFSAII (Michael W. Deem and Ramdas Pophale) SiO2 
 PCOD8175125
Probable space group: C M C 21
;
_chemical_formula_sum "Si O2"
_cell_formula_units_Z 64
_cell_length_a 9.206808
_cell_length_b 18.295710
_cell_length_c 20.576408
_cell_angle_alpha 90.000000
_cell_angle_beta 90.000000
_cell_angle_gamma 90.000000
_cell_volume 3465.994881
_symmetry_space_group_name_H-M "C M C 21"
_symmetry_group_IT_number 36
_symmetry_cell_setting 'orthorhombic'
loop_
_space_group_symop_operation_xyz
x,y,z
-x,-y,1/2+z
x,-y,1/2+z
-x,y,z
1/2+x,1/2+y,z
1/2-x,1/2-y,1/2+z
1/2+x,1/2-y,1/2+z
1/2-x,1/2+y,z
loop_
_atom_site_type_symbol
_atom_site_label
_atom_site_fract_x
_atom_site_fract_y
_atom_site_fract_z
Si Si1 0.169863 0.793810 0.648990
Si Si2 0.170546 0.541413 0.764051
Si Si3 0.831370 0.458060 0.518155
Si Si4 0.827740 0.292569 0.273473
Si Si5 0.668960 0.210108 0.020537
Si Si6 0.669238 0.049369 0.391894
Si Si7 0.827393 0.201823 0.395407
Si Si8 0.170574 0.962782 0.647722
O O1 0.232015 0.747557 0.709200
O O2 0.247140 0.764186 0.584590
O O3 0.207220 0.878334 0.661762
O O4 0.000000 0.781594 0.639275
O O5 0.224705 0.624050 0.774849
O O6 0.209484 0.497336 0.828730
O O7 0.258114 0.509940 0.703869
O O8 0.000000 0.537951 0.748192
O O9 0.796081 0.373696 0.502944
O O10 0.785581 0.503411 0.455053
O O11 0.737595 0.486864 0.578746
O O12 0.000000 0.468704 0.535425
O O13 0.766154 0.250766 0.336364
O O14 0.000000 0.288553 0.274600
O O15 0.500000 0.221549 0.033699
O O16 0.724387 0.260215 0.961756
O O17 0.500000 0.069210 0.393250
O O18 0.761887 0.122095 0.390179
O O19 0.000000 0.195630 0.392236
O O20 0.000000 0.977922 0.646046
#
# Coordination Sequence:
#
# PCOD8175125 Si02
#       8
#     8   8   8   8   8   8   8   8
#     4   9  18  33  53  75 101 134 168 205 251 302
#     4  10  20  35  55  77 102 136 177 216 254 303
#     4   9  18  35  56  76 102 138 177 213 250 300
#     4   9  18  34  55  75  97 132 175 210 246 299
#     4   9  18  33  54  77 100 131 170 209 249 296
#     4  10  21  35  53  78 105 134 172 215 256 303
#     4  10  20  35  55  77 103 135 170 211 259 307
#     4  10  20  34  53  79 108 136 169 211 261 312
#
# _framework density 18.465115000000001
#
# number of rings (size 3 to 8) (size 9 to 14) (size 15 to 20)
#    0.000    2.500    0.000    1.875    0.000    7.000 
#    0.000    5.625    0.000    3.000    0.000    0.000 
#    0.000    0.000    0.000    0.000    0.000    0.000 
#
# Total GULP energy -396885.733738 kJ/mol
# GULP energy per Si atom -12402.679179 kJ/mol
# Density = 1.842309 g / cm^3
# Si number density = 18.465115 Si / 1000 Ang^3
#
#
#
# Elastic Constant Matrix: (Units=GPa)
#
#
# Indices 1 2 3 4 5 6 
#
# 1 35.1090 32.6643 35.7838 0.0000 0.0000 0.0000
# 2 32.6643 111.4548 71.3586 0.0000 0.0000 0.0000
# 3 35.7838 71.3586 137.9314 0.0000 0.0000 0.0000
# 4 0.0000 0.0000 0.0000 40.6913 0.0000 0.0000
# 5 0.0000 0.0000 0.0000 0.0000 17.2519 0.0000
# 6 0.0000 0.0000 0.0000 0.0000 0.0000 27.2985
#
#
#
# Elastic Compliance Matrix: (Units=1/GPa)
#
#
# Indices 1 2 3 4 5 6 
#
# 1 0.043218 -0.008205 -0.006967 0.000000 0.000000 0.000000
# 2 -0.008205 0.014974 -0.005618 0.000000 0.000000 0.000000
# 3 -0.006967 -0.005618 0.011964 0.000000 0.000000 0.000000
# 4 0.000000 0.000000 0.000000 0.024575 0.000000 0.000000
# 5 0.000000 0.000000 0.000000 0.000000 0.057965 0.000000
# 6 0.000000 0.000000 0.000000 0.000000 0.000000 0.036632
#
#
# Mechanical properties :
#
#
# Convention : Reuss Voigt Hill
#
# Bulk Modulus (GPa) = 34.99593 62.67875 48.83734
# Shear Modulus (GPa) = 20.79582 26.69424 23.74503
#
# Velocity S-wave (km/s) = 3.35956 3.80631 3.58989
# Velocity P-wave (km/s) = 5.83459 7.30311 6.60976
#
# Compressibility (1/GPa) = 0.02857475
#
# Stress axis : x y z
#
# Youngs Moduli (GPa) = 23.13875 66.78293 83.58467
#
# Poissons Ratio (x) = 0.54797 0.58234
# Poissons Ratio (y) = 0.18986 0.46958
# Poissons Ratio (z) = 0.16121 0.37519
#
# Static dielectric constant tensor:
#      x y z
#    x 3.206800 0.000000 0.000000 
#    y 0.000000 3.433000 0.000000 
#    z 0.000000 0.000000 3.657820 
# 
# 
# High freq. dielectric constant tensor:
#      x y z
#    x 1.695360 0.000000 0.000000 
#    y 0.000000 1.718500 0.000000 
#    z 0.000000 0.000000 1.732930 
# 
# From -- ./inp_files/15583.got.cif
#   From: 2010.03.12/outbox.cif.g09.slc.cpg/sg36_8_cif.got.tgz:15583.got - 2010.04.14 02:13:53.
