data_PCOD8175264
_publ_section_title
;
Structure prediction by ZEFSAII (Michael W. Deem and Ramdas Pophale) SiO2 
 PCOD8175264
Probable space group: C M C 21
;
_chemical_formula_sum "Si O2"
_cell_formula_units_Z 48
_cell_length_a 8.837046
_cell_length_b 29.723048
_cell_length_c 9.325798
_cell_angle_alpha 90.000000
_cell_angle_beta 90.000000
_cell_angle_gamma 90.000000
_cell_volume 2449.550869
_symmetry_space_group_name_H-M "C M C 21"
_symmetry_group_IT_number 36
_symmetry_cell_setting 'orthorhombic'
loop_
_space_group_symop_operation_xyz
x,y,z
-x,-y,1/2+z
x,-y,1/2+z
-x,y,z
1/2+x,1/2+y,z
1/2-x,1/2-y,1/2+z
1/2+x,1/2-y,1/2+z
1/2-x,1/2+y,z
loop_
_atom_site_type_symbol
_atom_site_label
_atom_site_fract_x
_atom_site_fract_y
_atom_site_fract_z
Si Si1 0.173854 0.140949 0.326660
Si Si2 0.825047 0.525005 0.078341
Si Si3 0.326763 0.460453 0.868480
Si Si4 0.678895 0.701354 0.857958
Si Si5 0.823718 0.627025 0.029677
Si Si6 0.178988 0.219924 0.535554
O O1 0.195714 0.092339 0.399755
O O2 0.271527 0.145987 0.183309
O O3 0.230797 0.177151 0.442014
O O4 0.000000 0.149189 0.283476
O O5 0.717902 0.487853 0.008758
O O6 0.000000 0.512537 0.056500
O O7 0.787102 0.523762 0.245478
O O8 0.786784 0.574172 0.014732
O O9 0.500000 0.470532 0.825103
O O10 0.500000 0.701911 0.864183
O O11 0.736445 0.712974 0.698186
O O12 0.737071 0.651834 0.900841
O O13 0.743419 0.735962 0.973520
O O14 0.000000 0.636907 0.015480
O O15 0.000000 0.226427 0.530754
#
# Coordination Sequence:
#
# PCOD8175264 Si02
#       6
#     8   8   8   8   8   8
#     4   9  19  37  59  82 110 144 181 224 273 324
#     4  10  21  37  56  81 114 150 186 228 280 333
#     4  10  20  35  57  84 112 147 190 232 276 328
#     4  11  23  37  56  82 110 142 180 224 273 324
#     4  10  21  37  57  81 110 145 184 225 271 325
#     4  10  22  39  57  80 110 142 179 223 271 326
#
# _framework density 19.595428999999999
#
# number of rings (size 3 to 8) (size 9 to 14) (size 15 to 20)
#    0.000    2.000    0.000    3.000    0.000    8.667 
#    0.000    1.667    0.000    0.000    0.000    0.000 
#    0.000    0.000    0.000    0.000    0.000    0.000 
#
# Total GULP energy -297705.243643 kJ/mol
# GULP energy per Si atom -12404.385152 kJ/mol
# Density = 1.955083 g / cm^3
# Si number density = 19.595429 Si / 1000 Ang^3
#
#
#
# Elastic Constant Matrix: (Units=GPa)
#
#
# Indices 1 2 3 4 5 6 
#
# 1 45.1329 17.9333 13.8991 0.0000 0.0000 0.0000
# 2 17.9333 56.0465 8.8190 0.0000 0.0000 0.0000
# 3 13.8991 8.8190 51.0299 0.0000 0.0000 0.0000
# 4 0.0000 0.0000 0.0000 41.6942 0.0000 0.0000
# 5 0.0000 0.0000 0.0000 0.0000 33.3805 0.0000
# 6 0.0000 0.0000 0.0000 0.0000 0.0000 32.2992
#
#
#
# Elastic Compliance Matrix: (Units=1/GPa)
#
#
# Indices 1 2 3 4 5 6 
#
# 1 0.027083 -0.007715 -0.006043 0.000000 0.000000 0.000000
# 2 -0.007715 0.020539 -0.001448 0.000000 0.000000 0.000000
# 3 -0.006043 -0.001448 0.021493 0.000000 0.000000 0.000000
# 4 0.000000 0.000000 0.000000 0.023984 0.000000 0.000000
# 5 0.000000 0.000000 0.000000 0.000000 0.029958 0.000000
# 6 0.000000 0.000000 0.000000 0.000000 0.000000 0.030961
#
#
# Mechanical properties :
#
#
# Convention : Reuss Voigt Hill
#
# Bulk Modulus (GPa) = 25.83866 25.94577 25.89222
# Shear Modulus (GPa) = 25.33816 28.91199 27.12508
#
# Velocity S-wave (km/s) = 3.59982 3.84532 3.72459
# Velocity P-wave (km/s) = 5.52205 5.74324 5.63373
#
# Compressibility (1/GPa) = 0.03870169
#
# Stress axis : x y z
#
# Youngs Moduli (GPa) = 36.92301 48.68840 46.52746
#
# Poissons Ratio (x) = 0.37563 0.28119
# Poissons Ratio (y) = 0.28486 0.06738
# Poissons Ratio (z) = 0.22314 0.07051
#
# Static dielectric constant tensor:
#      x y z
#    x 3.517510 0.000000 0.000000 
#    y 0.000000 3.685040 0.000000 
#    z 0.000000 0.000000 3.519670 
# 
# 
# High freq. dielectric constant tensor:
#      x y z
#    x 1.766900 0.000000 0.000000 
#    y 0.000000 1.771980 0.000000 
#    z 0.000000 0.000000 1.758690 
# 
# From -- ./inp_files/2634.got.cif
#   From: 2010.03.12/outbox.cif.g09.slc.cpg/sg36_2_cif.got.tgz:2634.got - 2010.04.14 02:13:53.
