data_PCOD8175492
_publ_section_title
;
Structure prediction by ZEFSAII (Michael W. Deem and Ramdas Pophale) SiO2 
 PCOD8175492
Probable space group: C M C 21
;
_chemical_formula_sum "Si O2"
_cell_formula_units_Z 56
_cell_length_a 20.001979
_cell_length_b 13.649121
_cell_length_c 9.466061
_cell_angle_alpha 90.000000
_cell_angle_beta 90.000000
_cell_angle_gamma 90.000000
_cell_volume 2584.323933
_symmetry_space_group_name_H-M "C M C 21"
_symmetry_group_IT_number 36
_symmetry_cell_setting 'orthorhombic'
loop_
_space_group_symop_operation_xyz
x,y,z
-x,-y,1/2+z
x,-y,1/2+z
-x,y,z
1/2+x,1/2+y,z
1/2-x,1/2-y,1/2+z
1/2+x,1/2-y,1/2+z
1/2-x,1/2+y,z
loop_
_atom_site_type_symbol
_atom_site_label
_atom_site_fract_x
_atom_site_fract_y
_atom_site_fract_z
Si Si1 0.305536 0.323539 0.373550
Si Si2 0.073263 0.934314 0.048546
Si Si3 0.921444 0.556912 0.039982
Si Si4 0.652201 0.472828 0.789614
Si Si5 0.075948 0.740706 0.208375
Si Si6 0.694014 0.728020 0.191339
Si Si7 0.079352 0.378014 0.230609
O O1 0.305841 0.441570 0.365703
O O2 0.378398 0.278682 0.336690
O O3 0.286426 0.287024 0.528351
O O4 0.251033 0.293564 0.258931
O O5 0.076818 0.819431 0.082594
O O6 0.000000 0.976638 0.080941
O O7 0.127345 0.994904 0.136265
O O8 0.087846 0.947879 0.884053
O O9 0.892387 0.641952 0.142011
O O10 0.900896 0.451275 0.102234
O O11 0.000000 0.570262 0.046792
O O12 0.898215 0.569952 0.877878
O O13 0.696367 0.375907 0.771434
O O14 0.000000 0.725890 0.266658
O O15 0.621288 0.778888 0.207699
O O16 0.000000 0.353578 0.230201
#
# Coordination Sequence:
#
# PCOD8175492 Si02
#       7
#     8   8   8   8   8   8   8
#     4  11  28  46  68 101 130 179 224 279 344 404
#     4  10  20  37  67 102 135 174 218 274 341 401
#     4   9  19  38  64  98 138 176 221 279 333 391
#     4  11  23  46  66  97 138 172 226 280 333 408
#     4   9  20  40  68  96 132 176 225 281 337 395
#     4  12  28  47  71  98 138 181 225 284 340 409
#     4  10  23  42  68 104 138 180 229 279 338 400
#
# _framework density 21.669111000000001
#
# number of rings (size 3 to 8) (size 9 to 14) (size 15 to 20)
#    0.000    1.714    1.429    1.286    8.000    4.571 
#    0.000    0.000    0.000    0.000    0.000    0.000 
#    0.000    0.000    0.000    0.000    0.000    0.000 
#
# Total GULP energy -347221.852959 kJ/mol
# GULP energy per Si atom -12400.780463 kJ/mol
# Density = 2.161979 g / cm^3
# Si number density = 21.669111 Si / 1000 Ang^3
#
#
#
# Elastic Constant Matrix: (Units=GPa)
#
#
# Indices 1 2 3 4 5 6 
#
# 1 80.6293 40.7748 32.4446 0.0000 0.0000 0.0000
# 2 40.7748 113.9350 39.7234 0.0000 0.0000 0.0000
# 3 32.4446 39.7234 123.3870 0.0000 0.0000 0.0000
# 4 0.0000 0.0000 0.0000 26.2773 0.0000 0.0000
# 5 0.0000 0.0000 0.0000 0.0000 31.8524 0.0000
# 6 0.0000 0.0000 0.0000 0.0000 0.0000 24.3628
#
#
#
# Elastic Compliance Matrix: (Units=1/GPa)
#
#
# Indices 1 2 3 4 5 6 
#
# 1 0.015872 -0.004759 -0.002641 0.000000 0.000000 0.000000
# 2 -0.004759 0.011314 -0.002391 0.000000 0.000000 0.000000
# 3 -0.002641 -0.002391 0.009569 0.000000 0.000000 0.000000
# 4 0.000000 0.000000 0.000000 0.038056 0.000000 0.000000
# 5 0.000000 0.000000 0.000000 0.000000 0.031395 0.000000
# 6 0.000000 0.000000 0.000000 0.000000 0.000000 0.041046
#
#
# Mechanical properties :
#
#
# Convention : Reuss Voigt Hill
#
# Bulk Modulus (GPa) = 58.23586 60.42633 59.33109
# Shear Modulus (GPa) = 28.97566 30.16572 29.57069
#
# Velocity S-wave (km/s) = 3.66072 3.73514 3.69812
# Velocity P-wave (km/s) = 6.69338 6.82262 6.75831
#
# Compressibility (1/GPa) = 0.01717155
#
# Stress axis : x y z
#
# Youngs Moduli (GPa) = 63.00346 88.38764 104.50570
#
# Poissons Ratio (x) = 0.42067 0.27604
# Poissons Ratio (y) = 0.29986 0.24986
# Poissons Ratio (z) = 0.16641 0.21133
#
# Static dielectric constant tensor:
#      x y z
#    x 3.672190 0.000000 0.000000 
#    y 0.000000 4.040080 0.000000 
#    z 0.000000 0.000000 3.908540 
# 
# 
# High freq. dielectric constant tensor:
#      x y z
#    x 1.829530 0.000000 0.000000 
#    y 0.000000 1.858390 0.000000 
#    z 0.000000 0.000000 1.855650 
# 
# From -- ./inp_files/5207.got.cif
#   From: 2010.03.12/outbox.cif.g09.slc.cpg/sg36_3_cif.got.tgz:5207.got - 2010.04.14 02:13:53.
