data_PCOD8175696
_publ_section_title
;
Structure prediction by ZEFSAII (Michael W. Deem and Ramdas Pophale) SiO2 
 PCOD8175696
Probable space group: C M C 21
;
_chemical_formula_sum "Si O2"
_cell_formula_units_Z 48
_cell_length_a 15.564133
_cell_length_b 10.173858
_cell_length_c 16.808390
_cell_angle_alpha 90.000000
_cell_angle_beta 90.000000
_cell_angle_gamma 90.000000
_cell_volume 2661.562821
_symmetry_space_group_name_H-M "C M C 21"
_symmetry_group_IT_number 36
_symmetry_cell_setting 'orthorhombic'
loop_
_space_group_symop_operation_xyz
x,y,z
-x,-y,1/2+z
x,-y,1/2+z
-x,y,z
1/2+x,1/2+y,z
1/2-x,1/2-y,1/2+z
1/2+x,1/2-y,1/2+z
1/2-x,1/2+y,z
loop_
_atom_site_type_symbol
_atom_site_label
_atom_site_fract_x
_atom_site_fract_y
_atom_site_fract_z
Si Si1 0.093822 0.954774 0.360430
Si Si2 0.263722 0.923941 0.016697
Si Si3 0.098622 0.234460 0.294957
Si Si4 0.742784 0.824185 0.408206
Si Si5 0.902931 0.705802 0.614882
Si Si6 0.592405 0.489754 0.544419
O O1 0.172682 0.852654 0.353550
O O2 0.088811 0.007926 0.449937
O O3 0.000000 0.891784 0.338068
O O4 0.112805 0.078356 0.303533
O O5 0.342167 0.904717 0.076958
O O6 0.175246 0.924274 0.070313
O O7 0.259797 0.814166 0.949435
O O8 0.273714 0.064554 0.974156
O O9 0.159300 0.318027 0.352738
O O10 0.124002 0.269846 0.205294
O O11 0.000000 0.271982 0.314222
O O12 0.891764 0.838258 0.564636
O O13 0.000000 0.653240 0.608968
O O14 0.500000 0.537042 0.581294
#
# Coordination Sequence:
#
# PCOD8175696 Si02
#       6
#     8   8   8   8   8   8
#     4   9  17  33  58  81 109 146 187 223 265 334
#     4  11  20  35  57  86 114 145 189 232 277 327
#     4  10  21  37  57  83 115 150 185 228 284 337
#     4  11  20  35  57  86 114 145 189 232 277 327
#     4  10  21  37  57  83 115 150 185 228 284 337
#     4   9  17  33  58  81 109 146 187 223 265 334
#
# _framework density 18.034517000000001
#
# number of rings (size 3 to 8) (size 9 to 14) (size 15 to 20)
#    0.000    2.000    6.667    0.000    0.000    2.000 
#    0.000    0.000    0.000    0.000    0.000    0.000 
#    0.000    0.000    0.000    0.000    0.000    0.000 
#
# Total GULP energy -297417.296137 kJ/mol
# GULP energy per Si atom -12392.387339 kJ/mol
# Density = 1.799347 g / cm^3
# Si number density = 18.034517 Si / 1000 Ang^3
#
#
#
# Elastic Constant Matrix: (Units=GPa)
#
#
# Indices 1 2 3 4 5 6 
#
# 1 142.0120 29.2885 22.2394 0.0000 0.0000 0.0000
# 2 29.2885 39.7437 3.5776 0.0000 0.0000 0.0000
# 3 22.2394 3.5776 41.6217 0.0000 0.0000 0.0000
# 4 0.0000 0.0000 0.0000 14.5771 0.0000 0.0000
# 5 0.0000 0.0000 0.0000 0.0000 24.8365 0.0000
# 6 0.0000 0.0000 0.0000 0.0000 0.0000 36.0484
#
#
#
# Elastic Compliance Matrix: (Units=1/GPa)
#
#
# Indices 1 2 3 4 5 6 
#
# 1 0.008999 -0.006247 -0.004271 0.000000 0.000000 0.000000
# 2 -0.006247 0.029694 0.000786 0.000000 0.000000 0.000000
# 3 -0.004271 0.000786 0.026241 0.000000 0.000000 0.000000
# 4 0.000000 0.000000 0.000000 0.068601 0.000000 0.000000
# 5 0.000000 0.000000 0.000000 0.000000 0.040263 0.000000
# 6 0.000000 0.000000 0.000000 0.000000 0.000000 0.027740
#
#
# Mechanical properties :
#
#
# Convention : Reuss Voigt Hill
#
# Bulk Modulus (GPa) = 21.99345 37.06537 29.52941
# Shear Modulus (GPa) = 21.17205 26.31053 23.74129
#
# Velocity S-wave (km/s) = 3.43005 3.82370 3.63221
# Velocity P-wave (km/s) = 5.28286 6.33177 5.83095
#
# Compressibility (1/GPa) = 0.04546807
#
# Stress axis : x y z
#
# Youngs Moduli (GPa) = 111.12383 33.67655 38.10872
#
# Poissons Ratio (x) = 0.21038 0.16278
# Poissons Ratio (y) = 0.69421 -0.02994
# Poissons Ratio (z) = 0.47465 -0.02646
#
# Static dielectric constant tensor:
#      x y z
#    x 4.076570 0.000000 0.000000 
#    y 0.000000 3.053320 0.000000 
#    z 0.000000 0.000000 3.174910 
# 
# 
# High freq. dielectric constant tensor:
#      x y z
#    x 1.724920 0.000000 0.000000 
#    y 0.000000 1.666890 0.000000 
#    z 0.000000 0.000000 1.678860 
# 
# From -- ./inp_files/14590.got.cif
#   From: 2010.03.12/outbox.cif.g09.slc.cpg/sg36_8_cif.got.tgz:14590.got - 2010.04.14 02:13:53.
