data_PCOD8175783
_publ_section_title
;
Structure prediction by ZEFSAII (Michael W. Deem and Ramdas Pophale) SiO2 
 PCOD8175783
Probable space group: C M C 21
;
_chemical_formula_sum "Si O2"
_cell_formula_units_Z 48
_cell_length_a 8.631474
_cell_length_b 18.630190
_cell_length_c 15.040245
_cell_angle_alpha 90.000000
_cell_angle_beta 90.000000
_cell_angle_gamma 90.000000
_cell_volume 2418.561646
_symmetry_space_group_name_H-M "C M C 21"
_symmetry_group_IT_number 36
_symmetry_cell_setting 'orthorhombic'
loop_
_space_group_symop_operation_xyz
x,y,z
-x,-y,1/2+z
x,-y,1/2+z
-x,y,z
1/2+x,1/2+y,z
1/2-x,1/2-y,1/2+z
1/2+x,1/2-y,1/2+z
1/2-x,1/2+y,z
loop_
_atom_site_type_symbol
_atom_site_label
_atom_site_fract_x
_atom_site_fract_y
_atom_site_fract_z
Si Si1 0.177341 0.583214 0.784360
Si Si2 0.821231 0.830911 0.632591
Si Si3 0.320558 0.927052 0.486391
Si Si4 0.320062 0.423428 0.975806
Si Si5 0.178817 0.178017 0.638550
Si Si6 0.178509 0.417289 0.787777
O O1 0.216559 0.599762 0.887006
O O2 0.291244 0.630773 0.725830
O O3 0.209186 0.499957 0.763419
O O4 0.000000 0.603092 0.762436
O O5 0.718958 0.863582 0.553614
O O6 0.786158 0.747266 0.640860
O O7 0.784027 0.868378 0.725828
O O8 0.000000 0.842388 0.609656
O O9 0.500000 0.948324 0.494529
O O10 0.222080 0.997366 0.510966
O O11 0.500000 0.420996 0.951125
O O12 0.221235 0.402214 0.889731
O O13 0.276593 0.367265 0.051887
O O14 0.000000 0.201185 0.637691
O O15 0.000000 0.396692 0.773018
#
# Coordination Sequence:
#
# PCOD8175783 Si02
#       6
#     8   8   8   8   8   8
#     4   9  20  38  61  87 114 148 188 233 283 337
#     4  12  25  39  58  84 116 154 194 239 289 344
#     4  10  21  39  62  87 117 152 192 238 288 341
#     4  10  21  38  61  89 118 150 193 240 285 337
#     4  11  24  39  57  83 117 155 191 234 287 342
#     4  10  21  39  63  88 116 151 190 236 290 345
#
# _framework density 19.846506000000002
#
# number of rings (size 3 to 8) (size 9 to 14) (size 15 to 20)
#    0.000    1.667    0.000    5.500    0.000   10.667 
#    0.000    1.667    0.000    0.000    0.000    0.000 
#    0.000    0.000    0.000    0.000    0.000    0.000 
#
# Total GULP energy -297763.870533 kJ/mol
# GULP energy per Si atom -12406.827939 kJ/mol
# Density = 1.980133 g / cm^3
# Si number density = 19.846506 Si / 1000 Ang^3
#
#
#
# Elastic Constant Matrix: (Units=GPa)
#
#
# Indices 1 2 3 4 5 6 
#
# 1 56.3721 24.7785 31.5233 0.0000 0.0000 0.0000
# 2 24.7785 93.1311 56.3722 0.0000 0.0000 0.0000
# 3 31.5233 56.3722 100.0458 0.0000 0.0000 0.0000
# 4 0.0000 0.0000 0.0000 3.1227 0.0000 0.0000
# 5 0.0000 0.0000 0.0000 0.0000 28.7803 0.0000
# 6 0.0000 0.0000 0.0000 0.0000 0.0000 31.1797
#
#
#
# Elastic Compliance Matrix: (Units=1/GPa)
#
#
# Indices 1 2 3 4 5 6 
#
# 1 0.021912 -0.002505 -0.005493 0.000000 0.000000 0.000000
# 2 -0.002505 0.016582 -0.008554 0.000000 0.000000 0.000000
# 3 -0.005493 -0.008554 0.016546 0.000000 0.000000 0.000000
# 4 0.000000 0.000000 0.000000 0.320234 0.000000 0.000000
# 5 0.000000 0.000000 0.000000 0.000000 0.034746 0.000000
# 6 0.000000 0.000000 0.000000 0.000000 0.000000 0.032072
#
#
# Mechanical properties :
#
#
# Convention : Reuss Voigt Hill
#
# Bulk Modulus (GPa) = 45.58679 52.76634 49.17656
# Shear Modulus (GPa) = 10.36255 21.74153 16.05204
#
# Velocity S-wave (km/s) = 2.28751 3.31340 2.84704
# Velocity P-wave (km/s) = 5.47690 6.42519 5.96991
#
# Compressibility (1/GPa) = 0.02193618
#
# Stress axis : x y z
#
# Youngs Moduli (GPa) = 45.63722 60.30737 60.43816
#
# Poissons Ratio (x) = 0.15108 0.33196
# Poissons Ratio (y) = 0.11433 0.51698
# Poissons Ratio (z) = 0.25067 0.51586
#
# Static dielectric constant tensor:
#      x y z
#    x 3.596320 0.000000 0.000000 
#    y 0.000000 3.496940 0.000000 
#    z 0.000000 0.000000 3.647240 
# 
# 
# High freq. dielectric constant tensor:
#      x y z
#    x 1.782390 0.000000 0.000000 
#    y 0.000000 1.768030 0.000000 
#    z 0.000000 0.000000 1.784800 
# 
# From -- ./inp_files/10384.got.cif
#   From: 2010.03.12/outbox.cif.g09.slc.cpg/sg36_6_cif.got.tgz:10384.got - 2010.04.14 02:13:53.
