data_PCOD8175717
_publ_section_title
;
Structure prediction by ZEFSAII (Michael W. Deem and Ramdas Pophale) SiO2 
 PCOD8175717
Probable space group: C M C 21
;
_chemical_formula_sum "Si O2"
_cell_formula_units_Z 56
_cell_length_a 24.588964
_cell_length_b 5.302855
_cell_length_c 18.235201
_cell_angle_alpha 90.000000
_cell_angle_beta 90.000000
_cell_angle_gamma 90.000000
_cell_volume 2377.719053
_symmetry_space_group_name_H-M "C M C 21"
_symmetry_group_IT_number 36
_symmetry_cell_setting 'orthorhombic'
loop_
_space_group_symop_operation_xyz
x,y,z
-x,-y,1/2+z
x,-y,1/2+z
-x,y,z
1/2+x,1/2+y,z
1/2-x,1/2-y,1/2+z
1/2+x,1/2-y,1/2+z
1/2-x,1/2+y,z
loop_
_atom_site_type_symbol
_atom_site_label
_atom_site_fract_x
_atom_site_fract_y
_atom_site_fract_z
Si Si1 0.724824 0.537881 0.440290
Si Si2 0.729444 0.039890 0.605454
Si Si3 0.000000 0.934813 0.966165
Si Si4 0.891491 0.787302 0.921719
Si Si5 0.390205 0.104072 0.083150
Si Si6 0.436824 0.567040 0.694312
Si Si7 0.563159 0.072674 0.783697
Si Si8 0.500000 0.075362 0.558138
O O1 0.749750 0.288380 0.403380
O O2 0.739138 0.545093 0.526868
O O3 0.661023 0.533780 0.422050
O O4 0.748952 0.291184 0.647842
O O5 0.664334 0.041281 0.604378
O O6 0.054702 0.966021 0.918169
O O7 0.000000 0.653574 0.000267
O O8 0.000000 0.148056 0.026369
O O9 0.896852 0.594909 0.853954
O O10 0.888938 0.625993 0.995914
O O11 0.398219 0.375968 0.123195
O O12 0.444693 0.943823 0.107095
O O13 0.500000 0.561231 0.669504
O O14 0.419746 0.303089 0.730152
O O15 0.425449 0.800153 0.749489
O O16 0.500000 0.100686 0.807541
#
# Coordination Sequence:
#
# PCOD8175717 Si02
#       8
#     8   8   4   8   8   8   8   4
#     4  10  21  37  58  91 124 165 204 262 317 375
#     4  10  21  37  58  91 124 165 204 262 317 375
#     4  10  24  34  54  96 130 150 191 270 325 354
#     4  11  22  41  68  97 131 162 222 273 320 383
#     4  11  22  41  68  97 131 162 222 273 320 383
#     4  10  23  43  62  90 132 175 208 253 329 401
#     4  10  23  43  62  90 132 175 208 253 329 401
#     4  10  24  34  54  96 130 150 191 270 325 354
#
# _framework density 23.551984999999998
#
# number of rings (size 3 to 8) (size 9 to 14) (size 15 to 20)
#    0.000    1.714    4.286    0.000    4.000    6.857 
#    0.000    0.000    0.000    5.143    0.000    0.000 
#    0.000    0.000    0.000    0.000    0.000    0.000 
#
# Total GULP energy -346993.426894 kJ/mol
# GULP energy per Si atom -12392.622389 kJ/mol
# Density = 2.349838 g / cm^3
# Si number density = 23.551985 Si / 1000 Ang^3
#
#
#
# Elastic Constant Matrix: (Units=GPa)
#
#
# Indices 1 2 3 4 5 6 
#
# 1 166.4795 40.9981 1.8969 0.0000 0.0000 0.0000
# 2 40.9981 133.7517 9.3412 0.0000 0.0000 0.0000
# 3 1.8969 9.3412 60.2743 0.0000 0.0000 0.0000
# 4 0.0000 0.0000 0.0000 16.9787 0.0000 0.0000
# 5 0.0000 0.0000 0.0000 0.0000 18.3919 0.0000
# 6 0.0000 0.0000 0.0000 0.0000 0.0000 22.6670
#
#
#
# Elastic Compliance Matrix: (Units=1/GPa)
#
#
# Indices 1 2 3 4 5 6 
#
# 1 0.006498 -0.001999 0.000105 0.000000 0.000000 0.000000
# 2 -0.001999 0.008173 -0.001204 0.000000 0.000000 0.000000
# 3 0.000105 -0.001204 0.016774 0.000000 0.000000 0.000000
# 4 0.000000 0.000000 0.000000 0.058897 0.000000 0.000000
# 5 0.000000 0.000000 0.000000 0.000000 0.054372 0.000000
# 6 0.000000 0.000000 0.000000 0.000000 0.000000 0.044117
#
#
# Mechanical properties :
#
#
# Convention : Reuss Voigt Hill
#
# Bulk Modulus (GPa) = 39.60372 51.66423 45.63398
# Shear Modulus (GPa) = 24.57689 32.15880 28.36785
#
# Velocity S-wave (km/s) = 3.23386 3.69919 3.47432
# Velocity P-wave (km/s) = 5.54939 6.34265 5.95924
#
# Compressibility (1/GPa) = 0.02525015
#
# Stress axis : x y z
#
# Youngs Moduli (GPa) = 153.89690 122.34826 59.61589
#
# Poissons Ratio (x) = 0.24459 -0.00628
# Poissons Ratio (y) = 0.30766 0.07176
# Poissons Ratio (z) = -0.01621 0.14728
#
# Static dielectric constant tensor:
#      x y z
#    x 4.803040 0.000000 0.000000 
#    y 0.000000 5.128370 0.000000 
#    z 0.000000 0.000000 3.881980 
# 
# 
# High freq. dielectric constant tensor:
#      x y z
#    x 1.932340 0.000000 0.000000 
#    y 0.000000 1.942740 0.000000 
#    z 0.000000 0.000000 1.883900 
# 
# From -- ./inp_files/16334.got.cif
#   From: 2010.03.12/outbox.cif.g09.slc.cpg/sg36_9_cif.got.tgz:16334.got - 2010.04.14 02:13:53.
