data_PCOD8175659
_publ_section_title
;
Structure prediction by ZEFSAII (Michael W. Deem and Ramdas Pophale) SiO2 
 PCOD8175659
Probable space group: C M C 21
;
_chemical_formula_sum "Si O2"
_cell_formula_units_Z 48
_cell_length_a 8.766653
_cell_length_b 18.910081
_cell_length_c 15.204588
_cell_angle_alpha 90.000000
_cell_angle_beta 90.000000
_cell_angle_gamma 90.000000
_cell_volume 2520.587989
_symmetry_space_group_name_H-M "C M C 21"
_symmetry_group_IT_number 36
_symmetry_cell_setting 'orthorhombic'
loop_
_space_group_symop_operation_xyz
x,y,z
-x,-y,1/2+z
x,-y,1/2+z
-x,y,z
1/2+x,1/2+y,z
1/2-x,1/2-y,1/2+z
1/2+x,1/2-y,1/2+z
1/2-x,1/2+y,z
loop_
_atom_site_type_symbol
_atom_site_label
_atom_site_fract_x
_atom_site_fract_y
_atom_site_fract_z
Si Si1 0.179272 0.922771 0.348510
Si Si2 0.676450 0.080926 0.664455
Si Si3 0.180670 0.427821 0.849896
Si Si4 0.321535 0.178668 0.501203
Si Si5 0.677630 0.921678 0.654542
Si Si6 0.319632 0.170198 0.995653
O O1 0.222111 0.902214 0.249040
O O2 0.242566 0.860682 0.409145
O O3 0.000000 0.926654 0.358090
O O4 0.248568 0.997555 0.378670
O O5 0.500000 0.085378 0.692752
O O6 0.717652 0.136094 0.589169
O O7 0.712967 0.002555 0.627903
O O8 0.230488 0.367451 0.917546
O O9 0.242255 0.406307 0.752725
O O10 0.000000 0.439002 0.849930
O O11 0.500000 0.197532 0.495497
O O12 0.220191 0.247989 0.503050
O O13 0.500000 0.906068 0.656669
O O14 0.749970 0.869984 0.581468
O O15 0.500000 0.159881 0.988543
#
# Coordination Sequence:
#
# PCOD8175659 Si02
#       6
#     8   8   8   8   8   8
#     4  11  22  36  56  82 109 140 185 234 275 318
#     4   9  18  36  59  80 105 141 184 226 274 329
#     4   9  18  37  61  81 106 141 180 222 273 331
#     4  10  21  36  56  83 114 147 181 221 271 329
#     4   8  16  33  58  81 100 135 183 221 261 321
#     4  11  22  36  54  79 114 152 185 220 270 328
#
# _framework density 19.043175000000002
#
# number of rings (size 3 to 8) (size 9 to 14) (size 15 to 20)
#    0.000    2.333    0.000    4.000    0.000    5.333 
#    0.000   11.667    0.000    0.000    0.000    0.000 
#    0.000    0.000    0.000    0.000    0.000    0.000 
#
# Total GULP energy -297617.846690 kJ/mol
# GULP energy per Si atom -12400.743612 kJ/mol
# Density = 1.899983 g / cm^3
# Si number density = 19.043175 Si / 1000 Ang^3
#
#
#
# Elastic Constant Matrix: (Units=GPa)
#
#
# Indices 1 2 3 4 5 6 
#
# 1 61.4361 38.7800 35.5845 0.0000 0.0000 0.0000
# 2 38.7800 126.1984 71.2686 0.0000 0.0000 0.0000
# 3 35.5845 71.2686 102.4505 0.0000 0.0000 0.0000
# 4 0.0000 0.0000 0.0000 20.6713 0.0000 0.0000
# 5 0.0000 0.0000 0.0000 0.0000 19.0340 0.0000
# 6 0.0000 0.0000 0.0000 0.0000 0.0000 33.3797
#
#
#
# Elastic Compliance Matrix: (Units=1/GPa)
#
#
# Indices 1 2 3 4 5 6 
#
# 1 0.021501 -0.003936 -0.004730 0.000000 0.000000 0.000000
# 2 -0.003936 0.013772 -0.008213 0.000000 0.000000 0.000000
# 3 -0.004730 -0.008213 0.017117 0.000000 0.000000 0.000000
# 4 0.000000 0.000000 0.000000 0.048376 0.000000 0.000000
# 5 0.000000 0.000000 0.000000 0.000000 0.052538 0.000000
# 6 0.000000 0.000000 0.000000 0.000000 0.000000 0.029958
#
#
# Mechanical properties :
#
#
# Convention : Reuss Voigt Hill
#
# Bulk Modulus (GPa) = 53.67161 64.59456 59.13309
# Shear Modulus (GPa) = 22.39831 24.24712 23.32271
#
# Velocity S-wave (km/s) = 3.43328 3.57216 3.50341
# Velocity P-wave (km/s) = 6.63038 7.14195 6.89091
#
# Compressibility (1/GPa) = 0.01863182
#
# Stress axis : x y z
#
# Youngs Moduli (GPa) = 46.50882 72.61251 58.42117
#
# Poissons Ratio (x) = 0.28580 0.27634
# Poissons Ratio (y) = 0.18306 0.47982
# Poissons Ratio (z) = 0.21999 0.59637
#
# Static dielectric constant tensor:
#      x y z
#    x 3.213700 0.000000 0.000000 
#    y 0.000000 3.441680 0.000000 
#    z 0.000000 0.000000 3.854310 
# 
# 
# High freq. dielectric constant tensor:
#      x y z
#    x 1.716880 0.000000 0.000000 
#    y 0.000000 1.737900 0.000000 
#    z 0.000000 0.000000 1.755200 
# 
# From -- ./inp_files/10365.got.cif
#   From: 2010.03.12/outbox.cif.g09.slc.cpg/sg36_6_cif.got.tgz:10365.got - 2010.04.14 02:13:53.
