data_PCOD8175656
_publ_section_title
;
Structure prediction by ZEFSAII (Michael W. Deem and Ramdas Pophale) SiO2 
 PCOD8175656
Probable space group: C M C 21
;
_chemical_formula_sum "Si O2"
_cell_formula_units_Z 48
_cell_length_a 9.218577
_cell_length_b 23.959344
_cell_length_c 11.795888
_cell_angle_alpha 90.000000
_cell_angle_beta 90.000000
_cell_angle_gamma 90.000000
_cell_volume 2605.370257
_symmetry_space_group_name_H-M "C M C 21"
_symmetry_group_IT_number 36
_symmetry_cell_setting 'orthorhombic'
loop_
_space_group_symop_operation_xyz
x,y,z
-x,-y,1/2+z
x,-y,1/2+z
-x,y,z
1/2+x,1/2+y,z
1/2-x,1/2-y,1/2+z
1/2+x,1/2-y,1/2+z
1/2-x,1/2+y,z
loop_
_atom_site_type_symbol
_atom_site_label
_atom_site_fract_x
_atom_site_fract_y
_atom_site_fract_z
Si Si1 0.329734 0.361426 0.803260
Si Si2 0.669900 0.883563 0.150024
Si Si3 0.330254 0.167449 0.076325
Si Si4 0.170195 0.453690 0.931766
Si Si5 0.166326 0.206864 0.523268
Si Si6 0.828047 0.578717 0.892985
O O1 0.500000 0.370793 0.787045
O O2 0.261151 0.338320 0.689399
O O3 0.256583 0.420091 0.835784
O O4 0.293727 0.315760 0.899072
O O5 0.500000 0.872655 0.158364
O O6 0.741097 0.824520 0.118943
O O7 0.733977 0.904860 0.269513
O O8 0.707179 0.930250 0.056213
O O9 0.500000 0.158864 0.103306
O O10 0.298580 0.227854 0.023513
O O11 0.271762 0.122298 0.986322
O O12 0.225653 0.517217 0.927415
O O13 0.000000 0.448766 0.904213
O O14 0.000000 0.194673 0.552288
O O15 0.000000 0.580210 0.888183
#
# Coordination Sequence:
#
# PCOD8175656 Si02
#       6
#     8   8   8   8   8   8
#     4  10  21  37  56  80 110 144 177 218 271 324
#     4   9  18  33  56  82 105 137 178 220 267 317
#     4  10  21  36  56  81 108 141 181 224 266 314
#     4   9  18  34  57  82 106 138 179 222 266 318
#     4   9  20  37  55  77 108 144 177 217 271 319
#     4   9  19  33  56  84 107 136 180 227 265 308
#
# _framework density 18.423483999999998
#
# number of rings (size 3 to 8) (size 9 to 14) (size 15 to 20)
#    0.000    2.667    0.000    0.500    4.667    1.333 
#    0.000    2.500    0.000    0.000    0.000    0.000 
#    0.000    0.000    0.000    0.000    0.000    0.000 
#
# Total GULP energy -297654.012152 kJ/mol
# GULP energy per Si atom -12402.250506 kJ/mol
# Density = 1.838155 g / cm^3
# Si number density = 18.423484 Si / 1000 Ang^3
#
#
#
# Elastic Constant Matrix: (Units=GPa)
#
#
# Indices 1 2 3 4 5 6 
#
# 1 47.1276 43.7324 41.1027 0.0000 0.0000 0.0000
# 2 43.7324 153.9445 63.2931 0.0000 0.0000 0.0000
# 3 41.1027 63.2931 118.1194 0.0000 0.0000 0.0000
# 4 0.0000 0.0000 0.0000 24.9984 0.0000 0.0000
# 5 0.0000 0.0000 0.0000 0.0000 23.6306 0.0000
# 6 0.0000 0.0000 0.0000 0.0000 0.0000 25.8686
#
#
#
# Elastic Compliance Matrix: (Units=1/GPa)
#
#
# Indices 1 2 3 4 5 6 
#
# 1 0.034603 -0.006258 -0.008688 0.000000 0.000000 0.000000
# 2 -0.006258 0.009463 -0.002893 0.000000 0.000000 0.000000
# 3 -0.008688 -0.002893 0.013039 0.000000 0.000000 0.000000
# 4 0.000000 0.000000 0.000000 0.040003 0.000000 0.000000
# 5 0.000000 0.000000 0.000000 0.000000 0.042318 0.000000
# 6 0.000000 0.000000 0.000000 0.000000 0.000000 0.038657
#
#
# Mechanical properties :
#
#
# Convention : Reuss Voigt Hill
#
# Bulk Modulus (GPa) = 46.66809 68.38311 57.52560
# Shear Modulus (GPa) = 22.63428 26.30374 24.46901
#
# Velocity S-wave (km/s) = 3.50888 3.78263 3.64832
# Velocity P-wave (km/s) = 6.46545 7.50171 7.00277
#
# Compressibility (1/GPa) = 0.02142792
#
# Stress axis : x y z
#
# Youngs Moduli (GPa) = 28.89889 105.67343 76.69104
#
# Poissons Ratio (x) = 0.66133 0.66627
# Poissons Ratio (y) = 0.18086 0.22187
# Poissons Ratio (z) = 0.25107 0.30571
#
# Static dielectric constant tensor:
#      x y z
#    x 3.191580 0.000000 0.000000 
#    y 0.000000 3.575810 0.000000 
#    z 0.000000 0.000000 3.491290 
# 
# 
# High freq. dielectric constant tensor:
#      x y z
#    x 1.690570 0.000000 0.000000 
#    y 0.000000 1.723270 0.000000 
#    z 0.000000 0.000000 1.720070 
# 
# From -- ./inp_files/6702.got.cif
#   From: 2010.03.12/outbox.cif.g09.slc.cpg/sg36_4_cif.got.tgz:6702.got - 2010.04.14 02:13:53.
