data_PCOD8175255
_publ_section_title
;
Structure prediction by ZEFSAII (Michael W. Deem and Ramdas Pophale) SiO2 
 PCOD8175255
Probable space group: C M C 21
;
_chemical_formula_sum "Si O2"
_cell_formula_units_Z 64
_cell_length_a 26.465412
_cell_length_b 13.784068
_cell_length_c 9.109406
_cell_angle_alpha 90.000000
_cell_angle_beta 90.000000
_cell_angle_gamma 90.000000
_cell_volume 3323.120770
_symmetry_space_group_name_H-M "C M C 21"
_symmetry_group_IT_number 36
_symmetry_cell_setting 'orthorhombic'
loop_
_space_group_symop_operation_xyz
x,y,z
-x,-y,1/2+z
x,-y,1/2+z
-x,y,z
1/2+x,1/2+y,z
1/2-x,1/2-y,1/2+z
1/2+x,1/2-y,1/2+z
1/2-x,1/2+y,z
loop_
_atom_site_type_symbol
_atom_site_label
_atom_site_fract_x
_atom_site_fract_y
_atom_site_fract_z
Si Si1 0.705397 0.034185 0.929060
Si Si2 0.617537 0.084796 0.152983
Si Si3 0.556868 0.589427 0.470097
Si Si4 0.666281 0.173788 0.411728
Si Si5 0.131327 0.380944 0.219352
Si Si6 0.944601 0.306540 0.431966
Si Si7 0.316560 0.605065 0.945740
Si Si8 0.622116 0.484557 0.708455
O O1 0.687036 0.098705 0.789262
O O2 0.761831 0.060253 0.971231
O O3 0.704988 0.917506 0.898175
O O4 0.668220 0.061242 0.061399
O O5 0.628801 0.168161 0.272576
O O6 0.601687 0.983981 0.229883
O O7 0.570740 0.116476 0.055335
O O8 0.500000 0.546477 0.450210
O O9 0.553890 0.702238 0.506469
O O10 0.583226 0.544140 0.610773
O O11 0.589077 0.577289 0.321702
O O12 0.633895 0.161983 0.558150
O O13 0.691358 0.280065 0.415880
O O14 0.097624 0.303971 0.306083
O O15 0.000000 0.334378 0.370234
O O16 0.342019 0.556349 0.802599
O O17 0.346534 0.585344 0.097984
#
# Coordination Sequence:
#
# PCOD8175255 Si02
#       8
#     8   8   8   8   8   8   8   8
#     4   9  21  38  53  81 111 149 188 222 276 336
#     4   9  19  37  56  77 111 147 187 223 271 339
#     4  10  20  39  61  81 109 147 182 224 286 335
#     4  10  20  36  59  78 108 149 191 219 277 334
#     4   9  19  37  56  77 111 147 187 223 271 339
#     4  10  20  35  57  83 109 142 186 231 276 329
#     4  11  23  38  55  83 117 145 186 236 275 320
#     4  10  23  38  56  84 116 138 185 240 268 326
#
# _framework density 19.259005999999999
#
# number of rings (size 3 to 8) (size 9 to 14) (size 15 to 20)
#    0.000    2.250    0.000    2.625    5.250    1.500 
#    9.000    0.625    0.000    4.500    0.000    0.000 
#    0.000    0.000    0.000    0.000    0.000    0.000 
#
# Total GULP energy -396600.450705 kJ/mol
# GULP energy per Si atom -12393.764085 kJ/mol
# Density = 1.921517 g / cm^3
# Si number density = 19.259006 Si / 1000 Ang^3
#
#
#
# Elastic Constant Matrix: (Units=GPa)
#
#
# Indices 1 2 3 4 5 6 
#
# 1 103.8043 38.0994 19.8850 0.0000 0.0000 0.0000
# 2 38.0994 89.0050 17.8660 0.0000 0.0000 0.0000
# 3 19.8850 17.8660 86.7313 0.0000 0.0000 0.0000
# 4 0.0000 0.0000 0.0000 19.6307 0.0000 0.0000
# 5 0.0000 0.0000 0.0000 0.0000 11.4306 0.0000
# 6 0.0000 0.0000 0.0000 0.0000 0.0000 22.6317
#
#
#
# Elastic Compliance Matrix: (Units=1/GPa)
#
#
# Indices 1 2 3 4 5 6 
#
# 1 0.011669 -0.004650 -0.001717 0.000000 0.000000 0.000000
# 2 -0.004650 0.013573 -0.001730 0.000000 0.000000 0.000000
# 3 -0.001717 -0.001730 0.012280 0.000000 0.000000 0.000000
# 4 0.000000 0.000000 0.000000 0.050941 0.000000 0.000000
# 5 0.000000 0.000000 0.000000 0.000000 0.087485 0.000000
# 6 0.000000 0.000000 0.000000 0.000000 0.000000 0.044186
#
#
# Mechanical properties :
#
#
# Convention : Reuss Voigt Hill
#
# Bulk Modulus (GPa) = 46.88861 47.91571 47.40216
# Shear Modulus (GPa) = 20.53909 24.31794 22.42851
#
# Velocity S-wave (km/s) = 3.26922 3.55727 3.41629
# Velocity P-wave (km/s) = 6.21688 6.46575 6.34254
#
# Compressibility (1/GPa) = 0.02132714
#
# Stress axis : x y z
#
# Youngs Moduli (GPa) = 85.69445 73.67460 81.43358
#
# Poissons Ratio (x) = 0.34262 0.13986
# Poissons Ratio (y) = 0.39852 0.14086
# Poissons Ratio (z) = 0.14718 0.12744
#
# Static dielectric constant tensor:
#      x y z
#    x 3.396000 0.000000 0.000000 
#    y 0.000000 3.542900 0.000000 
#    z 0.000000 0.000000 3.673960 
# 
# 
# High freq. dielectric constant tensor:
#      x y z
#    x 1.731570 0.000000 0.000000 
#    y 0.000000 1.750050 0.000000 
#    z 0.000000 0.000000 1.763090 
# 
# From -- ./inp_files/5653.got.cif
#   From: 2010.03.12/outbox.cif.g09.slc.cpg/sg36_3_cif.got.tgz:5653.got - 2010.04.14 02:13:53.
