data_PCOD8175174
_publ_section_title
;
Structure prediction by ZEFSAII (Michael W. Deem and Ramdas Pophale) SiO2 
 PCOD8175174
Probable space group: C M C 21
;
_chemical_formula_sum "Si O2"
_cell_formula_units_Z 64
_cell_length_a 8.989421
_cell_length_b 18.647429
_cell_length_c 20.101567
_cell_angle_alpha 90.000000
_cell_angle_beta 90.000000
_cell_angle_gamma 90.000000
_cell_volume 3369.617432
_symmetry_space_group_name_H-M "C M C 21"
_symmetry_group_IT_number 36
_symmetry_cell_setting 'orthorhombic'
loop_
_space_group_symop_operation_xyz
x,y,z
-x,-y,1/2+z
x,-y,1/2+z
-x,y,z
1/2+x,1/2+y,z
1/2-x,1/2-y,1/2+z
1/2+x,1/2-y,1/2+z
1/2-x,1/2+y,z
loop_
_atom_site_type_symbol
_atom_site_label
_atom_site_fract_x
_atom_site_fract_y
_atom_site_fract_z
Si Si1 0.824746 0.551911 0.492410
Si Si2 0.824448 0.799718 0.987567
Si Si3 0.825150 0.197168 0.336192
Si Si4 0.176479 0.295832 0.220240
Si Si5 0.326504 0.957333 0.219084
Si Si6 0.329545 0.053170 0.341349
Si Si7 0.826126 0.040486 0.101693
Si Si8 0.826417 0.207077 0.092921
O O1 0.754765 0.628085 0.513313
O O2 0.783009 0.532274 0.416409
O O3 0.756476 0.489835 0.537262
O O4 0.000000 0.556203 0.504805
O O5 0.778645 0.783901 0.911390
O O6 0.000000 0.809135 0.995783
O O7 0.766825 0.732320 0.029256
O O8 0.760197 0.257713 0.286766
O O9 0.000000 0.191922 0.328127
O O10 0.763261 0.120176 0.314423
O O11 0.237280 0.376707 0.216378
O O12 0.231070 0.251905 0.156226
O O13 0.000000 0.297389 0.223783
O O14 0.500000 0.960570 0.199216
O O15 0.300290 0.985490 0.293936
O O16 0.234155 0.005033 0.168467
O O17 0.500000 0.077341 0.340261
O O18 0.791718 0.124443 0.106250
O O19 0.000000 0.024572 0.095000
O O20 0.000000 0.220539 0.079325
#
# Coordination Sequence:
#
# PCOD8175174 Si02
#       8
#     8   8   8   8   8   8   8   8
#     4  10  20  36  57  79 109 147 181 219 271 325
#     4  10  20  34  56  84 110 138 177 223 266 317
#     4   9  18  34  56  79 105 139 175 214 262 316
#     4   9  18  34  55  76 100 136 178 214 258 318
#     4  10  20  35  56  80 106 140 182 225 272 327
#     4   9  19  34  54  81 109 138 175 218 264 322
#     4  11  23  37  54  79 109 142 186 233 273 321
#     4  10  21  36  54  76 106 144 180 218 268 322
#
# _framework density 18.993255000000001
#
# number of rings (size 3 to 8) (size 9 to 14) (size 15 to 20)
#    0.000    2.250    0.000    2.625    0.000    5.500 
#    0.000    3.750    0.000    0.000    0.000    0.000 
#    0.000    0.000    0.000    0.000    0.000    0.000 
#
# Total GULP energy -396897.791981 kJ/mol
# GULP energy per Si atom -12403.055999 kJ/mol
# Density = 1.895003 g / cm^3
# Si number density = 18.993255 Si / 1000 Ang^3
#
#
#
# Elastic Constant Matrix: (Units=GPa)
#
#
# Indices 1 2 3 4 5 6 
#
# 1 57.4774 45.5970 38.1723 0.0000 0.0000 0.0000
# 2 45.5970 135.7360 70.5846 0.0000 0.0000 0.0000
# 3 38.1723 70.5846 110.8747 0.0000 0.0000 0.0000
# 4 0.0000 0.0000 0.0000 40.7983 0.0000 0.0000
# 5 0.0000 0.0000 0.0000 0.0000 26.6582 0.0000
# 6 0.0000 0.0000 0.0000 0.0000 0.0000 29.1365
#
#
#
# Elastic Compliance Matrix: (Units=1/GPa)
#
#
# Indices 1 2 3 4 5 6 
#
# 1 0.025419 -0.005962 -0.004956 0.000000 0.000000 0.000000
# 2 -0.005962 0.012411 -0.005849 0.000000 0.000000 0.000000
# 3 -0.004956 -0.005849 0.014449 0.000000 0.000000 0.000000
# 4 0.000000 0.000000 0.000000 0.024511 0.000000 0.000000
# 5 0.000000 0.000000 0.000000 0.000000 0.037512 0.000000
# 6 0.000000 0.000000 0.000000 0.000000 0.000000 0.034321
#
#
# Mechanical properties :
#
#
# Convention : Reuss Voigt Hill
#
# Bulk Modulus (GPa) = 53.34389 68.08844 60.71616
# Shear Modulus (GPa) = 26.53860 29.30087 27.91973
#
# Velocity S-wave (km/s) = 3.74206 3.93198 3.83819
# Velocity P-wave (km/s) = 6.84232 7.51934 7.18881
#
# Compressibility (1/GPa) = 0.01874629
#
# Stress axis : x y z
#
# Youngs Moduli (GPa) = 39.34072 80.57152 69.20944
#
# Poissons Ratio (x) = 0.48034 0.34301
# Poissons Ratio (y) = 0.23453 0.40479
# Poissons Ratio (z) = 0.19498 0.47124
#
# Static dielectric constant tensor:
#      x y z
#    x 3.359360 0.000000 0.000000 
#    y 0.000000 3.566550 0.000000 
#    z 0.000000 0.000000 3.649380 
# 
# 
# High freq. dielectric constant tensor:
#      x y z
#    x 1.724840 0.000000 0.000000 
#    y 0.000000 1.739490 0.000000 
#    z 0.000000 0.000000 1.750670 
# 
# From -- ./inp_files/15663.got.cif
#   From: 2010.03.12/outbox.cif.g09.slc.cpg/sg36_8_cif.got.tgz:15663.got - 2010.04.14 02:13:53.
