data_PCOD8175746
_publ_section_title
;
Structure prediction by ZEFSAII (Michael W. Deem and Ramdas Pophale) SiO2 
 PCOD8175746
Probable space group: C M C 21
;
_chemical_formula_sum "Si O2"
_cell_formula_units_Z 40
_cell_length_a 13.240934
_cell_length_b 29.034879
_cell_length_c 4.900373
_cell_angle_alpha 90.000000
_cell_angle_beta 90.000000
_cell_angle_gamma 90.000000
_cell_volume 1883.943090
_symmetry_space_group_name_H-M "C M C 21"
_symmetry_group_IT_number 36
_symmetry_cell_setting 'orthorhombic'
loop_
_space_group_symop_operation_xyz
x,y,z
-x,-y,1/2+z
x,-y,1/2+z
-x,y,z
1/2+x,1/2+y,z
1/2-x,1/2-y,1/2+z
1/2+x,1/2-y,1/2+z
1/2-x,1/2+y,z
loop_
_atom_site_type_symbol
_atom_site_label
_atom_site_fract_x
_atom_site_fract_y
_atom_site_fract_z
Si Si1 0.611200 0.240340 0.884570
Si Si2 0.799671 0.127339 0.544657
Si Si3 0.886916 0.679455 0.373137
Si Si4 0.116506 0.031867 0.652139
Si Si5 0.115567 0.172628 0.071054
O O1 0.500000 0.258550 0.963920
O O2 0.605281 0.199522 0.671821
O O3 0.666055 0.284284 0.741185
O O4 0.657355 0.218375 0.162451
O O5 0.689905 0.136553 0.406282
O O6 0.810251 0.076083 0.661705
O O7 0.877797 0.130914 0.289123
O O8 0.823219 0.163688 0.790138
O O9 0.000000 0.663128 0.277943
O O10 0.000000 0.048618 0.657244
O O11 0.143365 0.000291 0.400748
O O12 0.000000 0.181946 0.985519
#
# Coordination Sequence:
#
# PCOD8175746 Si02
#       5
#     8   8   8   8   8
#     4   9  19  36  55  77 113 156 191 234 285 330
#     4  12  23  36  60  88 114 153 199 244 292 347
#     4  10  21  38  57  80 113 154 200 238 275 332
#     4  10  21  38  59  83 115 150 184 232 299 369
#     4  11  22  36  56  86 121 151 191 244 294 348
#
# _framework density 21.232061999999999
#
# number of rings (size 3 to 8) (size 9 to 14) (size 15 to 20)
#    0.000    1.600    0.000    5.400    0.000    8.000 
#    0.000    0.000    0.000    1.200    0.000    2.800 
#    0.000    0.000    0.000    0.000    0.000    0.000 
#
# Total GULP energy -247808.494213 kJ/mol
# GULP energy per Si atom -12390.424711 kJ/mol
# Density = 2.118374 g / cm^3
# Si number density = 21.232062 Si / 1000 Ang^3
#
#
#
# Elastic Constant Matrix: (Units=GPa)
#
#
# Indices 1 2 3 4 5 6 
#
# 1 90.0838 52.8170 36.4511 0.0000 0.0000 0.0000
# 2 52.8170 100.7101 23.6856 0.0000 0.0000 0.0000
# 3 36.4511 23.6856 125.0915 0.0000 0.0000 0.0000
# 4 0.0000 0.0000 0.0000 112.7864 0.0000 0.0000
# 5 0.0000 0.0000 0.0000 0.0000 24.6659 0.0000
# 6 0.0000 0.0000 0.0000 0.0000 0.0000 28.4008
#
#
#
# Elastic Compliance Matrix: (Units=1/GPa)
#
#
# Indices 1 2 3 4 5 6 
#
# 1 0.017375 -0.008291 -0.003493 0.000000 0.000000 0.000000
# 2 -0.008291 0.014348 -0.000301 0.000000 0.000000 0.000000
# 3 -0.003493 -0.000301 0.009069 0.000000 0.000000 0.000000
# 4 0.000000 0.000000 0.000000 0.008866 0.000000 0.000000
# 5 0.000000 0.000000 0.000000 0.000000 0.040542 0.000000
# 6 0.000000 0.000000 0.000000 0.000000 0.000000 0.035210
#
#
# Mechanical properties :
#
#
# Convention : Reuss Voigt Hill
#
# Bulk Modulus (GPa) = 60.15862 60.19922 60.17892
# Shear Modulus (GPa) = 32.23273 46.69939 39.46606
#
# Velocity S-wave (km/s) = 3.90053 4.69494 4.31605
# Velocity P-wave (km/s) = 6.97717 7.60293 7.29676
#
# Compressibility (1/GPa) = 0.01662272
#
# Stress axis : x y z
#
# Youngs Moduli (GPa) = 57.55312 69.69443 110.26529
#
# Poissons Ratio (x) = 0.57782 0.38518
# Poissons Ratio (y) = 0.47716 0.03318
# Poissons Ratio (z) = 0.20105 0.02097
#
# Static dielectric constant tensor:
#      x y z
#    x 3.917930 0.000000 0.000000 
#    y 0.000000 3.487040 0.000000 
#    z 0.000000 0.000000 4.058820 
# 
# 
# High freq. dielectric constant tensor:
#      x y z
#    x 1.815930 0.000000 0.000000 
#    y 0.000000 1.789820 0.000000 
#    z 0.000000 0.000000 1.862990 
# 
# From -- ./inp_files/787.got.cif
#   From: 2010.03.12/outbox.cif.g09.slc.cpg/sg36_1_cif.got.tgz:787.got - 2010.04.14 02:13:53.
