data_PCOD8175565
_publ_section_title
;
Structure prediction by ZEFSAII (Michael W. Deem and Ramdas Pophale) SiO2 
 PCOD8175565
Probable space group: C M C 21
;
_chemical_formula_sum "Si O2"
_cell_formula_units_Z 64
_cell_length_a 9.014143
_cell_length_b 23.758305
_cell_length_c 15.313018
_cell_angle_alpha 90.000000
_cell_angle_beta 90.000000
_cell_angle_gamma 90.000000
_cell_volume 3279.447553
_symmetry_space_group_name_H-M "C M C 21"
_symmetry_group_IT_number 36
_symmetry_cell_setting 'orthorhombic'
loop_
_space_group_symop_operation_xyz
x,y,z
-x,-y,1/2+z
x,-y,1/2+z
-x,y,z
1/2+x,1/2+y,z
1/2-x,1/2-y,1/2+z
1/2+x,1/2-y,1/2+z
1/2-x,1/2+y,z
loop_
_atom_site_type_symbol
_atom_site_label
_atom_site_fract_x
_atom_site_fract_y
_atom_site_fract_z
Si Si1 0.175253 0.750000 0.617420
Si Si2 0.175308 0.440265 0.725574
Si Si3 0.329751 0.860512 0.567976
Si Si4 0.324692 0.440265 0.225574
Si Si5 0.671440 0.370727 0.872616
Si Si6 0.824678 0.250000 0.313854
Si Si7 0.829751 0.860512 0.067977
Si Si8 0.671440 0.129273 0.872616
O O1 0.231991 0.804792 0.568026
O O2 0.238981 0.750000 0.715780
O O3 0.231989 0.695207 0.568026
O O4 0.000000 0.750001 0.616216
O O5 0.224673 0.403060 0.642640
O O6 0.249999 0.500000 0.713056
O O7 0.230545 0.412045 0.814617
O O8 0.000000 0.447964 0.730456
O O9 0.500000 0.843050 0.583244
O O10 0.309667 0.889391 0.473242
O O11 0.500000 0.447965 0.230457
O O12 0.275328 0.403060 0.142640
O O13 0.269455 0.412045 0.314617
O O14 0.500000 0.375363 0.842629
O O15 0.730730 0.306502 0.862148
O O16 0.690333 0.389391 0.973242
O O17 0.769268 0.306503 0.362147
O O18 0.000000 0.250001 0.312940
O O19 0.000000 0.843049 0.083243
O O20 0.500000 0.124637 0.842629
#
# Coordination Sequence:
#
# PCOD8175565 Si02
#       8
#     8   8   8   8   8   8   8   8
#     4  11  20  33  59  92 121 155 194 236 287 344
#     4  11  24  41  60  85 115 152 197 245 294 343
#     4  10  22  39  61  88 119 155 193 238 292 347
#     4  11  24  41  60  85 115 152 197 245 294 343
#     4  10  20  39  63  87 118 155 193 235 289 348
#     4   9  17  31  57  88 117 151 186 228 285 342
#     4  10  22  39  61  88 119 155 193 238 292 347
#     4  10  20  39  63  87 118 155 193 235 289 348
#
# _framework density 19.515481999999999
#
# number of rings (size 3 to 8) (size 9 to 14) (size 15 to 20)
#    0.000    1.750    2.500    1.875    0.000    5.000 
#    0.000    3.125    0.000    0.000    0.000    0.000 
#    0.000    0.000    0.000    0.000    0.000    0.000 
#
# Total GULP energy -396894.591609 kJ/mol
# GULP energy per Si atom -12402.955988 kJ/mol
# Density = 1.947106 g / cm^3
# Si number density = 19.515482 Si / 1000 Ang^3
#
#
#
# Elastic Constant Matrix: (Units=GPa)
#
#
# Indices 1 2 3 4 5 6 
#
# 1 71.7826 56.0548 41.7320 0.0000 0.0000 0.0000
# 2 56.0548 136.1245 51.6771 0.0000 0.0000 0.0000
# 3 41.7320 51.6771 124.5526 0.0000 0.0000 0.0000
# 4 0.0000 0.0000 0.0000 9.0038 0.0000 0.0000
# 5 0.0000 0.0000 0.0000 0.0000 28.6321 0.0000
# 6 0.0000 0.0000 0.0000 0.0000 0.0000 21.0133
#
#
#
# Elastic Compliance Matrix: (Units=1/GPa)
#
#
# Indices 1 2 3 4 5 6 
#
# 1 0.022365 -0.007555 -0.004359 0.000000 0.000000 0.000000
# 2 -0.007555 0.011272 -0.002145 0.000000 0.000000 0.000000
# 3 -0.004359 -0.002145 0.010379 0.000000 0.000000 0.000000
# 4 0.000000 0.000000 0.000000 0.111065 0.000000 0.000000
# 5 0.000000 0.000000 0.000000 0.000000 0.034926 0.000000
# 6 0.000000 0.000000 0.000000 0.000000 0.000000 0.047589
#
#
# Mechanical properties :
#
#
# Convention : Reuss Voigt Hill
#
# Bulk Modulus (GPa) = 62.90290 70.15416 66.52853
# Shear Modulus (GPa) = 18.44938 23.92958 21.18948
#
# Velocity S-wave (km/s) = 3.07803 3.50549 3.29869
# Velocity P-wave (km/s) = 6.70333 7.23952 6.97658
#
# Compressibility (1/GPa) = 0.01589752
#
# Stress axis : x y z
#
# Youngs Moduli (GPa) = 44.71364 88.71826 96.34553
#
# Poissons Ratio (x) = 0.67024 0.41996
# Poissons Ratio (y) = 0.33780 0.20670
# Poissons Ratio (z) = 0.19490 0.19033
#
# Static dielectric constant tensor:
#      x y z
#    x 3.396280 0.000000 0.000000 
#    y 0.000000 3.560500 0.000000 
#    z 0.000000 0.000000 3.707540 
# 
# 
# High freq. dielectric constant tensor:
#      x y z
#    x 1.746040 0.000000 0.000000 
#    y 0.000000 1.755770 0.000000 
#    z 0.000000 0.000000 1.773400 
# 
# From -- ./inp_files/11077.got.cif
#   From: 2010.03.12/outbox.cif.g09.slc.cpg/sg36_6_cif.got.tgz:11077.got - 2010.04.14 02:13:53.
