data_PCOD8175585
_publ_section_title
;
Structure prediction by ZEFSAII (Michael W. Deem and Ramdas Pophale) SiO2 
 PCOD8175585
Probable space group: C M C 21
;
_chemical_formula_sum "Si O2"
_cell_formula_units_Z 40
_cell_length_a 9.669455
_cell_length_b 12.929677
_cell_length_c 12.618679
_cell_angle_alpha 90.000000
_cell_angle_beta 90.000000
_cell_angle_gamma 90.000000
_cell_volume 1577.624220
_symmetry_space_group_name_H-M "C M C 21"
_symmetry_group_IT_number 36
_symmetry_cell_setting 'orthorhombic'
loop_
_space_group_symop_operation_xyz
x,y,z
-x,-y,1/2+z
x,-y,1/2+z
-x,y,z
1/2+x,1/2+y,z
1/2-x,1/2-y,1/2+z
1/2+x,1/2-y,1/2+z
1/2-x,1/2+y,z
loop_
_atom_site_type_symbol
_atom_site_label
_atom_site_fract_x
_atom_site_fract_y
_atom_site_fract_z
Si Si1 0.737654 0.493824 0.320800
Si Si2 0.000000 0.787688 0.464218
Si Si3 0.000000 0.710976 0.065403
Si Si4 0.500000 0.024276 0.203097
Si Si5 0.500000 0.401325 0.184029
Si Si6 0.000000 0.031418 0.448938
Si Si7 0.500000 0.220738 0.706417
Si Si8 0.708414 0.221929 0.888811
O O1 0.641057 0.439534 0.234183
O O2 0.641169 0.573277 0.390374
O O3 0.800068 0.403592 0.393621
O O4 0.861873 0.557110 0.267122
O O5 0.134506 0.736995 0.407242
O O6 0.000000 0.778589 0.592807
O O7 0.000000 0.907627 0.428763
O O8 0.000000 0.589489 0.093970
O O9 0.000000 0.776350 0.175314
O O10 0.127330 0.751741 0.995068
O O11 0.500000 0.901690 0.180203
O O12 0.500000 0.448096 0.069032
O O13 0.635240 0.254066 0.776411
#
# Coordination Sequence:
#
# PCOD8175585 Si02
#       8
#     8   4   4   4   4   4   4   8
#     4   9  21  44  69  93 135 168 220 282 323 386
#     4  10  20  39  73  96 128 185 222 279 336 397
#     4  11  25  42  66  98 141 171 215 275 337 398
#     4  10  22  41  70  99 131 177 213 275 339 392
#     4  11  24  44  66 101 130 178 220 267 328 405
#     4   9  21  44  70  92 134 175 226 270 328 392
#     4   9  20  42  69  94 138 178 222 276 344 396
#     4   9  21  42  63  94 137 170 219 280 325 394
#
# _framework density 25.354583000000002
#
# number of rings (size 3 to 8) (size 9 to 14) (size 15 to 20)
#    0.000    2.400    0.000    1.200   11.200    0.000 
#   10.800    0.000   30.800    0.000    0.000    0.000 
#    0.000    0.000    0.000    0.000    0.000    0.000 
#
# Total GULP energy -247828.883974 kJ/mol
# GULP energy per Si atom -12391.444199 kJ/mol
# Density = 2.529687 g / cm^3
# Si number density = 25.354583 Si / 1000 Ang^3
#
#
#
# Elastic Constant Matrix: (Units=GPa)
#
#
# Indices 1 2 3 4 5 6 
#
# 1 206.0725 16.9554 74.1925 0.0000 0.0000 0.0000
# 2 16.9554 35.5621 21.9377 0.0000 0.0000 0.0000
# 3 74.1925 21.9377 146.2844 0.0000 0.0000 0.0000
# 4 0.0000 0.0000 0.0000 56.4944 0.0000 0.0000
# 5 0.0000 0.0000 0.0000 0.0000 20.1671 0.0000
# 6 0.0000 0.0000 0.0000 0.0000 0.0000 3.9897
#
#
#
# Elastic Compliance Matrix: (Units=1/GPa)
#
#
# Indices 1 2 3 4 5 6 
#
# 1 0.005974 -0.001079 -0.002868 0.000000 0.000000 0.000000
# 2 -0.001079 0.031181 -0.004129 0.000000 0.000000 0.000000
# 3 -0.002868 -0.004129 0.008910 0.000000 0.000000 0.000000
# 4 0.000000 0.000000 0.000000 0.017701 0.000000 0.000000
# 5 0.000000 0.000000 0.000000 0.000000 0.049586 0.000000
# 6 0.000000 0.000000 0.000000 0.000000 0.000000 0.250646
#
#
# Mechanical properties :
#
#
# Convention : Reuss Voigt Hill
#
# Bulk Modulus (GPa) = 33.43011 68.23227 50.83119
# Shear Modulus (GPa) = 12.81654 34.45248 23.63451
#
# Velocity S-wave (km/s) = 2.25075 3.69023 3.05644
# Velocity P-wave (km/s) = 4.46858 6.71764 5.70503
#
# Compressibility (1/GPa) = 0.02991316
#
# Stress axis : x y z
#
# Youngs Moduli (GPa) = 167.39068 32.07051 112.23559
#
# Poissons Ratio (x) = 0.03461 0.32190
# Poissons Ratio (y) = 0.18062 0.46341
# Poissons Ratio (z) = 0.48009 0.13241
#
# Static dielectric constant tensor:
#      x y z
#    x 5.129850 0.000000 0.000000 
#    y 0.000000 4.538430 0.000000 
#    z 0.000000 0.000000 4.536990 
# 
# 
# High freq. dielectric constant tensor:
#      x y z
#    x 2.027730 0.000000 0.000000 
#    y 0.000000 2.005640 0.000000 
#    z 0.000000 0.000000 2.010810 
# 
# From -- ./inp_files/7574.got.cif
#   From: 2010.03.12/outbox.cif.g09.slc.cpg/sg36_4_cif.got.tgz:7574.got - 2010.04.14 02:13:53.
