data_PCOD8175940
_publ_section_title
;
Structure prediction by ZEFSAII (Michael W. Deem and Ramdas Pophale) SiO2 
 PCOD8175940
Probable space group: C M C 21
;
_chemical_formula_sum "Si O2"
_cell_formula_units_Z 56
_cell_length_a 24.708459
_cell_length_b 13.310987
_cell_length_c 9.354076
_cell_angle_alpha 90.000000
_cell_angle_beta 90.000000
_cell_angle_gamma 90.000000
_cell_volume 3076.499252
_symmetry_space_group_name_H-M "C M C 21"
_symmetry_group_IT_number 36
_symmetry_cell_setting 'orthorhombic'
loop_
_space_group_symop_operation_xyz
x,y,z
-x,-y,1/2+z
x,-y,1/2+z
-x,y,z
1/2+x,1/2+y,z
1/2-x,1/2-y,1/2+z
1/2+x,1/2-y,1/2+z
1/2-x,1/2+y,z
loop_
_atom_site_type_symbol
_atom_site_label
_atom_site_fract_x
_atom_site_fract_y
_atom_site_fract_z
Si Si1 0.887380 0.280149 0.578340
Si Si2 0.199400 0.693287 0.588557
Si Si3 0.000000 0.541109 0.821454
Si Si4 0.000000 0.363185 0.622750
Si Si5 0.794101 0.089702 0.227352
Si Si6 0.381688 0.101671 0.802699
Si Si7 0.825416 0.403222 0.804505
Si Si8 0.184748 0.100567 0.555799
O O1 0.950616 0.286038 0.611862
O O2 0.874184 0.309109 0.415398
O O3 0.859347 0.362439 0.674763
O O4 0.865063 0.169218 0.608241
O O5 0.197823 0.806566 0.643191
O O6 0.154120 0.626997 0.665836
O O7 0.184448 0.684334 0.421281
O O8 0.259608 0.650562 0.610517
O O9 0.054801 0.592160 0.759904
O O10 0.000000 0.424230 0.772431
O O11 0.000000 0.553741 0.994276
O O12 0.731524 0.059737 0.241059
O O13 0.819568 0.091214 0.384908
O O14 0.823477 0.006636 0.130142
O O15 0.358541 0.997647 0.869461
#
# Coordination Sequence:
#
# PCOD8175940 Si02
#       8
#     8   8   4   4   8   8   8   8
#     4  11  22  38  58  85 118 157 193 240 293 353
#     4  11  23  37  57  88 121 154 191 240 293 353
#     4  10  22  34  58  85 117 155 189 238 294 356
#     4  10  22  38  60  85 119 153 199 238 298 348
#     4  11  24  38  57  86 119 156 193 240 292 353
#     4  11  21  39  56  87 120 157 192 236 294 351
#     4  11  22  33  59  87 121 154 186 237 289 359
#     4  11  24  38  60  84 119 156 197 240 295 348
#
# _framework density 18.202507000000001
#
# number of rings (size 3 to 8) (size 9 to 14) (size 15 to 20)
#    0.000    1.143    5.714    0.857    6.000    0.000 
#    0.000    0.000    0.000    1.714    0.000    0.000 
#    0.000    0.000    0.000    0.000    0.000    0.000 
#
# Total GULP energy -347186.649781 kJ/mol
# GULP energy per Si atom -12399.523206 kJ/mol
# Density = 1.816108 g / cm^3
# Si number density = 18.202507 Si / 1000 Ang^3
#
#
#
# Elastic Constant Matrix: (Units=GPa)
#
#
# Indices 1 2 3 4 5 6 
#
# 1 108.2285 42.2221 38.4080 0.0000 0.0000 0.0000
# 2 42.2221 118.6206 39.2688 0.0000 0.0000 0.0000
# 3 38.4080 39.2688 57.9982 0.0000 0.0000 0.0000
# 4 0.0000 0.0000 0.0000 26.7744 0.0000 0.0000
# 5 0.0000 0.0000 0.0000 0.0000 22.8887 0.0000
# 6 0.0000 0.0000 0.0000 0.0000 0.0000 105.7148
#
#
#
# Elastic Compliance Matrix: (Units=1/GPa)
#
#
# Indices 1 2 3 4 5 6 
#
# 1 0.012510 -0.002204 -0.006792 0.000000 0.000000 0.000000
# 2 -0.002204 0.011254 -0.006160 0.000000 0.000000 0.000000
# 3 -0.006792 -0.006160 0.025910 0.000000 0.000000 0.000000
# 4 0.000000 0.000000 0.000000 0.037349 0.000000 0.000000
# 5 0.000000 0.000000 0.000000 0.000000 0.043690 0.000000
# 6 0.000000 0.000000 0.000000 0.000000 0.000000 0.009459
#
#
# Mechanical properties :
#
#
# Convention : Reuss Voigt Hill
#
# Bulk Modulus (GPa) = 51.64781 58.29390 54.97085
# Shear Modulus (GPa) = 28.25826 42.07213 35.16519
#
# Velocity S-wave (km/s) = 3.94437 4.81285 4.40009
# Velocity P-wave (km/s) = 7.01282 7.93596 7.48863
#
# Compressibility (1/GPa) = 0.01936191
#
# Stress axis : x y z
#
# Youngs Moduli (GPa) = 79.93598 88.85633 38.59446
#
# Poissons Ratio (x) = 0.19588 0.26213
# Poissons Ratio (y) = 0.17621 0.23774
# Poissons Ratio (z) = 0.54292 0.54735
#
# Static dielectric constant tensor:
#      x y z
#    x 3.284830 0.000000 0.000000 
#    y 0.000000 3.865320 0.000000 
#    z 0.000000 0.000000 3.336120 
# 
# 
# High freq. dielectric constant tensor:
#      x y z
#    x 1.698320 0.000000 0.000000 
#    y 0.000000 1.692040 0.000000 
#    z 0.000000 0.000000 1.710520 
# 
# From -- ./inp_files/5797.got.cif
#   From: 2010.03.12/outbox.cif.g09.slc.cpg/sg36_3_cif.got.tgz:5797.got - 2010.04.14 02:13:53.
