data_PCOD8175964
_publ_section_title
;
Structure prediction by ZEFSAII (Michael W. Deem and Ramdas Pophale) SiO2 
 PCOD8175964
Probable space group: C M C 21
;
_chemical_formula_sum "Si O2"
_cell_formula_units_Z 64
_cell_length_a 9.062113
_cell_length_b 23.700579
_cell_length_c 15.084330
_cell_angle_alpha 90.000000
_cell_angle_beta 90.000000
_cell_angle_gamma 90.000000
_cell_volume 3239.772048
_symmetry_space_group_name_H-M "C M C 21"
_symmetry_group_IT_number 36
_symmetry_cell_setting 'orthorhombic'
loop_
_space_group_symop_operation_xyz
x,y,z
-x,-y,1/2+z
x,-y,1/2+z
-x,y,z
1/2+x,1/2+y,z
1/2-x,1/2-y,1/2+z
1/2+x,1/2-y,1/2+z
1/2-x,1/2+y,z
loop_
_atom_site_type_symbol
_atom_site_label
_atom_site_fract_x
_atom_site_fract_y
_atom_site_fract_z
Si Si1 0.326337 0.725074 0.490180
Si Si2 0.325316 0.731149 0.820332
Si Si3 0.829199 0.007576 0.813662
Si Si4 0.170268 0.921546 0.661346
Si Si5 0.166401 0.377069 0.070857
Si Si6 0.673506 0.802471 0.652338
Si Si7 0.334064 0.877997 0.275615
Si Si8 0.169435 0.013832 0.518584
O O1 0.500000 0.726048 0.470890
O O2 0.234652 0.733529 0.401867
O O3 0.282163 0.663313 0.523036
O O4 0.279520 0.772705 0.560870
O O5 0.500000 0.726511 0.824346
O O6 0.269806 0.763130 0.732298
O O7 0.260382 0.668360 0.827576
O O8 0.733114 0.060975 0.789277
O O9 0.000000 0.022771 0.798003
O O10 0.781413 0.956762 0.748565
O O11 0.797209 0.991666 0.914818
O O12 0.259837 0.864211 0.658174
O O13 0.000000 0.905156 0.668479
O O14 0.202330 0.955857 0.570842
O O15 0.167434 0.361560 0.173372
O O16 0.000000 0.370582 0.032799
O O17 0.220420 0.440618 0.058434
O O18 0.500000 0.809210 0.658674
O O19 0.500000 0.877640 0.313729
O O20 0.000000 0.032082 0.535247
#
# Coordination Sequence:
#
# PCOD8175964 Si02
#       8
#     8   8   8   8   8   8   8   8
#     4  11  24  43  65  92 124 164 207 254 310 368
#     4  11  24  43  65  92 124 164 207 254 310 368
#     4  10  22  40  62  90 121 160 204 248 304 365
#     4  10  22  39  60  87 123 162 202 248 301 358
#     4  11  23  40  64  93 122 159 206 257 308 362
#     4  10  24  43  62  87 125 164 200 248 311 366
#     4  11  23  40  64  93 122 159 206 257 308 362
#     4  10  22  40  62  90 121 160 204 248 304 365
#
# _framework density 19.754477000000001
#
# number of rings (size 3 to 8) (size 9 to 14) (size 15 to 20)
#    0.000    1.500    2.500    1.500    3.500    4.500 
#    0.000    0.000    0.000    0.000    0.000    0.000 
#    0.000    0.000    0.000    0.000    0.000    0.000 
#
# Total GULP energy -396936.540145 kJ/mol
# GULP energy per Si atom -12404.266880 kJ/mol
# Density = 1.970951 g / cm^3
# Si number density = 19.754477 Si / 1000 Ang^3
#
#
#
# Elastic Constant Matrix: (Units=GPa)
#
#
# Indices 1 2 3 4 5 6 
#
# 1 67.5375 41.1406 28.0001 0.0000 0.0000 0.0000
# 2 41.1406 100.7934 14.9784 0.0000 0.0000 0.0000
# 3 28.0001 14.9784 75.6883 0.0000 0.0000 0.0000
# 4 0.0000 0.0000 0.0000 27.7739 0.0000 0.0000
# 5 0.0000 0.0000 0.0000 0.0000 27.5633 0.0000
# 6 0.0000 0.0000 0.0000 0.0000 0.0000 37.3050
#
#
#
# Elastic Compliance Matrix: (Units=1/GPa)
#
#
# Indices 1 2 3 4 5 6 
#
# 1 0.022612 -0.008228 -0.006737 0.000000 0.000000 0.000000
# 2 -0.008228 0.013216 0.000429 0.000000 0.000000 0.000000
# 3 -0.006737 0.000429 0.015619 0.000000 0.000000 0.000000
# 4 0.000000 0.000000 0.000000 0.036005 0.000000 0.000000
# 5 0.000000 0.000000 0.000000 0.000000 0.036280 0.000000
# 6 0.000000 0.000000 0.000000 0.000000 0.000000 0.026806
#
#
# Mechanical properties :
#
#
# Convention : Reuss Voigt Hill
#
# Bulk Modulus (GPa) = 44.69364 45.80639 45.25001
# Shear Modulus (GPa) = 26.72804 29.18846 27.95825
#
# Velocity S-wave (km/s) = 3.68232 3.84808 3.76611
# Velocity P-wave (km/s) = 6.38381 6.55605 6.47050
#
# Compressibility (1/GPa) = 0.02237455
#
# Stress axis : x y z
#
# Youngs Moduli (GPa) = 44.22468 75.66517 64.02283
#
# Poissons Ratio (x) = 0.62260 0.43130
# Poissons Ratio (y) = 0.36389 -0.02744
# Poissons Ratio (z) = 0.29793 -0.03243
#
# Static dielectric constant tensor:
#      x y z
#    x 3.614790 0.000000 0.000000 
#    y 0.000000 3.487740 0.000000 
#    z 0.000000 0.000000 3.917970 
# 
# 
# High freq. dielectric constant tensor:
#      x y z
#    x 1.771920 0.000000 0.000000 
#    y 0.000000 1.776510 0.000000 
#    z 0.000000 0.000000 1.778730 
# 
# From -- ./inp_files/11098.got.cif
#   From: 2010.03.12/outbox.cif.g09.slc.cpg/sg36_6_cif.got.tgz:11098.got - 2010.04.14 02:13:53.
