data_PCOD8175919
_publ_section_title
;
Structure prediction by ZEFSAII (Michael W. Deem and Ramdas Pophale) SiO2 
 PCOD8175919
Probable space group: C M C 21
;
_chemical_formula_sum "Si O2"
_cell_formula_units_Z 48
_cell_length_a 8.552648
_cell_length_b 23.533313
_cell_length_c 11.800475
_cell_angle_alpha 90.000000
_cell_angle_beta 90.000000
_cell_angle_gamma 90.000000
_cell_volume 2375.106884
_symmetry_space_group_name_H-M "C M C 21"
_symmetry_group_IT_number 36
_symmetry_cell_setting 'orthorhombic'
loop_
_space_group_symop_operation_xyz
x,y,z
-x,-y,1/2+z
x,-y,1/2+z
-x,y,z
1/2+x,1/2+y,z
1/2-x,1/2-y,1/2+z
1/2+x,1/2-y,1/2+z
1/2-x,1/2+y,z
loop_
_atom_site_type_symbol
_atom_site_label
_atom_site_fract_x
_atom_site_fract_y
_atom_site_fract_z
Si Si1 0.180423 0.290192 0.771710
Si Si2 0.681741 0.541071 0.312012
Si Si3 0.819424 0.393658 0.613791
Si Si4 0.680437 0.355080 0.969475
Si Si5 0.681152 0.585820 0.874927
Si Si6 0.320308 0.826968 0.204497
O O1 0.223092 0.333580 0.671164
O O2 0.282108 0.303890 0.882965
O O3 0.213631 0.227253 0.729233
O O4 0.000000 0.296341 0.805617
O O5 0.500000 0.545169 0.279583
O O6 0.781073 0.555401 0.200343
O O7 0.722718 0.584885 0.412163
O O8 0.730087 0.479175 0.354652
O O9 0.711183 0.398530 0.504594
O O10 0.000000 0.397211 0.578077
O O11 0.500000 0.351540 0.005004
O O12 0.785449 0.350679 0.080298
O O13 0.500000 0.596015 0.846080
O O14 0.786464 0.624373 0.795033
O O15 0.500000 0.808768 0.212996
#
# Coordination Sequence:
#
# PCOD8175919 Si02
#       6
#     8   8   8   8   8   8
#     4  10  22  42  65  90 122 162 205 253 308 367
#     4   9  21  41  65  90 120 163 206 247 303 367
#     4  10  22  40  64  93 124 158 201 253 309 365
#     4  10  21  41  66  92 123 160 203 253 306 367
#     4  11  24  41  63  91 125 164 207 252 302 363
#     4  12  26  41  61  92 126 163 206 254 308 363
#
# _framework density 20.209616
#
# number of rings (size 3 to 8) (size 9 to 14) (size 15 to 20)
#    0.000    1.667    0.000    3.500    4.667    4.000 
#    0.000    0.000    0.000    0.000    0.000    0.000 
#    0.000    0.000    0.000    0.000    0.000    0.000 
#
# Total GULP energy -297780.272576 kJ/mol
# GULP energy per Si atom -12407.511357 kJ/mol
# Density = 2.016362 g / cm^3
# Si number density = 20.209616 Si / 1000 Ang^3
#
#
#
# Elastic Constant Matrix: (Units=GPa)
#
#
# Indices 1 2 3 4 5 6 
#
# 1 51.7327 21.9417 23.3667 0.0000 0.0000 0.0000
# 2 21.9417 115.3983 52.4900 0.0000 0.0000 0.0000
# 3 23.3667 52.4900 115.8154 0.0000 0.0000 0.0000
# 4 0.0000 0.0000 0.0000 22.6526 0.0000 0.0000
# 5 0.0000 0.0000 0.0000 0.0000 33.9317 0.0000
# 6 0.0000 0.0000 0.0000 0.0000 0.0000 28.7472
#
#
#
# Elastic Compliance Matrix: (Units=1/GPa)
#
#
# Indices 1 2 3 4 5 6 
#
# 1 0.021924 -0.002717 -0.003192 0.000000 0.000000 0.000000
# 2 -0.002717 0.011253 -0.004552 0.000000 0.000000 0.000000
# 3 -0.003192 -0.004552 0.011341 0.000000 0.000000 0.000000
# 4 0.000000 0.000000 0.000000 0.044145 0.000000 0.000000
# 5 0.000000 0.000000 0.000000 0.000000 0.029471 0.000000
# 6 0.000000 0.000000 0.000000 0.000000 0.000000 0.034786
#
#
# Mechanical properties :
#
#
# Convention : Reuss Voigt Hill
#
# Bulk Modulus (GPa) = 42.37823 53.17149 47.77486
# Shear Modulus (GPa) = 27.51680 29.40949 28.46314
#
# Velocity S-wave (km/s) = 3.69395 3.81888 3.75693
# Velocity P-wave (km/s) = 6.26167 6.76847 6.52000
#
# Compressibility (1/GPa) = 0.02359702
#
# Stress axis : x y z
#
# Youngs Moduli (GPa) = 45.61168 88.86821 88.17212
#
# Poissons Ratio (x) = 0.24143 0.28146
# Poissons Ratio (y) = 0.12391 0.40134
# Poissons Ratio (z) = 0.14560 0.40451
#
# Static dielectric constant tensor:
#      x y z
#    x 3.615250 0.000000 0.000000 
#    y 0.000000 3.699060 0.000000 
#    z 0.000000 0.000000 3.655560 
# 
# 
# High freq. dielectric constant tensor:
#      x y z
#    x 1.795070 0.000000 0.000000 
#    y 0.000000 1.793760 0.000000 
#    z 0.000000 0.000000 1.794840 
# 
# From -- ./inp_files/6727.got.cif
#   From: 2010.03.12/outbox.cif.g09.slc.cpg/sg36_4_cif.got.tgz:6727.got - 2010.04.14 02:13:53.
