data_PCOD8175711
_publ_section_title
;
Structure prediction by ZEFSAII (Michael W. Deem and Ramdas Pophale) SiO2 
 PCOD8175711
Probable space group: C M C 21
;
_chemical_formula_sum "Si O2"
_cell_formula_units_Z 64
_cell_length_a 9.020447
_cell_length_b 10.050531
_cell_length_c 35.141078
_cell_angle_alpha 90.000000
_cell_angle_beta 90.000000
_cell_angle_gamma 90.000000
_cell_volume 3185.900049
_symmetry_space_group_name_H-M "C M C 21"
_symmetry_group_IT_number 36
_symmetry_cell_setting 'orthorhombic'
loop_
_space_group_symop_operation_xyz
x,y,z
-x,-y,1/2+z
x,-y,1/2+z
-x,y,z
1/2+x,1/2+y,z
1/2-x,1/2-y,1/2+z
1/2+x,1/2-y,1/2+z
1/2-x,1/2+y,z
loop_
_atom_site_type_symbol
_atom_site_label
_atom_site_fract_x
_atom_site_fract_y
_atom_site_fract_z
Si Si1 0.325986 0.714651 0.646940
Si Si2 0.327905 0.036921 0.274259
Si Si3 0.172772 0.033925 0.440452
Si Si4 0.328293 0.760734 0.561121
Si Si5 0.327392 0.266476 0.397207
Si Si6 0.673208 0.977927 0.687809
Si Si7 0.672930 0.766642 0.317180
Si Si8 0.328021 0.971791 0.018286
O O1 0.500000 0.694340 0.648282
O O2 0.273006 0.748342 0.604364
O O3 0.275212 0.831371 0.675318
O O4 0.252470 0.579840 0.660248
O O5 0.500000 0.078953 0.275944
O O6 0.281533 0.998187 0.231486
O O7 0.227519 0.159951 0.286589
O O8 0.294105 0.912835 0.301341
O O9 0.249371 0.168689 0.426755
O O10 0.242173 0.988160 0.480142
O O11 0.000000 0.062412 0.446194
O O12 0.200616 0.917711 0.409874
O O13 0.500000 0.720688 0.556617
O O14 0.231936 0.666182 0.534515
O O15 0.301180 0.912634 0.548969
O O16 0.500000 0.230829 0.395984
O O17 0.261089 0.244646 0.355764
O O18 0.500000 0.997071 0.681335
O O19 0.500000 0.744658 0.325030
O O20 0.500000 0.954058 0.008358
#
# Coordination Sequence:
#
# PCOD8175711 Si02
#       8
#     8   8   8   8   8   8   8   8
#     4  10  21  37  58  85 116 152 194 239 288 341
#     4  10  22  39  59  85 118 154 192 238 290 343
#     4  11  24  41  62  89 119 152 192 237 286 342
#     4  10  22  39  58  84 118 153 192 239 288 340
#     4  11  24  41  62  88 117 152 193 235 285 342
#     4  10  21  38  59  85 117 152 193 240 289 343
#     4  11  23  38  59  87 117 152 194 237 285 341
#     4  11  23  39  61  87 116 153 194 237 287 342
#
# _framework density 20.088514
#
# number of rings (size 3 to 8) (size 9 to 14) (size 15 to 20)
#    0.000    1.500    0.000    4.500    0.000   10.500 
#    0.000    0.000    0.000    0.000    0.000    0.000 
#    0.000    0.000    0.000    0.000    0.000    0.000 
#
# Total GULP energy -397032.302761 kJ/mol
# GULP energy per Si atom -12407.259461 kJ/mol
# Density = 2.004279 g / cm^3
# Si number density = 20.088514 Si / 1000 Ang^3
#
#
#
# Elastic Constant Matrix: (Units=GPa)
#
#
# Indices 1 2 3 4 5 6 
#
# 1 85.6829 41.9306 36.2040 0.0000 0.0000 0.0000
# 2 41.9306 75.6388 11.3284 0.0000 0.0000 0.0000
# 3 36.2040 11.3284 97.0820 0.0000 0.0000 0.0000
# 4 0.0000 0.0000 0.0000 39.7261 0.0000 0.0000
# 5 0.0000 0.0000 0.0000 0.0000 30.1679 0.0000
# 6 0.0000 0.0000 0.0000 0.0000 0.0000 30.8991
#
#
#
# Elastic Compliance Matrix: (Units=1/GPa)
#
#
# Indices 1 2 3 4 5 6 
#
# 1 0.018850 -0.009564 -0.005914 0.000000 0.000000 0.000000
# 2 -0.009564 0.018308 0.001430 0.000000 0.000000 0.000000
# 3 -0.005914 0.001430 0.012339 0.000000 0.000000 0.000000
# 4 0.000000 0.000000 0.000000 0.025172 0.000000 0.000000
# 5 0.000000 0.000000 0.000000 0.000000 0.033148 0.000000
# 6 0.000000 0.000000 0.000000 0.000000 0.000000 0.032363
#
#
# Mechanical properties :
#
#
# Convention : Reuss Voigt Hill
#
# Bulk Modulus (GPa) = 46.72293 48.59219 47.65756
# Shear Modulus (GPa) = 28.50478 31.42135 29.96306
#
# Velocity S-wave (km/s) = 3.77099 3.95922 3.86625
# Velocity P-wave (km/s) = 6.50150 6.71879 6.61104
#
# Compressibility (1/GPa) = 0.02140277
#
# Stress axis : x y z
#
# Youngs Moduli (GPa) = 53.05077 54.62015 81.04404
#
# Poissons Ratio (x) = 0.52238 0.47926
# Poissons Ratio (y) = 0.50737 -0.11591
# Poissons Ratio (z) = 0.31372 -0.07812
#
# Static dielectric constant tensor:
#      x y z
#    x 3.664080 0.000000 0.000000 
#    y 0.000000 3.619590 0.000000 
#    z 0.000000 0.000000 3.815060 
# 
# 
# High freq. dielectric constant tensor:
#      x y z
#    x 1.785700 0.000000 0.000000 
#    y 0.000000 1.793960 0.000000 
#    z 0.000000 0.000000 1.799970 
# 
# From -- ./inp_files/17315.got.cif
#   From: 2010.03.12/outbox.cif.g09.slc.cpg/sg36_9_cif.got.tgz:17315.got - 2010.04.14 02:13:53.
