data_PCOD8175993
_publ_section_title
;
Structure prediction by ZEFSAII (Michael W. Deem and Ramdas Pophale) SiO2 
 PCOD8175993
Probable space group: C M C 21
;
_chemical_formula_sum "Si O2"
_cell_formula_units_Z 64
_cell_length_a 8.954437
_cell_length_b 9.994802
_cell_length_c 35.051909
_cell_angle_alpha 90.000000
_cell_angle_beta 90.000000
_cell_angle_gamma 90.000000
_cell_volume 3137.069612
_symmetry_space_group_name_H-M "C M C 21"
_symmetry_group_IT_number 36
_symmetry_cell_setting 'orthorhombic'
loop_
_space_group_symop_operation_xyz
x,y,z
-x,-y,1/2+z
x,-y,1/2+z
-x,y,z
1/2+x,1/2+y,z
1/2-x,1/2-y,1/2+z
1/2+x,1/2-y,1/2+z
1/2-x,1/2+y,z
loop_
_atom_site_type_symbol
_atom_site_label
_atom_site_fract_x
_atom_site_fract_y
_atom_site_fract_z
Si Si1 0.826745 0.708863 0.933690
Si Si2 0.673537 0.731666 0.854709
Si Si3 0.672038 0.974540 0.556873
Si Si4 0.171432 0.227638 0.187576
Si Si5 0.671480 0.242609 0.600068
Si Si6 0.673077 0.524192 0.477505
Si Si7 0.328371 0.999146 0.232493
Si Si8 0.826710 0.963014 0.811001
O O1 0.755695 0.757337 0.894315
O O2 0.753454 0.572310 0.947645
O O3 0.799678 0.823197 0.965104
O O4 0.000000 0.682723 0.926492
O O5 0.500000 0.762022 0.860108
O O6 0.737623 0.831479 0.823076
O O7 0.701648 0.580279 0.841346
O O8 0.500000 0.960518 0.544863
O O9 0.724673 0.835170 0.574341
O O10 0.697351 0.089530 0.588035
O O11 0.764832 0.008572 0.519570
O O12 0.219347 0.245520 0.143830
O O13 0.280621 0.120984 0.205970
O O14 0.197050 0.366148 0.208685
O O15 0.000000 0.180115 0.191091
O O16 0.500000 0.285379 0.593793
O O17 0.500000 0.486021 0.477117
O O18 0.500000 0.018262 0.244479
O O19 0.228123 0.989242 0.269932
O O20 0.000000 0.925527 0.808158
#
# Coordination Sequence:
#
# PCOD8175993 Si02
#       8
#     8   8   8   8   8   8   8   8
#     4  11  24  41  63  91 121 156 198 243 294 351
#     4  11  24  41  63  91 121 156 198 243 294 351
#     4  11  23  39  61  89 119 154 198 245 294 350
#     4  10  22  40  61  87 120 157 197 243 296 353
#     4  10  22  40  61  87 120 157 197 243 296 353
#     4  11  24  41  61  88 121 157 199 244 292 350
#     4  11  23  39  61  89 119 154 198 245 294 350
#     4  11  24  41  61  88 121 157 199 244 292 350
#
# _framework density 20.401205999999998
#
# number of rings (size 3 to 8) (size 9 to 14) (size 15 to 20)
#    0.000    1.250    0.000    5.250    0.000   14.500 
#    0.000    0.000    0.000    0.000    0.000    0.000 
#    0.000    0.000    0.000    0.000    0.000    0.000 
#
# Total GULP energy -397064.391086 kJ/mol
# GULP energy per Si atom -12408.262221 kJ/mol
# Density = 2.035477 g / cm^3
# Si number density = 20.401206 Si / 1000 Ang^3
#
#
#
# Elastic Constant Matrix: (Units=GPa)
#
#
# Indices 1 2 3 4 5 6 
#
# 1 110.5416 54.8506 39.5911 0.0000 0.0000 0.0000
# 2 54.8506 72.3908 7.9148 0.0000 0.0000 0.0000
# 3 39.5911 7.9148 103.0701 0.0000 0.0000 0.0000
# 4 0.0000 0.0000 0.0000 38.3837 0.0000 0.0000
# 5 0.0000 0.0000 0.0000 0.0000 39.5757 0.0000
# 6 0.0000 0.0000 0.0000 0.0000 0.0000 33.0900
#
#
#
# Elastic Compliance Matrix: (Units=1/GPa)
#
#
# Indices 1 2 3 4 5 6 
#
# 1 0.017260 -0.012457 -0.005673 0.000000 0.000000 0.000000
# 2 -0.012457 0.022922 0.003025 0.000000 0.000000 0.000000
# 3 -0.005673 0.003025 0.011649 0.000000 0.000000 0.000000
# 4 0.000000 0.000000 0.000000 0.026053 0.000000 0.000000
# 5 0.000000 0.000000 0.000000 0.000000 0.025268 0.000000
# 6 0.000000 0.000000 0.000000 0.000000 0.000000 0.030221
#
#
# Mechanical properties :
#
#
# Convention : Reuss Voigt Hill
#
# Bulk Modulus (GPa) = 46.25440 54.52397 50.38919
# Shear Modulus (GPa) = 29.27582 34.45296 31.86439
#
# Velocity S-wave (km/s) = 3.79225 4.11392 3.95636
# Velocity P-wave (km/s) = 6.47275 7.02493 6.75449
#
# Compressibility (1/GPa) = 0.02161956
#
# Stress axis : x y z
#
# Youngs Moduli (GPa) = 57.93909 43.62607 85.84437
#
# Poissons Ratio (x) = 0.54346 0.48700
# Poissons Ratio (y) = 0.72176 -0.25967
# Poissons Ratio (z) = 0.32869 -0.13196
#
# Static dielectric constant tensor:
#      x y z
#    x 3.832810 0.000000 0.000000 
#    y 0.000000 3.731680 0.000000 
#    z 0.000000 0.000000 3.808730 
# 
# 
# High freq. dielectric constant tensor:
#      x y z
#    x 1.807950 0.000000 0.000000 
#    y 0.000000 1.808270 0.000000 
#    z 0.000000 0.000000 1.812790 
# 
# From -- ./inp_files/17311.got.cif
#   From: 2010.03.12/outbox.cif.g09.slc.cpg/sg36_9_cif.got.tgz:17311.got - 2010.04.14 02:13:53.
