data_PCOD8175046
_publ_section_title
;
Structure prediction by ZEFSAII (Michael W. Deem and Ramdas Pophale) SiO2 
 PCOD8175046
Probable space group: C M C 21
;
_chemical_formula_sum "Si O2"
_cell_formula_units_Z 64
_cell_length_a 9.744739
_cell_length_b 20.594995
_cell_length_c 18.270028
_cell_angle_alpha 90.000000
_cell_angle_beta 90.000000
_cell_angle_gamma 90.000000
_cell_volume 3666.664007
_symmetry_space_group_name_H-M "C M C 21"
_symmetry_group_IT_number 36
_symmetry_cell_setting 'orthorhombic'
loop_
_space_group_symop_operation_xyz
x,y,z
-x,-y,1/2+z
x,-y,1/2+z
-x,y,z
1/2+x,1/2+y,z
1/2-x,1/2-y,1/2+z
1/2+x,1/2-y,1/2+z
1/2-x,1/2+y,z
loop_
_atom_site_type_symbol
_atom_site_label
_atom_site_fract_x
_atom_site_fract_y
_atom_site_fract_z
Si Si1 0.337087 0.876843 0.778330
Si Si2 0.652841 0.019423 0.777672
Si Si3 0.347376 0.012713 0.603529
Si Si4 0.161814 0.256220 0.511612
Si Si5 0.837250 0.370229 0.615946
Si Si6 0.339987 0.244873 0.369434
Si Si7 0.843426 0.133712 0.768206
Si Si8 0.158058 0.127553 0.599513
O O1 0.500000 0.874343 0.771404
O O2 0.274549 0.861678 0.697690
O O3 0.286775 0.823387 0.836297
O O4 0.293245 0.948990 0.805889
O O5 0.500000 0.033825 0.808097
O O6 0.649735 0.016366 0.690602
O O7 0.752580 0.076675 0.804578
O O8 0.500000 0.025843 0.572124
O O9 0.245645 0.066445 0.570471
O O10 0.295739 0.940407 0.581925
O O11 0.217557 0.313618 0.563619
O O12 0.246593 0.262018 0.437768
O O13 0.196955 0.188709 0.550379
O O14 0.000000 0.262947 0.495296
O O15 0.000000 0.365995 0.621862
O O16 0.500000 0.241710 0.392220
O O17 0.314535 0.298981 0.308130
O O18 0.806010 0.144764 0.683317
O O19 0.000000 0.111497 0.777146
O O20 0.000000 0.108398 0.591089
#
# Coordination Sequence:
#
# PCOD8175046 Si02
#       8
#     8   8   8   8   8   8   8   8
#     4   8  14  28  51  73  90 115 155 195 226 263
#     4   8  14  26  47  73  94 112 143 190 234 268
#     4   8  14  26  47  73  94 112 143 190 234 268
#     4  10  20  33  48  67  93 124 156 190 227 268
#     4   8  14  28  51  73  90 115 155 195 226 263
#     4  10  20  33  48  67  93 124 156 190 227 268
#     4   9  17  30  49  71  93 119 151 186 227 275
#     4   9  17  30  49  71  93 119 151 186 227 275
#
# _framework density 17.454557000000001
#
# number of rings (size 3 to 8) (size 9 to 14) (size 15 to 20)
#    0.000    3.250    0.000    2.250    0.000    4.000 
#    0.000    2.500    0.000   11.250    0.000    0.000 
#    0.000    0.000    0.000    0.000    0.000    0.000 
#
# Total GULP energy -396646.757296 kJ/mol
# GULP energy per Si atom -12395.211165 kJ/mol
# Density = 1.741483 g / cm^3
# Si number density = 17.454557 Si / 1000 Ang^3
#
#
#
# Elastic Constant Matrix: (Units=GPa)
#
#
# Indices 1 2 3 4 5 6 
#
# 1 44.0027 33.2617 16.5629 0.0000 0.0000 0.0000
# 2 33.2617 93.2201 8.7162 0.0000 0.0000 0.0000
# 3 16.5629 8.7162 37.2641 0.0000 0.0000 0.0000
# 4 0.0000 0.0000 0.0000 6.8516 0.0000 0.0000
# 5 0.0000 0.0000 0.0000 0.0000 22.7225 0.0000
# 6 0.0000 0.0000 0.0000 0.0000 0.0000 28.9781
#
#
#
# Elastic Compliance Matrix: (Units=1/GPa)
#
#
# Indices 1 2 3 4 5 6 
#
# 1 0.036806 -0.011863 -0.013585 0.000000 0.000000 0.000000
# 2 -0.011863 0.014790 0.001813 0.000000 0.000000 0.000000
# 3 -0.013585 0.001813 0.032449 0.000000 0.000000 0.000000
# 4 0.000000 0.000000 0.000000 0.145950 0.000000 0.000000
# 5 0.000000 0.000000 0.000000 0.000000 0.044009 0.000000
# 6 0.000000 0.000000 0.000000 0.000000 0.000000 0.034509
#
#
# Mechanical properties :
#
#
# Convention : Reuss Voigt Hill
#
# Bulk Modulus (GPa) = 27.19043 32.39652 29.79347
# Shear Modulus (GPa) = 13.58540 19.44018 16.51279
#
# Velocity S-wave (km/s) = 2.79288 3.34092 3.07912
# Velocity P-wave (km/s) = 5.10019 5.78646 5.45413
#
# Compressibility (1/GPa) = 0.03677765
#
# Stress axis : x y z
#
# Youngs Moduli (GPa) = 27.16935 67.61132 30.81719
#
# Poissons Ratio (x) = 0.80204 0.41864
# Poissons Ratio (y) = 0.32230 -0.05587
# Poissons Ratio (z) = 0.36909 -0.12258
#
# Static dielectric constant tensor:
#      x y z
#    x 3.088640 0.000000 0.000000 
#    y 0.000000 3.670880 0.000000 
#    z 0.000000 0.000000 3.029120 
# 
# 
# High freq. dielectric constant tensor:
#      x y z
#    x 1.643400 0.000000 0.000000 
#    y 0.000000 1.691820 0.000000 
#    z 0.000000 0.000000 1.643560 
# 
# From -- ./inp_files/14109.got.cif
#   From: 2010.03.12/outbox.cif.g09.slc.cpg/sg36_8_cif.got.tgz:14109.got - 2010.04.14 02:13:53.
