data_PCOD8175303
_publ_section_title
;
Structure prediction by ZEFSAII (Michael W. Deem and Ramdas Pophale) SiO2 
 PCOD8175303
Probable space group: C M C 21
;
_chemical_formula_sum "Si O2"
_cell_formula_units_Z 64
_cell_length_a 9.011710
_cell_length_b 33.231056
_cell_length_c 10.477434
_cell_angle_alpha 90.000000
_cell_angle_beta 90.000000
_cell_angle_gamma 90.000000
_cell_volume 3137.662907
_symmetry_space_group_name_H-M "C M C 21"
_symmetry_group_IT_number 36
_symmetry_cell_setting 'orthorhombic'
loop_
_space_group_symop_operation_xyz
x,y,z
-x,-y,1/2+z
x,-y,1/2+z
-x,y,z
1/2+x,1/2+y,z
1/2-x,1/2-y,1/2+z
1/2+x,1/2-y,1/2+z
1/2-x,1/2+y,z
loop_
_atom_site_type_symbol
_atom_site_label
_atom_site_fract_x
_atom_site_fract_y
_atom_site_fract_z
Si Si1 0.828810 0.963496 0.944260
Si Si2 0.325970 0.270749 0.697509
Si Si3 0.333476 0.155267 0.309371
Si Si4 0.823877 0.714159 0.931374
Si Si5 0.826842 0.392505 0.063286
Si Si6 0.839042 0.571811 0.227799
Si Si7 0.175855 0.628623 0.839881
Si Si8 0.666279 0.954412 0.449547
O O1 0.801064 0.940982 0.811242
O O2 0.000000 0.966663 0.978070
O O3 0.766099 0.007682 0.917732
O O4 0.750914 0.936508 0.053754
O O5 0.500000 0.268922 0.671184
O O6 0.284676 0.312318 0.765427
O O7 0.247373 0.266068 0.558932
O O8 0.277727 0.236754 0.800080
O O9 0.500000 0.173922 0.316428
O O10 0.285697 0.136796 0.446167
O O11 0.328503 0.119802 0.203458
O O12 0.764849 0.668251 0.913556
O O13 0.000000 0.716070 0.950363
O O14 0.774679 0.369983 0.191679
O O15 0.000000 0.401637 0.067913
O O16 0.000000 0.564345 0.298389
O O17 0.838887 0.546837 0.100632
O O18 0.239476 0.587002 0.898257
O O19 0.000000 0.628403 0.853564
O O20 0.500000 0.960221 0.393068
#
# Coordination Sequence:
#
# PCOD8175303 Si02
#       8
#     8   8   8   8   8   8   8   8
#     4  11  23  36  52  81 121 154 184 236 303 365
#     4  11  24  39  63  96 129 164 204 253 312 374
#     4   9  18  35  62  88 116 153 197 246 297 354
#     4  10  23  43  65  92 127 165 210 259 310 367
#     4   9  19  37  62  88 113 154 207 250 291 352
#     4   9  19  37  59  80 104 146 200 241 279 341
#     4   9  19  38  64  88 112 151 205 259 300 344
#     4  10  20  35  59  83 106 143 197 250 290 343
#
# _framework density 20.397347
#
# number of rings (size 3 to 8) (size 9 to 14) (size 15 to 20)
#    0.000    2.250    0.000    3.000    3.500    5.500 
#    0.000    2.500    0.000    0.000    0.000    0.000 
#    0.000    0.000    0.000    0.000    0.000    0.000 
#
# Total GULP energy -396564.672767 kJ/mol
# GULP energy per Si atom -12392.646024 kJ/mol
# Density = 2.035092 g / cm^3
# Si number density = 20.397347 Si / 1000 Ang^3
#
#
#
# Elastic Constant Matrix: (Units=GPa)
#
#
# Indices 1 2 3 4 5 6 
#
# 1 67.3126 39.6045 34.0730 0.0000 0.0000 0.0000
# 2 39.6045 115.7628 46.3434 0.0000 0.0000 0.0000
# 3 34.0730 46.3434 103.6346 0.0000 0.0000 0.0000
# 4 0.0000 0.0000 0.0000 28.1423 0.0000 0.0000
# 5 0.0000 0.0000 0.0000 0.0000 21.5285 0.0000
# 6 0.0000 0.0000 0.0000 0.0000 0.0000 24.1012
#
#
#
# Elastic Compliance Matrix: (Units=1/GPa)
#
#
# Indices 1 2 3 4 5 6 
#
# 1 0.020055 -0.005142 -0.004294 0.000000 0.000000 0.000000
# 2 -0.005142 0.011840 -0.003604 0.000000 0.000000 0.000000
# 3 -0.004294 -0.003604 0.012673 0.000000 0.000000 0.000000
# 4 0.000000 0.000000 0.000000 0.035534 0.000000 0.000000
# 5 0.000000 0.000000 0.000000 0.000000 0.046450 0.000000
# 6 0.000000 0.000000 0.000000 0.000000 0.000000 0.041492
#
#
# Mechanical properties :
#
#
# Convention : Reuss Voigt Hill
#
# Bulk Modulus (GPa) = 54.09104 58.52797 56.30950
# Shear Modulus (GPa) = 24.96408 25.86701 25.41554
#
# Velocity S-wave (km/s) = 3.50221 3.56498 3.53373
# Velocity P-wave (km/s) = 6.55211 6.76030 6.65702
#
# Compressibility (1/GPa) = 0.01848735
#
# Stress axis : x y z
#
# Youngs Moduli (GPa) = 49.86224 84.45639 78.90857
#
# Poissons Ratio (x) = 0.43428 0.33886
# Poissons Ratio (y) = 0.25640 0.28440
# Poissons Ratio (z) = 0.21412 0.30440
#
# Static dielectric constant tensor:
#      x y z
#    x 3.395070 0.000000 0.000000 
#    y 0.000000 3.863770 0.000000 
#    z 0.000000 0.000000 3.825520 
# 
# 
# High freq. dielectric constant tensor:
#      x y z
#    x 1.761270 0.000000 0.000000 
#    y 0.000000 1.802940 0.000000 
#    z 0.000000 0.000000 1.801990 
# 
# From -- ./inp_files/7254.got.cif
#   From: 2010.03.12/outbox.cif.g09.slc.cpg/sg36_4_cif.got.tgz:7254.got - 2010.04.14 02:13:53.
