data_PCOD8175848
_publ_section_title
;
Structure prediction by ZEFSAII (Michael W. Deem and Ramdas Pophale) SiO2 
 PCOD8175848
Probable space group: C M C 21
;
_chemical_formula_sum "Si O2"
_cell_formula_units_Z 64
_cell_length_a 12.634441
_cell_length_b 23.303264
_cell_length_c 8.984008
_cell_angle_alpha 90.000000
_cell_angle_beta 90.000000
_cell_angle_gamma 90.000000
_cell_volume 2645.105003
_symmetry_space_group_name_H-M "C M C 21"
_symmetry_group_IT_number 36
_symmetry_cell_setting 'orthorhombic'
loop_
_space_group_symop_operation_xyz
x,y,z
-x,-y,1/2+z
x,-y,1/2+z
-x,y,z
1/2+x,1/2+y,z
1/2-x,1/2-y,1/2+z
1/2+x,1/2-y,1/2+z
1/2-x,1/2+y,z
loop_
_atom_site_type_symbol
_atom_site_label
_atom_site_fract_x
_atom_site_fract_y
_atom_site_fract_z
Si Si1 0.231198 0.638301 0.487470
Si Si2 0.122351 0.038347 0.986304
Si Si3 0.621923 0.637629 0.775079
Si Si4 0.301327 0.244981 0.323479
Si Si5 0.621678 0.427958 0.808448
Si Si6 0.624699 0.927586 0.428886
Si Si7 0.123928 0.466148 0.109391
Si Si8 0.373871 0.203161 0.001712
O O1 0.303804 0.645582 0.632342
O O2 0.166367 0.695414 0.442337
O O3 0.309065 0.627448 0.346933
O O4 0.147612 0.586750 0.499322
O O5 0.173862 0.087881 0.880958
O O6 0.000000 0.051881 0.969153
O O7 0.146624 0.973557 0.939102
O O8 0.158799 0.043871 0.155425
O O9 0.500000 0.623230 0.729364
O O10 0.625618 0.699282 0.857695
O O11 0.318810 0.223385 0.154944
O O12 0.178699 0.262195 0.363155
O O13 0.500000 0.409568 0.804231
O O14 0.500000 0.933644 0.424767
O O15 0.669620 0.948354 0.269284
O O16 0.654587 0.863370 0.474882
O O17 0.675362 0.973899 0.546114
O O18 0.000000 0.476552 0.114693
O O19 0.500000 0.214584 0.005562
#
# Coordination Sequence:
#
# PCOD8175848 Si02
#       8
#     8   8   8   8   8   8   8   8
#     4  12  26  40  66 101 132 183 235 290 352 437
#     4   9  20  39  66  96 133 178 223 277 350 422
#     4  11  24  47  71  97 139 185 233 298 356 417
#     4  12  27  45  72 104 135 191 251 292 366 447
#     4  10  21  39  63  98 137 175 222 283 351 421
#     4   9  21  43  73 101 140 190 234 297 375 439
#     4  10  23  44  67 102 141 181 235 295 362 439
#     4  11  26  51  76 105 153 199 247 318 374 436
#
# _framework density 24.195636
#
# number of rings (size 3 to 8) (size 9 to 14) (size 15 to 20)
#    0.000    1.500    1.250    2.250    3.500    6.500 
#    0.000    1.250    0.000    0.000    0.000    0.000 
#    0.000    0.000    0.000    0.000    0.000    0.000 
#
# Total GULP energy -396671.007801 kJ/mol
# GULP energy per Si atom -12395.968994 kJ/mol
# Density = 2.414057 g / cm^3
# Si number density = 24.195636 Si / 1000 Ang^3
#
#
#
# Elastic Constant Matrix: (Units=GPa)
#
#
# Indices 1 2 3 4 5 6 
#
# 1 47.3219 7.3062 28.3577 0.0000 0.0000 0.0000
# 2 7.3062 140.1364 42.5543 0.0000 0.0000 0.0000
# 3 28.3577 42.5543 112.8542 0.0000 0.0000 0.0000
# 4 0.0000 0.0000 0.0000 49.9387 0.0000 0.0000
# 5 0.0000 0.0000 0.0000 0.0000 14.1349 0.0000
# 6 0.0000 0.0000 0.0000 0.0000 0.0000 33.0562
#
#
#
# Elastic Compliance Matrix: (Units=1/GPa)
#
#
# Indices 1 2 3 4 5 6 
#
# 1 0.024935 0.000681 -0.006522 0.000000 0.000000 0.000000
# 2 0.000681 0.008077 -0.003217 0.000000 0.000000 0.000000
# 3 -0.006522 -0.003217 0.011713 0.000000 0.000000 0.000000
# 4 0.000000 0.000000 0.000000 0.020025 0.000000 0.000000
# 5 0.000000 0.000000 0.000000 0.000000 0.070747 0.000000
# 6 0.000000 0.000000 0.000000 0.000000 0.000000 0.030252
#
#
# Mechanical properties :
#
#
# Convention : Reuss Voigt Hill
#
# Bulk Modulus (GPa) = 37.58207 50.74989 44.16598
# Shear Modulus (GPa) = 25.94238 34.23224 30.08731
#
# Velocity S-wave (km/s) = 3.27799 3.76548 3.53016
# Velocity P-wave (km/s) = 5.46747 6.31866 5.90841
#
# Compressibility (1/GPa) = 0.02660843
#
# Stress axis : x y z
#
# Youngs Moduli (GPa) = 40.10381 123.80495 85.37654
#
# Poissons Ratio (x) = -0.08425 0.55685
# Poissons Ratio (y) = -0.02729 0.27463
# Poissons Ratio (z) = 0.26157 0.39824
#
# Static dielectric constant tensor:
#      x y z
#    x 4.406480 0.000000 0.000000 
#    y 0.000000 4.752400 0.000000 
#    z 0.000000 0.000000 4.418560 
# 
# 
# High freq. dielectric constant tensor:
#      x y z
#    x 1.975950 0.000000 0.000000 
#    y 0.000000 1.974310 0.000000 
#    z 0.000000 0.000000 1.955740 
# 
# From -- ./inp_files/4351.got.cif
#   From: 2010.03.12/outbox.cif.g09.slc.cpg/sg36_3_cif.got.tgz:4351.got - 2010.04.14 02:13:53.
