data_PCOD8175408
_publ_section_title
;
Structure prediction by ZEFSAII (Michael W. Deem and Ramdas Pophale) SiO2 
 PCOD8175408
Probable space group: C M C 21
;
_chemical_formula_sum "Si O2"
_cell_formula_units_Z 64
_cell_length_a 8.711493
_cell_length_b 24.058512
_cell_length_c 14.531905
_cell_angle_alpha 90.000000
_cell_angle_beta 90.000000
_cell_angle_gamma 90.000000
_cell_volume 3045.677431
_symmetry_space_group_name_H-M "C M C 21"
_symmetry_group_IT_number 36
_symmetry_cell_setting 'orthorhombic'
loop_
_space_group_symop_operation_xyz
x,y,z
-x,-y,1/2+z
x,-y,1/2+z
-x,y,z
1/2+x,1/2+y,z
1/2-x,1/2-y,1/2+z
1/2+x,1/2-y,1/2+z
1/2-x,1/2+y,z
loop_
_atom_site_type_symbol
_atom_site_label
_atom_site_fract_x
_atom_site_fract_y
_atom_site_fract_z
Si Si1 0.669503 0.764571 0.772040
Si Si2 0.325564 0.129966 0.158239
Si Si3 0.677703 0.154499 0.794629
Si Si4 0.180932 0.828049 0.487111
Si Si5 0.182374 0.457883 0.806574
Si Si6 0.319762 0.556136 0.693366
Si Si7 0.325845 0.795094 0.974832
Si Si8 0.316360 0.083427 0.506185
O O1 0.500000 0.736479 0.773219
O O2 0.685399 0.806481 0.688810
O O3 0.798687 0.717773 0.761304
O O4 0.689599 0.799922 0.864968
O O5 0.500000 0.113426 0.133418
O O6 0.220856 0.128374 0.067407
O O7 0.258581 0.089507 0.236070
O O8 0.500000 0.138174 0.787788
O O9 0.776341 0.117474 0.725675
O O10 0.736779 0.147075 0.898032
O O11 0.244977 0.764736 0.506434
O O12 0.000000 0.825802 0.469013
O O13 0.250600 0.515279 0.770069
O O14 0.000000 0.461017 0.805524
O O15 0.239946 0.444417 0.910104
O O16 0.500000 0.547330 0.687557
O O17 0.249728 0.547289 0.590917
O O18 0.500000 0.795501 0.008473
O O19 0.251521 0.852505 0.013593
O O20 0.500000 0.083284 0.509731
#
# Coordination Sequence:
#
# PCOD8175408 Si02
#       8
#     8   8   8   8   8   8   8   8
#     4   9  17  34  59  90 126 160 195 250 313 367
#     4  10  20  36  61  93 127 164 208 251 303 368
#     4  11  23  41  62  87 121 164 213 260 309 370
#     4  10  21  36  58  91 132 171 207 252 312 370
#     4  10  22  43  69  93 121 164 212 260 306 366
#     4  12  27  44  63  91 126 165 207 261 320 371
#     4   8  15  32  58  87 121 159 198 247 303 359
#     4  10  20  40  68  94 120 157 208 257 306 371
#
# _framework density 21.013387000000002
#
# number of rings (size 3 to 8) (size 9 to 14) (size 15 to 20)
#    0.000    2.000    1.250    3.375    1.750    2.500 
#    0.000    3.750    0.000    0.000    0.000    0.000 
#    0.000    0.000    0.000    0.000    0.000    0.000 
#
# Total GULP energy -396651.034147 kJ/mol
# GULP energy per Si atom -12395.344817 kJ/mol
# Density = 2.096556 g / cm^3
# Si number density = 21.013387 Si / 1000 Ang^3
#
#
#
# Elastic Constant Matrix: (Units=GPa)
#
#
# Indices 1 2 3 4 5 6 
#
# 1 40.8172 16.8907 22.4325 0.0000 0.0000 0.0000
# 2 16.8907 59.7479 38.1768 0.0000 0.0000 0.0000
# 3 22.4325 38.1768 95.9717 0.0000 0.0000 0.0000
# 4 0.0000 0.0000 0.0000 29.0068 0.0000 0.0000
# 5 0.0000 0.0000 0.0000 0.0000 28.2499 0.0000
# 6 0.0000 0.0000 0.0000 0.0000 0.0000 23.8826
#
#
#
# Elastic Compliance Matrix: (Units=1/GPa)
#
#
# Indices 1 2 3 4 5 6 
#
# 1 0.029283 -0.005236 -0.004762 0.000000 0.000000 0.000000
# 2 -0.005236 0.023377 -0.008075 0.000000 0.000000 0.000000
# 3 -0.004762 -0.008075 0.014745 0.000000 0.000000 0.000000
# 4 0.000000 0.000000 0.000000 0.034475 0.000000 0.000000
# 5 0.000000 0.000000 0.000000 0.000000 0.035398 0.000000
# 6 0.000000 0.000000 0.000000 0.000000 0.000000 0.041871
#
#
# Mechanical properties :
#
#
# Convention : Reuss Voigt Hill
#
# Bulk Modulus (GPa) = 31.99049 39.05964 35.52507
# Shear Modulus (GPa) = 22.15177 24.16365 23.15771
#
# Velocity S-wave (km/s) = 3.25033 3.39472 3.32331
# Velocity P-wave (km/s) = 5.41693 5.83042 5.62747
#
# Compressibility (1/GPa) = 0.03125929
#
# Stress axis : x y z
#
# Youngs Moduli (GPa) = 34.14934 42.77707 67.81900
#
# Poissons Ratio (x) = 0.22396 0.32295
# Poissons Ratio (y) = 0.17879 0.54767
# Poissons Ratio (z) = 0.16262 0.34544
#
# Static dielectric constant tensor:
#      x y z
#    x 3.468990 0.000000 0.000000 
#    y 0.000000 3.784140 0.000000 
#    z 0.000000 0.000000 3.908800 
# 
# 
# High freq. dielectric constant tensor:
#      x y z
#    x 1.792880 0.000000 0.000000 
#    y 0.000000 1.817060 0.000000 
#    z 0.000000 0.000000 1.832550 
# 
# From -- ./inp_files/10887.got.cif
#   From: 2010.03.12/outbox.cif.g09.slc.cpg/sg36_6_cif.got.tgz:10887.got - 2010.04.14 02:13:53.
