data_PCOD8175791
_publ_section_title
;
Structure prediction by ZEFSAII (Michael W. Deem and Ramdas Pophale) SiO2 
 PCOD8175791
Probable space group: C M C 21
;
_chemical_formula_sum "Si O2"
_cell_formula_units_Z 64
_cell_length_a 19.608478
_cell_length_b 17.949521
_cell_length_c 8.983191
_cell_angle_alpha 90.000000
_cell_angle_beta 90.000000
_cell_angle_gamma 90.000000
_cell_volume 3161.748946
_symmetry_space_group_name_H-M "C M C 21"
_symmetry_group_IT_number 36
_symmetry_cell_setting 'orthorhombic'
loop_
_space_group_symop_operation_xyz
x,y,z
-x,-y,1/2+z
x,-y,1/2+z
-x,y,z
1/2+x,1/2+y,z
1/2-x,1/2-y,1/2+z
1/2+x,1/2-y,1/2+z
1/2-x,1/2+y,z
loop_
_atom_site_type_symbol
_atom_site_label
_atom_site_fract_x
_atom_site_fract_y
_atom_site_fract_z
Si Si1 0.209246 0.670881 0.219780
Si Si2 0.925868 0.397386 0.794565
Si Si3 0.075495 0.478984 0.502408
Si Si4 0.280274 0.928092 0.438902
Si Si5 0.801375 0.084083 0.423977
Si Si6 0.304570 0.339466 0.224596
Si Si7 0.924545 0.900594 0.385784
Si Si8 0.076370 0.951568 0.716406
O O1 0.128938 0.664397 0.254685
O O2 0.248842 0.646425 0.366989
O O3 0.219676 0.757000 0.179827
O O4 0.236073 0.616981 0.089543
O O5 0.917360 0.433499 0.958841
O O6 0.918353 0.467575 0.679682
O O7 0.000000 0.359094 0.778245
O O8 0.138483 0.437756 0.422474
O O9 0.000000 0.450258 0.448144
O O10 0.260398 0.879026 0.297821
O O11 0.236432 0.004304 0.435875
O O12 0.826500 0.111887 0.583408
O O13 0.867165 0.087579 0.317756
O O14 0.368033 0.338973 0.342171
O O15 0.904799 0.940272 0.542277
O O16 0.000000 0.863979 0.396461
O O17 0.923344 0.961294 0.254500
O O18 0.000000 0.919126 0.748486
#
# Coordination Sequence:
#
# PCOD8175791 Si02
#       8
#     8   8   8   8   8   8   8   8
#     4  11  24  40  57  88 127 161 203 256 310 367
#     4   9  18  34  57  84 113 147 190 243 298 352
#     4   9  18  33  58  87 112 142 189 248 293 341
#     4  11  22  39  61  87 119 157 210 254 299 367
#     4  12  23  38  64  90 119 165 211 254 302 368
#     4  12  25  38  59  89 126 167 200 254 314 362
#     4  10  21  38  61  91 124 159 203 254 312 371
#     4  10  21  38  63  94 122 154 206 265 306 358
#
# _framework density 20.241962000000001
#
# number of rings (size 3 to 8) (size 9 to 14) (size 15 to 20)
#    0.000    1.500    2.500    3.000    1.750    2.000 
#    0.000    0.000    0.000    2.250    0.000    0.000 
#    0.000    0.000    0.000    0.000    0.000    0.000 
#
# Total GULP energy -396585.004645 kJ/mol
# GULP energy per Si atom -12393.281395 kJ/mol
# Density = 2.019589 g / cm^3
# Si number density = 20.241962 Si / 1000 Ang^3
#
#
#
# Elastic Constant Matrix: (Units=GPa)
#
#
# Indices 1 2 3 4 5 6 
#
# 1 118.5997 37.4722 43.2066 0.0000 0.0000 0.0000
# 2 37.4722 93.0749 29.1429 0.0000 0.0000 0.0000
# 3 43.2066 29.1429 86.1308 0.0000 0.0000 0.0000
# 4 0.0000 0.0000 0.0000 23.3821 0.0000 0.0000
# 5 0.0000 0.0000 0.0000 0.0000 30.5973 0.0000
# 6 0.0000 0.0000 0.0000 0.0000 0.0000 18.2960
#
#
#
# Elastic Compliance Matrix: (Units=1/GPa)
#
#
# Indices 1 2 3 4 5 6 
#
# 1 0.011031 -0.003030 -0.004509 0.000000 0.000000 0.000000
# 2 -0.003030 0.012849 -0.002828 0.000000 0.000000 0.000000
# 3 -0.004509 -0.002828 0.014829 0.000000 0.000000 0.000000
# 4 0.000000 0.000000 0.000000 0.042768 0.000000 0.000000
# 5 0.000000 0.000000 0.000000 0.000000 0.032683 0.000000
# 6 0.000000 0.000000 0.000000 0.000000 0.000000 0.054657
#
#
# Mechanical properties :
#
#
# Convention : Reuss Voigt Hill
#
# Bulk Modulus (GPa) = 55.62610 57.49429 56.56020
# Shear Modulus (GPa) = 25.57003 26.98733 26.27868
#
# Velocity S-wave (km/s) = 3.55804 3.65531 3.60700
# Velocity P-wave (km/s) = 6.66481 6.80296 6.73424
#
# Compressibility (1/GPa) = 0.01797717
#
# Stress axis : x y z
#
# Youngs Moduli (GPa) = 90.64952 77.82598 67.43615
#
# Poissons Ratio (x) = 0.23578 0.30405
# Poissons Ratio (y) = 0.27463 0.19070
# Poissons Ratio (z) = 0.40872 0.22008
#
# Static dielectric constant tensor:
#      x y z
#    x 4.056120 0.000000 0.000000 
#    y 0.000000 3.198670 0.000000 
#    z 0.000000 0.000000 3.757940 
# 
# 
# High freq. dielectric constant tensor:
#      x y z
#    x 1.815100 0.000000 0.000000 
#    y 0.000000 1.743720 0.000000 
#    z 0.000000 0.000000 1.794760 
# 
# From -- ./inp_files/5315.got.cif
#   From: 2010.03.12/outbox.cif.g09.slc.cpg/sg36_3_cif.got.tgz:5315.got - 2010.04.14 02:13:53.
