data_PCOD8175886
_publ_section_title
;
Structure prediction by ZEFSAII (Michael W. Deem and Ramdas Pophale) SiO2 
 PCOD8175886
Probable space group: C M C 21
;
_chemical_formula_sum "Si O2"
_cell_formula_units_Z 28
_cell_length_a 7.966174
_cell_length_b 32.551210
_cell_length_c 5.047679
_cell_angle_alpha 90.000000
_cell_angle_beta 90.000000
_cell_angle_gamma 90.000000
_cell_volume 1308.906589
_symmetry_space_group_name_H-M "C M C 21"
_symmetry_group_IT_number 36
_symmetry_cell_setting 'orthorhombic'
loop_
_space_group_symop_operation_xyz
x,y,z
-x,-y,1/2+z
x,-y,1/2+z
-x,y,z
1/2+x,1/2+y,z
1/2-x,1/2-y,1/2+z
1/2+x,1/2-y,1/2+z
1/2-x,1/2+y,z
loop_
_atom_site_type_symbol
_atom_site_label
_atom_site_fract_x
_atom_site_fract_y
_atom_site_fract_z
Si Si1 0.305674 0.087443 0.625000
Si Si2 0.683464 0.729523 0.219404
Si Si3 0.000000 0.972988 0.130819
Si Si4 0.690805 0.858920 0.628616
O O1 0.500000 0.071063 0.637060
O O2 0.261291 0.105986 0.339037
O O3 0.172161 0.051806 0.682926
O O4 0.278596 0.123396 0.837307
O O5 0.500000 0.738072 0.335398
O O6 0.806991 0.745914 0.443681
O O7 0.698804 0.681254 0.164972
O O8 0.000000 0.011079 0.331068
O O9 0.500000 0.845150 0.670491
#
# Coordination Sequence:
#
# PCOD8175886 Si02
#       4
#     8   8   4   8
#     4  10  23  41  65  93 125 163 209 256 318 380
#     4  12  25  40  62  92 130 173 216 271 327 381
#     4  12  26  42  66  96 128 162 206 264 316 388
#     4  10  21  40  64  89 121 163 210 264 308 376
#
# _framework density 21.391898000000001
#
# number of rings (size 3 to 8) (size 9 to 14) (size 15 to 20)
#    0.000    1.143    0.000    6.000    4.000    3.429 
#    0.000    0.000    0.000    0.000    0.000    0.000 
#    0.000    0.000    0.000    0.000    0.000    0.000 
#
# Total GULP energy -173649.456172 kJ/mol
# GULP energy per Si atom -12403.532584 kJ/mol
# Density = 2.134321 g / cm^3
# Si number density = 21.391898 Si / 1000 Ang^3
#
#
#
# Elastic Constant Matrix: (Units=GPa)
#
#
# Indices 1 2 3 4 5 6 
#
# 1 116.0940 49.1623 13.6190 0.0000 0.0000 0.0000
# 2 49.1623 81.8982 6.4180 0.0000 0.0000 0.0000
# 3 13.6190 6.4180 83.5479 0.0000 0.0000 0.0000
# 4 0.0000 0.0000 0.0000 34.3457 0.0000 0.0000
# 5 0.0000 0.0000 0.0000 0.0000 24.1727 0.0000
# 6 0.0000 0.0000 0.0000 0.0000 0.0000 14.2038
#
#
#
# Elastic Compliance Matrix: (Units=1/GPa)
#
#
# Indices 1 2 3 4 5 6 
#
# 1 0.011705 -0.006918 -0.001377 0.000000 0.000000 0.000000
# 2 -0.006918 0.016373 -0.000130 0.000000 0.000000 0.000000
# 3 -0.001377 -0.000130 0.012204 0.000000 0.000000 0.000000
# 4 0.000000 0.000000 0.000000 0.029116 0.000000 0.000000
# 5 0.000000 0.000000 0.000000 0.000000 0.041369 0.000000
# 6 0.000000 0.000000 0.000000 0.000000 0.000000 0.070403
#
#
# Mechanical properties :
#
#
# Convention : Reuss Voigt Hill
#
# Bulk Modulus (GPa) = 42.67666 46.65984 44.66825
# Shear Modulus (GPa) = 24.29179 28.70050 26.49615
#
# Velocity S-wave (km/s) = 3.37346 3.66683 3.52320
# Velocity P-wave (km/s) = 5.93017 6.30768 6.12183
#
# Compressibility (1/GPa) = 0.02343201
#
# Stress axis : x y z
#
# Youngs Moduli (GPa) = 85.43408 61.07433 81.94335
#
# Poissons Ratio (x) = 0.42254 0.11280
# Poissons Ratio (y) = 0.59107 0.01065
# Poissons Ratio (z) = 0.11760 0.00794
#
# Static dielectric constant tensor:
#      x y z
#    x 4.015080 0.000000 0.000000 
#    y 0.000000 3.573420 0.000000 
#    z 0.000000 0.000000 3.912430 
# 
# 
# High freq. dielectric constant tensor:
#      x y z
#    x 1.848470 0.000000 0.000000 
#    y 0.000000 1.829730 0.000000 
#    z 0.000000 0.000000 1.856140 
# 
# From -- ./inp_files/168.got.cif
#   From: 2010.03.12/outbox.cif.g09.slc.cpg/sg36_1_cif.got.tgz:168.got - 2010.04.14 02:13:53.
