data_PCOD8175713
_publ_section_title
;
Structure prediction by ZEFSAII (Michael W. Deem and Ramdas Pophale) SiO2 
 PCOD8175713
Probable space group: C M C 21
;
_chemical_formula_sum "Si O2"
_cell_formula_units_Z 64
_cell_length_a 8.717317
_cell_length_b 15.399014
_cell_length_c 24.011895
_cell_angle_alpha 90.000000
_cell_angle_beta 90.000000
_cell_angle_gamma 90.000000
_cell_volume 3223.310839
_symmetry_space_group_name_H-M "C M C 21"
_symmetry_group_IT_number 36
_symmetry_cell_setting 'orthorhombic'
loop_
_space_group_symop_operation_xyz
x,y,z
-x,-y,1/2+z
x,-y,1/2+z
-x,y,z
1/2+x,1/2+y,z
1/2-x,1/2-y,1/2+z
1/2+x,1/2-y,1/2+z
1/2-x,1/2+y,z
loop_
_atom_site_type_symbol
_atom_site_label
_atom_site_fract_x
_atom_site_fract_y
_atom_site_fract_z
Si Si1 0.177804 0.349354 0.980850
Si Si2 0.822699 0.083713 0.586361
Si Si3 0.675784 0.344536 0.470194
Si Si4 0.177892 0.851361 0.208892
Si Si5 0.681209 0.003852 0.902513
Si Si6 0.181544 0.502787 0.278031
Si Si7 0.317998 0.842823 0.702293
Si Si8 0.180189 0.600360 0.082300
O O1 0.241795 0.422932 0.938916
O O2 0.000000 0.366026 0.995813
O O3 0.278722 0.350587 0.036947
O O4 0.198016 0.255555 0.951717
O O5 0.789265 0.131209 0.644241
O O6 0.000000 0.055741 0.581639
O O7 0.712578 0.001636 0.580038
O O8 0.500000 0.373704 0.466190
O O9 0.771864 0.404940 0.429196
O O10 0.730291 0.351642 0.533546
O O11 0.231866 0.753021 0.221930
O O12 0.000000 0.864801 0.223175
O O13 0.275412 0.914004 0.247624
O O14 0.500000 0.000482 0.899477
O O15 0.750651 0.996773 0.840333
O O16 0.250489 0.585565 0.244728
O O17 0.000000 0.509823 0.279812
O O18 0.500000 0.850223 0.700196
O O19 0.255571 0.861966 0.640393
O O20 0.000000 0.616614 0.074578
#
# Coordination Sequence:
#
# PCOD8175713 Si02
#       8
#     8   8   8   8   8   8   8   8
#     4  10  22  39  59  85 116 154 192 232 288 348
#     4  11  21  34  57  89 121 151 187 236 288 341
#     4  11  23  38  59  89 118 148 191 239 289 344
#     4  10  21  37  58  86 118 149 185 232 290 343
#     4  10  22  40  60  81 111 153 195 239 288 339
#     4  10  21  39  60  82 110 149 199 240 278 333
#     4   9  19  36  59  84 113 153 191 225 279 348
#     4  11  20  35  60  86 117 155 190 229 288 350
#
# _framework density 19.855360999999998
#
# number of rings (size 3 to 8) (size 9 to 14) (size 15 to 20)
#    0.000    1.750    2.500    1.875    0.000    4.000 
#    0.000    4.375    0.000    0.000    0.000    0.000 
#    0.000    0.000    0.000    0.000    0.000    0.000 
#
# Total GULP energy -396881.690373 kJ/mol
# GULP energy per Si atom -12402.552824 kJ/mol
# Density = 1.981017 g / cm^3
# Si number density = 19.855361 Si / 1000 Ang^3
#
#
#
# Elastic Constant Matrix: (Units=GPa)
#
#
# Indices 1 2 3 4 5 6 
#
# 1 14.1822 9.6850 16.2406 0.0000 0.0000 0.0000
# 2 9.6850 131.2604 54.5836 0.0000 0.0000 0.0000
# 3 16.2406 54.5836 143.6893 0.0000 0.0000 0.0000
# 4 0.0000 0.0000 0.0000 14.4204 0.0000 0.0000
# 5 0.0000 0.0000 0.0000 0.0000 14.5929 0.0000
# 6 0.0000 0.0000 0.0000 0.0000 0.0000 29.2746
#
#
#
# Elastic Compliance Matrix: (Units=1/GPa)
#
#
# Indices 1 2 3 4 5 6 
#
# 1 0.081735 -0.002600 -0.008251 0.000000 0.000000 0.000000
# 2 -0.002600 0.009130 -0.003175 0.000000 0.000000 0.000000
# 3 -0.008251 -0.003175 0.009098 0.000000 0.000000 0.000000
# 4 0.000000 0.000000 0.000000 0.069346 0.000000 0.000000
# 5 0.000000 0.000000 0.000000 0.000000 0.068527 0.000000
# 6 0.000000 0.000000 0.000000 0.000000 0.000000 0.034159
#
#
# Mechanical properties :
#
#
# Convention : Reuss Voigt Hill
#
# Bulk Modulus (GPa) = 13.90568 50.01670 31.96119
# Shear Modulus (GPa) = 15.43134 25.56574 20.49854
#
# Velocity S-wave (km/s) = 2.79083 3.59221 3.21657
# Velocity P-wave (km/s) = 4.17177 6.51540 5.47056
#
# Compressibility (1/GPa) = 0.07191307
#
# Stress axis : x y z
#
# Youngs Moduli (GPa) = 12.23473 109.52454 109.91548
#
# Poissons Ratio (x) = 0.28474 0.90686
# Poissons Ratio (y) = 0.03181 0.34893
# Poissons Ratio (z) = 0.10094 0.34769
#
# Static dielectric constant tensor:
#      x y z
#    x 3.393060 0.000000 0.000000 
#    y 0.000000 3.748880 0.000000 
#    z 0.000000 0.000000 3.814690 
# 
# 
# High freq. dielectric constant tensor:
#      x y z
#    x 1.753290 0.000000 0.000000 
#    y 0.000000 1.786810 0.000000 
#    z 0.000000 0.000000 1.773700 
# 
# From -- ./inp_files/16551.got.cif
#   From: 2010.03.12/outbox.cif.g09.slc.cpg/sg36_9_cif.got.tgz:16551.got - 2010.04.14 02:13:53.
