data_PCOD8175850
_publ_section_title
;
Structure prediction by ZEFSAII (Michael W. Deem and Ramdas Pophale) SiO2 
 PCOD8175850
Probable space group: C M C 21
;
_chemical_formula_sum "Si O2"
_cell_formula_units_Z 48
_cell_length_a 8.915693
_cell_length_b 23.406704
_cell_length_c 11.963216
_cell_angle_alpha 90.000000
_cell_angle_beta 90.000000
_cell_angle_gamma 90.000000
_cell_volume 2496.567502
_symmetry_space_group_name_H-M "C M C 21"
_symmetry_group_IT_number 36
_symmetry_cell_setting 'orthorhombic'
loop_
_space_group_symop_operation_xyz
x,y,z
-x,-y,1/2+z
x,-y,1/2+z
-x,y,z
1/2+x,1/2+y,z
1/2-x,1/2-y,1/2+z
1/2+x,1/2-y,1/2+z
1/2-x,1/2+y,z
loop_
_atom_site_type_symbol
_atom_site_label
_atom_site_fract_x
_atom_site_fract_y
_atom_site_fract_z
Si Si1 0.824215 0.579153 0.183910
Si Si2 0.677958 0.168401 0.371669
Si Si3 0.176207 0.284909 0.296665
Si Si4 0.324402 0.351285 0.105685
Si Si5 0.673426 0.537591 0.748721
Si Si6 0.326187 0.896335 0.434887
O O1 0.771718 0.624921 0.275099
O O2 0.747322 0.519071 0.202936
O O3 0.000000 0.568890 0.190365
O O4 0.775400 0.603417 0.063436
O O5 0.500000 0.170476 0.387126
O O6 0.737400 0.230311 0.340774
O O7 0.755018 0.146166 0.483532
O O8 0.241458 0.302023 0.176032
O O9 0.211665 0.334267 0.386031
O O10 0.000000 0.272456 0.285844
O O11 0.500000 0.336415 0.100425
O O12 0.293431 0.412570 0.160247
O O13 0.500000 0.525878 0.764923
O O14 0.738162 0.554316 0.869426
O O15 0.500000 0.910810 0.420920
#
# Coordination Sequence:
#
# PCOD8175850 Si02
#       6
#     8   8   8   8   8   8
#     4  10  23  40  60  87 120 158 197 242 294 357
#     4  11  24  39  60  91 123 158 200 245 296 356
#     4  10  21  39  64  91 119 156 199 246 300 358
#     4  10  22  41  62  86 121 160 198 247 299 353
#     4  10  22  39  61  89 119 153 196 249 299 348
#     4   9  20  40  63  86 116 157 198 239 294 358
#
# _framework density 19.226396999999999
#
# number of rings (size 3 to 8) (size 9 to 14) (size 15 to 20)
#    0.000    2.000    0.000    2.000    4.667    4.667 
#    0.000    0.000    0.000    0.000    0.000    0.000 
#    0.000    0.000    0.000    0.000    0.000    0.000 
#
# Total GULP energy -297719.816298 kJ/mol
# GULP energy per Si atom -12404.992346 kJ/mol
# Density = 1.918264 g / cm^3
# Si number density = 19.226397 Si / 1000 Ang^3
#
#
#
# Elastic Constant Matrix: (Units=GPa)
#
#
# Indices 1 2 3 4 5 6 
#
# 1 296.1968 68.3522 151.8760 0.0000 0.0000 0.0000
# 2 68.3522 91.0325 68.5239 0.0000 0.0000 0.0000
# 3 151.8760 68.5239 207.2125 0.0000 0.0000 0.0000
# 4 0.0000 0.0000 0.0000 23.1654 0.0000 0.0000
# 5 0.0000 0.0000 0.0000 0.0000 30.6650 0.0000
# 6 0.0000 0.0000 0.0000 0.0000 0.0000 36.9673
#
#
#
# Elastic Compliance Matrix: (Units=1/GPa)
#
#
# Indices 1 2 3 4 5 6 
#
# 1 0.005553 -0.001472 -0.003583 0.000000 0.000000 0.000000
# 2 -0.001472 0.015016 -0.003887 0.000000 0.000000 0.000000
# 3 -0.003583 -0.003887 0.008738 0.000000 0.000000 0.000000
# 4 0.000000 0.000000 0.000000 0.043168 0.000000 0.000000
# 5 0.000000 0.000000 0.000000 0.000000 0.032610 0.000000
# 6 0.000000 0.000000 0.000000 0.000000 0.000000 0.027051
#
#
# Mechanical properties :
#
#
# Convention : Reuss Voigt Hill
#
# Bulk Modulus (GPa) = 87.54654 130.21623 108.88139
# Shear Modulus (GPa) = 32.50370 38.53885 35.52128
#
# Velocity S-wave (km/s) = 4.11612 4.48199 4.30295
# Velocity P-wave (km/s) = 8.25974 9.72930 9.02448
#
# Compressibility (1/GPa) = 0.01142250
#
# Stress axis : x y z
#
# Youngs Moduli (GPa) = 180.07339 66.59461 114.44703
#
# Poissons Ratio (x) = 0.09805 0.41011
# Poissons Ratio (y) = 0.26513 0.44481
# Poissons Ratio (z) = 0.64527 0.25883
#
# Static dielectric constant tensor:
#      x y z
#    x 3.605190 0.000000 0.000000 
#    y 0.000000 3.464680 0.000000 
#    z 0.000000 0.000000 3.503540 
# 
# 
# High freq. dielectric constant tensor:
#      x y z
#    x 1.755980 0.000000 0.000000 
#    y 0.000000 1.752710 0.000000 
#    z 0.000000 0.000000 1.759940 
# 
# From -- ./inp_files/6720.got.cif
#   From: 2010.03.12/outbox.cif.g09.slc.cpg/sg36_4_cif.got.tgz:6720.got - 2010.04.14 02:13:53.
