data_PCOD8175058
_publ_section_title
;
Structure prediction by ZEFSAII (Michael W. Deem and Ramdas Pophale) SiO2 
 PCOD8175058
Probable space group: C M C 21
;
_chemical_formula_sum "Si O2"
_cell_formula_units_Z 64
_cell_length_a 8.992344
_cell_length_b 29.186999
_cell_length_c 14.178433
_cell_angle_alpha 90.000000
_cell_angle_beta 90.000000
_cell_angle_gamma 90.000000
_cell_volume 3721.264937
_symmetry_space_group_name_H-M "C M C 21"
_symmetry_group_IT_number 36
_symmetry_cell_setting 'orthorhombic'
loop_
_space_group_symop_operation_xyz
x,y,z
-x,-y,1/2+z
x,-y,1/2+z
-x,y,z
1/2+x,1/2+y,z
1/2-x,1/2-y,1/2+z
1/2+x,1/2-y,1/2+z
1/2-x,1/2+y,z
loop_
_atom_site_type_symbol
_atom_site_label
_atom_site_fract_x
_atom_site_fract_y
_atom_site_fract_z
Si Si1 0.823591 0.069063 0.779830
Si Si2 0.324254 0.297610 0.496461
Si Si3 0.176729 0.826473 0.293168
Si Si4 0.330467 0.842566 0.654373
Si Si5 0.177383 0.503462 0.407829
Si Si6 0.170100 0.570189 0.252511
Si Si7 0.171269 0.486494 0.121825
Si Si8 0.668755 0.742695 0.640216
O O1 0.768833 0.121482 0.784727
O O2 0.770418 0.049262 0.679641
O O3 0.000000 0.064916 0.787359
O O4 0.750313 0.042792 0.867873
O O5 0.500000 0.296736 0.501320
O O6 0.265267 0.303779 0.390120
O O7 0.263588 0.341123 0.556933
O O8 0.260560 0.250209 0.542539
O O9 0.240682 0.796881 0.205249
O O10 0.000000 0.823631 0.291000
O O11 0.500000 0.857234 0.629932
O O12 0.258813 0.880310 0.725663
O O13 0.327025 0.791163 0.698845
O O14 0.240021 0.546193 0.345261
O O15 0.227841 0.512360 0.514417
O O16 0.000000 0.498050 0.397808
O O17 0.190907 0.537292 0.162734
O O18 0.000000 0.578767 0.277618
O O19 0.000000 0.470687 0.128321
O O20 0.500000 0.730136 0.612432
#
# Coordination Sequence:
#
# PCOD8175058 Si02
#       8
#     8   8   8   8   8   8   8   8
#     4  10  20  33  50  74 102 135 171 202 242 301
#     4   9  17  30  48  72  97 119 155 203 244 279
#     4   9  18  33  51  71 101 136 161 196 248 297
#     4   8  15  28  48  68  90 122 158 191 234 296
#     4   9  18  32  51  72  99 131 164 208 252 291
#     4   8  14  27  46  70  94 121 159 198 238 286
#     4   9  18  33  50  70 101 132 162 207 253 287
#     4   8  16  32  50  67  92 128 162 191 237 295
#
# _framework density 17.198453000000001
#
# number of rings (size 3 to 8) (size 9 to 14) (size 15 to 20)
#    0.750    2.500    0.000    1.125    1.750    0.500 
#    0.000    8.125    0.000    3.000    0.000    0.000 
#    0.000    0.000    0.000    0.000    0.000    0.000 
#
# Total GULP energy -396418.742238 kJ/mol
# GULP energy per Si atom -12388.085695 kJ/mol
# Density = 1.715931 g / cm^3
# Si number density = 17.198453 Si / 1000 Ang^3
#
#
#
# Elastic Constant Matrix: (Units=GPa)
#
#
# Indices 1 2 3 4 5 6 
#
# 1 44.4548 25.5365 29.6785 0.0000 0.0000 0.0000
# 2 25.5365 82.7356 47.2586 0.0000 0.0000 0.0000
# 3 29.6785 47.2586 122.1662 0.0000 0.0000 0.0000
# 4 0.0000 0.0000 0.0000 21.5919 0.0000 0.0000
# 5 0.0000 0.0000 0.0000 0.0000 23.3037 0.0000
# 6 0.0000 0.0000 0.0000 0.0000 0.0000 20.2687
#
#
#
# Elastic Compliance Matrix: (Units=1/GPa)
#
#
# Indices 1 2 3 4 5 6 
#
# 1 0.029257 -0.006380 -0.004639 0.000000 0.000000 0.000000
# 2 -0.006380 0.016906 -0.004990 0.000000 0.000000 0.000000
# 3 -0.004639 -0.004990 0.011243 0.000000 0.000000 0.000000
# 4 0.000000 0.000000 0.000000 0.046314 0.000000 0.000000
# 5 0.000000 0.000000 0.000000 0.000000 0.042912 0.000000
# 6 0.000000 0.000000 0.000000 0.000000 0.000000 0.049337
#
#
# Mechanical properties :
#
#
# Convention : Reuss Voigt Hill
#
# Bulk Modulus (GPa) = 39.39023 50.47820 44.93421
# Shear Modulus (GPa) = 21.14607 22.82506 21.98556
#
# Velocity S-wave (km/s) = 3.51027 3.64697 3.57927
# Velocity P-wave (km/s) = 6.27554 6.86644 6.57763
#
# Compressibility (1/GPa) = 0.02538701
#
# Stress axis : x y z
#
# Youngs Moduli (GPa) = 34.17966 59.14970 88.94420
#
# Poissons Ratio (x) = 0.37739 0.41266
# Poissons Ratio (y) = 0.21807 0.44383
# Poissons Ratio (z) = 0.15858 0.29516
#
# Static dielectric constant tensor:
#      x y z
#    x 2.927100 0.000000 0.000000 
#    y 0.000000 3.278140 0.000000 
#    z 0.000000 0.000000 3.271130 
# 
# 
# High freq. dielectric constant tensor:
#      x y z
#    x 1.637230 0.000000 0.000000 
#    y 0.000000 1.655440 0.000000 
#    z 0.000000 0.000000 1.655520 
# 
# From -- ./inp_files/11184.got.cif
#   From: 2010.03.12/outbox.cif.g09.slc.cpg/sg36_6_cif.got.tgz:11184.got - 2010.04.14 02:13:53.
