data_PCOD8175534
_publ_section_title
;
Structure prediction by ZEFSAII (Michael W. Deem and Ramdas Pophale) SiO2 
 PCOD8175534
Probable space group: C M C 21
;
_chemical_formula_sum "Si O2"
_cell_formula_units_Z 48
_cell_length_a 8.438941
_cell_length_b 14.923355
_cell_length_c 18.851713
_cell_angle_alpha 90.000000
_cell_angle_beta 90.000000
_cell_angle_gamma 90.000000
_cell_volume 2374.134069
_symmetry_space_group_name_H-M "C M C 21"
_symmetry_group_IT_number 36
_symmetry_cell_setting 'orthorhombic'
loop_
_space_group_symop_operation_xyz
x,y,z
-x,-y,1/2+z
x,-y,1/2+z
-x,y,z
1/2+x,1/2+y,z
1/2-x,1/2-y,1/2+z
1/2+x,1/2-y,1/2+z
1/2-x,1/2+y,z
loop_
_atom_site_type_symbol
_atom_site_label
_atom_site_fract_x
_atom_site_fract_y
_atom_site_fract_z
Si Si1 0.182443 0.379710 0.029460
Si Si2 0.686912 0.713990 0.278663
Si Si3 0.316649 0.226551 0.935174
Si Si4 0.685393 0.363471 0.183417
Si Si5 0.185014 0.038497 0.947608
Si Si6 0.312525 0.488252 0.792678
O O1 0.215843 0.369017 0.112057
O O2 0.000000 0.358800 0.014233
O O3 0.289169 0.311189 0.985264
O O4 0.224451 0.480550 0.006430
O O5 0.500000 0.724497 0.266111
O O6 0.737391 0.749093 0.355865
O O7 0.783373 0.767909 0.219665
O O8 0.741623 0.611077 0.271080
O O9 0.500000 0.200526 0.937323
O O10 0.215400 0.142839 0.963371
O O11 0.500000 0.374996 0.167165
O O12 0.751629 0.441655 0.234833
O O13 0.000000 0.017017 0.953439
O O14 0.255109 0.013576 0.870107
O O15 0.500000 0.494988 0.797054
#
# Coordination Sequence:
#
# PCOD8175534 Si02
#       6
#     8   8   8   8   8   8
#     4  12  26  43  62  91 129 171 214 262 317 371
#     4  10  20  38  63  92 124 160 206 258 310 375
#     4  11  22  39  65  96 127 165 211 260 312 375
#     4  11  23  41  63  91 126 165 207 259 320 378
#     4  11  21  40  66  95 127 165 209 259 314 376
#     4   9  19  37  63  91 121 160 205 250 309 373
#
# _framework density 20.217898000000002
#
# number of rings (size 3 to 8) (size 9 to 14) (size 15 to 20)
#    0.000    1.333    3.333    3.000    0.000    2.000 
#    0.000    6.667    0.000    0.000    0.000    0.000 
#    0.000    0.000    0.000    0.000    0.000    0.000 
#
# Total GULP energy -297758.108424 kJ/mol
# GULP energy per Si atom -12406.587851 kJ/mol
# Density = 2.017188 g / cm^3
# Si number density = 20.217898 Si / 1000 Ang^3
#
#
#
# Elastic Constant Matrix: (Units=GPa)
#
#
# Indices 1 2 3 4 5 6 
#
# 1 51.1932 14.5348 22.4546 0.0000 0.0000 0.0000
# 2 14.5348 106.2463 14.5064 0.0000 0.0000 0.0000
# 3 22.4546 14.5064 89.2625 0.0000 0.0000 0.0000
# 4 0.0000 0.0000 0.0000 36.3749 0.0000 0.0000
# 5 0.0000 0.0000 0.0000 0.0000 28.1356 0.0000
# 6 0.0000 0.0000 0.0000 0.0000 0.0000 33.2580
#
#
#
# Elastic Compliance Matrix: (Units=1/GPa)
#
#
# Indices 1 2 3 4 5 6 
#
# 1 0.022520 -0.002360 -0.005282 0.000000 0.000000 0.000000
# 2 -0.002360 0.009873 -0.001011 0.000000 0.000000 0.000000
# 3 -0.005282 -0.001011 0.012696 0.000000 0.000000 0.000000
# 4 0.000000 0.000000 0.000000 0.027491 0.000000 0.000000
# 5 0.000000 0.000000 0.000000 0.000000 0.035542 0.000000
# 6 0.000000 0.000000 0.000000 0.000000 0.000000 0.030068
#
#
# Mechanical properties :
#
#
# Convention : Reuss Voigt Hill
#
# Bulk Modulus (GPa) = 35.99109 38.85485 37.42297
# Shear Modulus (GPa) = 30.34772 32.56745 31.45759
#
# Velocity S-wave (km/s) = 3.87852 4.01786 3.94880
# Velocity P-wave (km/s) = 6.15609 6.38624 6.27222
#
# Compressibility (1/GPa) = 0.02778465
#
# Stress axis : x y z
#
# Youngs Moduli (GPa) = 44.40399 101.28706 78.76599
#
# Poissons Ratio (x) = 0.23901 0.41602
# Poissons Ratio (y) = 0.10478 0.07962
# Poissons Ratio (z) = 0.23453 0.10239
#
# Static dielectric constant tensor:
#      x y z
#    x 3.441870 0.000000 0.000000 
#    y 0.000000 3.828000 0.000000 
#    z 0.000000 0.000000 3.661480 
# 
# 
# High freq. dielectric constant tensor:
#      x y z
#    x 1.777200 0.000000 0.000000 
#    y 0.000000 1.803280 0.000000 
#    z 0.000000 0.000000 1.786110 
# 
# From -- ./inp_files/13481.got.cif
#   From: 2010.03.12/outbox.cif.g09.slc.cpg/sg36_7_cif.got.tgz:13481.got - 2010.04.14 02:13:53.
