data_PCOD8175368
_publ_section_title
;
Structure prediction by ZEFSAII (Michael W. Deem and Ramdas Pophale) SiO2 
 PCOD8175368
Probable space group: C M C 21
;
_chemical_formula_sum "Si O2"
_cell_formula_units_Z 64
_cell_length_a 9.288125
_cell_length_b 19.630507
_cell_length_c 18.421882
_cell_angle_alpha 90.000000
_cell_angle_beta 90.000000
_cell_angle_gamma 90.000000
_cell_volume 3358.872850
_symmetry_space_group_name_H-M "C M C 21"
_symmetry_group_IT_number 36
_symmetry_cell_setting 'orthorhombic'
loop_
_space_group_symop_operation_xyz
x,y,z
-x,-y,1/2+z
x,-y,1/2+z
-x,y,z
1/2+x,1/2+y,z
1/2-x,1/2-y,1/2+z
1/2+x,1/2-y,1/2+z
1/2-x,1/2+y,z
loop_
_atom_site_type_symbol
_atom_site_label
_atom_site_fract_x
_atom_site_fract_y
_atom_site_fract_z
Si Si1 0.669108 0.201134 0.694950
Si Si2 0.669962 0.882363 0.472297
Si Si3 0.668212 0.179873 0.127243
Si Si4 0.170813 0.272110 0.357313
Si Si5 0.832836 0.879255 0.881477
Si Si6 0.164820 0.428012 0.747251
Si Si7 0.834856 0.550865 0.645915
Si Si8 0.668384 0.484626 0.003033
O O1 0.500000 0.214800 0.691664
O O2 0.746386 0.250388 0.638127
O O3 0.728487 0.214042 0.776199
O O4 0.709718 0.125511 0.671069
O O5 0.500000 0.896357 0.465138
O O6 0.709535 0.850632 0.549758
O O7 0.728534 0.830572 0.411023
O O8 0.753477 0.953164 0.462218
O O9 0.500000 0.195963 0.131599
O O10 0.718146 0.126574 0.188145
O O11 0.227168 0.198159 0.384136
O O12 0.000000 0.274108 0.359337
O O13 0.757090 0.922850 0.819397
O O14 0.000000 0.878405 0.861779
O O15 0.803416 0.915354 0.958204
O O16 0.186352 0.503310 0.715696
O O17 0.000000 0.414274 0.767725
O O18 0.732371 0.525399 0.582467
O O19 0.000000 0.546940 0.618351
O O20 0.500000 0.501101 0.009312
#
# Coordination Sequence:
#
# PCOD8175368 Si02
#       8
#     8   8   8   8   8   8   8   8
#     4  10  21  37  60  87 114 149 192 238 285 340
#     4  10  21  39  63  83 111 154 194 236 286 344
#     4  10  20  36  59  85 111 147 190 233 286 343
#     4   9  19  37  60  83 109 149 192 228 280 344
#     4  10  22  39  58  83 116 152 192 235 288 349
#     4  10  20  37  60  85 110 147 195 237 280 339
#     4  10  22  40  60  86 117 151 197 239 281 346
#     4  11  24  39  58  86 118 153 192 238 290 341
#
# _framework density 19.054012
#
# number of rings (size 3 to 8) (size 9 to 14) (size 15 to 20)
#    0.000    2.000    2.500    0.375    3.500    2.500 
#    0.000    1.250    0.000    0.000    0.000    0.000 
#    0.000    0.000    0.000    0.000    0.000    0.000 
#
# Total GULP energy -396915.455549 kJ/mol
# GULP energy per Si atom -12403.607986 kJ/mol
# Density = 1.901064 g / cm^3
# Si number density = 19.054012 Si / 1000 Ang^3
#
#
#
# Elastic Constant Matrix: (Units=GPa)
#
#
# Indices 1 2 3 4 5 6 
#
# 1 45.2070 39.9878 27.0962 0.0000 0.0000 0.0000
# 2 39.9878 133.6999 24.8285 0.0000 0.0000 0.0000
# 3 27.0962 24.8285 65.7303 0.0000 0.0000 0.0000
# 4 0.0000 0.0000 0.0000 32.6338 0.0000 0.0000
# 5 0.0000 0.0000 0.0000 0.0000 23.7283 0.0000
# 6 0.0000 0.0000 0.0000 0.0000 0.0000 29.4616
#
#
#
# Elastic Compliance Matrix: (Units=1/GPa)
#
#
# Indices 1 2 3 4 5 6 
#
# 1 0.037152 -0.008891 -0.011957 0.000000 0.000000 0.000000
# 2 -0.008891 0.010172 -0.000177 0.000000 0.000000 0.000000
# 3 -0.011957 -0.000177 0.020209 0.000000 0.000000 0.000000
# 4 0.000000 0.000000 0.000000 0.030643 0.000000 0.000000
# 5 0.000000 0.000000 0.000000 0.000000 0.042144 0.000000
# 6 0.000000 0.000000 0.000000 0.000000 0.000000 0.033943
#
#
# Mechanical properties :
#
#
# Convention : Reuss Voigt Hill
#
# Bulk Modulus (GPa) = 39.24152 47.60692 43.42422
# Shear Modulus (GPa) = 22.24140 27.34637 24.79388
#
# Velocity S-wave (km/s) = 3.42026 3.79252 3.61119
# Velocity P-wave (km/s) = 6.01973 6.64959 6.34248
#
# Compressibility (1/GPa) = 0.02548321
#
# Stress axis : x y z
#
# Youngs Moduli (GPa) = 26.91664 98.31375 49.48183
#
# Poissons Ratio (x) = 0.87413 0.59164
# Poissons Ratio (y) = 0.23932 0.00875
# Poissons Ratio (z) = 0.32183 0.01739
#
# Static dielectric constant tensor:
#      x y z
#    x 3.278160 0.000000 0.000000 
#    y 0.000000 3.681270 0.000000 
#    z 0.000000 0.000000 3.496470 
# 
# 
# High freq. dielectric constant tensor:
#      x y z
#    x 1.718840 0.000000 0.000000 
#    y 0.000000 1.756130 0.000000 
#    z 0.000000 0.000000 1.743580 
# 
# From -- ./inp_files/13765.got.cif
#   From: 2010.03.12/outbox.cif.g09.slc.cpg/sg36_7_cif.got.tgz:13765.got - 2010.04.14 02:13:53.
