data_PCOD8175261
_publ_section_title
;
Structure prediction by ZEFSAII (Michael W. Deem and Ramdas Pophale) SiO2 
 PCOD8175261
Probable space group: C M C 21
;
_chemical_formula_sum "Si O2"
_cell_formula_units_Z 48
_cell_length_a 13.461932
_cell_length_b 16.835963
_cell_length_c 11.467709
_cell_angle_alpha 90.000000
_cell_angle_beta 90.000000
_cell_angle_gamma 90.000000
_cell_volume 2599.094194
_symmetry_space_group_name_H-M "C M C 21"
_symmetry_group_IT_number 36
_symmetry_cell_setting 'orthorhombic'
loop_
_space_group_symop_operation_xyz
x,y,z
-x,-y,1/2+z
x,-y,1/2+z
-x,y,z
1/2+x,1/2+y,z
1/2-x,1/2-y,1/2+z
1/2+x,1/2-y,1/2+z
1/2-x,1/2+y,z
loop_
_atom_site_type_symbol
_atom_site_label
_atom_site_fract_x
_atom_site_fract_y
_atom_site_fract_z
Si Si1 0.389207 0.660101 0.740690
Si Si2 0.880996 0.967285 0.413433
Si Si3 0.884238 0.252697 0.522039
Si Si4 0.709522 0.651133 0.086132
Si Si5 0.610608 0.783685 0.947562
Si Si6 0.206254 0.864144 0.860844
O O1 0.500000 0.635734 0.706313
O O2 0.340264 0.582104 0.800264
O O3 0.340669 0.691431 0.621010
O O4 0.386802 0.731240 0.831893
O O5 0.836118 0.928050 0.529694
O O6 0.000000 0.962473 0.421439
O O7 0.845325 0.056678 0.406356
O O8 0.820882 0.333660 0.535310
O O9 0.862390 0.210830 0.398502
O O10 0.000000 0.273631 0.537407
O O11 0.714102 0.636357 0.222851
O O12 0.642688 0.728558 0.056417
O O13 0.500000 0.817422 0.971000
O O14 0.686017 0.856413 0.923494
#
# Coordination Sequence:
#
# PCOD8175261 Si02
#       6
#     8   8   8   8   8   8
#     4   8  15  32  55  75 102 142 177 211 266 326
#     4  10  22  36  53  80 114 146 179 225 282 332
#     4  10  20  35  57  84 111 143 187 232 274 322
#     4  10  21  37  57  81 111 148 188 228 271 328
#     4   9  18  36  59  80 106 147 187 224 271 327
#     4  11  22  34  56  88 112 144 187 230 275 329
#
# _framework density 18.467973000000001
#
# number of rings (size 3 to 8) (size 9 to 14) (size 15 to 20)
#    0.000    2.333    1.667    2.000    2.333    2.667 
#    0.000    0.833    0.000    0.000    0.000    0.000 
#    0.000    0.000    0.000    0.000    0.000    0.000 
#
# Total GULP energy -297428.222490 kJ/mol
# GULP energy per Si atom -12392.842604 kJ/mol
# Density = 1.842594 g / cm^3
# Si number density = 18.467973 Si / 1000 Ang^3
#
#
#
# Elastic Constant Matrix: (Units=GPa)
#
#
# Indices 1 2 3 4 5 6 
#
# 1 127.4798 43.6842 35.2893 0.0000 0.0000 0.0000
# 2 43.6842 77.1519 35.1741 0.0000 0.0000 0.0000
# 3 35.2893 35.1741 57.9255 0.0000 0.0000 0.0000
# 4 0.0000 0.0000 0.0000 21.6543 0.0000 0.0000
# 5 0.0000 0.0000 0.0000 0.0000 19.4720 0.0000
# 6 0.0000 0.0000 0.0000 0.0000 0.0000 31.2187
#
#
#
# Elastic Compliance Matrix: (Units=1/GPa)
#
#
# Indices 1 2 3 4 5 6 
#
# 1 0.010298 -0.004108 -0.003779 0.000000 0.000000 0.000000
# 2 -0.004108 0.019562 -0.009376 0.000000 0.000000 0.000000
# 3 -0.003779 -0.009376 0.025259 0.000000 0.000000 0.000000
# 4 0.000000 0.000000 0.000000 0.046180 0.000000 0.000000
# 5 0.000000 0.000000 0.000000 0.000000 0.051356 0.000000
# 6 0.000000 0.000000 0.000000 0.000000 0.000000 0.032032
#
#
# Mechanical properties :
#
#
# Convention : Reuss Voigt Hill
#
# Bulk Modulus (GPa) = 48.56026 54.53917 51.54971
# Shear Modulus (GPa) = 22.11615 24.36295 23.23955
#
# Velocity S-wave (km/s) = 3.46430 3.63602 3.55120
# Velocity P-wave (km/s) = 6.50794 6.87193 6.69241
#
# Compressibility (1/GPa) = 0.02059297
#
# Stress axis : x y z
#
# Youngs Moduli (GPa) = 97.10336 51.11958 39.58912
#
# Poissons Ratio (x) = 0.20999 0.14963
# Poissons Ratio (y) = 0.39889 0.37119
# Poissons Ratio (z) = 0.36700 0.47930
#
# Static dielectric constant tensor:
#      x y z
#    x 3.535970 0.000000 0.000000 
#    y 0.000000 3.257810 0.000000 
#    z 0.000000 0.000000 3.507020 
# 
# 
# High freq. dielectric constant tensor:
#      x y z
#    x 1.709530 0.000000 0.000000 
#    y 0.000000 1.688320 0.000000 
#    z 0.000000 0.000000 1.722820 
# 
# From -- ./inp_files/8392.got.cif
#   From: 2010.03.12/outbox.cif.g09.slc.cpg/sg36_5_cif.got.tgz:8392.got - 2010.04.14 02:13:53.
