data_PCOD8175573
_publ_section_title
;
Structure prediction by ZEFSAII (Michael W. Deem and Ramdas Pophale) SiO2 
 PCOD8175573
Probable space group: C M C 21
;
_chemical_formula_sum "Si O2"
_cell_formula_units_Z 48
_cell_length_a 8.980181
_cell_length_b 19.899211
_cell_length_c 13.793760
_cell_angle_alpha 90.000000
_cell_angle_beta 90.000000
_cell_angle_gamma 90.000000
_cell_volume 2464.924449
_symmetry_space_group_name_H-M "C M C 21"
_symmetry_group_IT_number 36
_symmetry_cell_setting 'orthorhombic'
loop_
_space_group_symop_operation_xyz
x,y,z
-x,-y,1/2+z
x,-y,1/2+z
-x,y,z
1/2+x,1/2+y,z
1/2-x,1/2-y,1/2+z
1/2+x,1/2-y,1/2+z
1/2-x,1/2+y,z
loop_
_atom_site_type_symbol
_atom_site_label
_atom_site_fract_x
_atom_site_fract_y
_atom_site_fract_z
Si Si1 0.673160 0.330168 0.337990
Si Si2 0.169006 0.513144 0.518260
Si Si3 0.827105 0.689038 0.243371
Si Si4 0.826188 0.357105 0.531818
Si Si5 0.829454 0.547763 0.731894
Si Si6 0.824790 0.930589 0.836677
O O1 0.500000 0.346084 0.347413
O O2 0.703932 0.265640 0.271826
O O3 0.738291 0.320086 0.445602
O O4 0.750154 0.392224 0.286193
O O5 0.214445 0.435824 0.534543
O O6 0.183553 0.555613 0.616737
O O7 0.282088 0.547231 0.444558
O O8 0.000000 0.517236 0.478617
O O9 0.775583 0.676951 0.132678
O O10 0.730522 0.644699 0.317118
O O11 0.000000 0.669555 0.255742
O O12 0.000000 0.345633 0.514095
O O13 0.753823 0.477743 0.758467
O O14 0.000000 0.546040 0.766367
O O15 0.000000 0.935089 0.823983
#
# Coordination Sequence:
#
# PCOD8175573 Si02
#       6
#     8   8   8   8   8   8
#     4  11  24  40  62  94 128 159 199 257 310 359
#     4  10  21  38  64  91 120 163 208 249 299 363
#     4  10  23  44  64  86 124 167 206 249 302 365
#     4  10  20  39  65  87 118 167 209 245 301 369
#     4  11  22  40  64  88 120 162 206 247 297 364
#     4  12  24  37  61  94 124 154 200 257 305 356
#
# _framework density 19.473213999999999
#
# number of rings (size 3 to 8) (size 9 to 14) (size 15 to 20)
#    0.000    1.333    3.333    2.500    0.000    4.667 
#    0.000    3.333    0.000    0.000    0.000    0.000 
#    0.000    0.000    0.000    0.000    0.000    0.000 
#
# Total GULP energy -297721.081742 kJ/mol
# GULP energy per Si atom -12405.045073 kJ/mol
# Density = 1.942889 g / cm^3
# Si number density = 19.473214 Si / 1000 Ang^3
#
#
#
# Elastic Constant Matrix: (Units=GPa)
#
#
# Indices 1 2 3 4 5 6 
#
# 1 88.2387 38.2623 40.3082 0.0000 0.0000 0.0000
# 2 38.2623 59.2047 27.0450 0.0000 0.0000 0.0000
# 3 40.3082 27.0450 113.0736 0.0000 0.0000 0.0000
# 4 0.0000 0.0000 0.0000 30.8725 0.0000 0.0000
# 5 0.0000 0.0000 0.0000 0.0000 25.5666 0.0000
# 6 0.0000 0.0000 0.0000 0.0000 0.0000 28.5940
#
#
#
# Elastic Compliance Matrix: (Units=1/GPa)
#
#
# Indices 1 2 3 4 5 6 
#
# 1 0.017142 -0.009303 -0.003886 0.000000 0.000000 0.000000
# 2 -0.009303 0.024012 -0.002427 0.000000 0.000000 0.000000
# 3 -0.003886 -0.002427 0.010809 0.000000 0.000000 0.000000
# 4 0.000000 0.000000 0.000000 0.032391 0.000000 0.000000
# 5 0.000000 0.000000 0.000000 0.000000 0.039114 0.000000
# 6 0.000000 0.000000 0.000000 0.000000 0.000000 0.034972
#
#
# Mechanical properties :
#
#
# Convention : Reuss Voigt Hill
#
# Bulk Modulus (GPa) = 48.23539 52.41645 50.32592
# Shear Modulus (GPa) = 25.43469 27.33339 26.38404
#
# Velocity S-wave (km/s) = 3.61797 3.75058 3.68487
# Velocity P-wave (km/s) = 6.50207 6.76251 6.63356
#
# Compressibility (1/GPa) = 0.02073166
#
# Stress axis : x y z
#
# Youngs Moduli (GPa) = 58.33615 41.64655 92.51291
#
# Poissons Ratio (x) = 0.38746 0.35946
# Poissons Ratio (y) = 0.54273 0.22449
# Poissons Ratio (z) = 0.22667 0.10106
#
# Static dielectric constant tensor:
#      x y z
#    x 3.541170 0.000000 0.000000 
#    y 0.000000 3.476980 0.000000 
#    z 0.000000 0.000000 3.710280 
# 
# 
# High freq. dielectric constant tensor:
#      x y z
#    x 1.758650 0.000000 0.000000 
#    y 0.000000 1.751850 0.000000 
#    z 0.000000 0.000000 1.772540 
# 
# From -- ./inp_files/10376.got.cif
#   From: 2010.03.12/outbox.cif.g09.slc.cpg/sg36_6_cif.got.tgz:10376.got - 2010.04.14 02:13:53.
