data_PCOD8175673
_publ_section_title
;
Structure prediction by ZEFSAII (Michael W. Deem and Ramdas Pophale) SiO2 
 PCOD8175673
Probable space group: C M C 21
;
_chemical_formula_sum "Si O2"
_cell_formula_units_Z 64
_cell_length_a 9.254456
_cell_length_b 15.186122
_cell_length_c 23.565269
_cell_angle_alpha 90.000000
_cell_angle_beta 90.000000
_cell_angle_gamma 90.000000
_cell_volume 3311.846359
_symmetry_space_group_name_H-M "C M C 21"
_symmetry_group_IT_number 36
_symmetry_cell_setting 'orthorhombic'
loop_
_space_group_symop_operation_xyz
x,y,z
-x,-y,1/2+z
x,-y,1/2+z
-x,y,z
1/2+x,1/2+y,z
1/2-x,1/2-y,1/2+z
1/2+x,1/2-y,1/2+z
1/2-x,1/2+y,z
loop_
_atom_site_type_symbol
_atom_site_label
_atom_site_fract_x
_atom_site_fract_y
_atom_site_fract_z
Si Si1 0.169242 0.448536 0.344800
Si Si2 0.328074 0.358284 0.035198
Si Si3 0.165969 0.790204 0.598702
Si Si4 0.166627 0.384983 0.919755
Si Si5 0.168917 0.228291 0.833440
Si Si6 0.661690 0.028308 0.719578
Si Si7 0.665496 0.484608 0.614040
Si Si8 0.837229 0.266930 0.221035
O O1 0.202750 0.520641 0.392232
O O2 0.255855 0.359322 0.358334
O O3 0.217728 0.487812 0.283749
O O4 0.000000 0.423827 0.341527
O O5 0.500000 0.354363 0.033352
O O6 0.268230 0.266235 0.058341
O O7 0.270563 0.437808 0.074843
O O8 0.270791 0.374084 0.972539
O O9 0.184352 0.892235 0.580901
O O10 0.213322 0.783233 0.664470
O O11 0.000000 0.758752 0.591269
O O12 0.200715 0.307685 0.875856
O O13 0.000000 0.381127 0.939180
O O14 0.231054 0.256904 0.772415
O O15 0.000000 0.209438 0.826668
O O16 0.500000 0.991732 0.712924
O O17 0.670346 0.130948 0.705610
O O18 0.758601 0.976749 0.674845
O O19 0.500000 0.504785 0.627359
O O20 0.000000 0.239850 0.238599
#
# Coordination Sequence:
#
# PCOD8175673 Si02
#       8
#     8   8   8   8   8   8   8   8
#     4   9  20  39  59  84 118 155 193 232 283 350
#     4  11  24  41  59  85 118 150 194 249 290 334
#     4  10  21  39  60  83 115 157 193 230 289 352
#     4  10  23  42  62  82 113 159 199 234 285 349
#     4  10  21  36  58  88 117 148 190 242 291 332
#     4   9  17  32  57  85 116 151 188 229 278 342
#     4  10  22  37  56  85 117 148 188 240 291 336
#     4   9  18  34  57  84 118 156 189 226 283 351
#
# _framework density 19.324566999999998
#
# number of rings (size 3 to 8) (size 9 to 14) (size 15 to 20)
#    0.000    2.250    1.250    1.500    1.750    6.000 
#    0.000    3.750    0.000    0.000    0.000    0.000 
#    0.000    0.000    0.000    0.000    0.000    0.000 
#
# Total GULP energy -396844.460308 kJ/mol
# GULP energy per Si atom -12401.389385 kJ/mol
# Density = 1.928058 g / cm^3
# Si number density = 19.324567 Si / 1000 Ang^3
#
#
#
# Elastic Constant Matrix: (Units=GPa)
#
#
# Indices 1 2 3 4 5 6 
#
# 1 64.8197 22.7748 34.2061 0.0000 0.0000 0.0000
# 2 22.7748 55.2528 18.0296 0.0000 0.0000 0.0000
# 3 34.2061 18.0296 71.8628 0.0000 0.0000 0.0000
# 4 0.0000 0.0000 0.0000 20.3321 0.0000 0.0000
# 5 0.0000 0.0000 0.0000 0.0000 35.4424 0.0000
# 6 0.0000 0.0000 0.0000 0.0000 0.0000 26.4729
#
#
#
# Elastic Compliance Matrix: (Units=1/GPa)
#
#
# Indices 1 2 3 4 5 6 
#
# 1 0.022438 -0.006278 -0.009105 0.000000 0.000000 0.000000
# 2 -0.006278 0.021469 -0.002398 0.000000 0.000000 0.000000
# 3 -0.009105 -0.002398 0.018851 0.000000 0.000000 0.000000
# 4 0.000000 0.000000 0.000000 0.049183 0.000000 0.000000
# 5 0.000000 0.000000 0.000000 0.000000 0.028215 0.000000
# 6 0.000000 0.000000 0.000000 0.000000 0.000000 0.037774
#
#
# Mechanical properties :
#
#
# Convention : Reuss Voigt Hill
#
# Bulk Modulus (GPa) = 36.77054 37.99514 37.38284
# Shear Modulus (GPa) = 22.46603 24.24447 23.35525
#
# Velocity S-wave (km/s) = 3.41334 3.54587 3.48023
# Velocity P-wave (km/s) = 5.88249 6.03891 5.96121
#
# Compressibility (1/GPa) = 0.02719569
#
# Stress axis : x y z
#
# Youngs Moduli (GPa) = 44.56702 46.57923 53.04718
#
# Poissons Ratio (x) = 0.29241 0.48301
# Poissons Ratio (y) = 0.27978 0.12722
# Poissons Ratio (z) = 0.40580 0.11170
#
# Static dielectric constant tensor:
#      x y z
#    x 3.463420 0.000000 0.000000 
#    y 0.000000 3.564230 0.000000 
#    z 0.000000 0.000000 3.440820 
# 
# 
# High freq. dielectric constant tensor:
#      x y z
#    x 1.746810 0.000000 0.000000 
#    y 0.000000 1.756230 0.000000 
#    z 0.000000 0.000000 1.746730 
# 
# From -- ./inp_files/16604.got.cif
#   From: 2010.03.12/outbox.cif.g09.slc.cpg/sg36_9_cif.got.tgz:16604.got - 2010.04.14 02:13:53.
