data_PCOD8175187
_publ_section_title
;
Structure prediction by ZEFSAII (Michael W. Deem and Ramdas Pophale) SiO2 
 PCOD8175187
Probable space group: C M C 21
;
_chemical_formula_sum "Si O2"
_cell_formula_units_Z 64
_cell_length_a 8.844533
_cell_length_b 15.509398
_cell_length_c 23.837989
_cell_angle_alpha 90.000000
_cell_angle_beta 90.000000
_cell_angle_gamma 90.000000
_cell_volume 3269.937581
_symmetry_space_group_name_H-M "C M C 21"
_symmetry_group_IT_number 36
_symmetry_cell_setting 'orthorhombic'
loop_
_space_group_symop_operation_xyz
x,y,z
-x,-y,1/2+z
x,-y,1/2+z
-x,y,z
1/2+x,1/2+y,z
1/2-x,1/2-y,1/2+z
1/2+x,1/2-y,1/2+z
1/2-x,1/2+y,z
loop_
_atom_site_type_symbol
_atom_site_label
_atom_site_fract_x
_atom_site_fract_y
_atom_site_fract_z
Si Si1 0.179920 0.376395 0.266240
Si Si2 0.321349 0.719402 0.067561
Si Si3 0.320524 0.879690 0.140213
Si Si4 0.171424 0.224655 0.940409
Si Si5 0.822444 0.210680 0.333795
Si Si6 0.179064 0.537252 0.337885
Si Si7 0.820802 0.461938 0.565183
Si Si8 0.173544 0.024607 0.947184
O O1 0.245255 0.378443 0.203185
O O2 0.238286 0.290305 0.296830
O O3 0.241520 0.459355 0.299686
O O4 0.000000 0.377940 0.265672
O O5 0.500000 0.703553 0.072509
O O6 0.260436 0.795250 0.107542
O O7 0.240711 0.630645 0.084970
O O8 0.279820 0.745955 0.003980
O O9 0.500000 0.875800 0.140751
O O10 0.266739 0.967428 0.110474
O O11 0.283279 0.274377 0.899030
O O12 0.000000 0.255531 0.928954
O O13 0.187830 0.123515 0.929229
O O14 0.737998 0.126005 0.310678
O O15 0.000000 0.197740 0.327265
O O16 0.244683 0.532372 0.400495
O O17 0.000000 0.536182 0.340915
O O18 0.754600 0.491973 0.505966
O O19 0.000000 0.457480 0.560057
O O20 0.000000 0.995964 0.952441
#
# Coordination Sequence:
#
# PCOD8175187 Si02
#       8
#     8   8   8   8   8   8   8   8
#     4   9  20  39  59  81 114 151 194 239 282 339
#     4   9  19  36  57  82 114 152 188 229 285 341
#     4   9  19  37  60  83 111 153 195 233 281 341
#     4   9  18  33  55  82 115 149 184 232 284 339
#     4  11  22  36  56  85 114 150 193 237 285 337
#     4  11  22  37  58  85 115 152 193 236 290 345
#     4  10  20  34  57  87 116 149 190 235 285 340
#     4  10  20  36  58  85 119 152 187 237 290 342
#
# _framework density 19.572237999999999
#
# number of rings (size 3 to 8) (size 9 to 14) (size 15 to 20)
#    0.000    2.250    1.250    2.250    1.750    3.000 
#    0.000    1.250    0.000    7.500    0.000    0.000 
#    0.000    0.000    0.000    0.000    0.000    0.000 
#
# Total GULP energy -396865.523975 kJ/mol
# GULP energy per Si atom -12402.047624 kJ/mol
# Density = 1.952769 g / cm^3
# Si number density = 19.572238 Si / 1000 Ang^3
#
#
#
# Elastic Constant Matrix: (Units=GPa)
#
#
# Indices 1 2 3 4 5 6 
#
# 1 62.9071 41.3270 33.0850 0.0000 0.0000 0.0000
# 2 41.3270 152.8864 86.1901 0.0000 0.0000 0.0000
# 3 33.0850 86.1901 135.7066 0.0000 0.0000 0.0000
# 4 0.0000 0.0000 0.0000 27.1965 0.0000 0.0000
# 5 0.0000 0.0000 0.0000 0.0000 17.8394 0.0000
# 6 0.0000 0.0000 0.0000 0.0000 0.0000 31.6209
#
#
#
# Elastic Compliance Matrix: (Units=1/GPa)
#
#
# Indices 1 2 3 4 5 6 
#
# 1 0.019749 -0.004088 -0.002219 0.000000 0.000000 0.000000
# 2 -0.004088 0.011035 -0.006012 0.000000 0.000000 0.000000
# 3 -0.002219 -0.006012 0.011728 0.000000 0.000000 0.000000
# 4 0.000000 0.000000 0.000000 0.036769 0.000000 0.000000
# 5 0.000000 0.000000 0.000000 0.000000 0.056056 0.000000
# 6 0.000000 0.000000 0.000000 0.000000 0.000000 0.031625
#
#
# Mechanical properties :
#
#
# Convention : Reuss Voigt Hill
#
# Bulk Modulus (GPa) = 55.94283 74.74494 65.34389
# Shear Modulus (GPa) = 25.30925 28.05790 26.68358
#
# Velocity S-wave (km/s) = 3.59990 3.79034 3.69635
# Velocity P-wave (km/s) = 6.77671 7.57811 7.18859
#
# Compressibility (1/GPa) = 0.01787539
#
# Stress axis : x y z
#
# Youngs Moduli (GPa) = 50.63641 90.62060 85.26538
#
# Poissons Ratio (x) = 0.37042 0.18917
# Poissons Ratio (y) = 0.20698 0.51262
# Poissons Ratio (z) = 0.11234 0.54481
#
# Static dielectric constant tensor:
#      x y z
#    x 3.298130 0.000000 0.000000 
#    y 0.000000 3.714340 0.000000 
#    z 0.000000 0.000000 3.641890 
# 
# 
# High freq. dielectric constant tensor:
#      x y z
#    x 1.739750 0.000000 0.000000 
#    y 0.000000 1.773340 0.000000 
#    z 0.000000 0.000000 1.757810 
# 
# From -- ./inp_files/16685.got.cif
#   From: 2010.03.12/outbox.cif.g09.slc.cpg/sg36_9_cif.got.tgz:16685.got - 2010.04.14 02:13:53.
