data_PCOD8175898
_publ_section_title
;
Structure prediction by ZEFSAII (Michael W. Deem and Ramdas Pophale) SiO2 
 PCOD8175898
Probable space group: C M C 21
;
_chemical_formula_sum "Si O2"
_cell_formula_units_Z 64
_cell_length_a 17.171785
_cell_length_b 11.695559
_cell_length_c 14.388610
_cell_angle_alpha 90.000000
_cell_angle_beta 90.000000
_cell_angle_gamma 90.000000
_cell_volume 2889.716699
_symmetry_space_group_name_H-M "C M C 21"
_symmetry_group_IT_number 36
_symmetry_cell_setting 'orthorhombic'
loop_
_space_group_symop_operation_xyz
x,y,z
-x,-y,1/2+z
x,-y,1/2+z
-x,y,z
1/2+x,1/2+y,z
1/2-x,1/2-y,1/2+z
1/2+x,1/2-y,1/2+z
1/2-x,1/2+y,z
loop_
_atom_site_type_symbol
_atom_site_label
_atom_site_fract_x
_atom_site_fract_y
_atom_site_fract_z
Si Si1 0.913778 0.004423 0.878550
Si Si2 0.588505 0.428404 0.584316
Si Si3 0.086137 0.231704 0.448410
Si Si4 0.181754 0.838933 0.107986
Si Si5 0.810821 0.818504 0.310405
Si Si6 0.639473 0.903105 0.312138
Si Si7 0.641170 0.826372 0.105411
Si Si8 0.909481 0.368636 0.907058
O O1 0.855054 0.060017 0.806127
O O2 0.000000 0.001235 0.834697
O O3 0.880540 0.877676 0.893844
O O4 0.913840 0.077251 0.973265
O O5 0.500000 0.439180 0.623346
O O6 0.639616 0.537744 0.614857
O O7 0.625860 0.309206 0.619932
O O8 0.140133 0.249986 0.538298
O O9 0.079230 0.337111 0.378517
O O10 0.000000 0.201614 0.486039
O O11 0.183039 0.771545 0.205879
O O12 0.270592 0.855603 0.077362
O O13 0.722219 0.845390 0.338260
O O14 0.855844 0.739722 0.383128
O O15 0.619340 0.889961 0.202760
O O16 0.631449 0.032423 0.346604
O O17 0.592022 0.881065 0.019703
O O18 0.000000 0.353758 0.876668
#
# Coordination Sequence:
#
# PCOD8175898 Si02
#       8
#     8   8   8   8   8   8   8   8
#     4   9  19  36  63  97 127 162 211 270 327 385
#     4  10  21  40  66  96 129 170 220 271 332 398
#     4  10  22  41  64  96 134 171 217 276 336 390
#     4  10  24  40  66 103 137 171 218 282 343 392
#     4  11  24  41  68 100 134 173 223 274 334 400
#     4  11  28  44  67  99 135 179 230 277 339 405
#     4  11  25  44  67  97 134 178 227 277 335 406
#     4  12  27  46  69  98 138 184 226 277 340 404
#
# _framework density 22.147500000000001
#
# number of rings (size 3 to 8) (size 9 to 14) (size 15 to 20)
#    0.000    1.500    1.250    3.000    7.000    8.000 
#    0.000    0.000    0.000    0.000    0.000    0.000 
#    0.000    0.000    0.000    0.000    0.000    0.000 
#
# Total GULP energy -396624.022181 kJ/mol
# GULP energy per Si atom -12394.500693 kJ/mol
# Density = 2.209709 g / cm^3
# Si number density = 22.147500 Si / 1000 Ang^3
#
#
#
# Elastic Constant Matrix: (Units=GPa)
#
#
# Indices 1 2 3 4 5 6 
#
# 1 118.0798 34.4512 29.8893 0.0000 0.0000 0.0000
# 2 34.4512 69.5243 16.6478 0.0000 0.0000 0.0000
# 3 29.8893 16.6478 99.5653 0.0000 0.0000 0.0000
# 4 0.0000 0.0000 0.0000 28.9134 0.0000 0.0000
# 5 0.0000 0.0000 0.0000 0.0000 -13.6133 0.0000
# 6 0.0000 0.0000 0.0000 0.0000 0.0000 28.6673
#
#
#
# Elastic Compliance Matrix: (Units=1/GPa)
#
#
# Indices 1 2 3 4 5 6 
#
# 1 0.010405 -0.004592 -0.002356 0.000000 0.000000 0.000000
# 2 -0.004592 0.017010 -0.001466 0.000000 0.000000 0.000000
# 3 -0.002356 -0.001466 0.010996 0.000000 0.000000 0.000000
# 4 0.000000 0.000000 0.000000 0.034586 0.000000 0.000000
# 5 0.000000 0.000000 0.000000 0.000000 -0.073458 0.000000
# 6 0.000000 0.000000 0.000000 0.000000 0.000000 0.034883
#
#
# Mechanical properties :
#
#
# Convention : Reuss Voigt Hill
#
# Bulk Modulus (GPa) = 46.33036 49.90512 48.11774
# Shear Modulus (GPa) = 85.55365 22.53890 54.04627
#
# Velocity S-wave (km/s) = 6.22197 3.19356 4.94529
# Velocity P-wave (km/s) = 8.51948 6.01502 7.37435
#
# Compressibility (1/GPa) = 0.02158412
#
# Stress axis : x y z
#
# Youngs Moduli (GPa) = 96.10888 58.78974 90.94281
#
# Poissons Ratio (x) = 0.26995 0.21424
# Poissons Ratio (y) = 0.44131 0.13329
# Poissons Ratio (z) = 0.22641 0.08617
#
# Static dielectric constant tensor:
#      x y z
#    x 4.002040 0.000000 0.000000 
#    y 0.000000 3.805610 0.000000 
#    z 0.000000 0.000000 3.944270 
# 
# 
# High freq. dielectric constant tensor:
#      x y z
#    x 1.879970 0.000000 0.000000 
#    y 0.000000 1.858530 0.000000 
#    z 0.000000 0.000000 1.872880 
# 
# From -- ./inp_files/12653.got.cif
#   From: 2010.03.12/outbox.cif.g09.slc.cpg/sg36_7_cif.got.tgz:12653.got - 2010.04.14 02:13:53.
