data_PCOD8175349
_publ_section_title
;
Structure prediction by ZEFSAII (Michael W. Deem and Ramdas Pophale) SiO2 
 PCOD8175349
Probable space group: C M C 21
;
_chemical_formula_sum "Si O2"
_cell_formula_units_Z 64
_cell_length_a 8.618074
_cell_length_b 24.654245
_cell_length_c 15.367573
_cell_angle_alpha 90.000000
_cell_angle_beta 90.000000
_cell_angle_gamma 90.000000
_cell_volume 3265.180627
_symmetry_space_group_name_H-M "C M C 21"
_symmetry_group_IT_number 36
_symmetry_cell_setting 'orthorhombic'
loop_
_space_group_symop_operation_xyz
x,y,z
-x,-y,1/2+z
x,-y,1/2+z
-x,y,z
1/2+x,1/2+y,z
1/2-x,1/2-y,1/2+z
1/2+x,1/2-y,1/2+z
1/2-x,1/2+y,z
loop_
_atom_site_type_symbol
_atom_site_label
_atom_site_fract_x
_atom_site_fract_y
_atom_site_fract_z
Si Si1 0.672341 0.622404 0.403440
Si Si2 0.684928 0.735869 0.656385
Si Si3 0.827525 0.878099 0.106103
Si Si4 0.816279 0.993666 0.151748
Si Si5 0.683786 0.066818 0.000719
Si Si6 0.316302 0.507757 0.352409
Si Si7 0.185573 0.764854 0.840934
Si Si8 0.815695 0.690518 0.998682
O O1 0.500000 0.618250 0.363204
O O2 0.663975 0.631363 0.504787
O O3 0.756730 0.565843 0.380695
O O4 0.753620 0.675735 0.364773
O O5 0.500000 0.733257 0.649363
O O6 0.756302 0.675220 0.644528
O O7 0.739674 0.754372 0.749165
O O8 0.749262 0.776980 0.582752
O O9 0.743016 0.934805 0.127734
O O10 0.000000 0.882432 0.146486
O O11 0.770982 0.002175 0.251784
O O12 0.000000 0.995591 0.135518
O O13 0.742648 0.038577 0.089001
O O14 0.500000 0.065487 0.001064
O O15 0.741896 0.038498 0.912333
O O16 0.746612 0.128759 0.000199
O O17 0.500000 0.504911 0.368224
O O18 0.243535 0.720543 0.911186
O O19 0.000000 0.764868 0.836896
O O20 0.000000 0.690780 0.000781
#
# Coordination Sequence:
#
# PCOD8175349 Si02
#       8
#     8   8   8   8   8   8   8   8
#     4   9  16  32  58  80 102 137 182 226 270 320
#     4  10  20  36  58  82 107 142 184 224 271 325
#     4   9  16  32  58  80 102 137 182 226 270 320
#     4  10  21  37  59  85 111 142 185 235 280 322
#     4  11  23  38  55  79 115 155 186 219 274 340
#     4  10  21  37  59  85 111 142 185 235 280 322
#     4  10  20  36  58  82 107 142 184 224 271 325
#     4   9  20  38  55  75 113 155 180 211 272 340
#
# _framework density 19.600752
#
# number of rings (size 3 to 8) (size 9 to 14) (size 15 to 20)
#    0.000    2.250    2.500    0.375    3.500    0.500 
#    0.000    3.125    0.000    0.000    0.000    0.000 
#    0.000    0.000    0.000    0.000    0.000    0.000 
#
# Total GULP energy -396605.494160 kJ/mol
# GULP energy per Si atom -12393.921692 kJ/mol
# Density = 1.955614 g / cm^3
# Si number density = 19.600752 Si / 1000 Ang^3
#
#
#
# Elastic Constant Matrix: (Units=GPa)
#
#
# Indices 1 2 3 4 5 6 
#
# 1 23.1790 18.1636 14.4593 0.0000 0.0000 0.0000
# 2 18.1636 171.3550 46.3014 0.0000 0.0000 0.0000
# 3 14.4593 46.3014 106.4432 0.0000 0.0000 0.0000
# 4 0.0000 0.0000 0.0000 38.9547 0.0000 0.0000
# 5 0.0000 0.0000 0.0000 0.0000 29.3149 0.0000
# 6 0.0000 0.0000 0.0000 0.0000 0.0000 19.7961
#
#
#
# Elastic Compliance Matrix: (Units=1/GPa)
#
#
# Indices 1 2 3 4 5 6 
#
# 1 0.049304 -0.003872 -0.005013 0.000000 0.000000 0.000000
# 2 -0.003872 0.006917 -0.002483 0.000000 0.000000 0.000000
# 3 -0.005013 -0.002483 0.011156 0.000000 0.000000 0.000000
# 4 0.000000 0.000000 0.000000 0.025671 0.000000 0.000000
# 5 0.000000 0.000000 0.000000 0.000000 0.034112 0.000000
# 6 0.000000 0.000000 0.000000 0.000000 0.000000 0.050515
#
#
# Mechanical properties :
#
#
# Convention : Reuss Voigt Hill
#
# Bulk Modulus (GPa) = 22.40096 50.98064 36.69080
# Shear Modulus (GPa) = 23.22440 32.41668 27.82054
#
# Velocity S-wave (km/s) = 3.44593 4.07117 3.77153
# Velocity P-wave (km/s) = 5.22360 6.94011 6.14212
#
# Compressibility (1/GPa) = 0.04464095
#
# Stress axis : x y z
#
# Youngs Moduli (GPa) = 20.28242 144.56863 89.63982
#
# Poissons Ratio (x) = 0.55970 0.44940
# Poissons Ratio (y) = 0.07852 0.22257
# Poissons Ratio (z) = 0.10168 0.35896
#
# Static dielectric constant tensor:
#      x y z
#    x 3.108780 0.000000 0.000000 
#    y 0.000000 4.399970 0.000000 
#    z 0.000000 0.000000 3.589840 
# 
# 
# High freq. dielectric constant tensor:
#      x y z
#    x 1.708980 0.000000 0.000000 
#    y 0.000000 1.790260 0.000000 
#    z 0.000000 0.000000 1.772170 
# 
# From -- ./inp_files/10881.got.cif
#   From: 2010.03.12/outbox.cif.g09.slc.cpg/sg36_6_cif.got.tgz:10881.got - 2010.04.14 02:13:53.
