data_PCOD8175821
_publ_section_title
;
Structure prediction by ZEFSAII (Michael W. Deem and Ramdas Pophale) SiO2 
 PCOD8175821
Probable space group: C M C 21
;
_chemical_formula_sum "Si O2"
_cell_formula_units_Z 48
_cell_length_a 8.573217
_cell_length_b 15.092214
_cell_length_c 18.866586
_cell_angle_alpha 90.000000
_cell_angle_beta 90.000000
_cell_angle_gamma 90.000000
_cell_volume 2441.125406
_symmetry_space_group_name_H-M "C M C 21"
_symmetry_group_IT_number 36
_symmetry_cell_setting 'orthorhombic'
loop_
_space_group_symop_operation_xyz
x,y,z
-x,-y,1/2+z
x,-y,1/2+z
-x,y,z
1/2+x,1/2+y,z
1/2-x,1/2-y,1/2+z
1/2+x,1/2-y,1/2+z
1/2-x,1/2+y,z
loop_
_atom_site_type_symbol
_atom_site_label
_atom_site_fract_x
_atom_site_fract_y
_atom_site_fract_z
Si Si1 0.817961 0.144032 0.956080
Si Si2 0.816482 0.998970 0.220814
Si Si3 0.318357 0.158461 0.803832
Si Si4 0.682590 0.154386 0.312969
Si Si5 0.817466 0.004866 0.561338
Si Si6 0.821262 0.344585 0.973552
O O1 0.722120 0.132679 0.884172
O O2 0.792490 0.241104 0.989168
O O3 0.000000 0.128254 0.938619
O O4 0.749170 0.073277 0.011861
O O5 0.780416 0.902125 0.250829
O O6 0.751019 0.003271 0.140651
O O7 0.000000 0.018308 0.225777
O O8 0.722499 0.071529 0.264786
O O9 0.500000 0.142283 0.790409
O O10 0.275884 0.259795 0.786194
O O11 0.500000 0.177103 0.310378
O O12 0.731862 0.132164 0.393597
O O13 0.780117 0.100531 0.528973
O O14 0.000000 0.992942 0.565606
O O15 0.000000 0.370902 0.985336
#
# Coordination Sequence:
#
# PCOD8175821 Si02
#       6
#     8   8   8   8   8   8
#     4   9  19  38  59  80 109 145 183 231 281 329
#     4  11  23  38  55  82 118 154 188 228 277 333
#     4  11  22  37  59  86 112 147 190 232 279 333
#     4  10  21  39  61  86 112 144 187 236 283 331
#     4  10  22  37  55  80 112 148 185 224 275 331
#     4   9  19  35  57  82 109 140 179 227 279 329
#
# _framework density 19.663063000000001
#
# number of rings (size 3 to 8) (size 9 to 14) (size 15 to 20)
#    0.000    2.000    0.000    4.500    0.000    9.333 
#    0.000    1.667    0.000    0.000    0.000    0.000 
#    0.000    0.000    0.000    0.000    0.000    0.000 
#
# Total GULP energy -297691.617439 kJ/mol
# GULP energy per Si atom -12403.817393 kJ/mol
# Density = 1.961831 g / cm^3
# Si number density = 19.663063 Si / 1000 Ang^3
#
#
#
# Elastic Constant Matrix: (Units=GPa)
#
#
# Indices 1 2 3 4 5 6 
#
# 1 38.8655 10.1365 14.5162 0.0000 0.0000 0.0000
# 2 10.1365 89.3975 44.4336 0.0000 0.0000 0.0000
# 3 14.5162 44.4336 87.1712 0.0000 0.0000 0.0000
# 4 0.0000 0.0000 0.0000 12.8327 0.0000 0.0000
# 5 0.0000 0.0000 0.0000 0.0000 24.0189 0.0000
# 6 0.0000 0.0000 0.0000 0.0000 0.0000 34.4179
#
#
#
# Elastic Compliance Matrix: (Units=1/GPa)
#
#
# Indices 1 2 3 4 5 6 
#
# 1 0.027521 -0.001129 -0.004008 0.000000 0.000000 0.000000
# 2 -0.001129 0.015028 -0.007472 0.000000 0.000000 0.000000
# 3 -0.004008 -0.007472 0.015948 0.000000 0.000000 0.000000
# 4 0.000000 0.000000 0.000000 0.077926 0.000000 0.000000
# 5 0.000000 0.000000 0.000000 0.000000 0.041634 0.000000
# 6 0.000000 0.000000 0.000000 0.000000 0.000000 0.029055
#
#
# Mechanical properties :
#
#
# Convention : Reuss Voigt Hill
#
# Bulk Modulus (GPa) = 30.04826 39.28964 34.66895
# Shear Modulus (GPa) = 20.54052 24.01044 22.27548
#
# Velocity S-wave (km/s) = 3.23557 3.49821 3.36945
# Velocity P-wave (km/s) = 5.41048 6.02838 5.72777
#
# Compressibility (1/GPa) = 0.03327980
#
# Stress axis : x y z
#
# Youngs Moduli (GPa) = 36.33599 66.54293 62.70444
#
# Poissons Ratio (x) = 0.07510 0.25130
# Poissons Ratio (y) = 0.04101 0.46854
# Poissons Ratio (z) = 0.14562 0.49722
#
# Static dielectric constant tensor:
#      x y z
#    x 3.428240 0.000000 0.000000 
#    y 0.000000 3.650230 0.000000 
#    z 0.000000 0.000000 3.714600 
# 
# 
# High freq. dielectric constant tensor:
#      x y z
#    x 1.759910 0.000000 0.000000 
#    y 0.000000 1.776920 0.000000 
#    z 0.000000 0.000000 1.762090 
# 
# From -- ./inp_files/10374.got.cif
#   From: 2010.03.12/outbox.cif.g09.slc.cpg/sg36_6_cif.got.tgz:10374.got - 2010.04.14 02:13:53.
