data_PCOD8175709
_publ_section_title
;
Structure prediction by ZEFSAII (Michael W. Deem and Ramdas Pophale) SiO2 
 PCOD8175709
Probable space group: C M C 21
;
_chemical_formula_sum "Si O2"
_cell_formula_units_Z 64
_cell_length_a 9.052853
_cell_length_b 10.009657
_cell_length_c 35.167262
_cell_angle_alpha 90.000000
_cell_angle_beta 90.000000
_cell_angle_gamma 90.000000
_cell_volume 3186.714975
_symmetry_space_group_name_H-M "C M C 21"
_symmetry_group_IT_number 36
_symmetry_cell_setting 'orthorhombic'
loop_
_space_group_symop_operation_xyz
x,y,z
-x,-y,1/2+z
x,-y,1/2+z
-x,y,z
1/2+x,1/2+y,z
1/2-x,1/2-y,1/2+z
1/2+x,1/2-y,1/2+z
1/2-x,1/2+y,z
loop_
_atom_site_type_symbol
_atom_site_label
_atom_site_fract_x
_atom_site_fract_y
_atom_site_fract_z
Si Si1 0.327259 0.282058 0.997350
Si Si2 0.828537 0.477683 0.789791
Si Si3 0.170108 0.242658 0.411722
Si Si4 0.171307 0.535668 0.124961
Si Si5 0.327973 0.983283 0.538841
Si Si6 0.828533 0.208870 0.746209
Si Si7 0.172049 0.735623 0.668119
Si Si8 0.170214 0.972997 0.368441
O O1 0.500000 0.308862 0.996577
O O2 0.273067 0.246240 0.954932
O O3 0.253229 0.416355 0.011220
O O4 0.282266 0.165009 0.026138
O O5 0.804734 0.325558 0.776846
O O6 0.752162 0.575610 0.759782
O O7 0.759007 0.491129 0.830904
O O8 0.000000 0.516025 0.791416
O O9 0.190984 0.090245 0.398828
O O10 0.270268 0.336193 0.385782
O O11 0.000000 0.288221 0.407715
O O12 0.219637 0.495325 0.082425
O O13 0.201746 0.412245 0.152617
O O14 0.271461 0.659026 0.137299
O O15 0.000000 0.579194 0.125766
O O16 0.500000 0.008015 0.533103
O O17 0.761363 0.257856 0.706627
O O18 0.000000 0.176789 0.740179
O O19 0.000000 0.760148 0.675772
O O20 0.000000 0.952136 0.357122
#
# Coordination Sequence:
#
# PCOD8175709 Si02
#       8
#     8   8   8   8   8   8   8   8
#     4  10  21  37  58  85 115 150 193 238 287 342
#     4  11  24  41  61  86 116 149 187 233 282 335
#     4  10  22  39  58  84 118 152 190 238 287 339
#     4  10  22  39  57  83 118 152 192 240 288 343
#     4  10  21  37  58  84 115 152 193 239 290 343
#     4  11  24  41  62  88 117 151 191 234 284 341
#     4  11  23  38  59  86 115 151 193 236 286 341
#     4  11  23  38  59  86 114 149 191 232 280 338
#
# _framework density 20.083376999999999
#
# number of rings (size 3 to 8) (size 9 to 14) (size 15 to 20)
#    0.000    1.500    0.000    4.500    0.000   10.500 
#    0.000    0.000    0.000    0.000    0.000    0.000 
#    0.000    0.000    0.000    0.000    0.000    0.000 
#
# Total GULP energy -397030.353395 kJ/mol
# GULP energy per Si atom -12407.198544 kJ/mol
# Density = 2.003767 g / cm^3
# Si number density = 20.083377 Si / 1000 Ang^3
#
#
#
# Elastic Constant Matrix: (Units=GPa)
#
#
# Indices 1 2 3 4 5 6 
#
# 1 95.9329 42.6609 39.2823 0.0000 0.0000 0.0000
# 2 42.6609 62.3343 10.0191 0.0000 0.0000 0.0000
# 3 39.2823 10.0191 100.1633 0.0000 0.0000 0.0000
# 4 0.0000 0.0000 0.0000 37.0893 0.0000 0.0000
# 5 0.0000 0.0000 0.0000 0.0000 34.4071 0.0000
# 6 0.0000 0.0000 0.0000 0.0000 0.0000 34.8173
#
#
#
# Elastic Compliance Matrix: (Units=1/GPa)
#
#
# Indices 1 2 3 4 5 6 
#
# 1 0.017836 -0.011263 -0.005868 0.000000 0.000000 0.000000
# 2 -0.011263 0.023417 0.002075 0.000000 0.000000 0.000000
# 3 -0.005868 0.002075 0.012078 0.000000 0.000000 0.000000
# 4 0.000000 0.000000 0.000000 0.026962 0.000000 0.000000
# 5 0.000000 0.000000 0.000000 0.000000 0.029064 0.000000
# 6 0.000000 0.000000 0.000000 0.000000 0.000000 0.028721
#
#
# Mechanical properties :
#
#
# Convention : Reuss Voigt Hill
#
# Bulk Modulus (GPa) = 43.07101 49.15055 46.11078
# Shear Modulus (GPa) = 28.42045 32.36065 30.39055
#
# Velocity S-wave (km/s) = 3.76589 4.01847 3.89423
# Velocity P-wave (km/s) = 6.35625 6.78655 6.57492
#
# Compressibility (1/GPa) = 0.02321747
#
# Stress axis : x y z
#
# Youngs Moduli (GPa) = 56.06795 42.70321 82.79835
#
# Poissons Ratio (x) = 0.48098 0.48587
# Poissons Ratio (y) = 0.63151 -0.17179
# Poissons Ratio (z) = 0.32901 -0.08860
#
# Static dielectric constant tensor:
#      x y z
#    x 3.692470 0.000000 0.000000 
#    y 0.000000 3.625490 0.000000 
#    z 0.000000 0.000000 3.798990 
# 
# 
# High freq. dielectric constant tensor:
#      x y z
#    x 1.786500 0.000000 0.000000 
#    y 0.000000 1.792940 0.000000 
#    z 0.000000 0.000000 1.800390 
# 
# From -- ./inp_files/17296.got.cif
#   From: 2010.03.12/outbox.cif.g09.slc.cpg/sg36_9_cif.got.tgz:17296.got - 2010.04.14 02:13:53.
