data_PCOD8175457
_publ_section_title
;
Structure prediction by ZEFSAII (Michael W. Deem and Ramdas Pophale) SiO2 
 PCOD8175457
Probable space group: C M C 21
;
_chemical_formula_sum "Si O2"
_cell_formula_units_Z 56
_cell_length_a 29.796316
_cell_length_b 8.891744
_cell_length_c 10.539203
_cell_angle_alpha 90.000000
_cell_angle_beta 90.000000
_cell_angle_gamma 90.000000
_cell_volume 2792.269238
_symmetry_space_group_name_H-M "C M C 21"
_symmetry_group_IT_number 36
_symmetry_cell_setting 'orthorhombic'
loop_
_space_group_symop_operation_xyz
x,y,z
-x,-y,1/2+z
x,-y,1/2+z
-x,y,z
1/2+x,1/2+y,z
1/2-x,1/2-y,1/2+z
1/2+x,1/2-y,1/2+z
1/2-x,1/2+y,z
loop_
_atom_site_type_symbol
_atom_site_label
_atom_site_fract_x
_atom_site_fract_y
_atom_site_fract_z
Si Si1 0.500000 0.152481 0.980290
Si Si2 0.594363 0.244199 0.954847
Si Si3 0.789455 0.760000 0.173638
Si Si4 0.347074 0.503166 0.063258
Si Si5 0.407671 0.250805 0.668820
Si Si6 0.500000 0.875390 0.170208
Si Si7 0.214382 0.743953 0.458735
Si Si8 0.846465 0.498718 0.564822
O O1 0.544686 0.248354 0.017338
O O2 0.500000 0.100253 0.827520
O O3 0.500000 0.025948 0.088282
O O4 0.582548 0.271317 0.812927
O O5 0.630333 0.369775 0.987244
O O6 0.617054 0.081799 0.976287
O O7 0.814260 0.922198 0.165126
O O8 0.766997 0.749324 0.313783
O O9 0.823800 0.621701 0.159037
O O10 0.753633 0.745283 0.061248
O O11 0.388594 0.591467 0.121894
O O12 0.318797 0.614556 0.974000
O O13 0.456764 0.213550 0.614450
O O14 0.371305 0.120375 0.650532
O O15 0.189610 0.584555 0.477175
#
# Coordination Sequence:
#
# PCOD8175457 Si02
#       8
#     4   8   8   8   8   4   8   8
#     4  10  20  37  62  92 122 156 198 243 292 350
#     4  10  20  37  60  86 120 156 194 242 294 350
#     4  11  24  40  60  86 117 155 199 247 300 356
#     4  10  23  39  58  86 122 158 198 243 297 356
#     4  10  20  37  60  86 120 156 194 242 294 350
#     4  10  20  37  62  92 122 156 198 243 292 350
#     4  11  24  40  60  86 117 155 199 247 300 356
#     4  10  21  37  60  84 114 152 198 243 293 354
#
# _framework density 20.055371999999998
#
# number of rings (size 3 to 8) (size 9 to 14) (size 15 to 20)
#    0.000    1.714    1.429    2.571    0.000    9.714 
#    0.000    1.429    0.000    0.000    0.000    0.000 
#    0.000    0.000    0.000    0.000    0.000    0.000 
#
# Total GULP energy -346893.415777 kJ/mol
# GULP energy per Si atom -12389.050563 kJ/mol
# Density = 2.000973 g / cm^3
# Si number density = 20.055372 Si / 1000 Ang^3
#
#
#
# Elastic Constant Matrix: (Units=GPa)
#
#
# Indices 1 2 3 4 5 6 
#
# 1 101.8323 17.0188 29.1967 0.0000 0.0000 0.0000
# 2 17.0188 84.3093 15.1624 0.0000 0.0000 0.0000
# 3 29.1967 15.1624 89.3053 0.0000 0.0000 0.0000
# 4 0.0000 0.0000 0.0000 12.8736 0.0000 0.0000
# 5 0.0000 0.0000 0.0000 0.0000 27.3022 0.0000
# 6 0.0000 0.0000 0.0000 0.0000 0.0000 33.1231
#
#
#
# Elastic Compliance Matrix: (Units=1/GPa)
#
#
# Indices 1 2 3 4 5 6 
#
# 1 0.011049 -0.001630 -0.003335 0.000000 0.000000 0.000000
# 2 -0.001630 0.012475 -0.001585 0.000000 0.000000 0.000000
# 3 -0.003335 -0.001585 0.012557 0.000000 0.000000 0.000000
# 4 0.000000 0.000000 0.000000 0.077678 0.000000 0.000000
# 5 0.000000 0.000000 0.000000 0.000000 0.036627 0.000000
# 6 0.000000 0.000000 0.000000 0.000000 0.000000 0.030190
#
#
# Mechanical properties :
#
#
# Convention : Reuss Voigt Hill
#
# Bulk Modulus (GPa) = 43.51719 44.24476 43.88098
# Shear Modulus (GPa) = 24.83380 28.93107 26.88243
#
# Velocity S-wave (km/s) = 3.52271 3.80222 3.66513
# Velocity P-wave (km/s) = 6.18802 6.43312 6.31176
#
# Compressibility (1/GPa) = 0.02297943
#
# Stress axis : x y z
#
# Youngs Moduli (GPa) = 90.50706 80.15859 79.63629
#
# Poissons Ratio (x) = 0.13070 0.26562
# Poissons Ratio (y) = 0.14757 0.12622
# Poissons Ratio (z) = 0.30188 0.12705
#
# Static dielectric constant tensor:
#      x y z
#    x 5.094100 0.000000 0.000000 
#    y 0.000000 3.703690 0.000000 
#    z 0.000000 0.000000 3.520130 
# 
# 
# High freq. dielectric constant tensor:
#      x y z
#    x 1.798660 0.000000 0.000000 
#    y 0.000000 1.786540 0.000000 
#    z 0.000000 0.000000 1.769430 
# 
# From -- ./inp_files/9714.got.cif
#   From: 2010.03.12/outbox.cif.g09.slc.cpg/sg36_5_cif.got.tgz:9714.got - 2010.04.14 02:13:53.
