data_PCOD8175761
_publ_section_title
;
Structure prediction by ZEFSAII (Michael W. Deem and Ramdas Pophale) SiO2 
 PCOD8175761
Probable space group: C M C 21
;
_chemical_formula_sum "Si O2"
_cell_formula_units_Z 64
_cell_length_a 8.298003
_cell_length_b 17.908526
_cell_length_c 20.559999
_cell_angle_alpha 90.000000
_cell_angle_beta 90.000000
_cell_angle_gamma 90.000000
_cell_volume 3055.318702
_symmetry_space_group_name_H-M "C M C 21"
_symmetry_group_IT_number 36
_symmetry_cell_setting 'orthorhombic'
loop_
_space_group_symop_operation_xyz
x,y,z
-x,-y,1/2+z
x,-y,1/2+z
-x,y,z
1/2+x,1/2+y,z
1/2-x,1/2-y,1/2+z
1/2+x,1/2-y,1/2+z
1/2-x,1/2+y,z
loop_
_atom_site_type_symbol
_atom_site_label
_atom_site_fract_x
_atom_site_fract_y
_atom_site_fract_z
Si Si1 0.687681 0.423754 0.872870
Si Si2 0.810005 0.662925 0.493709
Si Si3 0.308240 0.164965 0.749951
Si Si4 0.808484 0.418810 0.123489
Si Si5 0.684933 0.665149 0.005182
Si Si6 0.313251 0.913426 0.381380
Si Si7 0.312509 0.668503 0.251366
Si Si8 0.185897 0.412602 0.628146
O O1 0.500000 0.443948 0.865086
O O2 0.789896 0.498167 0.883248
O O3 0.759305 0.383008 0.808698
O O4 0.711525 0.369439 0.933566
O O5 0.747429 0.621474 0.558354
O O6 0.763078 0.749190 0.499708
O O7 0.000000 0.651346 0.482570
O O8 0.500000 0.167213 0.745056
O O9 0.237361 0.124441 0.685987
O O10 0.251852 0.118592 0.812666
O O11 0.235304 0.248610 0.753601
O O12 0.744406 0.503547 0.124362
O O13 0.000000 0.417772 0.124831
O O14 0.500000 0.658289 0.027259
O O15 0.796084 0.625728 0.058396
O O16 0.707515 0.625127 0.936524
O O17 0.500000 0.894507 0.393337
O O18 0.500000 0.677109 0.264887
O O19 0.284997 0.632607 0.181408
O O20 0.000000 0.413093 0.648869
#
# Coordination Sequence:
#
# PCOD8175761 Si02
#       8
#     8   8   8   8   8   8   8   8
#     4  11  23  38  58  86 120 155 195 244 296 350
#     4  10  21  38  61  85 113 153 196 240 293 352
#     4   9  18  35  59  83 110 149 193 236 287 345
#     4   9  18  34  56  82 110 144 189 235 282 341
#     4  11  23  39  60  86 117 153 194 244 299 351
#     4  11  22  38  61  86 115 154 199 244 294 353
#     4  10  21  38  59  83 114 152 192 240 298 352
#     4  11  22  36  58  87 117 152 194 239 289 350
#
# _framework density 20.947078999999999
#
# number of rings (size 3 to 8) (size 9 to 14) (size 15 to 20)
#    0.000    1.750    0.000    4.500    0.000    7.000 
#    0.000    1.875    0.000    4.500    0.000    0.000 
#    0.000    0.000    0.000    0.000    0.000    0.000 
#
# Total GULP energy -396974.913295 kJ/mol
# GULP energy per Si atom -12405.466040 kJ/mol
# Density = 2.089940 g / cm^3
# Si number density = 20.947079 Si / 1000 Ang^3
#
#
#
# Elastic Constant Matrix: (Units=GPa)
#
#
# Indices 1 2 3 4 5 6 
#
# 1 22.7506 12.4060 5.6512 0.0000 0.0000 0.0000
# 2 12.4060 166.3348 57.3872 0.0000 0.0000 0.0000
# 3 5.6512 57.3872 142.2393 0.0000 0.0000 0.0000
# 4 0.0000 0.0000 0.0000 47.5278 0.0000 0.0000
# 5 0.0000 0.0000 0.0000 0.0000 25.8723 0.0000
# 6 0.0000 0.0000 0.0000 0.0000 0.0000 21.7880
#
#
#
# Elastic Compliance Matrix: (Units=1/GPa)
#
#
# Indices 1 2 3 4 5 6 
#
# 1 0.045851 -0.003243 -0.000513 0.000000 0.000000 0.000000
# 2 -0.003243 0.007213 -0.002781 0.000000 0.000000 0.000000
# 3 -0.000513 -0.002781 0.008173 0.000000 0.000000 0.000000
# 4 0.000000 0.000000 0.000000 0.021040 0.000000 0.000000
# 5 0.000000 0.000000 0.000000 0.000000 0.038651 0.000000
# 6 0.000000 0.000000 0.000000 0.000000 0.000000 0.045897
#
#
# Mechanical properties :
#
#
# Convention : Reuss Voigt Hill
#
# Bulk Modulus (GPa) = 20.76320 53.57928 37.17124
# Shear Modulus (GPa) = 25.51610 36.09631 30.80620
#
# Velocity S-wave (km/s) = 3.49395 4.15567 3.83909
# Velocity P-wave (km/s) = 5.11963 6.97567 6.11844
#
# Compressibility (1/GPa) = 0.04816213
#
# Stress axis : x y z
#
# Youngs Moduli (GPa) = 21.80993 138.62976 122.35396
#
# Poissons Ratio (x) = 0.44952 0.06282
# Poissons Ratio (y) = 0.07072 0.34033
# Poissons Ratio (z) = 0.01120 0.38560
#
# Static dielectric constant tensor:
#      x y z
#    x 3.343670 0.000000 0.000000 
#    y 0.000000 4.080780 0.000000 
#    z 0.000000 0.000000 3.869990 
# 
# 
# High freq. dielectric constant tensor:
#      x y z
#    x 1.788760 0.000000 0.000000 
#    y 0.000000 1.838980 0.000000 
#    z 0.000000 0.000000 1.835320 
# 
# From -- ./inp_files/15651.got.cif
#   From: 2010.03.12/outbox.cif.g09.slc.cpg/sg36_8_cif.got.tgz:15651.got - 2010.04.14 02:13:53.
