data_PCOD8175072
_publ_section_title
;
Structure prediction by ZEFSAII (Michael W. Deem and Ramdas Pophale) SiO2 
 PCOD8175072
Probable space group: C M C 21
;
_chemical_formula_sum "Si O2"
_cell_formula_units_Z 64
_cell_length_a 8.970546
_cell_length_b 14.111870
_cell_length_c 27.875138
_cell_angle_alpha 90.000000
_cell_angle_beta 90.000000
_cell_angle_gamma 90.000000
_cell_volume 3528.746584
_symmetry_space_group_name_H-M "C M C 21"
_symmetry_group_IT_number 36
_symmetry_cell_setting 'orthorhombic'
loop_
_space_group_symop_operation_xyz
x,y,z
-x,-y,1/2+z
x,-y,1/2+z
-x,y,z
1/2+x,1/2+y,z
1/2-x,1/2-y,1/2+z
1/2+x,1/2-y,1/2+z
1/2-x,1/2+y,z
loop_
_atom_site_type_symbol
_atom_site_label
_atom_site_fract_x
_atom_site_fract_y
_atom_site_fract_z
Si Si1 0.174462 0.246798 0.677460
Si Si2 0.824424 0.393140 0.111127
Si Si3 0.325434 0.882860 0.356665
Si Si4 0.826171 0.084071 0.356377
Si Si5 0.675574 0.104648 0.098064
Si Si6 0.823701 0.266085 0.922077
Si Si7 0.673548 0.743923 0.032048
Si Si8 0.831406 0.765343 0.775678
O O1 0.252597 0.151315 0.658829
O O2 0.224649 0.335055 0.644523
O O3 0.219075 0.268696 0.731665
O O4 0.000000 0.230323 0.674835
O O5 0.761184 0.498882 0.104506
O O6 0.000000 0.394228 0.119061
O O7 0.777497 0.333551 0.064232
O O8 0.500000 0.886520 0.369479
O O9 0.239764 0.830259 0.399489
O O10 0.298213 0.827629 0.307106
O O11 0.259981 0.986559 0.350373
O O12 0.755437 0.141976 0.400198
O O13 0.803865 0.141426 0.307284
O O14 0.000000 0.066872 0.367319
O O15 0.500000 0.102882 0.091386
O O16 0.743300 0.149681 0.049924
O O17 0.781655 0.265987 0.977845
O O18 0.000000 0.272009 0.913052
O O19 0.500000 0.723655 0.037263
O O20 0.000000 0.763120 0.756166
#
# Coordination Sequence:
#
# PCOD8175072 Si02
#       8
#     8   8   8   8   8   8   8   8
#     4  10  20  33  51  77 104 132 171 215 258 304
#     4   9  18  35  54  72 101 138 172 209 256 309
#     4  10  21  37  56  78 104 138 179 220 266 316
#     4  10  21  37  56  80 108 139 176 217 265 317
#     4   9  19  34  52  75 103 136 172 211 256 308
#     4  10  20  35  54  79 110 141 177 219 263 313
#     4   9  19  34  53  77 103 134 172 213 257 305
#     4   9  20  37  54  74 103 138 173 210 259 316
#
# _framework density 18.136752000000001
#
# number of rings (size 3 to 8) (size 9 to 14) (size 15 to 20)
#    0.000    2.500    0.000    2.250    0.000    7.000 
#    0.000    5.000    0.000    0.000    0.000    0.000 
#    0.000    0.000    0.000    0.000    0.000    0.000 
#
# Total GULP energy -396891.858037 kJ/mol
# GULP energy per Si atom -12402.870564 kJ/mol
# Density = 1.809547 g / cm^3
# Si number density = 18.136752 Si / 1000 Ang^3
#
#
#
# Elastic Constant Matrix: (Units=GPa)
#
#
# Indices 1 2 3 4 5 6 
#
# 1 44.8947 22.4871 37.5598 0.0000 0.0000 0.0000
# 2 22.4871 121.7084 38.6794 0.0000 0.0000 0.0000
# 3 37.5598 38.6794 105.4845 0.0000 0.0000 0.0000
# 4 0.0000 0.0000 0.0000 13.5633 0.0000 0.0000
# 5 0.0000 0.0000 0.0000 0.0000 32.2850 0.0000
# 6 0.0000 0.0000 0.0000 0.0000 0.0000 32.5698
#
#
#
# Elastic Compliance Matrix: (Units=1/GPa)
#
#
# Indices 1 2 3 4 5 6 
#
# 1 0.032452 -0.002630 -0.010591 0.000000 0.000000 0.000000
# 2 -0.002630 0.009513 -0.002552 0.000000 0.000000 0.000000
# 3 -0.010591 -0.002552 0.014187 0.000000 0.000000 0.000000
# 4 0.000000 0.000000 0.000000 0.073728 0.000000 0.000000
# 5 0.000000 0.000000 0.000000 0.000000 0.030974 0.000000
# 6 0.000000 0.000000 0.000000 0.000000 0.000000 0.030703
#
#
# Mechanical properties :
#
#
# Convention : Reuss Voigt Hill
#
# Bulk Modulus (GPa) = 40.63921 52.17112 46.40516
# Shear Modulus (GPa) = 21.61638 27.24103 24.42870
#
# Velocity S-wave (km/s) = 3.45607 3.87974 3.67402
# Velocity P-wave (km/s) = 6.19529 6.99269 6.60603
#
# Compressibility (1/GPa) = 0.02460678
#
# Stress axis : x y z
#
# Youngs Moduli (GPa) = 30.81451 105.11600 70.48780
#
# Poissons Ratio (x) = 0.27647 0.74652
# Poissons Ratio (y) = 0.08105 0.17987
# Poissons Ratio (z) = 0.32635 0.26824
#
# Static dielectric constant tensor:
#      x y z
#    x 3.352340 0.000000 0.000000 
#    y 0.000000 3.465520 0.000000 
#    z 0.000000 0.000000 3.311190 
# 
# 
# High freq. dielectric constant tensor:
#      x y z
#    x 1.707780 0.000000 0.000000 
#    y 0.000000 1.707090 0.000000 
#    z 0.000000 0.000000 1.700890 
# 
# From -- ./inp_files/16699.got.cif
#   From: 2010.03.12/outbox.cif.g09.slc.cpg/sg36_9_cif.got.tgz:16699.got - 2010.04.14 02:13:53.
