data_PCOD8175083
_publ_section_title
;
Structure prediction by ZEFSAII (Michael W. Deem and Ramdas Pophale) SiO2 
 PCOD8175083
Probable space group: C M C 21
;
_chemical_formula_sum "Si O2"
_cell_formula_units_Z 64
_cell_length_a 28.762918
_cell_length_b 13.936873
_cell_length_c 8.776009
_cell_angle_alpha 90.000000
_cell_angle_beta 90.000000
_cell_angle_gamma 90.000000
_cell_volume 3517.996035
_symmetry_space_group_name_H-M "C M C 21"
_symmetry_group_IT_number 36
_symmetry_cell_setting 'orthorhombic'
loop_
_space_group_symop_operation_xyz
x,y,z
-x,-y,1/2+z
x,-y,1/2+z
-x,y,z
1/2+x,1/2+y,z
1/2-x,1/2-y,1/2+z
1/2+x,1/2-y,1/2+z
1/2-x,1/2+y,z
loop_
_atom_site_type_symbol
_atom_site_label
_atom_site_fract_x
_atom_site_fract_y
_atom_site_fract_z
Si Si1 0.277100 0.047559 0.740770
Si Si2 0.052841 0.124429 0.001026
Si Si3 0.326686 0.460841 0.321439
Si Si4 0.707330 0.128983 0.409364
Si Si5 0.352136 0.710988 0.032447
Si Si6 0.448099 0.577371 0.652987
Si Si7 0.861694 0.874008 0.012397
Si Si8 0.299140 0.251646 0.841375
O O1 0.226760 0.015083 0.797186
O O2 0.277737 0.073223 0.563364
O O3 0.293574 0.137611 0.841409
O O4 0.306674 0.951746 0.783547
O O5 0.064897 0.090177 0.829935
O O6 0.000000 0.166212 0.011177
O O7 0.091403 0.204434 0.048003
O O8 0.058250 0.034511 0.113321
O O9 0.332543 0.382740 0.451981
O O10 0.352385 0.558632 0.367515
O O11 0.347517 0.428021 0.164098
O O12 0.661573 0.193754 0.436735
O O13 0.748998 0.198080 0.353619
O O14 0.326561 0.714217 0.192979
O O15 0.500000 0.612294 0.619529
O O16 0.416572 0.644083 0.540910
O O17 0.831719 0.777308 0.987469
#
# Coordination Sequence:
#
# PCOD8175083 Si02
#       8
#     8   8   8   8   8   8   8   8
#     4  11  23  38  52  78 109 148 184 224 267 315
#     4  10  21  37  55  80 112 147 187 229 276 331
#     4  12  20  31  53  74 110 145 185 216 262 315
#     4  11  24  38  55  77 110 146 187 227 269 324
#     4  11  23  37  54  82 108 149 187 224 272 331
#     4  10  20  33  52  78 110 144 181 223 270 324
#     4  12  21  33  50  79 107 151 179 218 267 322
#     4  11  24  35  54  80 110 146 187 221 269 332
#
# _framework density 18.192176
#
# number of rings (size 3 to 8) (size 9 to 14) (size 15 to 20)
#    0.000    1.000    6.250    0.750    3.500    1.000 
#    0.000    0.000    0.000    0.000    0.000    4.375 
#    0.000    0.000    0.000    0.000    0.000    0.000 
#
# Total GULP energy -396679.910855 kJ/mol
# GULP energy per Si atom -12396.247214 kJ/mol
# Density = 1.815077 g / cm^3
# Si number density = 18.192176 Si / 1000 Ang^3
#
#
#
# Elastic Constant Matrix: (Units=GPa)
#
#
# Indices 1 2 3 4 5 6 
#
# 1 96.6769 34.4312 36.5721 0.0000 0.0000 0.0000
# 2 34.4312 64.8052 8.0800 0.0000 0.0000 0.0000
# 3 36.5721 8.0800 46.8066 0.0000 0.0000 0.0000
# 4 0.0000 0.0000 0.0000 25.0702 0.0000 0.0000
# 5 0.0000 0.0000 0.0000 0.0000 27.5503 0.0000
# 6 0.0000 0.0000 0.0000 0.0000 0.0000 26.5866
#
#
#
# Elastic Compliance Matrix: (Units=1/GPa)
#
#
# Indices 1 2 3 4 5 6 
#
# 1 0.017975 -0.007971 -0.012669 0.000000 0.000000 0.000000
# 2 -0.007971 0.019305 0.002895 0.000000 0.000000 0.000000
# 3 -0.012669 0.002895 0.030763 0.000000 0.000000 0.000000
# 4 0.000000 0.000000 0.000000 0.039888 0.000000 0.000000
# 5 0.000000 0.000000 0.000000 0.000000 0.036297 0.000000
# 6 0.000000 0.000000 0.000000 0.000000 0.000000 0.037613
#
#
# Mechanical properties :
#
#
# Convention : Reuss Voigt Hill
#
# Bulk Modulus (GPa) = 30.71725 40.71726 35.71725
# Shear Modulus (GPa) = 21.91245 24.45510 23.18377
#
# Velocity S-wave (km/s) = 3.47435 3.67040 3.57372
# Velocity P-wave (km/s) = 5.74599 6.35553 6.05843
#
# Compressibility (1/GPa) = 0.03255500
#
# Stress axis : x y z
#
# Youngs Moduli (GPa) = 55.63312 51.80090 32.50620
#
# Poissons Ratio (x) = 0.41288 0.41181
# Poissons Ratio (y) = 0.44343 -0.09412
# Poissons Ratio (z) = 0.70480 -0.14998
#
# Static dielectric constant tensor:
#      x y z
#    x 4.621310 0.000000 0.000000 
#    y 0.000000 3.353720 0.000000 
#    z 0.000000 0.000000 3.556170 
# 
# 
# High freq. dielectric constant tensor:
#      x y z
#    x 1.696660 0.000000 0.000000 
#    y 0.000000 1.673430 0.000000 
#    z 0.000000 0.000000 1.721530 
# 
# From -- ./inp_files/6127.got.cif
#   From: 2010.03.12/outbox.cif.g09.slc.cpg/sg36_4_cif.got.tgz:6127.got - 2010.04.14 02:13:53.
