data_PCOD8175056
_publ_section_title
;
Structure prediction by ZEFSAII (Michael W. Deem and Ramdas Pophale) SiO2 
 PCOD8175056
Probable space group: C M C 21
;
_chemical_formula_sum "Si O2"
_cell_formula_units_Z 64
_cell_length_a 9.201000
_cell_length_b 23.459526
_cell_length_c 17.150718
_cell_angle_alpha 90.000000
_cell_angle_beta 90.000000
_cell_angle_gamma 90.000000
_cell_volume 3702.001324
_symmetry_space_group_name_H-M "C M C 21"
_symmetry_group_IT_number 36
_symmetry_cell_setting 'orthorhombic'
loop_
_space_group_symop_operation_xyz
x,y,z
-x,-y,1/2+z
x,-y,1/2+z
-x,y,z
1/2+x,1/2+y,z
1/2-x,1/2-y,1/2+z
1/2+x,1/2-y,1/2+z
1/2-x,1/2+y,z
loop_
_atom_site_type_symbol
_atom_site_label
_atom_site_fract_x
_atom_site_fract_y
_atom_site_fract_z
Si Si1 0.831187 0.789095 0.256440
Si Si2 0.831187 0.210905 0.047719
Si Si3 0.329442 0.678563 0.584377
Si Si4 0.170557 0.821437 0.719782
Si Si5 0.162575 0.073253 0.316478
Si Si6 0.162575 0.926747 0.987681
Si Si7 0.172425 0.514873 0.902079
Si Si8 0.330003 0.633579 0.902079
O O1 0.788818 0.820148 0.175604
O O2 0.745807 0.730122 0.265613
O O3 0.787208 0.830528 0.326147
O O4 0.000000 0.773661 0.258831
O O5 0.745807 0.269877 0.038546
O O6 0.788819 0.179852 0.128555
O O7 0.000000 0.226339 0.045327
O O8 0.787208 0.169472 0.978012
O O9 0.500000 0.684289 0.569635
O O10 0.273101 0.618487 0.549449
O O11 0.226898 0.881513 0.754710
O O12 0.000000 0.815711 0.734525
O O13 0.155576 0.103059 0.402079
O O14 0.000000 0.053388 0.291229
O O15 0.266966 0.017622 0.324170
O O16 0.000000 0.946612 0.012930
O O17 0.266966 0.982378 0.979989
O O18 0.230948 0.578380 0.902079
O O19 0.000000 0.514632 0.902079
O O20 0.500000 0.616755 0.902079
#
# Coordination Sequence:
#
# PCOD8175056 Si02
#       8
#     8   8   8   8   8   8   8   8
#     4   9  19  32  49  73 101 130 158 194 236 283
#     4   9  19  32  49  73 101 130 158 194 236 283
#     4   9  17  32  51  74 100 125 159 197 236 282
#     4   9  17  32  51  74 100 125 159 197 236 282
#     4   8  16  31  51  71  94 126 158 194 238 283
#     4   8  16  31  51  71  94 126 158 194 238 283
#     4  10  20  33  50  73  95 122 164 208 241 278
#     4  10  20  35  50  67  97 134 164 190 235 292
#
# _framework density 17.287945000000001
#
# number of rings (size 3 to 8) (size 9 to 14) (size 15 to 20)
#    0.750    2.250    0.000    0.750    1.750    2.000 
#    0.000    1.250    0.000    7.500    0.000    0.000 
#    0.000    0.000    0.000    0.000    0.000    0.000 
#
# Total GULP energy -396595.252745 kJ/mol
# GULP energy per Si atom -12393.601648 kJ/mol
# Density = 1.724860 g / cm^3
# Si number density = 17.287945 Si / 1000 Ang^3
#
#
#
# Elastic Constant Matrix: (Units=GPa)
#
#
# Indices 1 2 3 4 5 6 
#
# 1 76.7775 67.4185 38.1170 0.0000 0.0000 0.0000
# 2 67.4185 132.6755 65.8787 0.0000 0.0000 0.0000
# 3 38.1170 65.8787 78.0910 0.0000 0.0000 0.0000
# 4 0.0000 0.0000 0.0000 8.0823 0.0000 0.0000
# 5 0.0000 0.0000 0.0000 0.0000 16.4587 0.0000
# 6 0.0000 0.0000 0.0000 0.0000 0.0000 33.8781
#
#
#
# Elastic Compliance Matrix: (Units=1/GPa)
#
#
# Indices 1 2 3 4 5 6 
#
# 1 0.023784 -0.010878 -0.002432 0.000000 0.000000 0.000000
# 2 -0.010878 0.017946 -0.009829 0.000000 0.000000 0.000000
# 3 -0.002432 -0.009829 0.022285 0.000000 0.000000 0.000000
# 4 0.000000 0.000000 0.000000 0.123727 0.000000 0.000000
# 5 0.000000 0.000000 0.000000 0.000000 0.060758 0.000000
# 6 0.000000 0.000000 0.000000 0.000000 0.000000 0.029518
#
#
# Mechanical properties :
#
#
# Convention : Reuss Voigt Hill
#
# Bulk Modulus (GPa) = 56.38547 70.04138 63.21342
# Shear Modulus (GPa) = 15.14191 19.42580 17.28386
#
# Velocity S-wave (km/s) = 2.96271 3.35574 3.16533
# Velocity P-wave (km/s) = 6.66257 7.45769 7.07132
#
# Compressibility (1/GPa) = 0.01773507
#
# Stress axis : x y z
#
# Youngs Moduli (GPa) = 42.04441 55.72413 44.87298
#
# Poissons Ratio (x) = 0.60617 0.10915
# Poissons Ratio (y) = 0.45736 0.44107
# Poissons Ratio (z) = 0.10227 0.54773
#
# Static dielectric constant tensor:
#      x y z
#    x 3.092960 0.000000 0.000000 
#    y 0.000000 3.094600 0.000000 
#    z 0.000000 0.000000 3.234180 
# 
# 
# High freq. dielectric constant tensor:
#      x y z
#    x 1.657910 0.000000 0.000000 
#    y 0.000000 1.658380 0.000000 
#    z 0.000000 0.000000 1.656060 
# 
# From -- ./inp_files/14055.got.cif
#   From: 2010.03.12/outbox.cif.g09.slc.cpg/sg36_8_cif.got.tgz:14055.got - 2010.04.14 02:13:53.
