data_PCOD8175251
_publ_section_title
;
Structure prediction by ZEFSAII (Michael W. Deem and Ramdas Pophale) SiO2 
 PCOD8175251
Probable space group: C M C 21
;
_chemical_formula_sum "Si O2"
_cell_formula_units_Z 56
_cell_length_a 10.388697
_cell_length_b 23.628862
_cell_length_c 11.648922
_cell_angle_alpha 90.000000
_cell_angle_beta 90.000000
_cell_angle_gamma 90.000000
_cell_volume 2859.496853
_symmetry_space_group_name_H-M "C M C 21"
_symmetry_group_IT_number 36
_symmetry_cell_setting 'orthorhombic'
loop_
_space_group_symop_operation_xyz
x,y,z
-x,-y,1/2+z
x,-y,1/2+z
-x,y,z
1/2+x,1/2+y,z
1/2-x,1/2-y,1/2+z
1/2+x,1/2-y,1/2+z
1/2-x,1/2+y,z
loop_
_atom_site_type_symbol
_atom_site_label
_atom_site_fract_x
_atom_site_fract_y
_atom_site_fract_z
Si Si1 0.354530 0.387842 0.128320
Si Si2 0.640387 0.031469 0.239548
Si Si3 0.345518 0.293137 0.952530
Si Si4 0.266017 0.073305 0.860665
Si Si5 0.352952 0.171658 0.023945
Si Si6 0.351840 0.153680 0.281767
Si Si7 0.856581 0.989848 0.556800
O O1 0.500000 0.378818 0.165215
O O2 0.281469 0.394556 0.247939
O O3 0.337425 0.442447 0.045474
O O4 0.306822 0.332682 0.060261
O O5 0.500000 0.033760 0.177083
O O6 0.654634 0.087581 0.317969
O O7 0.752113 0.032802 0.145725
O O8 0.638932 0.976728 0.321406
O O9 0.500000 0.297837 0.924438
O O10 0.292652 0.230263 0.978740
O O11 0.256266 0.311262 0.847215
O O12 0.334369 0.119731 0.938059
O O13 0.155327 0.041441 0.934136
O O14 0.500000 0.186506 0.034073
O O15 0.303683 0.156296 0.149974
O O16 0.500000 0.176332 0.299860
O O17 0.000000 0.977122 0.604627
#
# Coordination Sequence:
#
# PCOD8175251 Si02
#       7
#     8   8   8   8   8   8   8
#     4   9  20  37  58  85 118 155 195 241 300 352
#     4  10  21  36  59  86 117 156 196 239 296 360
#     4  10  22  41  62  85 116 160 200 244 296 349
#     4  11  20  35  60  91 119 154 200 242 297 355
#     4  10  22  39  60  84 120 158 196 243 299 351
#     4  10  21  41  63  87 117 157 197 245 297 351
#     4  10  20  35  56  86 121 152 190 244 297 352
#
# _framework density 19.583866
#
# number of rings (size 3 to 8) (size 9 to 14) (size 15 to 20)
#    0.000    2.000    1.429    1.714    2.000    1.714 
#    0.000    6.429    0.000    0.000    0.000    0.000 
#    0.000    0.000    0.000    0.000    0.000    0.000 
#
# Total GULP energy -346949.284943 kJ/mol
# GULP energy per Si atom -12391.045891 kJ/mol
# Density = 1.953929 g / cm^3
# Si number density = 19.583866 Si / 1000 Ang^3
#
#
#
# Elastic Constant Matrix: (Units=GPa)
#
#
# Indices 1 2 3 4 5 6 
#
# 1 89.0812 33.1422 38.3409 0.0000 0.0000 0.0000
# 2 33.1422 128.2766 55.7242 0.0000 0.0000 0.0000
# 3 38.3409 55.7242 106.6413 0.0000 0.0000 0.0000
# 4 0.0000 0.0000 0.0000 27.9972 0.0000 0.0000
# 5 0.0000 0.0000 0.0000 0.0000 22.3740 0.0000
# 6 0.0000 0.0000 0.0000 0.0000 0.0000 24.0879
#
#
#
# Elastic Compliance Matrix: (Units=1/GPa)
#
#
# Indices 1 2 3 4 5 6 
#
# 1 0.013594 -0.001797 -0.003948 0.000000 0.000000 0.000000
# 2 -0.001797 0.010322 -0.004748 0.000000 0.000000 0.000000
# 3 -0.003948 -0.004748 0.013278 0.000000 0.000000 0.000000
# 4 0.000000 0.000000 0.000000 0.035718 0.000000 0.000000
# 5 0.000000 0.000000 0.000000 0.000000 0.044695 0.000000
# 6 0.000000 0.000000 0.000000 0.000000 0.000000 0.041515
#
#
# Mechanical properties :
#
#
# Convention : Reuss Voigt Hill
#
# Bulk Modulus (GPa) = 61.69969 64.26820 62.98394
# Shear Modulus (GPa) = 26.95276 28.01126 27.48201
#
# Velocity S-wave (km/s) = 3.71384 3.78606 3.75013
# Velocity P-wave (km/s) = 7.06852 7.21114 7.14018
#
# Compressibility (1/GPa) = 0.01620754
#
# Stress axis : x y z
#
# Youngs Moduli (GPa) = 73.56372 96.87684 75.31426
#
# Poissons Ratio (x) = 0.17408 0.29737
# Poissons Ratio (y) = 0.13219 0.35758
# Poissons Ratio (z) = 0.29046 0.45995
#
# Static dielectric constant tensor:
#      x y z
#    x 3.495950 0.000000 0.000000 
#    y 0.000000 3.817960 0.000000 
#    z 0.000000 0.000000 3.545480 
# 
# 
# High freq. dielectric constant tensor:
#      x y z
#    x 1.752210 0.000000 0.000000 
#    y 0.000000 1.776890 0.000000 
#    z 0.000000 0.000000 1.752230 
# 
# From -- ./inp_files/7826.got.cif
#   From: 2010.03.12/outbox.cif.g09.slc.cpg/sg36_4_cif.got.tgz:7826.got - 2010.04.14 02:13:53.
