data_PCOD8175557
_publ_section_title
;
Structure prediction by ZEFSAII (Michael W. Deem and Ramdas Pophale) SiO2 
 PCOD8175557
Probable space group: C M C 21
;
_chemical_formula_sum "Si O2"
_cell_formula_units_Z 64
_cell_length_a 8.988443
_cell_length_b 30.671894
_cell_length_c 11.954802
_cell_angle_alpha 90.000000
_cell_angle_beta 90.000000
_cell_angle_gamma 90.000000
_cell_volume 3295.850098
_symmetry_space_group_name_H-M "C M C 21"
_symmetry_group_IT_number 36
_symmetry_cell_setting 'orthorhombic'
loop_
_space_group_symop_operation_xyz
x,y,z
-x,-y,1/2+z
x,-y,1/2+z
-x,y,z
1/2+x,1/2+y,z
1/2-x,1/2-y,1/2+z
1/2+x,1/2-y,1/2+z
1/2-x,1/2+y,z
loop_
_atom_site_type_symbol
_atom_site_label
_atom_site_fract_x
_atom_site_fract_y
_atom_site_fract_z
Si Si1 0.324427 0.953047 0.156650
Si Si2 0.671141 0.456343 0.701759
Si Si3 0.324736 0.200807 0.665031
Si Si4 0.176554 0.376441 0.318761
Si Si5 0.176864 0.622768 0.073873
Si Si6 0.668308 0.790875 0.701133
Si Si7 0.830232 0.921084 0.939429
Si Si8 0.169094 0.335793 0.928421
O O1 0.500000 0.960639 0.162618
O O2 0.269788 0.919697 0.253028
O O3 0.241989 0.998408 0.166966
O O4 0.282963 0.933638 0.036738
O O5 0.500000 0.455367 0.664201
O O6 0.753471 0.417359 0.639445
O O7 0.686841 0.453679 0.835490
O O8 0.500000 0.202869 0.675151
O O9 0.260060 0.166913 0.757261
O O10 0.266277 0.249058 0.679686
O O11 0.274335 0.184725 0.543588
O O12 0.234688 0.377912 0.445877
O O13 0.000000 0.374632 0.315870
O O14 0.229350 0.667981 0.130273
O O15 0.000000 0.617959 0.081730
O O16 0.500000 0.780950 0.663825
O O17 0.677858 0.799595 0.832940
O O18 0.781417 0.873970 0.894333
O O19 0.000000 0.920296 0.983078
O O20 0.000000 0.353718 0.939413
#
# Coordination Sequence:
#
# PCOD8175557 Si02
#       8
#     8   8   8   8   8   8   8   8
#     4  11  23  41  65  89 120 160 204 246 296 360
#     4  11  25  42  60  90 126 156 197 249 305 358
#     4  10  21  38  60  84 117 156 196 244 300 355
#     4   9  20  39  61  88 117 152 199 247 290 350
#     4  10  21  40  63  87 118 158 202 244 294 357
#     4  10  22  37  58  88 119 152 200 250 294 355
#     4  11  23  40  63  90 121 155 199 255 308 356
#     4  10  20  39  62  84 114 157 207 251 295 359
#
# _framework density 19.418358000000001
#
# number of rings (size 3 to 8) (size 9 to 14) (size 15 to 20)
#    0.000    1.750    2.500    1.125    3.500    3.000 
#    0.000    1.250    0.000    0.000    0.000    0.000 
#    0.000    0.000    0.000    0.000    0.000    0.000 
#
# Total GULP energy -396858.023318 kJ/mol
# GULP energy per Si atom -12401.813229 kJ/mol
# Density = 1.937416 g / cm^3
# Si number density = 19.418358 Si / 1000 Ang^3
#
#
#
# Elastic Constant Matrix: (Units=GPa)
#
#
# Indices 1 2 3 4 5 6 
#
# 1 36.2468 26.7957 25.3586 0.0000 0.0000 0.0000
# 2 26.7957 121.3274 38.2713 0.0000 0.0000 0.0000
# 3 25.3586 38.2713 117.5687 0.0000 0.0000 0.0000
# 4 0.0000 0.0000 0.0000 24.3764 0.0000 0.0000
# 5 0.0000 0.0000 0.0000 0.0000 22.5785 0.0000
# 6 0.0000 0.0000 0.0000 0.0000 0.0000 35.3813
#
#
#
# Elastic Compliance Matrix: (Units=1/GPa)
#
#
# Indices 1 2 3 4 5 6 
#
# 1 0.036206 -0.006166 -0.005802 0.000000 0.000000 0.000000
# 2 -0.006166 0.010235 -0.002002 0.000000 0.000000 0.000000
# 3 -0.005802 -0.002002 0.010409 0.000000 0.000000 0.000000
# 4 0.000000 0.000000 0.000000 0.041023 0.000000 0.000000
# 5 0.000000 0.000000 0.000000 0.000000 0.044290 0.000000
# 6 0.000000 0.000000 0.000000 0.000000 0.000000 0.028264
#
#
# Mechanical properties :
#
#
# Convention : Reuss Voigt Hill
#
# Bulk Modulus (GPa) = 34.58994 50.66601 42.62797
# Shear Modulus (GPa) = 24.03799 28.78172 26.40986
#
# Velocity S-wave (km/s) = 3.52220 3.85410 3.69188
# Velocity P-wave (km/s) = 5.86454 6.77893 6.33825
#
# Compressibility (1/GPa) = 0.02891014
#
# Stress axis : x y z
#
# Youngs Moduli (GPa) = 27.61964 97.69976 96.07246
#
# Poissons Ratio (x) = 0.60242 0.55743
# Poissons Ratio (y) = 0.17030 0.19233
# Poissons Ratio (z) = 0.16025 0.19559
#
# Static dielectric constant tensor:
#      x y z
#    x 3.401090 0.000000 0.000000 
#    y 0.000000 3.587630 0.000000 
#    z 0.000000 0.000000 3.865890 
# 
# 
# High freq. dielectric constant tensor:
#      x y z
#    x 1.740030 0.000000 0.000000 
#    y 0.000000 1.762930 0.000000 
#    z 0.000000 0.000000 1.769910 
# 
# From -- ./inp_files/7101.got.cif
#   From: 2010.03.12/outbox.cif.g09.slc.cpg/sg36_4_cif.got.tgz:7101.got - 2010.04.14 02:13:53.
