data_PCOD8175856
_publ_section_title
;
Structure prediction by ZEFSAII (Michael W. Deem and Ramdas Pophale) SiO2 
 PCOD8175856
Probable space group: C M C 21
;
_chemical_formula_sum "Si O2"
_cell_formula_units_Z 64
_cell_length_a 23.343813
_cell_length_b 8.630110
_cell_length_c 12.891804
_cell_angle_alpha 90.000000
_cell_angle_beta 90.000000
_cell_angle_gamma 90.000000
_cell_volume 2597.178631
_symmetry_space_group_name_H-M "C M C 21"
_symmetry_group_IT_number 36
_symmetry_cell_setting 'orthorhombic'
loop_
_space_group_symop_operation_xyz
x,y,z
-x,-y,1/2+z
x,-y,1/2+z
-x,y,z
1/2+x,1/2+y,z
1/2-x,1/2-y,1/2+z
1/2+x,1/2-y,1/2+z
1/2-x,1/2+y,z
loop_
_atom_site_type_symbol
_atom_site_label
_atom_site_fract_x
_atom_site_fract_y
_atom_site_fract_z
Si Si1 0.435659 0.717350 0.300080
Si Si2 0.719477 0.903358 0.544936
Si Si3 0.436279 0.886175 0.099593
Si Si4 0.566035 0.389035 0.221039
Si Si5 0.286912 0.109107 0.811993
Si Si6 0.434289 0.214196 0.021003
Si Si7 0.177330 0.727010 0.247297
Si Si8 0.177044 0.268186 0.105455
O O1 0.500000 0.670236 0.330778
O O2 0.436586 0.867339 0.224763
O O3 0.412284 0.563857 0.241235
O O4 0.403698 0.755227 0.409323
O O5 0.703102 0.843271 0.430846
O O6 0.681541 0.798350 0.622719
O O7 0.787471 0.880581 0.569907
O O8 0.711062 0.084605 0.560814
O O9 0.500000 0.849120 0.054617
O O10 0.387824 0.764612 0.059065
O O11 0.410692 0.055623 0.073918
O O12 0.500000 0.353283 0.256559
O O13 0.571594 0.360743 0.097233
O O14 0.611959 0.274479 0.277044
O O15 0.220442 0.135690 0.781314
O O16 0.326185 0.213208 0.733050
O O17 0.302971 0.928850 0.804227
O O18 0.500000 0.172376 0.001039
#
# Coordination Sequence:
#
# PCOD8175856 Si02
#       8
#     8   8   8   8   8   8   8   8
#     4   9  20  39  62  91 130 178 222 259 315 388
#     4  10  21  40  62  85 122 164 210 270 319 370
#     4  10  21  39  64  97 136 170 209 269 332 398
#     4  10  21  41  67  97 136 173 212 268 326 393
#     4  10  21  40  62  86 123 166 215 272 323 378
#     4   9  18  37  63  91 130 177 218 260 319 388
#     4  10  22  40  65  98 126 165 222 268 328 399
#     4  10  22  38  61  93 121 159 214 260 318 392
#
# _framework density 24.642126000000001
#
# number of rings (size 3 to 8) (size 9 to 14) (size 15 to 20)
#    0.000    2.250    0.000    2.250    0.000    6.000 
#    0.000   10.000    0.000   15.750    0.000    0.000 
#    0.000    2.000    0.000    0.000    0.000    0.000 
#
# Total GULP energy -396468.072556 kJ/mol
# GULP energy per Si atom -12389.627267 kJ/mol
# Density = 2.458604 g / cm^3
# Si number density = 24.642126 Si / 1000 Ang^3
#
#
#
# Elastic Constant Matrix: (Units=GPa)
#
#
# Indices 1 2 3 4 5 6 
#
# 1 106.3412 32.1194 14.2095 0.0000 0.0000 0.0000
# 2 32.1194 89.8756 43.9832 0.0000 0.0000 0.0000
# 3 14.2095 43.9832 131.7663 0.0000 0.0000 0.0000
# 4 0.0000 0.0000 0.0000 27.9606 0.0000 0.0000
# 5 0.0000 0.0000 0.0000 0.0000 0.3335 0.0000
# 6 0.0000 0.0000 0.0000 0.0000 0.0000 24.3244
#
#
#
# Elastic Compliance Matrix: (Units=1/GPa)
#
#
# Indices 1 2 3 4 5 6 
#
# 1 0.010544 -0.003839 0.000144 0.000000 0.000000 0.000000
# 2 -0.003839 0.014697 -0.004492 0.000000 0.000000 0.000000
# 3 0.000144 -0.004492 0.009073 0.000000 0.000000 0.000000
# 4 0.000000 0.000000 0.000000 0.035765 0.000000 0.000000
# 5 0.000000 0.000000 0.000000 0.000000 2.998238 0.000000
# 6 0.000000 0.000000 0.000000 0.000000 0.000000 0.041111
#
#
# Mechanical properties :
#
#
# Convention : Reuss Voigt Hill
#
# Bulk Modulus (GPa) = 55.73799 56.51194 56.12496
# Shear Modulus (GPa) = 1.59654 26.36842 13.98248
#
# Velocity S-wave (km/s) = 0.80579 3.27472 2.38465
# Velocity P-wave (km/s) = 4.85117 6.10583 5.51430
#
# Compressibility (1/GPa) = 0.01794108
#
# Stress axis : x y z
#
# Youngs Moduli (GPa) = 94.84187 68.04332 110.21777
#
# Poissons Ratio (x) = 0.26120 -0.01591
# Poissons Ratio (y) = 0.36408 0.49506
# Poissons Ratio (z) = -0.01369 0.30563
#
# Static dielectric constant tensor:
#      x y z
#    x 4.750500 0.000000 0.000000 
#    y 0.000000 4.102590 0.000000 
#    z 0.000000 0.000000 4.559590 
# 
# 
# High freq. dielectric constant tensor:
#      x y z
#    x 2.002360 0.000000 0.000000 
#    y 0.000000 1.955260 0.000000 
#    z 0.000000 0.000000 1.961330 
# 
# From -- ./inp_files/12986.got.cif
#   From: 2010.03.12/outbox.cif.g09.slc.cpg/sg36_7_cif.got.tgz:12986.got - 2010.04.14 02:13:53.
