data_PCOD8175999
_publ_section_title
;
Structure prediction by ZEFSAII (Michael W. Deem and Ramdas Pophale) SiO2 
 PCOD8175999
Probable space group: C M C 21
;
_chemical_formula_sum "Si O2"
_cell_formula_units_Z 64
_cell_length_a 8.615292
_cell_length_b 15.283472
_cell_length_c 23.598485
_cell_angle_alpha 90.000000
_cell_angle_beta 90.000000
_cell_angle_gamma 90.000000
_cell_volume 3107.249665
_symmetry_space_group_name_H-M "C M C 21"
_symmetry_group_IT_number 36
_symmetry_cell_setting 'orthorhombic'
loop_
_space_group_symop_operation_xyz
x,y,z
-x,-y,1/2+z
x,-y,1/2+z
-x,y,z
1/2+x,1/2+y,z
1/2-x,1/2-y,1/2+z
1/2+x,1/2-y,1/2+z
1/2-x,1/2+y,z
loop_
_atom_site_type_symbol
_atom_site_label
_atom_site_fract_x
_atom_site_fract_y
_atom_site_fract_z
Si Si1 0.820659 0.671890 0.402550
Si Si2 0.822226 0.350283 0.640117
Si Si3 0.678642 0.346344 0.133043
Si Si4 0.680157 0.490961 0.842802
Si Si5 0.820421 0.351652 0.411008
Si Si6 0.320713 0.403760 0.523841
Si Si7 0.320886 0.090411 0.522012
Si Si8 0.681057 0.503499 0.213076
O O1 0.777824 0.592941 0.361286
O O2 0.721612 0.757052 0.385527
O O3 0.782781 0.647857 0.467269
O O4 0.000000 0.694898 0.394349
O O5 0.799057 0.249923 0.659718
O O6 0.717195 0.369056 0.585918
O O7 0.773094 0.411627 0.691948
O O8 0.000000 0.369537 0.623910
O O9 0.500000 0.362836 0.116109
O O10 0.783649 0.352230 0.077098
O O11 0.735027 0.417564 0.178756
O O12 0.500000 0.469051 0.850628
O O13 0.720877 0.574114 0.880607
O O14 0.722763 0.513187 0.778231
O O15 0.781109 0.352280 0.477721
O O16 0.000000 0.372042 0.401080
O O17 0.500000 0.385676 0.510635
O O18 0.288712 0.506571 0.521025
O O19 0.500000 0.060425 0.522392
O O20 0.500000 0.521487 0.204207
#
# Coordination Sequence:
#
# PCOD8175999 Si02
#       8
#     8   8   8   8   8   8   8   8
#     4  11  24  42  65  94 129 166 209 261 318 379
#     4  11  23  39  63  95 127 164 209 256 311 373
#     4  10  22  40  62  90 126 165 202 250 310 372
#     4  11  24  43  66  92 126 168 214 265 318 375
#     4  12  25  42  65  95 129 165 212 263 315 380
#     4  12  23  38  63  92 128 168 204 253 318 379
#     4  11  22  37  62  95 126 160 204 255 311 378
#     4  10  23  43  64  89 123 166 212 259 313 372
#
# _framework density 20.596993000000001
#
# number of rings (size 3 to 8) (size 9 to 14) (size 15 to 20)
#    0.000    1.000    2.500    4.500    0.000    6.500 
#    0.000    1.250    0.000    0.000    0.000    0.000 
#    0.000    0.000    0.000    0.000    0.000    0.000 
#
# Total GULP energy -397037.289605 kJ/mol
# GULP energy per Si atom -12407.415300 kJ/mol
# Density = 2.055011 g / cm^3
# Si number density = 20.596993 Si / 1000 Ang^3
#
#
#
# Elastic Constant Matrix: (Units=GPa)
#
#
# Indices 1 2 3 4 5 6 
#
# 1 63.1492 25.1039 28.5657 0.0000 0.0000 0.0000
# 2 25.1039 117.0285 20.4198 0.0000 0.0000 0.0000
# 3 28.5657 20.4198 80.3623 0.0000 0.0000 0.0000
# 4 0.0000 0.0000 0.0000 10.6156 0.0000 0.0000
# 5 0.0000 0.0000 0.0000 0.0000 20.0272 0.0000
# 6 0.0000 0.0000 0.0000 0.0000 0.0000 33.7752
#
#
#
# Elastic Compliance Matrix: (Units=1/GPa)
#
#
# Indices 1 2 3 4 5 6 
#
# 1 0.019941 -0.003182 -0.006280 0.000000 0.000000 0.000000
# 2 -0.003182 0.009449 -0.001270 0.000000 0.000000 0.000000
# 3 -0.006280 -0.001270 0.014999 0.000000 0.000000 0.000000
# 4 0.000000 0.000000 0.000000 0.094201 0.000000 0.000000
# 5 0.000000 0.000000 0.000000 0.000000 0.049932 0.000000
# 6 0.000000 0.000000 0.000000 0.000000 0.000000 0.029608
#
#
# Mechanical properties :
#
#
# Convention : Reuss Voigt Hill
#
# Bulk Modulus (GPa) = 43.61951 45.41320 44.51636
# Shear Modulus (GPa) = 20.22371 25.31362 22.76866
#
# Velocity S-wave (km/s) = 3.13689 3.50951 3.32842
# Velocity P-wave (km/s) = 5.86035 6.20633 6.03582
#
# Compressibility (1/GPa) = 0.02292552
#
# Stress axis : x y z
#
# Youngs Moduli (GPa) = 50.14769 105.83064 66.67312
#
# Poissons Ratio (x) = 0.33674 0.41869
# Poissons Ratio (y) = 0.15956 0.08467
# Poissons Ratio (z) = 0.31492 0.13440
#
# Static dielectric constant tensor:
#      x y z
#    x 3.774550 0.000000 0.000000 
#    y 0.000000 3.859980 0.000000 
#    z 0.000000 0.000000 3.705790 
# 
# 
# High freq. dielectric constant tensor:
#      x y z
#    x 1.810160 0.000000 0.000000 
#    y 0.000000 1.817940 0.000000 
#    z 0.000000 0.000000 1.798030 
# 
# From -- ./inp_files/16536.got.cif
#   From: 2010.03.12/outbox.cif.g09.slc.cpg/sg36_9_cif.got.tgz:16536.got - 2010.04.14 02:13:53.
