data_PCOD8175060
_publ_section_title
;
Structure prediction by ZEFSAII (Michael W. Deem and Ramdas Pophale) SiO2 
 PCOD8175060
Probable space group: C M C 21
;
_chemical_formula_sum "Si O2"
_cell_formula_units_Z 64
_cell_length_a 9.729710
_cell_length_b 24.622357
_cell_length_c 14.613588
_cell_angle_alpha 90.000000
_cell_angle_beta 90.000000
_cell_angle_gamma 90.000000
_cell_volume 3500.953795
_symmetry_space_group_name_H-M "C M C 21"
_symmetry_group_IT_number 36
_symmetry_cell_setting 'orthorhombic'
loop_
_space_group_symop_operation_xyz
x,y,z
-x,-y,1/2+z
x,-y,1/2+z
-x,y,z
1/2+x,1/2+y,z
1/2-x,1/2-y,1/2+z
1/2+x,1/2-y,1/2+z
1/2-x,1/2+y,z
loop_
_atom_site_type_symbol
_atom_site_label
_atom_site_fract_x
_atom_site_fract_y
_atom_site_fract_z
Si Si1 0.341131 0.327535 0.137810
Si Si2 0.849452 0.768741 0.446663
Si Si3 0.836366 0.443659 0.448262
Si Si4 0.152576 0.132772 0.830375
Si Si5 0.340313 0.206755 0.107910
Si Si6 0.840987 0.648764 0.468299
Si Si7 0.662222 0.087714 0.150489
Si Si8 0.163102 0.448500 0.844369
O O1 0.500000 0.331241 0.107707
O O2 0.310497 0.366504 0.223554
O O3 0.304419 0.263750 0.158481
O O4 0.246010 0.353030 0.060540
O O5 0.849825 0.803475 0.354685
O O6 0.736947 0.794478 0.512064
O O7 0.818579 0.706666 0.419138
O O8 0.000000 0.771534 0.494966
O O9 0.767431 0.396883 0.388760
O O10 0.785308 0.438729 0.554275
O O11 0.784908 0.499352 0.401085
O O12 0.000000 0.436845 0.442228
O O13 0.000000 0.107422 0.847406
O O14 0.500000 0.202763 0.084422
O O15 0.295585 0.151626 0.161166
O O16 0.783473 0.603973 0.398847
O O17 0.000000 0.637549 0.493169
O O18 0.500000 0.082342 0.151567
O O19 0.721301 0.055070 0.239451
O O20 0.000000 0.448647 0.840162
#
# Coordination Sequence:
#
# PCOD8175060 Si02
#       8
#     8   8   8   8   8   8   8   8
#     4   9  19  32  49  75 107 142 174 207 254 312
#     4   9  17  29  48  73 103 132 163 207 257 302
#     4  10  20  35  54  77 103 134 175 218 256 299
#     4  10  20  33  50  75 105 139 173 207 254 312
#     4   9  16  29  50  73 100 134 172 208 247 300
#     4   9  18  33  52  76 104 134 170 215 261 303
#     4   9  17  30  50  76 102 130 167 212 256 302
#     4   9  19  33  53  79 104 133 172 216 261 306
#
# _framework density 18.280732
#
# number of rings (size 3 to 8) (size 9 to 14) (size 15 to 20)
#    0.000    2.750    1.250    0.000    1.750    1.500 
#    0.000    3.125    0.000    3.000    0.000    0.000 
#    0.000    0.000    0.000    0.000    0.000    0.000 
#
# Total GULP energy -396481.219259 kJ/mol
# GULP energy per Si atom -12390.038102 kJ/mol
# Density = 1.823912 g / cm^3
# Si number density = 18.280732 Si / 1000 Ang^3
#
#
#
# Elastic Constant Matrix: (Units=GPa)
#
#
# Indices 1 2 3 4 5 6 
#
# 1 32.7726 24.6213 32.7429 0.0000 0.0000 0.0000
# 2 24.6213 101.4615 70.3124 0.0000 0.0000 0.0000
# 3 32.7429 70.3124 129.8184 0.0000 0.0000 0.0000
# 4 0.0000 0.0000 0.0000 26.1483 0.0000 0.0000
# 5 0.0000 0.0000 0.0000 0.0000 19.2339 0.0000
# 6 0.0000 0.0000 0.0000 0.0000 0.0000 19.6196
#
#
#
# Elastic Compliance Matrix: (Units=1/GPa)
#
#
# Indices 1 2 3 4 5 6 
#
# 1 0.042077 -0.004572 -0.008136 0.000000 0.000000 0.000000
# 2 -0.004572 0.016275 -0.007662 0.000000 0.000000 0.000000
# 3 -0.008136 -0.007662 0.013905 0.000000 0.000000 0.000000
# 4 0.000000 0.000000 0.000000 0.038243 0.000000 0.000000
# 5 0.000000 0.000000 0.000000 0.000000 0.051991 0.000000
# 6 0.000000 0.000000 0.000000 0.000000 0.000000 0.050969
#
#
# Mechanical properties :
#
#
# Convention : Reuss Voigt Hill
#
# Bulk Modulus (GPa) = 31.72924 57.71175 44.72049
# Shear Modulus (GPa) = 18.88876 22.09209 20.49042
#
# Velocity S-wave (km/s) = 3.21792 3.48011 3.35158
# Velocity P-wave (km/s) = 5.58579 6.91277 6.28440
#
# Compressibility (1/GPa) = 0.03151667
#
# Stress axis : x y z
#
# Youngs Moduli (GPa) = 23.76577 61.44384 71.91694
#
# Poissons Ratio (x) = 0.28094 0.58514
# Poissons Ratio (y) = 0.10867 0.55100
# Poissons Ratio (z) = 0.19337 0.47076
#
# Static dielectric constant tensor:
#      x y z
#    x 3.128370 0.000000 0.000000 
#    y 0.000000 3.503180 0.000000 
#    z 0.000000 0.000000 3.482280 
# 
# 
# High freq. dielectric constant tensor:
#      x y z
#    x 1.676260 0.000000 0.000000 
#    y 0.000000 1.709520 0.000000 
#    z 0.000000 0.000000 1.703930 
# 
# From -- ./inp_files/8017.got.cif
#   From: 2010.03.12/outbox.cif.g09.slc.cpg/sg36_5_cif.got.tgz:8017.got - 2010.04.14 02:13:53.
