data_PCOD8175923
_publ_section_title
;
Structure prediction by ZEFSAII (Michael W. Deem and Ramdas Pophale) SiO2 
 PCOD8175923
Probable space group: C M C 21
;
_chemical_formula_sum "Si O2"
_cell_formula_units_Z 48
_cell_length_a 8.561195
_cell_length_b 19.822441
_cell_length_c 13.828742
_cell_angle_alpha 90.000000
_cell_angle_beta 90.000000
_cell_angle_gamma 90.000000
_cell_volume 2346.789828
_symmetry_space_group_name_H-M "C M C 21"
_symmetry_group_IT_number 36
_symmetry_cell_setting 'orthorhombic'
loop_
_space_group_symop_operation_xyz
x,y,z
-x,-y,1/2+z
x,-y,1/2+z
-x,y,z
1/2+x,1/2+y,z
1/2-x,1/2-y,1/2+z
1/2+x,1/2-y,1/2+z
1/2-x,1/2+y,z
loop_
_atom_site_type_symbol
_atom_site_label
_atom_site_fract_x
_atom_site_fract_y
_atom_site_fract_z
Si Si1 0.180780 0.548172 0.425980
Si Si2 0.818858 0.079831 0.830380
Si Si3 0.319961 0.793334 0.432670
Si Si4 0.322084 0.818438 0.811543
Si Si5 0.319420 0.263083 0.624488
Si Si6 0.684290 0.107842 0.631686
O O1 0.286547 0.486034 0.393979
O O2 0.207406 0.606068 0.346983
O O3 0.235987 0.573205 0.531468
O O4 0.000000 0.526234 0.429129
O O5 0.716495 0.140429 0.871871
O O6 0.770114 0.068572 0.718743
O O7 0.000000 0.098360 0.837628
O O8 0.500000 0.775250 0.416722
O O9 0.212530 0.731129 0.400340
O O10 0.281356 0.803773 0.545429
O O11 0.500000 0.808268 0.777563
O O12 0.205631 0.801404 0.724899
O O13 0.500000 0.266218 0.595600
O O14 0.261855 0.185826 0.632432
O O15 0.500000 0.102202 0.647066
#
# Coordination Sequence:
#
# PCOD8175923 Si02
#       6
#     8   8   8   8   8   8
#     4  10  23  44  67  91 128 170 211 258 318 385
#     4  12  26  42  64  95 131 168 214 267 318 381
#     4  12  24  40  64  93 127 169 214 263 315 372
#     4  11  22  40  65  96 128 165 211 261 315 378
#     4  11  22  39  65  98 130 166 213 265 317 379
#     4  10  21  41  67  93 124 168 211 258 323 387
#
# _framework density 20.453471
#
# number of rings (size 3 to 8) (size 9 to 14) (size 15 to 20)
#    0.000    1.000    3.333    4.000    0.000    4.000 
#    0.000    1.667    0.000    0.000    0.000    0.000 
#    0.000    0.000    0.000    0.000    0.000    0.000 
#
# Total GULP energy -297769.336387 kJ/mol
# GULP energy per Si atom -12407.055683 kJ/mol
# Density = 2.040692 g / cm^3
# Si number density = 20.453471 Si / 1000 Ang^3
#
#
#
# Elastic Constant Matrix: (Units=GPa)
#
#
# Indices 1 2 3 4 5 6 
#
# 1 67.4434 34.0330 29.6794 0.0000 0.0000 0.0000
# 2 34.0330 56.3781 14.1173 0.0000 0.0000 0.0000
# 3 29.6794 14.1173 112.9189 0.0000 0.0000 0.0000
# 4 0.0000 0.0000 0.0000 34.8379 0.0000 0.0000
# 5 0.0000 0.0000 0.0000 0.0000 37.3765 0.0000
# 6 0.0000 0.0000 0.0000 0.0000 0.0000 30.8805
#
#
#
# Elastic Compliance Matrix: (Units=1/GPa)
#
#
# Indices 1 2 3 4 5 6 
#
# 1 0.023361 -0.012970 -0.004519 0.000000 0.000000 0.000000
# 2 -0.012970 0.025512 0.000220 0.000000 0.000000 0.000000
# 3 -0.004519 0.000220 0.010016 0.000000 0.000000 0.000000
# 4 0.000000 0.000000 0.000000 0.028704 0.000000 0.000000
# 5 0.000000 0.000000 0.000000 0.000000 0.026755 0.000000
# 6 0.000000 0.000000 0.000000 0.000000 0.000000 0.032383
#
#
# Mechanical properties :
#
#
# Convention : Reuss Voigt Hill
#
# Bulk Modulus (GPa) = 41.06741 43.59996 42.33369
# Shear Modulus (GPa) = 26.40104 31.21302 28.80703
#
# Velocity S-wave (km/s) = 3.59665 3.91071 3.75696
# Velocity P-wave (km/s) = 6.11309 6.46177 6.28985
#
# Compressibility (1/GPa) = 0.02435021
#
# Stress axis : x y z
#
# Youngs Moduli (GPa) = 42.80684 39.19711 99.83927
#
# Poissons Ratio (x) = 0.50840 0.45113
# Poissons Ratio (y) = 0.55522 -0.02192
# Poissons Ratio (z) = 0.19342 -0.00861
#
# Static dielectric constant tensor:
#      x y z
#    x 3.550360 0.000000 0.000000 
#    y 0.000000 3.589150 0.000000 
#    z 0.000000 0.000000 3.812710 
# 
# 
# High freq. dielectric constant tensor:
#      x y z
#    x 1.798700 0.000000 0.000000 
#    y 0.000000 1.788800 0.000000 
#    z 0.000000 0.000000 1.815150 
# 
# From -- ./inp_files/10342.got.cif
#   From: 2010.03.12/outbox.cif.g09.slc.cpg/sg36_6_cif.got.tgz:10342.got - 2010.04.14 02:13:53.
