data_PCOD8175543
_publ_section_title
;
Structure prediction by ZEFSAII (Michael W. Deem and Ramdas Pophale) SiO2 
 PCOD8175543
Probable space group: C M C 21
;
_chemical_formula_sum "Si O2"
_cell_formula_units_Z 40
_cell_length_a 10.989553
_cell_length_b 17.262394
_cell_length_c 10.247947
_cell_angle_alpha 90.000000
_cell_angle_beta 90.000000
_cell_angle_gamma 90.000000
_cell_volume 1944.096970
_symmetry_space_group_name_H-M "C M C 21"
_symmetry_group_IT_number 36
_symmetry_cell_setting 'orthorhombic'
loop_
_space_group_symop_operation_xyz
x,y,z
-x,-y,1/2+z
x,-y,1/2+z
-x,y,z
1/2+x,1/2+y,z
1/2-x,1/2-y,1/2+z
1/2+x,1/2-y,1/2+z
1/2-x,1/2+y,z
loop_
_atom_site_type_symbol
_atom_site_label
_atom_site_fract_x
_atom_site_fract_y
_atom_site_fract_z
Si Si1 0.359909 0.177248 0.262390
Si Si2 0.252488 0.340772 0.276832
Si Si3 0.264821 0.909130 0.004337
Si Si4 0.500000 0.426639 0.295699
Si Si5 0.000000 0.058852 0.504175
Si Si6 0.640392 0.078912 0.013032
O O1 0.500000 0.203957 0.244257
O O2 0.266702 0.248728 0.261389
O O3 0.348276 0.131198 0.397310
O O4 0.319586 0.120799 0.145909
O O5 0.383604 0.373401 0.312179
O O6 0.161212 0.362035 0.393573
O O7 0.196030 0.376726 0.145133
O O8 0.121505 0.890099 0.979077
O O9 0.280142 0.001648 0.997761
O O10 0.500000 0.486292 0.411623
O O11 0.500000 0.469552 0.155271
O O12 0.500000 0.054432 0.017767
#
# Coordination Sequence:
#
# PCOD8175543 Si02
#       6
#     8   8   8   4   4   8
#     4  11  24  42  63  90 126 164 202 255 313 366
#     4  11  22  42  63  90 127 162 203 252 307 370
#     4  11  23  40  65  92 123 163 209 252 307 367
#     4  10  20  38  64  90 122 156 202 254 304 362
#     4  10  22  36  64  94 118 154 206 258 300 358
#     4  11  24  41  65  92 125 162 207 256 306 365
#
# _framework density 20.575105000000001
#
# number of rings (size 3 to 8) (size 9 to 14) (size 15 to 20)
#    0.000    1.200    3.000    3.000    2.800    3.200 
#    1.800    0.000    0.000    0.000    0.000    0.000 
#    0.000    0.000    0.000    0.000    0.000    0.000 
#
# Total GULP energy -248090.394508 kJ/mol
# GULP energy per Si atom -12404.519725 kJ/mol
# Density = 2.052827 g / cm^3
# Si number density = 20.575105 Si / 1000 Ang^3
#
#
#
# Elastic Constant Matrix: (Units=GPa)
#
#
# Indices 1 2 3 4 5 6 
#
# 1 48.6606 7.3480 27.2000 0.0000 0.0000 0.0000
# 2 7.3480 93.3188 36.1556 0.0000 0.0000 0.0000
# 3 27.2000 36.1556 111.5446 0.0000 0.0000 0.0000
# 4 0.0000 0.0000 0.0000 33.3982 0.0000 0.0000
# 5 0.0000 0.0000 0.0000 0.0000 21.7325 0.0000
# 6 0.0000 0.0000 0.0000 0.0000 0.0000 21.6686
#
#
#
# Elastic Compliance Matrix: (Units=1/GPa)
#
#
# Indices 1 2 3 4 5 6 
#
# 1 0.023809 0.000428 -0.005945 0.000000 0.000000 0.000000
# 2 0.000428 0.012263 -0.004079 0.000000 0.000000 0.000000
# 3 -0.005945 -0.004079 0.011737 0.000000 0.000000 0.000000
# 4 0.000000 0.000000 0.000000 0.029942 0.000000 0.000000
# 5 0.000000 0.000000 0.000000 0.000000 0.046014 0.000000
# 6 0.000000 0.000000 0.000000 0.000000 0.000000 0.046150
#
#
# Mechanical properties :
#
#
# Convention : Reuss Voigt Hill
#
# Bulk Modulus (GPa) = 34.94371 43.88125 39.41248
# Shear Modulus (GPa) = 25.17070 27.54788 26.35929
#
# Velocity S-wave (km/s) = 3.50145 3.66306 3.58316
# Velocity P-wave (km/s) = 5.77643 6.26613 6.02626
#
# Compressibility (1/GPa) = 0.02861745
#
# Stress axis : x y z
#
# Youngs Moduli (GPa) = 42.00144 81.54811 85.20175
#
# Poissons Ratio (x) = -0.03494 0.50649
# Poissons Ratio (y) = -0.01800 0.34756
# Poissons Ratio (z) = 0.24968 0.33266
#
# Static dielectric constant tensor:
#      x y z
#    x 3.741800 0.000000 0.000000 
#    y 0.000000 3.590360 0.000000 
#    z 0.000000 0.000000 3.842890 
# 
# 
# High freq. dielectric constant tensor:
#      x y z
#    x 1.804170 0.000000 0.000000 
#    y 0.000000 1.795920 0.000000 
#    z 0.000000 0.000000 1.818700 
# 
# From -- ./inp_files/3072.got.cif
#   From: 2010.03.12/outbox.cif.g09.slc.cpg/sg36_2_cif.got.tgz:3072.got - 2010.04.14 02:13:53.
