data_PCOD8175390
_publ_section_title
;
Structure prediction by ZEFSAII (Michael W. Deem and Ramdas Pophale) SiO2 
 PCOD8175390
Probable space group: C M C 21
;
_chemical_formula_sum "Si O2"
_cell_formula_units_Z 64
_cell_length_a 9.102149
_cell_length_b 28.228949
_cell_length_c 12.566163
_cell_angle_alpha 90.000000
_cell_angle_beta 90.000000
_cell_angle_gamma 90.000000
_cell_volume 3228.801441
_symmetry_space_group_name_H-M "C M C 21"
_symmetry_group_IT_number 36
_symmetry_cell_setting 'orthorhombic'
loop_
_space_group_symop_operation_xyz
x,y,z
-x,-y,1/2+z
x,-y,1/2+z
-x,y,z
1/2+x,1/2+y,z
1/2-x,1/2-y,1/2+z
1/2+x,1/2-y,1/2+z
1/2-x,1/2+y,z
loop_
_atom_site_type_symbol
_atom_site_label
_atom_site_fract_x
_atom_site_fract_y
_atom_site_fract_z
Si Si1 0.164477 0.353892 0.907840
Si Si2 0.168500 0.568948 0.565920
Si Si3 0.332953 0.764742 0.790833
Si Si4 0.328319 0.835759 0.603073
Si Si5 0.831414 0.985863 0.883938
Si Si6 0.167706 0.093809 0.233707
Si Si7 0.670521 0.417687 0.279228
Si Si8 0.826376 0.674565 0.864294
O O1 0.181841 0.296896 0.898705
O O2 0.292519 0.375906 0.837446
O O3 0.000000 0.366853 0.863122
O O4 0.180594 0.375997 0.025679
O O5 0.222552 0.532854 0.474662
O O6 0.269595 0.562821 0.667807
O O7 0.000000 0.556512 0.593438
O O8 0.500000 0.747035 0.776350
O O9 0.282658 0.795640 0.688396
O O10 0.227979 0.719907 0.798966
O O11 0.500000 0.843566 0.602516
O O12 0.260159 0.887109 0.633330
O O13 0.272903 0.820657 0.486431
O O14 0.800211 0.960448 0.768970
O O15 0.000000 0.975277 0.917804
O O16 0.805801 0.041663 0.867739
O O17 0.000000 0.101747 0.202461
O O18 0.500000 0.404772 0.266695
O O19 0.760201 0.372102 0.313140
O O20 0.000000 0.671581 0.854223
#
# Coordination Sequence:
#
# PCOD8175390 Si02
#       8
#     8   8   8   8   8   8   8   8
#     4   8  16  32  54  81 112 142 176 222 274 329
#     4  10  20  36  60  88 116 147 185 232 283 331
#     4   9  18  36  59  81 107 144 186 225 278 342
#     4   9  20  38  57  79 112 149 182 225 282 337
#     4   9  20  38  58  82 112 148 190 232 276 331
#     4   9  16  29  54  84 108 135 179 228 270 320
#     4  11  24  41  58  79 114 155 191 230 278 334
#     4  11  24  40  56  80 113 146 187 236 283 332
#
# _framework density 19.821596
#
# number of rings (size 3 to 8) (size 9 to 14) (size 15 to 20)
#    0.000    2.500    0.000    2.250    0.000    7.000 
#    0.000    6.250    0.000    0.000    0.000    0.000 
#    0.000    0.000    0.000    0.000    0.000    0.000 
#
# Total GULP energy -396622.906578 kJ/mol
# GULP energy per Si atom -12394.465831 kJ/mol
# Density = 1.977648 g / cm^3
# Si number density = 19.821596 Si / 1000 Ang^3
#
#
#
# Elastic Constant Matrix: (Units=GPa)
#
#
# Indices 1 2 3 4 5 6 
#
# 1 62.2283 36.8915 28.4091 0.0000 0.0000 0.0000
# 2 36.8915 96.8683 22.6466 0.0000 0.0000 0.0000
# 3 28.4091 22.6466 73.8460 0.0000 0.0000 0.0000
# 4 0.0000 0.0000 0.0000 23.0066 0.0000 0.0000
# 5 0.0000 0.0000 0.0000 0.0000 28.8950 0.0000
# 6 0.0000 0.0000 0.0000 0.0000 0.0000 28.9662
#
#
#
# Elastic Compliance Matrix: (Units=1/GPa)
#
#
# Indices 1 2 3 4 5 6 
#
# 1 0.023547 -0.007379 -0.006796 0.000000 0.000000 0.000000
# 2 -0.007379 0.013433 -0.001281 0.000000 0.000000 0.000000
# 3 -0.006796 -0.001281 0.016549 0.000000 0.000000 0.000000
# 4 0.000000 0.000000 0.000000 0.043466 0.000000 0.000000
# 5 0.000000 0.000000 0.000000 0.000000 0.034608 0.000000
# 6 0.000000 0.000000 0.000000 0.000000 0.000000 0.034523
#
#
# Mechanical properties :
#
#
# Convention : Reuss Voigt Hill
#
# Bulk Modulus (GPa) = 44.21303 45.42634 44.81969
# Shear Modulus (GPa) = 24.44085 25.83991 25.14038
#
# Velocity S-wave (km/s) = 3.51528 3.61449 3.56523
# Velocity P-wave (km/s) = 6.23138 6.35506 6.29352
#
# Compressibility (1/GPa) = 0.02261777
#
# Stress axis : x y z
#
# Youngs Moduli (GPa) = 42.46860 74.44405 60.42711
#
# Poissons Ratio (x) = 0.54931 0.41065
# Poissons Ratio (y) = 0.31337 0.07740
# Poissons Ratio (z) = 0.28861 0.09535
#
# Static dielectric constant tensor:
#      x y z
#    x 3.589920 0.000000 0.000000 
#    y 0.000000 3.634450 0.000000 
#    z 0.000000 0.000000 3.584690 
# 
# 
# High freq. dielectric constant tensor:
#      x y z
#    x 1.776680 0.000000 0.000000 
#    y 0.000000 1.767640 0.000000 
#    z 0.000000 0.000000 1.757040 
# 
# From -- ./inp_files/7147.got.cif
#   From: 2010.03.12/outbox.cif.g09.slc.cpg/sg36_4_cif.got.tgz:7147.got - 2010.04.14 02:13:53.
