data_PCOD8175512
_publ_section_title
;
Structure prediction by ZEFSAII (Michael W. Deem and Ramdas Pophale) SiO2 
 PCOD8175512
Probable space group: C M C 21
;
_chemical_formula_sum "Si O2"
_cell_formula_units_Z 64
_cell_length_a 18.916707
_cell_length_b 11.838199
_cell_length_c 13.886670
_cell_angle_alpha 90.000000
_cell_angle_beta 90.000000
_cell_angle_gamma 90.000000
_cell_volume 3109.777296
_symmetry_space_group_name_H-M "C M C 21"
_symmetry_group_IT_number 36
_symmetry_cell_setting 'orthorhombic'
loop_
_space_group_symop_operation_xyz
x,y,z
-x,-y,1/2+z
x,-y,1/2+z
-x,y,z
1/2+x,1/2+y,z
1/2-x,1/2-y,1/2+z
1/2+x,1/2-y,1/2+z
1/2-x,1/2+y,z
loop_
_atom_site_type_symbol
_atom_site_label
_atom_site_fract_x
_atom_site_fract_y
_atom_site_fract_z
Si Si1 0.580063 0.401354 0.156990
Si Si2 0.707369 0.789969 0.090065
Si Si3 0.919147 0.870731 0.570461
Si Si4 0.329584 0.122009 0.395446
Si Si5 0.422288 0.324009 0.357703
Si Si6 0.417736 0.077520 0.904594
Si Si7 0.665860 0.974849 0.229446
Si Si8 0.651048 0.827130 0.587978
O O1 0.500000 0.394364 0.119494
O O2 0.614283 0.515773 0.115641
O O3 0.585488 0.413715 0.272084
O O4 0.617448 0.287771 0.124808
O O5 0.628982 0.736894 0.097652
O O6 0.764460 0.690314 0.096434
O O7 0.715070 0.884134 0.174365
O O8 0.719893 0.851562 0.986669
O O9 0.915704 0.891838 0.456566
O O10 0.000000 0.847726 0.605409
O O11 0.359651 0.234130 0.346187
O O12 0.290303 0.048302 0.310929
O O13 0.397820 0.051188 0.434237
O O14 0.500000 0.264961 0.350689
O O15 0.500000 0.102916 0.916748
O O16 0.393930 0.093376 0.791892
O O17 0.373913 0.157296 0.977781
O O18 0.630879 0.063481 0.153227
#
# Coordination Sequence:
#
# PCOD8175512 Si02
#       8
#     8   8   8   8   8   8   8   8
#     4  10  20  38  61  88 121 161 208 260 312 380
#     4  11  24  42  64  92 129 171 214 273 325 396
#     4   9  21  40  60  87 123 167 211 260 320 381
#     4   9  19  38  61  90 124 163 208 268 324 383
#     4   9  16  33  59  87 114 156 208 247 307 379
#     4  10  22  40  64  98 132 162 211 275 331 387
#     4  10  22  43  61  96 124 169 216 263 334 394
#     4  12  24  40  66  96 128 169 220 266 330 394
#
# _framework density 20.580252999999999
#
# number of rings (size 3 to 8) (size 9 to 14) (size 15 to 20)
#    0.750    1.250    2.500    0.750    1.750    3.000 
#    2.250    0.000    0.000    0.000    0.000    0.000 
#    0.000    0.000    0.000    0.000    0.000    0.000 
#
# Total GULP energy -396427.404849 kJ/mol
# GULP energy per Si atom -12388.356402 kJ/mol
# Density = 2.053341 g / cm^3
# Si number density = 20.580253 Si / 1000 Ang^3
#
#
#
# Elastic Constant Matrix: (Units=GPa)
#
#
# Indices 1 2 3 4 5 6 
#
# 1 68.6960 27.4902 38.3057 0.0000 0.0000 0.0000
# 2 27.4902 83.3054 59.5081 0.0000 0.0000 0.0000
# 3 38.3057 59.5081 132.5687 0.0000 0.0000 0.0000
# 4 0.0000 0.0000 0.0000 44.3767 0.0000 0.0000
# 5 0.0000 0.0000 0.0000 0.0000 16.4891 0.0000
# 6 0.0000 0.0000 0.0000 0.0000 0.0000 28.0232
#
#
#
# Elastic Compliance Matrix: (Units=1/GPa)
#
#
# Indices 1 2 3 4 5 6 
#
# 1 0.017936 -0.003263 -0.003718 0.000000 0.000000 0.000000
# 2 -0.003263 0.018264 -0.007255 0.000000 0.000000 0.000000
# 3 -0.003718 -0.007255 0.011874 0.000000 0.000000 0.000000
# 4 0.000000 0.000000 0.000000 0.022534 0.000000 0.000000
# 5 0.000000 0.000000 0.000000 0.000000 0.060646 0.000000
# 6 0.000000 0.000000 0.000000 0.000000 0.000000 0.035685
#
#
# Mechanical properties :
#
#
# Convention : Reuss Voigt Hill
#
# Bulk Modulus (GPa) = 51.01688 59.46423 55.24055
# Shear Modulus (GPa) = 24.75923 28.39554 26.57738
#
# Velocity S-wave (km/s) = 3.47227 3.71852 3.59751
# Velocity P-wave (km/s) = 6.39677 6.88427 6.64499
#
# Compressibility (1/GPa) = 0.01960135
#
# Stress axis : x y z
#
# Youngs Moduli (GPa) = 55.75463 54.75381 84.21484
#
# Poissons Ratio (x) = 0.17865 0.31310
# Poissons Ratio (y) = 0.18192 0.61102
# Poissons Ratio (z) = 0.20729 0.39726
#
# Static dielectric constant tensor:
#      x y z
#    x 3.454110 0.000000 0.000000 
#    y 0.000000 3.562120 0.000000 
#    z 0.000000 0.000000 3.927890 
# 
# 
# High freq. dielectric constant tensor:
#      x y z
#    x 1.772390 0.000000 0.000000 
#    y 0.000000 1.793770 0.000000 
#    z 0.000000 0.000000 1.816790 
# 
# From -- ./inp_files/12657.got.cif
#   From: 2010.03.12/outbox.cif.g09.slc.cpg/sg36_7_cif.got.tgz:12657.got - 2010.04.14 02:13:53.
