data_PCOD8175532
_publ_section_title
;
Structure prediction by ZEFSAII (Michael W. Deem and Ramdas Pophale) SiO2 
 PCOD8175532
Probable space group: C M C 21
;
_chemical_formula_sum "Si O2"
_cell_formula_units_Z 64
_cell_length_a 15.471614
_cell_length_b 11.443514
_cell_length_c 17.960953
_cell_angle_alpha 90.000000
_cell_angle_beta 90.000000
_cell_angle_gamma 90.000000
_cell_volume 3179.980108
_symmetry_space_group_name_H-M "C M C 21"
_symmetry_group_IT_number 36
_symmetry_cell_setting 'orthorhombic'
loop_
_space_group_symop_operation_xyz
x,y,z
-x,-y,1/2+z
x,-y,1/2+z
-x,y,z
1/2+x,1/2+y,z
1/2-x,1/2-y,1/2+z
1/2+x,1/2-y,1/2+z
1/2-x,1/2+y,z
loop_
_atom_site_type_symbol
_atom_site_label
_atom_site_fract_x
_atom_site_fract_y
_atom_site_fract_z
Si Si1 0.100361 0.342222 0.605420
Si Si2 0.819475 0.111777 0.883028
Si Si3 0.398059 0.554668 0.260347
Si Si4 0.600187 0.037731 0.254823
Si Si5 0.819674 0.111803 0.643122
Si Si6 0.307508 0.803288 0.264965
Si Si7 0.285877 0.999819 0.010814
Si Si8 0.600576 0.150528 0.405614
O O1 0.137862 0.401136 0.681106
O O2 0.111972 0.202555 0.608112
O O3 0.154372 0.392393 0.536330
O O4 0.000000 0.372418 0.593483
O O5 0.737667 0.173810 0.844190
O O6 0.888508 0.210100 0.906184
O O7 0.867444 0.020770 0.830069
O O8 0.788101 0.045407 0.956195
O O9 0.500000 0.573169 0.263223
O O10 0.371833 0.490988 0.183986
O O11 0.351660 0.678494 0.263765
O O12 0.500000 0.062883 0.257148
O O13 0.618982 0.900705 0.253125
O O14 0.640392 0.097996 0.328544
O O15 0.762212 0.186591 0.699930
O O16 0.759682 0.059066 0.580320
O O17 0.346753 0.903188 0.973660
O O18 0.500000 0.118792 0.415122
#
# Coordination Sequence:
#
# PCOD8175532 Si02
#       8
#     8   8   8   8   8   8   8   8
#     4  11  23  41  63  91 123 163 208 258 312 367
#     4  11  24  40  66  89 128 161 209 253 312 368
#     4  11  24  43  66  94 123 162 206 257 315 370
#     4  10  20  38  63  91 120 155 205 264 316 361
#     4  11  24  40  66  89 128 161 209 253 312 368
#     4  11  21  39  64  93 121 157 209 261 308 363
#     4  12  23  42  61  94 126 170 206 250 307 376
#     4  11  23  41  63  91 123 163 208 258 312 367
#
# _framework density 20.125910999999999
#
# number of rings (size 3 to 8) (size 9 to 14) (size 15 to 20)
#    0.000    1.000    2.500    5.250    3.500    1.000 
#    0.000    5.000    0.000    0.000    0.000    0.000 
#    0.000    0.000    0.000    0.000    0.000    0.000 
#
# Total GULP energy -396960.071696 kJ/mol
# GULP energy per Si atom -12405.002241 kJ/mol
# Density = 2.008010 g / cm^3
# Si number density = 20.125911 Si / 1000 Ang^3
#
#
#
# Elastic Constant Matrix: (Units=GPa)
#
#
# Indices 1 2 3 4 5 6 
#
# 1 69.7412 22.1153 18.2149 0.0000 0.0000 0.0000
# 2 22.1153 104.8255 -6.3213 0.0000 0.0000 0.0000
# 3 18.2149 -6.3213 48.2134 0.0000 0.0000 0.0000
# 4 0.0000 0.0000 0.0000 -30.3754 0.0000 0.0000
# 5 0.0000 0.0000 0.0000 0.0000 25.0770 0.0000
# 6 0.0000 0.0000 0.0000 0.0000 0.0000 39.9864
#
#
#
# Elastic Compliance Matrix: (Units=1/GPa)
#
#
# Indices 1 2 3 4 5 6 
#
# 1 0.017517 -0.004127 -0.007159 0.000000 0.000000 0.000000
# 2 -0.004127 0.010588 0.002948 0.000000 0.000000 0.000000
# 3 -0.007159 0.002948 0.023832 0.000000 0.000000 0.000000
# 4 0.000000 0.000000 0.000000 -0.032921 0.000000 0.000000
# 5 0.000000 0.000000 0.000000 0.000000 0.039877 0.000000
# 6 0.000000 0.000000 0.000000 0.000000 0.000000 0.025009
#
#
# Mechanical properties :
#
#
# Convention : Reuss Voigt Hill
#
# Bulk Modulus (GPa) = 28.36089 32.31086 30.33587
# Shear Modulus (GPa) = 44.51034 19.52234 32.01634
#
# Velocity S-wave (km/s) = 4.70786 3.11788 3.99281
# Velocity P-wave (km/s) = 6.60865 5.38988 6.03013
#
# Compressibility (1/GPa) = 0.03525983
#
# Stress axis : x y z
#
# Youngs Moduli (GPa) = 57.08619 94.44493 41.95985
#
# Poissons Ratio (x) = 0.38981 0.30040
# Poissons Ratio (y) = 0.23562 -0.12368
# Poissons Ratio (z) = 0.40869 -0.27838
#
# Static dielectric constant tensor:
#      x y z
#    x 3.582540 0.000000 0.000000 
#    y 0.000000 3.832780 0.000000 
#    z 0.000000 0.000000 3.786550 
# 
# 
# High freq. dielectric constant tensor:
#      x y z
#    x 1.787940 0.000000 0.000000 
#    y 0.000000 1.796770 0.000000 
#    z 0.000000 0.000000 1.786330 
# 
# From -- ./inp_files/14736.got.cif
#   From: 2010.03.12/outbox.cif.g09.slc.cpg/sg36_8_cif.got.tgz:14736.got - 2010.04.14 02:13:53.
