data_PCOD8175642
_publ_section_title
;
Structure prediction by ZEFSAII (Michael W. Deem and Ramdas Pophale) SiO2 
 PCOD8175642
Probable space group: C M C 21
;
_chemical_formula_sum "Si O2"
_cell_formula_units_Z 64
_cell_length_a 9.377777
_cell_length_b 24.542439
_cell_length_c 14.998140
_cell_angle_alpha 90.000000
_cell_angle_beta 90.000000
_cell_angle_gamma 90.000000
_cell_volume 3451.874714
_symmetry_space_group_name_H-M "C M C 21"
_symmetry_group_IT_number 36
_symmetry_cell_setting 'orthorhombic'
loop_
_space_group_symop_operation_xyz
x,y,z
-x,-y,1/2+z
x,-y,1/2+z
-x,y,z
1/2+x,1/2+y,z
1/2-x,1/2-y,1/2+z
1/2+x,1/2-y,1/2+z
1/2-x,1/2+y,z
loop_
_atom_site_type_symbol
_atom_site_label
_atom_site_fract_x
_atom_site_fract_y
_atom_site_fract_z
Si Si1 0.663722 0.381291 0.285020
Si Si2 0.168993 0.314234 0.939493
Si Si3 0.664355 0.992301 0.604175
Si Si4 0.166004 0.890402 0.592751
Si Si5 0.160081 0.999057 0.776597
Si Si6 0.330646 0.308637 0.445154
Si Si7 0.665476 0.113280 0.603589
Si Si8 0.338877 0.618301 0.301005
O O1 0.500000 0.366943 0.264461
O O2 0.675549 0.442893 0.326539
O O3 0.728694 0.340273 0.358182
O O4 0.747269 0.375075 0.192940
O O5 0.228343 0.252747 0.945547
O O6 0.233270 0.342274 0.852388
O O7 0.000000 0.316296 0.929255
O O8 0.219287 0.344908 0.028639
O O9 0.500000 0.975262 0.600864
O O10 0.754544 0.944759 0.556429
O O11 0.714603 0.997183 0.705484
O O12 0.689803 0.052519 0.562960
O O13 0.221008 0.839106 0.534930
O O14 0.200779 0.879287 0.696176
O O15 0.000000 0.900524 0.576555
O O16 0.178064 0.944516 0.836728
O O17 0.000000 0.995764 0.732391
O O18 0.500000 0.308230 0.441905
O O19 0.500000 0.122161 0.626992
O O20 0.500000 0.638909 0.316250
#
# Coordination Sequence:
#
# PCOD8175642 Si02
#       8
#     8   8   8   8   8   8   8   8
#     4   9  17  32  55  78  98 124 162 207 248 287
#     4  10  21  36  51  69  98 136 172 202 239 291
#     4   9  16  28  48  75 102 125 158 201 242 292
#     4   9  18  34  54  74  99 131 163 199 247 297
#     4   8  15  29  49  74 101 126 156 196 247 301
#     4   9  19  35  53  73  97 129 171 209 241 287
#     4   9  19  34  51  73 102 134 163 195 244 300
#     4   9  18  32  51  76 101 125 159 203 246 289
#
# _framework density 18.540651
#
# number of rings (size 3 to 8) (size 9 to 14) (size 15 to 20)
#    0.000    3.000    0.000    1.125    0.000    5.000 
#    0.000    4.375    0.000    0.000    0.000    0.000 
#    0.000    0.000    0.000    0.000    0.000    0.000 
#
# Total GULP energy -396531.614984 kJ/mol
# GULP energy per Si atom -12391.612968 kJ/mol
# Density = 1.849845 g / cm^3
# Si number density = 18.540651 Si / 1000 Ang^3
#
#
#
# Elastic Constant Matrix: (Units=GPa)
#
#
# Indices 1 2 3 4 5 6 
#
# 1 49.5830 47.8329 37.1722 0.0000 0.0000 0.0000
# 2 47.8329 175.6058 76.0834 0.0000 0.0000 0.0000
# 3 37.1722 76.0834 92.0469 0.0000 0.0000 0.0000
# 4 0.0000 0.0000 0.0000 34.3510 0.0000 0.0000
# 5 0.0000 0.0000 0.0000 0.0000 20.4513 0.0000
# 6 0.0000 0.0000 0.0000 0.0000 0.0000 22.1806
#
#
#
# Elastic Compliance Matrix: (Units=1/GPa)
#
#
# Indices 1 2 3 4 5 6 
#
# 1 0.031274 -0.004747 -0.008706 0.000000 0.000000 0.000000
# 2 -0.004747 0.009592 -0.006012 0.000000 0.000000 0.000000
# 3 -0.008706 -0.006012 0.019349 0.000000 0.000000 0.000000
# 4 0.000000 0.000000 0.000000 0.029111 0.000000 0.000000
# 5 0.000000 0.000000 0.000000 0.000000 0.048897 0.000000
# 6 0.000000 0.000000 0.000000 0.000000 0.000000 0.045084
#
#
# Mechanical properties :
#
#
# Convention : Reuss Voigt Hill
#
# Bulk Modulus (GPa) = 46.97881 71.04585 59.01233
# Shear Modulus (GPa) = 21.80236 25.80641 23.80438
#
# Velocity S-wave (km/s) = 3.43289 3.73484 3.58705
# Velocity P-wave (km/s) = 6.41142 7.54989 7.00383
#
# Compressibility (1/GPa) = 0.02128619
#
# Stress axis : x y z
#
# Youngs Moduli (GPa) = 31.97498 104.25188 51.68179
#
# Poissons Ratio (x) = 0.49484 0.44996
# Poissons Ratio (y) = 0.15177 0.31070
# Poissons Ratio (z) = 0.27839 0.62674
#
# Static dielectric constant tensor:
#      x y z
#    x 3.228170 0.000000 0.000000 
#    y 0.000000 3.849870 0.000000 
#    z 0.000000 0.000000 3.128980 
# 
# 
# High freq. dielectric constant tensor:
#      x y z
#    x 1.701440 0.000000 0.000000 
#    y 0.000000 1.731010 0.000000 
#    z 0.000000 0.000000 1.693100 
# 
# From -- ./inp_files/10975.got.cif
#   From: 2010.03.12/outbox.cif.g09.slc.cpg/sg36_6_cif.got.tgz:10975.got - 2010.04.14 02:13:53.
