data_PCOD8175282
_publ_section_title
;
Structure prediction by ZEFSAII (Michael W. Deem and Ramdas Pophale) SiO2 
 PCOD8175282
Probable space group: C M C 21
;
_chemical_formula_sum "Si O2"
_cell_formula_units_Z 64
_cell_length_a 8.601375
_cell_length_b 20.240910
_cell_length_c 19.101497
_cell_angle_alpha 90.000000
_cell_angle_beta 90.000000
_cell_angle_gamma 90.000000
_cell_volume 3325.564081
_symmetry_space_group_name_H-M "C M C 21"
_symmetry_group_IT_number 36
_symmetry_cell_setting 'orthorhombic'
loop_
_space_group_symop_operation_xyz
x,y,z
-x,-y,1/2+z
x,-y,1/2+z
-x,y,z
1/2+x,1/2+y,z
1/2-x,1/2-y,1/2+z
1/2+x,1/2-y,1/2+z
1/2-x,1/2+y,z
loop_
_atom_site_type_symbol
_atom_site_label
_atom_site_fract_x
_atom_site_fract_y
_atom_site_fract_z
Si Si1 0.179016 0.988744 0.005400
Si Si2 0.820696 0.511816 0.360945
Si Si3 0.820483 0.943352 0.725698
Si Si4 0.179849 0.820127 0.223205
Si Si5 0.820230 0.439540 0.141183
Si Si6 0.818306 0.858514 0.512649
Si Si7 0.679565 0.820075 0.653574
Si Si8 0.817643 0.358086 0.364177
O O1 0.000000 0.980594 0.985129
O O2 0.220598 0.941998 0.070202
O O3 0.280632 0.965848 0.939436
O O4 0.217243 0.064245 0.025944
O O5 0.716570 0.554907 0.308247
O O6 0.779725 0.434867 0.350962
O O7 0.000000 0.526346 0.345637
O O8 0.784257 0.871496 0.695895
O O9 0.000000 0.959951 0.711373
O O10 0.713819 0.997667 0.689163
O O11 0.281554 0.873483 0.182600
O O12 0.210642 0.750590 0.187153
O O13 0.235470 0.815841 0.303554
O O14 0.000000 0.840829 0.220374
O O15 0.000000 0.440023 0.120870
O O16 0.730859 0.817449 0.572619
O O17 0.752473 0.834985 0.438098
O O18 0.000000 0.843046 0.515753
O O19 0.500000 0.840703 0.658995
O O20 0.000000 0.344098 0.364084
#
# Coordination Sequence:
#
# PCOD8175282 Si02
#       8
#     8   8   8   8   8   8   8   8
#     4  10  20  35  57  88 121 155 194 244 298 351
#     4  10  20  35  57  88 121 155 194 244 298 351
#     4  12  23  37  60  88 119 155 195 244 294 349
#     4  11  24  41  61  87 121 159 200 247 296 352
#     4  12  23  37  60  88 119 155 195 244 294 349
#     4  10  20  35  59  87 118 155 195 243 294 352
#     4  11  24  41  61  87 121 159 200 247 296 352
#     4  10  20  35  59  87 118 155 195 243 294 352
#
# _framework density 19.244857
#
# number of rings (size 3 to 8) (size 9 to 14) (size 15 to 20)
#    0.000    1.250    2.500    4.500    0.000    4.000 
#    0.000    1.250    0.000    6.000    0.000    0.000 
#    0.000    0.000    0.000    0.000    0.000    0.000 
#
# Total GULP energy -397028.483905 kJ/mol
# GULP energy per Si atom -12407.140122 kJ/mol
# Density = 1.920105 g / cm^3
# Si number density = 19.244857 Si / 1000 Ang^3
#
#
#
# Elastic Constant Matrix: (Units=GPa)
#
#
# Indices 1 2 3 4 5 6 
#
# 1 80.5920 31.3784 34.0298 0.0000 0.0000 0.0000
# 2 31.3784 64.1253 43.9738 0.0000 0.0000 0.0000
# 3 34.0298 43.9738 141.5109 0.0000 0.0000 0.0000
# 4 0.0000 0.0000 0.0000 29.1015 0.0000 0.0000
# 5 0.0000 0.0000 0.0000 0.0000 40.0111 0.0000
# 6 0.0000 0.0000 0.0000 0.0000 0.0000 25.1866
#
#
#
# Elastic Compliance Matrix: (Units=1/GPa)
#
#
# Indices 1 2 3 4 5 6 
#
# 1 0.015666 -0.006459 -0.001760 0.000000 0.000000 0.000000
# 2 -0.006459 0.022480 -0.005432 0.000000 0.000000 0.000000
# 3 -0.001760 -0.005432 0.009178 0.000000 0.000000 0.000000
# 4 0.000000 0.000000 0.000000 0.034363 0.000000 0.000000
# 5 0.000000 0.000000 0.000000 0.000000 0.024993 0.000000
# 6 0.000000 0.000000 0.000000 0.000000 0.000000 0.039704
#
#
# Mechanical properties :
#
#
# Convention : Reuss Voigt Hill
#
# Bulk Modulus (GPa) = 49.94667 56.11025 53.02846
# Shear Modulus (GPa) = 27.72223 30.64958 29.18591
#
# Velocity S-wave (km/s) = 3.79951 3.99508 3.89852
# Velocity P-wave (km/s) = 6.72740 7.10635 6.91947
#
# Compressibility (1/GPa) = 0.02002136
#
# Stress axis : x y z
#
# Youngs Moduli (GPa) = 63.83168 44.48342 108.95618
#
# Poissons Ratio (x) = 0.28731 0.19179
# Poissons Ratio (y) = 0.41228 0.59190
# Poissons Ratio (z) = 0.11236 0.24165
#
# Static dielectric constant tensor:
#      x y z
#    x 3.574630 0.000000 0.000000 
#    y 0.000000 3.292680 0.000000 
#    z 0.000000 0.000000 3.702870 
# 
# 
# High freq. dielectric constant tensor:
#      x y z
#    x 1.765460 0.000000 0.000000 
#    y 0.000000 1.710970 0.000000 
#    z 0.000000 0.000000 1.767110 
# 
# From -- ./inp_files/13923.got.cif
#   From: 2010.03.12/outbox.cif.g09.slc.cpg/sg36_7_cif.got.tgz:13923.got - 2010.04.14 02:13:53.
