data_PCOD8175741
_publ_section_title
;
Structure prediction by ZEFSAII (Michael W. Deem and Ramdas Pophale) SiO2 
 PCOD8175741
Probable space group: C M C 21
;
_chemical_formula_sum "Si O2"
_cell_formula_units_Z 64
_cell_length_a 20.434006
_cell_length_b 18.951928
_cell_length_c 7.686930
_cell_angle_alpha 90.000000
_cell_angle_beta 90.000000
_cell_angle_gamma 90.000000
_cell_volume 2976.869803
_symmetry_space_group_name_H-M "C M C 21"
_symmetry_group_IT_number 36
_symmetry_cell_setting 'orthorhombic'
loop_
_space_group_symop_operation_xyz
x,y,z
-x,-y,1/2+z
x,-y,1/2+z
-x,y,z
1/2+x,1/2+y,z
1/2-x,1/2-y,1/2+z
1/2+x,1/2-y,1/2+z
1/2-x,1/2+y,z
loop_
_atom_site_type_symbol
_atom_site_label
_atom_site_fract_x
_atom_site_fract_y
_atom_site_fract_z
Si Si1 0.313918 0.101697 0.659190
Si Si2 0.620656 0.666850 0.311733
Si Si3 0.677895 0.827433 0.616539
Si Si4 0.772052 0.466096 0.507325
Si Si5 0.575425 0.818021 0.336958
Si Si6 0.574031 0.584993 0.640849
Si Si7 0.376525 0.555914 0.014462
Si Si8 0.255035 0.214504 0.430442
O O1 0.276313 0.064777 0.815619
O O2 0.387055 0.125579 0.713345
O O3 0.273078 0.170593 0.602556
O O4 0.311850 0.040411 0.512454
O O5 0.583294 0.739145 0.262767
O O6 0.599683 0.642806 0.504470
O O7 0.603688 0.613798 0.157277
O O8 0.698567 0.677131 0.317085
O O9 0.695443 0.909712 0.639986
O O10 0.606197 0.819337 0.532069
O O11 0.681306 0.786958 0.802303
O O12 0.731519 0.792418 0.484040
O O13 0.695703 0.475271 0.550089
O O14 0.500000 0.840762 0.345328
O O15 0.500000 0.603693 0.690167
O O16 0.575426 0.509658 0.544094
O O17 0.615817 0.586344 0.819528
#
# Coordination Sequence:
#
# PCOD8175741 Si02
#       8
#     8   8   8   8   8   8   8   8
#     4  11  24  39  69  97 137 170 213 285 336 411
#     4  11  23  42  69  94 132 181 224 283 336 399
#     4  10  21  37  67  94 131 164 214 275 336 411
#     4  11  21  38  61 100 122 159 217 276 343 390
#     4  10  24  47  65  91 132 179 225 274 338 408
#     4  12  26  39  57  92 136 185 231 265 319 404
#     4  12  23  38  65  94 132 180 218 279 333 398
#     4  11  20  40  63 102 132 168 212 279 355 399
#
# _framework density 21.499092999999998
#
# number of rings (size 3 to 8) (size 9 to 14) (size 15 to 20)
#    0.000    1.000    2.500    6.000    0.000    2.500 
#    0.000    3.125    0.000    0.000    0.000    0.000 
#    0.000    0.000    0.000    0.000    0.000    0.000 
#
# Total GULP energy -396756.183336 kJ/mol
# GULP energy per Si atom -12398.630729 kJ/mol
# Density = 2.145016 g / cm^3
# Si number density = 21.499093 Si / 1000 Ang^3
#
#
#
# Elastic Constant Matrix: (Units=GPa)
#
#
# Indices 1 2 3 4 5 6 
#
# 1 116.2537 37.4002 21.6568 0.0000 0.0000 0.0000
# 2 37.4002 85.1020 17.8226 0.0000 0.0000 0.0000
# 3 21.6568 17.8226 93.5314 0.0000 0.0000 0.0000
# 4 0.0000 0.0000 0.0000 33.9582 0.0000 0.0000
# 5 0.0000 0.0000 0.0000 0.0000 21.8230 0.0000
# 6 0.0000 0.0000 0.0000 0.0000 0.0000 18.8315
#
#
#
# Elastic Compliance Matrix: (Units=1/GPa)
#
#
# Indices 1 2 3 4 5 6 
#
# 1 0.010237 -0.004169 -0.001576 0.000000 0.000000 0.000000
# 2 -0.004169 0.013937 -0.001690 0.000000 0.000000 0.000000
# 3 -0.001576 -0.001690 0.011379 0.000000 0.000000 0.000000
# 4 0.000000 0.000000 0.000000 0.029448 0.000000 0.000000
# 5 0.000000 0.000000 0.000000 0.000000 0.045823 0.000000
# 6 0.000000 0.000000 0.000000 0.000000 0.000000 0.053103
#
#
# Mechanical properties :
#
#
# Convention : Reuss Voigt Hill
#
# Bulk Modulus (GPa) = 48.35156 49.84957 49.10056
# Shear Modulus (GPa) = 26.92667 29.45636 28.19151
#
# Velocity S-wave (km/s) = 3.54284 3.70553 3.62510
# Velocity P-wave (km/s) = 6.26694 6.44555 6.35687
#
# Compressibility (1/GPa) = 0.02068186
#
# Stress axis : x y z
#
# Youngs Moduli (GPa) = 97.68908 71.75323 87.88426
#
# Poissons Ratio (x) = 0.29912 0.13849
# Poissons Ratio (y) = 0.40723 0.14856
# Poissons Ratio (z) = 0.15395 0.12129
#
# Static dielectric constant tensor:
#      x y z
#    x 3.563710 0.000000 0.000000 
#    y 0.000000 4.209540 0.000000 
#    z 0.000000 0.000000 3.933940 
# 
# 
# High freq. dielectric constant tensor:
#      x y z
#    x 1.810510 0.000000 0.000000 
#    y 0.000000 1.851120 0.000000 
#    z 0.000000 0.000000 1.851790 
# 
# From -- ./inp_files/5393.got.cif
#   From: 2010.03.12/outbox.cif.g09.slc.cpg/sg36_3_cif.got.tgz:5393.got - 2010.04.14 02:13:53.
