data_PCOD8175277
_publ_section_title
;
Structure prediction by ZEFSAII (Michael W. Deem and Ramdas Pophale) SiO2 
 PCOD8175277
Probable space group: C M C 21
;
_chemical_formula_sum "Si O2"
_cell_formula_units_Z 64
_cell_length_a 8.819135
_cell_length_b 27.024353
_cell_length_c 13.033747
_cell_angle_alpha 90.000000
_cell_angle_beta 90.000000
_cell_angle_gamma 90.000000
_cell_volume 3106.351396
_symmetry_space_group_name_H-M "C M C 21"
_symmetry_group_IT_number 36
_symmetry_cell_setting 'orthorhombic'
loop_
_space_group_symop_operation_xyz
x,y,z
-x,-y,1/2+z
x,-y,1/2+z
-x,y,z
1/2+x,1/2+y,z
1/2-x,1/2-y,1/2+z
1/2+x,1/2-y,1/2+z
1/2-x,1/2+y,z
loop_
_atom_site_type_symbol
_atom_site_label
_atom_site_fract_x
_atom_site_fract_y
_atom_site_fract_z
Si Si1 0.820353 0.586175 0.456570
Si Si2 0.680197 0.119650 0.073402
Si Si3 0.322190 0.230481 0.089456
Si Si4 0.667246 0.198465 0.446993
Si Si5 0.168487 0.224415 0.786140
Si Si6 0.322892 0.553083 0.248419
Si Si7 0.821148 0.122258 0.863514
Si Si8 0.824282 0.943599 0.169895
O O1 0.767645 0.643285 0.447279
O O2 0.742726 0.556856 0.363457
O O3 0.770435 0.565385 0.566568
O O4 0.000000 0.581090 0.445011
O O5 0.500000 0.116621 0.073840
O O6 0.745644 0.175449 0.083305
O O7 0.741652 0.089918 0.170265
O O8 0.740600 0.098818 0.964032
O O9 0.500000 0.225577 0.107105
O O10 0.245812 0.263627 0.179999
O O11 0.286052 0.262401 0.990729
O O12 0.500000 0.199810 0.499768
O O13 0.655122 0.220701 0.333713
O O14 0.242094 0.179004 0.850193
O O15 0.000000 0.203458 0.763017
O O16 0.500000 0.565404 0.251716
O O17 0.290635 0.498334 0.208752
O O18 0.772236 0.093150 0.760736
O O19 0.000000 0.117858 0.883437
O O20 0.000000 0.935504 0.143150
#
# Coordination Sequence:
#
# PCOD8175277 Si02
#       8
#     8   8   8   8   8   8   8   8
#     4  11  24  42  65  95 132 165 203 262 322 377
#     4  11  23  39  61  94 133 166 208 264 321 377
#     4  10  20  35  57  86 122 163 205 251 298 355
#     4  10  20  36  57  85 122 162 199 239 295 362
#     4   9  17  32  56  82 116 160 200 238 290 354
#     4  11  25  44  67  92 123 166 216 266 313 376
#     4  10  20  38  64  91 123 166 213 260 313 373
#     4  10  24  44  67  93 121 162 216 266 312 374
#
# _framework density 20.602948999999999
#
# number of rings (size 3 to 8) (size 9 to 14) (size 15 to 20)
#    0.000    1.750    1.250    2.625    1.750    6.000 
#    0.000    1.250    0.000    0.000    0.000    0.000 
#    0.000    0.000    0.000    0.000    0.000    0.000 
#
# Total GULP energy -396601.313639 kJ/mol
# GULP energy per Si atom -12393.791051 kJ/mol
# Density = 2.055606 g / cm^3
# Si number density = 20.602949 Si / 1000 Ang^3
#
#
#
# Elastic Constant Matrix: (Units=GPa)
#
#
# Indices 1 2 3 4 5 6 
#
# 1 65.8237 37.7788 46.4979 0.0000 0.0000 0.0000
# 2 37.7788 104.0932 41.8014 0.0000 0.0000 0.0000
# 3 46.4979 41.8014 129.1182 0.0000 0.0000 0.0000
# 4 0.0000 0.0000 0.0000 34.7210 0.0000 0.0000
# 5 0.0000 0.0000 0.0000 0.0000 31.3417 0.0000
# 6 0.0000 0.0000 0.0000 0.0000 0.0000 24.0201
#
#
#
# Elastic Compliance Matrix: (Units=1/GPa)
#
#
# Indices 1 2 3 4 5 6 
#
# 1 0.023054 -0.005785 -0.006429 0.000000 0.000000 0.000000
# 2 -0.005785 0.012494 -0.001962 0.000000 0.000000 0.000000
# 3 -0.006429 -0.001962 0.010695 0.000000 0.000000 0.000000
# 4 0.000000 0.000000 0.000000 0.028801 0.000000 0.000000
# 5 0.000000 0.000000 0.000000 0.000000 0.031906 0.000000
# 6 0.000000 0.000000 0.000000 0.000000 0.000000 0.041632
#
#
# Mechanical properties :
#
#
# Convention : Reuss Voigt Hill
#
# Bulk Modulus (GPa) = 55.89303 61.24347 58.56825
# Shear Modulus (GPa) = 27.33757 29.54703 28.44230
#
# Velocity S-wave (km/s) = 3.64658 3.79108 3.71953
# Velocity P-wave (km/s) = 6.70206 6.99666 6.85094
#
# Compressibility (1/GPa) = 0.01789132
#
# Stress axis : x y z
#
# Youngs Moduli (GPa) = 43.37626 80.03756 93.50002
#
# Poissons Ratio (x) = 0.46304 0.60114
# Poissons Ratio (y) = 0.25094 0.18341
# Poissons Ratio (z) = 0.27888 0.15700
#
# Static dielectric constant tensor:
#      x y z
#    x 3.534410 0.000000 0.000000 
#    y 0.000000 3.880820 0.000000 
#    z 0.000000 0.000000 3.804410 
# 
# 
# High freq. dielectric constant tensor:
#      x y z
#    x 1.784110 0.000000 0.000000 
#    y 0.000000 1.813450 0.000000 
#    z 0.000000 0.000000 1.820070 
# 
# From -- ./inp_files/7056.got.cif
#   From: 2010.03.12/outbox.cif.g09.slc.cpg/sg36_4_cif.got.tgz:7056.got - 2010.04.14 02:13:53.
