data_PCOD8175902
_publ_section_title
;
Structure prediction by ZEFSAII (Michael W. Deem and Ramdas Pophale) SiO2 
 PCOD8175902
Probable space group: C M C 21
;
_chemical_formula_sum "Si O2"
_cell_formula_units_Z 48
_cell_length_a 17.065926
_cell_length_b 9.837861
_cell_length_c 13.970401
_cell_angle_alpha 90.000000
_cell_angle_beta 90.000000
_cell_angle_gamma 90.000000
_cell_volume 2345.521468
_symmetry_space_group_name_H-M "C M C 21"
_symmetry_group_IT_number 36
_symmetry_cell_setting 'orthorhombic'
loop_
_space_group_symop_operation_xyz
x,y,z
-x,-y,1/2+z
x,-y,1/2+z
-x,y,z
1/2+x,1/2+y,z
1/2-x,1/2-y,1/2+z
1/2+x,1/2-y,1/2+z
1/2-x,1/2+y,z
loop_
_atom_site_type_symbol
_atom_site_label
_atom_site_fract_x
_atom_site_fract_y
_atom_site_fract_z
Si Si1 0.909430 0.360797 0.674800
Si Si2 0.840030 0.888481 0.276124
Si Si3 0.840485 0.382502 0.268368
Si Si4 0.408454 0.528041 0.964938
Si Si5 0.907907 0.285062 0.463289
Si Si6 0.409401 0.631997 0.172750
O O1 0.896093 0.211385 0.717313
O O2 0.856005 0.464401 0.734125
O O3 0.886074 0.359065 0.562777
O O4 0.000000 0.400220 0.687334
O O5 0.750643 0.848152 0.258554
O O6 0.859949 0.884568 0.388368
O O7 0.856846 0.041271 0.242252
O O8 0.865104 0.365312 0.378628
O O9 0.889747 0.287243 0.197080
O O10 0.500000 0.536463 0.940505
O O11 0.380248 0.371647 0.967613
O O12 0.388207 0.600967 0.063933
O O13 0.000000 0.291267 0.444219
O O14 0.500000 0.602113 0.194412
#
# Coordination Sequence:
#
# PCOD8175902 Si02
#       6
#     8   8   8   8   8   8
#     4  11  24  43  65  93 127 168 212 262 316 378
#     4  12  24  40  65  95 130 165 209 261 321 379
#     4  12  26  40  64  98 136 165 201 263 335 380
#     4  10  21  40  70  96 118 166 229 267 296 369
#     4  10  21  42  68  91 123 171 218 263 316 373
#     4  11  22  43  70  93 120 171 225 260 302 379
#
# _framework density 20.464531999999998
#
# number of rings (size 3 to 8) (size 9 to 14) (size 15 to 20)
#    0.000    1.000    3.333    4.000    0.000    4.000 
#    0.000    1.667    0.000    0.000    0.000    0.000 
#    0.000    0.000    0.000    0.000    0.000    0.000 
#
# Total GULP energy -297768.168519 kJ/mol
# GULP energy per Si atom -12407.007022 kJ/mol
# Density = 2.041795 g / cm^3
# Si number density = 20.464532 Si / 1000 Ang^3
#
#
#
# Elastic Constant Matrix: (Units=GPa)
#
#
# Indices 1 2 3 4 5 6 
#
# 1 71.4355 20.2245 56.9415 0.0000 0.0000 0.0000
# 2 20.2245 63.7342 29.0231 0.0000 0.0000 0.0000
# 3 56.9415 29.0231 136.4504 0.0000 0.0000 0.0000
# 4 0.0000 0.0000 0.0000 40.4183 0.0000 0.0000
# 5 0.0000 0.0000 0.0000 0.0000 10.2084 0.0000
# 6 0.0000 0.0000 0.0000 0.0000 0.0000 29.1715
#
#
#
# Elastic Compliance Matrix: (Units=1/GPa)
#
#
# Indices 1 2 3 4 5 6 
#
# 1 0.021492 -0.003029 -0.008324 0.000000 0.000000 0.000000
# 2 -0.003029 0.017800 -0.002522 0.000000 0.000000 0.000000
# 3 -0.008324 -0.002522 0.011339 0.000000 0.000000 0.000000
# 4 0.000000 0.000000 0.000000 0.024741 0.000000 0.000000
# 5 0.000000 0.000000 0.000000 0.000000 0.097959 0.000000
# 6 0.000000 0.000000 0.000000 0.000000 0.000000 0.034280
#
#
# Mechanical properties :
#
#
# Convention : Reuss Voigt Hill
#
# Bulk Modulus (GPa) = 43.70720 53.77760 48.74240
# Shear Modulus (GPa) = 20.57720 26.98837 23.78278
#
# Velocity S-wave (km/s) = 3.17441 3.63545 3.41273
# Velocity P-wave (km/s) = 5.90252 6.63004 6.27683
#
# Compressibility (1/GPa) = 0.02287953
#
# Stress axis : x y z
#
# Youngs Moduli (GPa) = 46.53002 56.18028 88.19247
#
# Poissons Ratio (x) = 0.17018 0.73413
# Poissons Ratio (y) = 0.14095 0.22242
# Poissons Ratio (z) = 0.38733 0.14168
#
# Static dielectric constant tensor:
#      x y z
#    x 3.515980 0.000000 0.000000 
#    y 0.000000 3.524480 0.000000 
#    z 0.000000 0.000000 3.821560 
# 
# 
# High freq. dielectric constant tensor:
#      x y z
#    x 1.793490 0.000000 0.000000 
#    y 0.000000 1.796660 0.000000 
#    z 0.000000 0.000000 1.815500 
# 
# From -- ./inp_files/12489.got.cif
#   From: 2010.03.12/outbox.cif.g09.slc.cpg/sg36_7_cif.got.tgz:12489.got - 2010.04.14 02:13:53.
