data_PCOD8175934
_publ_section_title
;
Structure prediction by ZEFSAII (Michael W. Deem and Ramdas Pophale) SiO2 
 PCOD8175934
Probable space group: C M C 21
;
_chemical_formula_sum "Si O2"
_cell_formula_units_Z 64
_cell_length_a 27.010557
_cell_length_b 11.632557
_cell_length_c 9.260062
_cell_angle_alpha 90.000000
_cell_angle_beta 90.000000
_cell_angle_gamma 90.000000
_cell_volume 2909.528555
_symmetry_space_group_name_H-M "C M C 21"
_symmetry_group_IT_number 36
_symmetry_cell_setting 'orthorhombic'
loop_
_space_group_symop_operation_xyz
x,y,z
-x,-y,1/2+z
x,-y,1/2+z
-x,y,z
1/2+x,1/2+y,z
1/2-x,1/2-y,1/2+z
1/2+x,1/2-y,1/2+z
1/2-x,1/2+y,z
loop_
_atom_site_type_symbol
_atom_site_label
_atom_site_fract_x
_atom_site_fract_y
_atom_site_fract_z
Si Si1 0.835435 0.377155 0.027740
Si Si2 0.055368 0.682046 0.470837
Si Si3 0.553302 0.598922 0.143020
Si Si4 0.177907 0.970793 0.301597
Si Si5 0.783052 0.860905 0.568122
Si Si6 0.904789 0.918688 0.947273
Si Si7 0.814491 0.594868 0.207406
Si Si8 0.896063 0.227503 0.701143
O O1 0.820314 0.248341 0.080553
O O2 0.818021 0.464625 0.150527
O O3 0.894904 0.393830 0.996968
O O4 0.805465 0.405121 0.880229
O O5 0.056128 0.767164 0.606641
O O6 0.060755 0.749369 0.317991
O O7 0.000000 0.620714 0.468903
O O8 0.500000 0.547599 0.099980
O O9 0.558268 0.581175 0.313506
O O10 0.593084 0.531950 0.048078
O O11 0.202606 0.028736 0.164567
O O12 0.151239 0.075578 0.387826
O O13 0.218043 0.906587 0.403099
O O14 0.137686 0.876163 0.257510
O O15 0.727941 0.831123 0.624250
O O16 0.917678 0.807838 0.045136
O O17 0.865914 0.656730 0.174151
#
# Coordination Sequence:
#
# PCOD8175934 Si02
#       8
#     8   8   8   8   8   8   8   8
#     4  11  25  48  66 101 140 177 234 283 337 408
#     4  10  21  43  68  89 127 180 224 280 341 394
#     4  11  21  33  55  91 125 164 215 268 336 405
#     4  12  21  40  64  96 131 174 216 263 343 409
#     4  12  25  42  70  98 140 177 221 276 348 414
#     4  12  20  35  57  87 128 173 206 266 336 396
#     4  11  27  44  68  95 135 179 228 281 339 404
#     4  11  23  41  63  93 134 170 227 275 334 402
#
# _framework density 21.996690000000001
#
# number of rings (size 3 to 8) (size 9 to 14) (size 15 to 20)
#    0.000    0.750    6.250    1.875    1.750    6.000 
#    0.000    2.500    0.000    0.000    0.000    0.000 
#    0.000    0.000    0.000    0.000    0.000    0.000 
#
# Total GULP energy -396536.994027 kJ/mol
# GULP energy per Si atom -12391.781063 kJ/mol
# Density = 2.194662 g / cm^3
# Si number density = 21.996690 Si / 1000 Ang^3
#
#
#
# Elastic Constant Matrix: (Units=GPa)
#
#
# Indices 1 2 3 4 5 6 
#
# 1 94.9483 15.2196 23.6577 0.0000 0.0000 0.0000
# 2 15.2196 74.2162 30.6804 0.0000 0.0000 0.0000
# 3 23.6577 30.6804 119.8936 0.0000 0.0000 0.0000
# 4 0.0000 0.0000 0.0000 35.7575 0.0000 0.0000
# 5 0.0000 0.0000 0.0000 0.0000 30.4012 0.0000
# 6 0.0000 0.0000 0.0000 0.0000 0.0000 21.6565
#
#
#
# Elastic Compliance Matrix: (Units=1/GPa)
#
#
# Indices 1 2 3 4 5 6 
#
# 1 0.011234 -0.001552 -0.001820 0.000000 0.000000 0.000000
# 2 -0.001552 0.015282 -0.003605 0.000000 0.000000 0.000000
# 3 -0.001820 -0.003605 0.009622 0.000000 0.000000 0.000000
# 4 0.000000 0.000000 0.000000 0.027966 0.000000 0.000000
# 5 0.000000 0.000000 0.000000 0.000000 0.032893 0.000000
# 6 0.000000 0.000000 0.000000 0.000000 0.000000 0.046176
#
#
# Mechanical properties :
#
#
# Convention : Reuss Voigt Hill
#
# Bulk Modulus (GPa) = 45.07120 47.57483 46.32302
# Shear Modulus (GPa) = 30.39119 32.19639 31.29379
#
# Velocity S-wave (km/s) = 3.72105 3.82997 3.77591
# Velocity P-wave (km/s) = 6.24469 6.42132 6.33362
#
# Compressibility (1/GPa) = 0.02218711
#
# Stress axis : x y z
#
# Youngs Moduli (GPa) = 89.01420 65.43468 103.92642
#
# Poissons Ratio (x) = 0.10153 0.18912
# Poissons Ratio (y) = 0.13811 0.37461
# Poissons Ratio (z) = 0.16198 0.23586
#
# Static dielectric constant tensor:
#      x y z
#    x 4.142030 0.000000 0.000000 
#    y 0.000000 3.675990 0.000000 
#    z 0.000000 0.000000 4.285020 
# 
# 
# High freq. dielectric constant tensor:
#      x y z
#    x 1.862130 0.000000 0.000000 
#    y 0.000000 1.831400 0.000000 
#    z 0.000000 0.000000 1.879870 
# 
# From -- ./inp_files/6103.got.cif
#   From: 2010.03.12/outbox.cif.g09.slc.cpg/sg36_4_cif.got.tgz:6103.got - 2010.04.14 02:13:53.
