data_PCOD8175127
_publ_section_title
;
Structure prediction by ZEFSAII (Michael W. Deem and Ramdas Pophale) SiO2 
 PCOD8175127
Probable space group: C M C 21
;
_chemical_formula_sum "Si O2"
_cell_formula_units_Z 64
_cell_length_a 8.849799
_cell_length_b 22.712725
_cell_length_c 16.133403
_cell_angle_alpha 90.000000
_cell_angle_beta 90.000000
_cell_angle_gamma 90.000000
_cell_volume 3242.863226
_symmetry_space_group_name_H-M "C M C 21"
_symmetry_group_IT_number 36
_symmetry_cell_setting 'orthorhombic'
loop_
_space_group_symop_operation_xyz
x,y,z
-x,-y,1/2+z
x,-y,1/2+z
-x,y,z
1/2+x,1/2+y,z
1/2-x,1/2-y,1/2+z
1/2+x,1/2-y,1/2+z
1/2-x,1/2+y,z
loop_
_atom_site_type_symbol
_atom_site_label
_atom_site_fract_x
_atom_site_fract_y
_atom_site_fract_z
Si Si1 0.321669 0.790224 0.957830
Si Si2 0.821814 0.977898 0.767152
Si Si3 0.163921 0.460132 0.495495
Si Si4 0.175736 0.893167 0.627442
Si Si5 0.320745 0.286251 0.300724
Si Si6 0.180617 0.761685 0.632459
Si Si7 0.669119 0.090396 0.813607
Si Si8 0.825143 0.422411 0.922700
O O1 0.500000 0.783266 0.958582
O O2 0.259878 0.754168 0.877416
O O3 0.271216 0.858115 0.951629
O O4 0.258790 0.766404 0.045973
O O5 0.754065 0.936020 0.695930
O O6 0.785074 0.943679 0.850897
O O7 0.000000 0.987571 0.760108
O O8 0.743425 0.041410 0.753931
O O9 0.293201 0.422662 0.539072
O O10 0.161697 0.441222 0.401011
O O11 0.193923 0.530771 0.498209
O O12 0.000000 0.446455 0.536093
O O13 0.245165 0.828125 0.633134
O O14 0.000000 0.886734 0.641082
O O15 0.500000 0.281312 0.293124
O O16 0.247732 0.269530 0.213044
O O17 0.273811 0.352748 0.319767
O O18 0.000000 0.757935 0.636867
O O19 0.500000 0.106939 0.782490
O O20 0.000000 0.421152 0.892445
#
# Coordination Sequence:
#
# PCOD8175127 Si02
#       8
#     8   8   8   8   8   8   8   8
#     4   9  19  36  59  82 112 153 191 226 274 334
#     4  10  20  34  53  80 109 140 179 228 278 328
#     4   9  19  33  53  79 105 136 182 231 272 320
#     4  10  21  35  53  78 111 145 180 223 277 330
#     4  11  22  37  59  87 115 148 188 235 282 328
#     4  10  21  38  57  81 113 152 191 228 275 338
#     4  10  21  38  57  79 107 143 183 225 275 335
#     4   9  18  35  55  78 106 141 184 224 267 327
#
# _framework density 19.735645000000002
#
# number of rings (size 3 to 8) (size 9 to 14) (size 15 to 20)
#    0.000    2.250    0.000    3.375    0.000    6.000 
#    0.000    3.750    0.000    0.000    0.000    0.000 
#    0.000    0.000    0.000    0.000    0.000    0.000 
#
# Total GULP energy -396666.731839 kJ/mol
# GULP energy per Si atom -12395.835370 kJ/mol
# Density = 1.969073 g / cm^3
# Si number density = 19.735645 Si / 1000 Ang^3
#
#
#
# Elastic Constant Matrix: (Units=GPa)
#
#
# Indices 1 2 3 4 5 6 
#
# 1 36.9699 21.7762 21.2265 0.0000 0.0000 0.0000
# 2 21.7762 156.1328 43.2258 0.0000 0.0000 0.0000
# 3 21.2265 43.2258 89.5429 0.0000 0.0000 0.0000
# 4 0.0000 0.0000 0.0000 28.9934 0.0000 0.0000
# 5 0.0000 0.0000 0.0000 0.0000 28.5663 0.0000
# 6 0.0000 0.0000 0.0000 0.0000 0.0000 25.6076
#
#
#
# Elastic Compliance Matrix: (Units=1/GPa)
#
#
# Indices 1 2 3 4 5 6 
#
# 1 0.032305 -0.002753 -0.006329 0.000000 0.000000 0.000000
# 2 -0.002753 0.007628 -0.003029 0.000000 0.000000 0.000000
# 3 -0.006329 -0.003029 0.014130 0.000000 0.000000 0.000000
# 4 0.000000 0.000000 0.000000 0.034491 0.000000 0.000000
# 5 0.000000 0.000000 0.000000 0.000000 0.035006 0.000000
# 6 0.000000 0.000000 0.000000 0.000000 0.000000 0.039051
#
#
# Mechanical properties :
#
#
# Convention : Reuss Voigt Hill
#
# Bulk Modulus (GPa) = 33.51269 50.56694 42.03982
# Shear Modulus (GPa) = 25.40908 29.72792 27.56850
#
# Velocity S-wave (km/s) = 3.59203 3.88533 3.74155
# Velocity P-wave (km/s) = 5.84989 6.76797 6.32561
#
# Compressibility (1/GPa) = 0.02983944
#
# Stress axis : x y z
#
# Youngs Moduli (GPa) = 30.95539 131.10403 70.76897
#
# Poissons Ratio (x) = 0.36099 0.44788
# Poissons Ratio (y) = 0.08523 0.21439
# Poissons Ratio (z) = 0.19591 0.39717
#
# Static dielectric constant tensor:
#      x y z
#    x 3.459320 0.000000 0.000000 
#    y 0.000000 3.948560 0.000000 
#    z 0.000000 0.000000 3.575670 
# 
# 
# High freq. dielectric constant tensor:
#      x y z
#    x 1.750390 0.000000 0.000000 
#    y 0.000000 1.788590 0.000000 
#    z 0.000000 0.000000 1.760460 
# 
# From -- ./inp_files/11053.got.cif
#   From: 2010.03.12/outbox.cif.g09.slc.cpg/sg36_6_cif.got.tgz:11053.got - 2010.04.14 02:13:53.
