data_PCOD8175626
_publ_section_title
;
Structure prediction by ZEFSAII (Michael W. Deem and Ramdas Pophale) SiO2 
 PCOD8175626
Probable space group: C M C 21
;
_chemical_formula_sum "Si O2"
_cell_formula_units_Z 60
_cell_length_a 27.985895
_cell_length_b 18.771707
_cell_length_c 5.217405
_cell_angle_alpha 90.000000
_cell_angle_beta 90.000000
_cell_angle_gamma 90.000000
_cell_volume 2740.927305
_symmetry_space_group_name_H-M "C M C 21"
_symmetry_group_IT_number 36
_symmetry_cell_setting 'orthorhombic'
loop_
_space_group_symop_operation_xyz
x,y,z
-x,-y,1/2+z
x,-y,1/2+z
-x,y,z
1/2+x,1/2+y,z
1/2-x,1/2-y,1/2+z
1/2+x,1/2-y,1/2+z
1/2-x,1/2+y,z
loop_
_atom_site_type_symbol
_atom_site_label
_atom_site_fract_x
_atom_site_fract_y
_atom_site_fract_z
Si Si1 0.196530 0.967499 0.057020
Si Si2 0.587592 0.840167 0.090818
Si Si3 0.197102 0.472255 0.568483
Si Si4 0.349033 0.165936 0.089654
Si Si5 0.500000 0.050235 0.601769
Si Si6 0.092082 0.819270 0.634645
Si Si7 0.847630 0.177028 0.634729
Si Si8 0.445852 0.533481 0.047432
O O1 0.193200 0.882346 0.090817
O O2 0.170829 0.007662 0.294320
O O3 0.250977 0.993219 0.025729
O O4 0.615166 0.848933 0.823479
O O5 0.623174 0.850070 0.327773
O O6 0.545819 0.898095 0.103945
O O7 0.567490 0.758501 0.106008
O O8 0.169126 0.492137 0.306825
O O9 0.196462 0.387085 0.603809
O O10 0.325663 0.244267 0.095859
O O11 0.500000 0.000306 0.350984
O O12 0.134078 0.828693 0.425605
O O13 0.054195 0.881268 0.579023
O O14 0.110676 0.831508 0.924081
O O15 0.420071 0.492908 0.285700
O O16 0.500000 0.506423 0.029701
#
# Coordination Sequence:
#
# PCOD8175626 Si02
#       8
#     8   8   8   8   4   8   8   8
#     4  10  21  37  55  84 118 149 191 244 298 356
#     4  10  23  40  61  88 118 156 201 239 296 357
#     4  10  21  37  58  85 112 148 194 233 294 358
#     4  10  21  40  61  86 117 155 200 245 287 352
#     4  12  26  42  62  94 126 156 194 248 304 346
#     4  10  21  37  59  83 112 158 199 233 296 343
#     4  10  21  37  57  84 114 149 197 246 286 349
#     4  10  21  35  52  81 115 148 192 240 283 338
#
# _framework density 21.890401000000001
#
# number of rings (size 3 to 8) (size 9 to 14) (size 15 to 20)
#    0.000    1.867    0.000    3.200    0.933    6.400 
#    0.000    5.333    0.000    0.000    0.000    0.000 
#    0.000    0.000    0.000    0.000    0.000    0.000 
#
# Total GULP energy -371716.200983 kJ/mol
# GULP energy per Si atom -12390.540033 kJ/mol
# Density = 2.184058 g / cm^3
# Si number density = 21.890401 Si / 1000 Ang^3
#
#
#
# Elastic Constant Matrix: (Units=GPa)
#
#
# Indices 1 2 3 4 5 6 
#
# 1 38.9279 50.3162 -3.5431 0.0000 0.0000 0.0000
# 2 50.3162 190.6077 35.9206 0.0000 0.0000 0.0000
# 3 -3.5431 35.9206 155.9195 0.0000 0.0000 0.0000
# 4 0.0000 0.0000 0.0000 29.2520 0.0000 0.0000
# 5 0.0000 0.0000 0.0000 0.0000 3.9114 0.0000
# 6 0.0000 0.0000 0.0000 0.0000 0.0000 47.7053
#
#
#
# Elastic Compliance Matrix: (Units=1/GPa)
#
#
# Indices 1 2 3 4 5 6 
#
# 1 0.040803 -0.011443 0.003563 0.000000 0.000000 0.000000
# 2 -0.011443 0.008693 -0.002263 0.000000 0.000000 0.000000
# 3 0.003563 -0.002263 0.007016 0.000000 0.000000 0.000000
# 4 0.000000 0.000000 0.000000 0.034186 0.000000 0.000000
# 5 0.000000 0.000000 0.000000 0.000000 0.255660 0.000000
# 6 0.000000 0.000000 0.000000 0.000000 0.000000 0.020962
#
#
# Mechanical properties :
#
#
# Convention : Reuss Voigt Hill
#
# Bulk Modulus (GPa) = 27.60289 61.20474 44.40381
# Shear Modulus (GPa) = 12.50999 36.35784 24.43392
#
# Velocity S-wave (km/s) = 2.39316 4.07984 3.34457
# Velocity P-wave (km/s) = 4.50259 7.08617 5.93663
#
# Compressibility (1/GPa) = 0.03622809
#
# Stress axis : x y z
#
# Youngs Moduli (GPa) = 24.50802 115.02979 142.53462
#
# Poissons Ratio (x) = 1.31624 -0.50790
# Poissons Ratio (y) = 0.28044 0.32253
# Poissons Ratio (z) = -0.08733 0.26029
#
# Static dielectric constant tensor:
#      x y z
#    x 3.310060 0.000000 0.000000 
#    y 0.000000 4.291940 0.000000 
#    z 0.000000 0.000000 5.159830 
# 
# 
# High freq. dielectric constant tensor:
#      x y z
#    x 1.808620 0.000000 0.000000 
#    y 0.000000 1.879400 0.000000 
#    z 0.000000 0.000000 1.900700 
# 
# From -- ./inp_files/1776.got.cif
#   From: 2010.03.12/outbox.cif.g09.slc.cpg/sg36_1_cif.got.tgz:1776.got - 2010.04.14 02:13:53.
