data_PCOD8175339
_publ_section_title
;
Structure prediction by ZEFSAII (Michael W. Deem and Ramdas Pophale) SiO2 
 PCOD8175339
Probable space group: C M C 21
;
_chemical_formula_sum "Si O2"
_cell_formula_units_Z 64
_cell_length_a 8.912705
_cell_length_b 27.489909
_cell_length_c 13.769434
_cell_angle_alpha 90.000000
_cell_angle_beta 90.000000
_cell_angle_gamma 90.000000
_cell_volume 3373.641443
_symmetry_space_group_name_H-M "C M C 21"
_symmetry_group_IT_number 36
_symmetry_cell_setting 'orthorhombic'
loop_
_space_group_symop_operation_xyz
x,y,z
-x,-y,1/2+z
x,-y,1/2+z
-x,y,z
1/2+x,1/2+y,z
1/2-x,1/2-y,1/2+z
1/2+x,1/2-y,1/2+z
1/2-x,1/2+y,z
loop_
_atom_site_type_symbol
_atom_site_label
_atom_site_fract_x
_atom_site_fract_y
_atom_site_fract_z
Si Si1 0.674008 0.733765 0.810330
Si Si2 0.324347 0.512657 0.009705
Si Si3 0.675305 0.427785 0.696933
Si Si4 0.175644 0.319243 0.136479
Si Si5 0.829561 0.672689 0.186957
Si Si6 0.175185 0.490148 0.310696
Si Si7 0.326793 0.931407 0.122091
Si Si8 0.324742 0.241683 0.011277
O O1 0.500000 0.723091 0.831484
O O2 0.731550 0.695661 0.731129
O O3 0.697126 0.788550 0.772467
O O4 0.771321 0.725149 0.905949
O O5 0.500000 0.511471 0.992354
O O6 0.277053 0.551717 0.091538
O O7 0.270925 0.459097 0.041723
O O8 0.246385 0.528871 0.910356
O O9 0.500000 0.434095 0.714542
O O10 0.717848 0.371548 0.704511
O O11 0.758854 0.457484 0.781143
O O12 0.211409 0.374972 0.113770
O O13 0.230204 0.288731 0.043595
O O14 0.000000 0.310200 0.154965
O O15 0.792227 0.697234 0.083897
O O16 0.000000 0.653452 0.188331
O O17 0.215007 0.450041 0.229667
O O18 0.000000 0.496445 0.326245
O O19 0.500000 0.942249 0.099460
O O20 0.500000 0.255203 0.011626
#
# Coordination Sequence:
#
# PCOD8175339 Si02
#       8
#     8   8   8   8   8   8   8   8
#     4  10  21  37  56  80 109 142 180 220 265 316
#     4  10  21  36  54  79 109 138 173 220 267 311
#     4  10  21  36  55  80 108 138 175 220 267 312
#     4  10  20  36  57  81 109 139 176 222 268 316
#     4   9  20  37  55  77 107 141 178 219 261 313
#     4  10  20  36  57  78 105 142 179 215 259 314
#     4   9  20  37  56  79 106 140 179 216 260 316
#     4  10  21  37  56  80 109 142 180 220 265 316
#
# _framework density 18.970599
#
# number of rings (size 3 to 8) (size 9 to 14) (size 15 to 20)
#    0.000    2.250    0.000    3.000    0.000    8.000 
#    0.000    5.000    0.000    0.000    0.000    0.000 
#    0.000    0.000    0.000    0.000    0.000    0.000 
#
# Total GULP energy -396954.753716 kJ/mol
# GULP energy per Si atom -12404.836054 kJ/mol
# Density = 1.892742 g / cm^3
# Si number density = 18.970599 Si / 1000 Ang^3
#
#
#
# Elastic Constant Matrix: (Units=GPa)
#
#
# Indices 1 2 3 4 5 6 
#
# 1 64.9643 16.0625 9.3016 0.0000 0.0000 0.0000
# 2 16.0625 44.7057 -24.6787 0.0000 0.0000 0.0000
# 3 9.3016 -24.6787 51.8031 0.0000 0.0000 0.0000
# 4 0.0000 0.0000 0.0000 11.9602 0.0000 0.0000
# 5 0.0000 0.0000 0.0000 0.0000 38.6999 0.0000
# 6 0.0000 0.0000 0.0000 0.0000 0.0000 31.4242
#
#
#
# Elastic Compliance Matrix: (Units=1/GPa)
#
#
# Indices 1 2 3 4 5 6 
#
# 1 0.019783 -0.012305 -0.009414 0.000000 0.000000 0.000000
# 2 -0.012305 0.038004 0.020314 0.000000 0.000000 0.000000
# 3 -0.009414 0.020314 0.030672 0.000000 0.000000 0.000000
# 4 0.000000 0.000000 0.000000 0.083611 0.000000 0.000000
# 5 0.000000 0.000000 0.000000 0.000000 0.025840 0.000000
# 6 0.000000 0.000000 0.000000 0.000000 0.000000 0.031823
#
#
# Mechanical properties :
#
#
# Convention : Reuss Voigt Hill
#
# Bulk Modulus (GPa) = 11.67561 18.09376 14.88468
# Shear Modulus (GPa) = 19.15035 27.13605 23.14320
#
# Velocity S-wave (km/s) = 3.18067 3.78620 3.49657
# Velocity P-wave (km/s) = 4.43360 5.35465 4.91574
#
# Compressibility (1/GPa) = 0.08564865
#
# Stress axis : x y z
#
# Youngs Moduli (GPa) = 50.54730 26.31328 32.60316
#
# Poissons Ratio (x) = 0.32379 0.30694
# Poissons Ratio (y) = 0.62199 -0.66231
# Poissons Ratio (z) = 0.47587 -0.53453
#
# Static dielectric constant tensor:
#      x y z
#    x 3.529980 0.000000 0.000000 
#    y 0.000000 3.337020 0.000000 
#    z 0.000000 0.000000 3.502100 
# 
# 
# High freq. dielectric constant tensor:
#      x y z
#    x 1.748580 0.000000 0.000000 
#    y 0.000000 1.729910 0.000000 
#    z 0.000000 0.000000 1.739810 
# 
# From -- ./inp_files/11190.got.cif
#   From: 2010.03.12/outbox.cif.g09.slc.cpg/sg36_6_cif.got.tgz:11190.got - 2010.04.14 02:13:53.
