data_PCOD8175288
_publ_section_title
;
Structure prediction by ZEFSAII (Michael W. Deem and Ramdas Pophale) SiO2 
 PCOD8175288
Probable space group: C M C 21
;
_chemical_formula_sum "Si O2"
_cell_formula_units_Z 64
_cell_length_a 9.098107
_cell_length_b 15.432287
_cell_length_c 23.866624
_cell_angle_alpha 90.000000
_cell_angle_beta 90.000000
_cell_angle_gamma 90.000000
_cell_volume 3350.983757
_symmetry_space_group_name_H-M "C M C 21"
_symmetry_group_IT_number 36
_symmetry_cell_setting 'orthorhombic'
loop_
_space_group_symop_operation_xyz
x,y,z
-x,-y,1/2+z
x,-y,1/2+z
-x,y,z
1/2+x,1/2+y,z
1/2-x,1/2-y,1/2+z
1/2+x,1/2-y,1/2+z
1/2-x,1/2+y,z
loop_
_atom_site_type_symbol
_atom_site_label
_atom_site_fract_x
_atom_site_fract_y
_atom_site_fract_z
Si Si1 0.672402 0.539527 0.787780
Si Si2 0.334924 0.225372 0.668101
Si Si3 0.826156 0.625535 0.483965
Si Si4 0.171803 0.121147 0.366163
Si Si5 0.165417 0.525317 0.675255
Si Si6 0.324570 0.290904 0.552709
Si Si7 0.175296 0.717662 0.790918
Si Si8 0.826986 0.537327 0.056067
O O1 0.500000 0.557811 0.785113
O O2 0.712039 0.463262 0.830418
O O3 0.725129 0.508574 0.726556
O O4 0.753481 0.626408 0.809026
O O5 0.500000 0.260398 0.671252
O O6 0.331045 0.123917 0.654743
O O7 0.259053 0.273098 0.615399
O O8 0.262124 0.243691 0.728958
O O9 0.758546 0.615407 0.423223
O O10 0.771154 0.714983 0.511421
O O11 0.771223 0.546403 0.522400
O O12 0.000000 0.624544 0.478308
O O13 0.222657 0.207672 0.333544
O O14 0.000000 0.125706 0.378850
O O15 0.215722 0.469696 0.621672
O O16 0.000000 0.500820 0.694261
O O17 0.500000 0.295422 0.553452
O O18 0.256534 0.380102 0.530244
O O19 0.000000 0.704079 0.787993
O O20 0.000000 0.549516 0.048481
#
# Coordination Sequence:
#
# PCOD8175288 Si02
#       8
#     8   8   8   8   8   8   8   8
#     4  10  21  36  56  86 117 144 184 238 284 325
#     4   8  14  30  57  80 106 144 182 218 266 332
#     4  10  22  41  60  79 111 153 193 230 275 333
#     4  10  23  40  59  82 112 151 192 232 277 331
#     4   9  17  34  58  81 114 153 185 222 277 343
#     4  10  20  35  58  85 110 145 188 230 279 332
#     4   9  19  37  59  81 110 152 188 221 276 341
#     4  10  21  37  57  84 114 148 188 231 280 337
#
# _framework density 19.098869000000001
#
# number of rings (size 3 to 8) (size 9 to 14) (size 15 to 20)
#    0.000    2.500    1.250    1.125    1.750    4.000 
#    0.000    7.500    0.000    0.000    0.000    0.000 
#    0.000    0.000    0.000    0.000    0.000    0.000 
#
# Total GULP energy -396729.046421 kJ/mol
# GULP energy per Si atom -12397.782701 kJ/mol
# Density = 1.905540 g / cm^3
# Si number density = 19.098869 Si / 1000 Ang^3
#
#
#
# Elastic Constant Matrix: (Units=GPa)
#
#
# Indices 1 2 3 4 5 6 
#
# 1 41.1862 46.1273 42.0623 0.0000 0.0000 0.0000
# 2 46.1273 135.3044 72.1138 0.0000 0.0000 0.0000
# 3 42.0623 72.1138 118.0453 0.0000 0.0000 0.0000
# 4 0.0000 0.0000 0.0000 21.9741 0.0000 0.0000
# 5 0.0000 0.0000 0.0000 0.0000 29.7084 0.0000
# 6 0.0000 0.0000 0.0000 0.0000 0.0000 31.1049
#
#
#
# Elastic Compliance Matrix: (Units=1/GPa)
#
#
# Indices 1 2 3 4 5 6 
#
# 1 0.046246 -0.010355 -0.010153 0.000000 0.000000 0.000000
# 2 -0.010355 0.013277 -0.004422 0.000000 0.000000 0.000000
# 3 -0.010153 -0.004422 0.014790 0.000000 0.000000 0.000000
# 4 0.000000 0.000000 0.000000 0.045508 0.000000 0.000000
# 5 0.000000 0.000000 0.000000 0.000000 0.033661 0.000000
# 6 0.000000 0.000000 0.000000 0.000000 0.000000 0.032149
#
#
# Mechanical properties :
#
#
# Convention : Reuss Voigt Hill
#
# Bulk Modulus (GPa) = 40.89111 68.34919 54.62015
# Shear Modulus (GPa) = 20.52204 25.50631 23.01417
#
# Velocity S-wave (km/s) = 3.28154 3.65840 3.47508
# Velocity P-wave (km/s) = 5.98454 7.32870 6.69046
#
# Compressibility (1/GPa) = 0.02445519
#
# Stress axis : x y z
#
# Youngs Moduli (GPa) = 21.62370 75.31618 67.61283
#
# Poissons Ratio (x) = 0.77987 0.68646
# Poissons Ratio (y) = 0.22391 0.29895
# Poissons Ratio (z) = 0.21954 0.33301
#
# Static dielectric constant tensor:
#      x y z
#    x 3.198570 0.000000 0.000000 
#    y 0.000000 3.556680 0.000000 
#    z 0.000000 0.000000 3.525920 
# 
# 
# High freq. dielectric constant tensor:
#      x y z
#    x 1.716680 0.000000 0.000000 
#    y 0.000000 1.749190 0.000000 
#    z 0.000000 0.000000 1.744270 
# 
# From -- ./inp_files/16569.got.cif
#   From: 2010.03.12/outbox.cif.g09.slc.cpg/sg36_9_cif.got.tgz:16569.got - 2010.04.14 02:13:53.
