data_PCOD8175351
_publ_section_title
;
Structure prediction by ZEFSAII (Michael W. Deem and Ramdas Pophale) SiO2 
 PCOD8175351
Probable space group: C M C 21
;
_chemical_formula_sum "Si O2"
_cell_formula_units_Z 64
_cell_length_a 9.187293
_cell_length_b 22.280242
_cell_length_c 15.640856
_cell_angle_alpha 90.000000
_cell_angle_beta 90.000000
_cell_angle_gamma 90.000000
_cell_volume 3201.606761
_symmetry_space_group_name_H-M "C M C 21"
_symmetry_group_IT_number 36
_symmetry_cell_setting 'orthorhombic'
loop_
_space_group_symop_operation_xyz
x,y,z
-x,-y,1/2+z
x,-y,1/2+z
-x,y,z
1/2+x,1/2+y,z
1/2-x,1/2-y,1/2+z
1/2+x,1/2-y,1/2+z
1/2-x,1/2+y,z
loop_
_atom_site_type_symbol
_atom_site_label
_atom_site_fract_x
_atom_site_fract_y
_atom_site_fract_z
Si Si1 0.160416 0.468586 0.660100
Si Si2 0.170086 0.246173 0.018905
Si Si3 0.827378 0.792913 0.852912
Si Si4 0.335156 0.424586 0.210937
Si Si5 0.660895 0.086692 0.342350
Si Si6 0.163282 0.982395 0.396332
Si Si7 0.670322 0.390272 0.537827
Si Si8 0.670065 0.800172 0.203817
O O1 0.249387 0.530735 0.646815
O O2 0.144356 0.452967 0.758533
O O3 0.244100 0.412428 0.620252
O O4 0.000000 0.476861 0.619215
O O5 0.216527 0.177052 0.016873
O O6 0.209346 0.271864 0.112113
O O7 0.000000 0.254782 0.998177
O O8 0.263889 0.277995 0.945994
O O9 0.759017 0.855649 0.823804
O O10 0.784112 0.744482 0.780577
O O11 0.000000 0.799717 0.859532
O O12 0.500000 0.416934 0.177548
O O13 0.332612 0.454242 0.303170
O O14 0.260059 0.360407 0.215172
O O15 0.500000 0.105300 0.376311
O O16 0.738887 0.041883 0.409382
O O17 0.221142 0.931293 0.459401
O O18 0.000000 0.001584 0.420518
O O19 0.500000 0.394031 0.557992
O O20 0.500000 0.815346 0.209702
#
# Coordination Sequence:
#
# PCOD8175351 Si02
#       8
#     8   8   8   8   8   8   8   8
#     4  10  21  36  56  83 113 144 182 231 282 334
#     4  10  22  40  60  84 116 153 193 236 284 342
#     4  11  23  39  61  87 116 152 193 238 285 336
#     4  10  20  36  59  83 109 145 188 231 278 334
#     4  10  21  37  57  81 110 146 186 228 279 336
#     4   9  19  35  56  82 109 140 181 230 280 333
#     4  10  20  36  58  82 110 145 185 228 279 337
#     4  10  22  39  59  84 117 155 190 232 287 340
#
# _framework density 19.989964000000001
#
# number of rings (size 3 to 8) (size 9 to 14) (size 15 to 20)
#    0.000    2.000    0.000    3.000    0.000    7.500 
#    0.000    0.000    0.000    0.000    0.000    0.000 
#    0.000    0.000    0.000    0.000    0.000    0.000 
#
# Total GULP energy -396804.812984 kJ/mol
# GULP energy per Si atom -12400.150406 kJ/mol
# Density = 1.994447 g / cm^3
# Si number density = 19.989964 Si / 1000 Ang^3
#
#
#
# Elastic Constant Matrix: (Units=GPa)
#
#
# Indices 1 2 3 4 5 6 
#
# 1 96.2780 62.9208 23.3649 0.0000 0.0000 0.0000
# 2 62.9208 123.1763 8.9531 0.0000 0.0000 0.0000
# 3 23.3649 8.9531 50.2692 0.0000 0.0000 0.0000
# 4 0.0000 0.0000 0.0000 15.3324 0.0000 0.0000
# 5 0.0000 0.0000 0.0000 0.0000 22.8809 0.0000
# 6 0.0000 0.0000 0.0000 0.0000 0.0000 36.5510
#
#
#
# Elastic Compliance Matrix: (Units=1/GPa)
#
#
# Indices 1 2 3 4 5 6 
#
# 1 0.017538 -0.008476 -0.006642 0.000000 0.000000 0.000000
# 2 -0.008476 0.012321 0.001745 0.000000 0.000000 0.000000
# 3 -0.006642 0.001745 0.022669 0.000000 0.000000 0.000000
# 4 0.000000 0.000000 0.000000 0.065222 0.000000 0.000000
# 5 0.000000 0.000000 0.000000 0.000000 0.043705 0.000000
# 6 0.000000 0.000000 0.000000 0.000000 0.000000 0.027359
#
#
# Mechanical properties :
#
#
# Convention : Reuss Voigt Hill
#
# Bulk Modulus (GPa) = 38.78545 51.13348 44.95946
# Shear Modulus (GPa) = 22.30622 26.58516 24.44569
#
# Velocity S-wave (km/s) = 3.34409 3.65077 3.50079
# Velocity P-wave (km/s) = 5.86133 6.58832 6.23543
#
# Compressibility (1/GPa) = 0.02578286
#
# Stress axis : x y z
#
# Youngs Moduli (GPa) = 57.02012 81.16082 44.11273
#
# Poissons Ratio (x) = 0.68790 0.29299
# Poissons Ratio (y) = 0.48329 -0.07698
# Poissons Ratio (z) = 0.37872 -0.14163
#
# Static dielectric constant tensor:
#      x y z
#    x 3.883000 0.000000 0.000000 
#    y 0.000000 3.693550 0.000000 
#    z 0.000000 0.000000 3.541370 
# 
# 
# High freq. dielectric constant tensor:
#      x y z
#    x 1.785230 0.000000 0.000000 
#    y 0.000000 1.790460 0.000000 
#    z 0.000000 0.000000 1.771200 
# 
# From -- ./inp_files/11038.got.cif
#   From: 2010.03.12/outbox.cif.g09.slc.cpg/sg36_6_cif.got.tgz:11038.got - 2010.04.14 02:13:53.
