data_PCOD8175496
_publ_section_title
;
Structure prediction by ZEFSAII (Michael W. Deem and Ramdas Pophale) SiO2 
 PCOD8175496
Probable space group: C M C 21
;
_chemical_formula_sum "Si O2"
_cell_formula_units_Z 32
_cell_length_a 8.678365
_cell_length_b 15.411860
_cell_length_c 13.029493
_cell_angle_alpha 90.000000
_cell_angle_beta 90.000000
_cell_angle_gamma 90.000000
_cell_volume 1742.691385
_symmetry_space_group_name_H-M "C M C 21"
_symmetry_group_IT_number 36
_symmetry_cell_setting 'orthorhombic'
loop_
_space_group_symop_operation_xyz
x,y,z
-x,-y,1/2+z
x,-y,1/2+z
-x,y,z
1/2+x,1/2+y,z
1/2-x,1/2-y,1/2+z
1/2+x,1/2-y,1/2+z
1/2-x,1/2+y,z
loop_
_atom_site_type_symbol
_atom_site_label
_atom_site_fract_x
_atom_site_fract_y
_atom_site_fract_z
Si Si1 0.181971 0.813858 0.966390
Si Si2 0.174343 0.375158 0.774168
Si Si3 0.674545 0.987207 0.958118
Si Si4 0.180066 0.146347 0.060115
O O1 0.252581 0.802628 0.851036
O O2 0.000000 0.817988 0.959124
O O3 0.246837 0.904151 0.015028
O O4 0.232310 0.735425 0.038292
O O5 0.276358 0.385908 0.673340
O O6 0.000000 0.347888 0.745595
O O7 0.175920 0.467456 0.835339
O O8 0.500000 0.998620 0.999074
O O9 0.770076 0.073920 0.978337
O O10 0.000000 0.162785 0.051153
#
# Coordination Sequence:
#
# PCOD8175496 Si02
#       4
#     8   8   8   8
#     4  10  20  38  59  84 117 148 188 236 281 335
#     4   9  20  39  59  83 116 147 189 238 282 334
#     4   9  20  39  59  83 116 147 188 238 280 332
#     4  12  22  36  61  86 115 154 189 228 287 339
#
# _framework density 18.362400999999998
#
# number of rings (size 3 to 8) (size 9 to 14) (size 15 to 20)
#    1.500    0.500    0.000    5.250    0.000    0.000 
#    4.500    0.000    0.000    0.000    0.000    0.000 
#    0.000    0.000    0.000    0.000    0.000    0.000 
#
# Total GULP energy -198289.493913 kJ/mol
# GULP energy per Si atom -12393.093370 kJ/mol
# Density = 1.832061 g / cm^3
# Si number density = 18.362401 Si / 1000 Ang^3
#
#
#
# Elastic Constant Matrix: (Units=GPa)
#
#
# Indices 1 2 3 4 5 6 
#
# 1 118.2992 24.7882 18.2737 0.0000 0.0000 0.0000
# 2 24.7882 60.4013 -5.3903 0.0000 0.0000 0.0000
# 3 18.2737 -5.3903 49.1510 0.0000 0.0000 0.0000
# 4 0.0000 0.0000 0.0000 25.2208 0.0000 0.0000
# 5 0.0000 0.0000 0.0000 0.0000 33.1205 0.0000
# 6 0.0000 0.0000 0.0000 0.0000 0.0000 35.5446
#
#
#
# Elastic Compliance Matrix: (Units=1/GPa)
#
#
# Indices 1 2 3 4 5 6 
#
# 1 0.010050 -0.004502 -0.004230 0.000000 0.000000 0.000000
# 2 -0.004502 0.018736 0.003729 0.000000 0.000000 0.000000
# 3 -0.004230 0.003729 0.022327 0.000000 0.000000 0.000000
# 4 0.000000 0.000000 0.000000 0.039650 0.000000 0.000000
# 5 0.000000 0.000000 0.000000 0.000000 0.030193 0.000000
# 6 0.000000 0.000000 0.000000 0.000000 0.000000 0.028134
#
#
# Mechanical properties :
#
#
# Convention : Reuss Voigt Hill
#
# Bulk Modulus (GPa) = 24.32725 33.68828 29.00776
# Shear Modulus (GPa) = 28.93542 31.45584 30.19563
#
# Velocity S-wave (km/s) = 3.97394 4.14340 4.05955
# Velocity P-wave (km/s) = 5.85947 6.42468 6.14857
#
# Compressibility (1/GPa) = 0.04110617
#
# Stress axis : x y z
#
# Youngs Moduli (GPa) = 99.50351 53.37255 44.78869
#
# Poissons Ratio (x) = 0.24028 0.18946
# Poissons Ratio (y) = 0.44796 -0.16700
# Poissons Ratio (z) = 0.42091 -0.19900
#
# Static dielectric constant tensor:
#      x y z
#    x 3.488900 0.000000 0.000000 
#    y 0.000000 3.155620 0.000000 
#    z 0.000000 0.000000 3.126220 
# 
# 
# High freq. dielectric constant tensor:
#      x y z
#    x 1.734870 0.000000 0.000000 
#    y 0.000000 1.693820 0.000000 
#    z 0.000000 0.000000 1.689920 
# 
# From -- ./inp_files/6406.got.cif
#   From: 2010.03.12/outbox.cif.g09.slc.cpg/sg36_4_cif.got.tgz:6406.got - 2010.04.14 02:13:53.
