data_PCOD8175329
_publ_section_title
;
Structure prediction by ZEFSAII (Michael W. Deem and Ramdas Pophale) SiO2 
 PCOD8175329
Probable space group: C M C 21
;
_chemical_formula_sum "Si O2"
_cell_formula_units_Z 56
_cell_length_a 18.785161
_cell_length_b 9.667988
_cell_length_c 15.944494
_cell_angle_alpha 90.000000
_cell_angle_beta 90.000000
_cell_angle_gamma 90.000000
_cell_volume 2895.754672
_symmetry_space_group_name_H-M "C M C 21"
_symmetry_group_IT_number 36
_symmetry_cell_setting 'orthorhombic'
loop_
_space_group_symop_operation_xyz
x,y,z
-x,-y,1/2+z
x,-y,1/2+z
-x,y,z
1/2+x,1/2+y,z
1/2-x,1/2-y,1/2+z
1/2+x,1/2-y,1/2+z
1/2-x,1/2+y,z
loop_
_atom_site_type_symbol
_atom_site_label
_atom_site_fract_x
_atom_site_fract_y
_atom_site_fract_z
Si Si1 0.177557 0.512356 0.024240
Si Si2 0.922354 0.358192 0.242410
Si Si3 0.695061 0.934525 0.716092
Si Si4 0.085114 0.251650 0.065040
Si Si5 0.778401 0.160671 0.807217
Si Si6 0.163997 0.029650 0.961424
Si Si7 0.137402 0.259825 0.401645
O O1 0.194567 0.567205 0.116356
O O2 0.128824 0.375721 0.021151
O O3 0.254338 0.489052 0.982195
O O4 0.131931 0.624963 0.973701
O O5 0.875101 0.493842 0.252201
O O6 0.898517 0.259959 0.164759
O O7 0.922587 0.275838 0.330015
O O8 0.000000 0.414587 0.221655
O O9 0.692373 0.776162 0.744389
O O10 0.760906 0.023225 0.753050
O O11 0.000000 0.257676 0.045148
O O12 0.120334 0.109060 0.033548
O O13 0.837256 0.121322 0.876590
O O14 0.712105 0.230145 0.853769
O O15 0.123803 0.886472 0.945609
#
# Coordination Sequence:
#
# PCOD8175329 Si02
#       7
#     8   8   8   8   8   8   8
#     4  10  22  37  60  91 120 160 205 250 299 367
#     4   9  21  41  61  80 114 161 200 236 305 377
#     4  10  21  35  60  86 118 153 196 248 302 351
#     4  10  23  42  62  88 123 163 203 251 312 371
#     4  10  20  36  54  87 121 151 195 247 301 350
#     4  11  22  35  59  90 125 152 203 257 301 352
#     4  10  21  36  56  88 116 154 196 251 295 354
#
# _framework density 19.338654999999999
#
# number of rings (size 3 to 8) (size 9 to 14) (size 15 to 20)
#    0.000    2.000    1.429    1.714   12.000    1.143 
#    0.000    0.000    0.000    0.000    0.000    0.000 
#    0.000    0.000    0.000    0.000    0.000    0.000 
#
# Total GULP energy -347111.062004 kJ/mol
# GULP energy per Si atom -12396.823643 kJ/mol
# Density = 1.929464 g / cm^3
# Si number density = 19.338655 Si / 1000 Ang^3
#
#
#
# Elastic Constant Matrix: (Units=GPa)
#
#
# Indices 1 2 3 4 5 6 
#
# 1 66.1875 26.3981 22.1743 0.0000 0.0000 0.0000
# 2 26.3981 112.6887 57.2223 0.0000 0.0000 0.0000
# 3 22.1743 57.2223 115.1456 0.0000 0.0000 0.0000
# 4 0.0000 0.0000 0.0000 35.3135 0.0000 0.0000
# 5 0.0000 0.0000 0.0000 0.0000 21.2525 0.0000
# 6 0.0000 0.0000 0.0000 0.0000 0.0000 13.1693
#
#
#
# Elastic Compliance Matrix: (Units=1/GPa)
#
#
# Indices 1 2 3 4 5 6 
#
# 1 0.016918 -0.003088 -0.001723 0.000000 0.000000 0.000000
# 2 -0.003088 0.012433 -0.005584 0.000000 0.000000 0.000000
# 3 -0.001723 -0.005584 0.011791 0.000000 0.000000 0.000000
# 4 0.000000 0.000000 0.000000 0.028318 0.000000 0.000000
# 5 0.000000 0.000000 0.000000 0.000000 0.047053 0.000000
# 6 0.000000 0.000000 0.000000 0.000000 0.000000 0.075934
#
#
# Mechanical properties :
#
#
# Convention : Reuss Voigt Hill
#
# Bulk Modulus (GPa) = 49.13650 56.17903 52.65777
# Shear Modulus (GPa) = 22.72506 26.49554 24.61030
#
# Velocity S-wave (km/s) = 3.43171 3.70548 3.57122
# Velocity P-wave (km/s) = 6.41605 6.88626 6.65531
#
# Compressibility (1/GPa) = 0.02035147
#
# Stress axis : x y z
#
# Youngs Moduli (GPa) = 59.11022 80.43215 84.80700
#
# Poissons Ratio (x) = 0.24837 0.14615
# Poissons Ratio (y) = 0.18253 0.47355
# Poissons Ratio (z) = 0.10187 0.44913
#
# Static dielectric constant tensor:
#      x y z
#    x 3.344240 0.000000 0.000000 
#    y 0.000000 3.452500 0.000000 
#    z 0.000000 0.000000 3.811040 
# 
# 
# High freq. dielectric constant tensor:
#      x y z
#    x 1.724850 0.000000 0.000000 
#    y 0.000000 1.748790 0.000000 
#    z 0.000000 0.000000 1.769590 
# 
# From -- ./inp_files/12829.got.cif
#   From: 2010.03.12/outbox.cif.g09.slc.cpg/sg36_7_cif.got.tgz:12829.got - 2010.04.14 02:13:53.
