data_PCOD8175948
_publ_section_title
;
Structure prediction by ZEFSAII (Michael W. Deem and Ramdas Pophale) SiO2 
 PCOD8175948
Probable space group: C M C 21
;
_chemical_formula_sum "Si O2"
_cell_formula_units_Z 64
_cell_length_a 9.045411
_cell_length_b 26.695778
_cell_length_c 12.921725
_cell_angle_alpha 90.000000
_cell_angle_beta 90.000000
_cell_angle_gamma 90.000000
_cell_volume 3120.264292
_symmetry_space_group_name_H-M "C M C 21"
_symmetry_group_IT_number 36
_symmetry_cell_setting 'orthorhombic'
loop_
_space_group_symop_operation_xyz
x,y,z
-x,-y,1/2+z
x,-y,1/2+z
-x,y,z
1/2+x,1/2+y,z
1/2-x,1/2-y,1/2+z
1/2+x,1/2-y,1/2+z
1/2-x,1/2+y,z
loop_
_atom_site_type_symbol
_atom_site_label
_atom_site_fract_x
_atom_site_fract_y
_atom_site_fract_z
Si Si1 0.828538 0.225315 0.524240
Si Si2 0.673831 0.593979 0.210404
Si Si3 0.338075 0.807545 0.672507
Si Si4 0.674174 0.553414 0.991537
Si Si5 0.166064 0.231285 0.848296
Si Si6 0.328341 0.126931 0.831958
Si Si7 0.674402 0.559179 0.433787
Si Si8 0.171927 0.630724 0.598159
O O1 0.806155 0.283431 0.560475
O O2 0.745976 0.225291 0.414741
O O3 0.750042 0.184650 0.596990
O O4 0.000000 0.210806 0.512328
O O5 0.500000 0.590798 0.211727
O O6 0.717694 0.652184 0.205364
O O7 0.733505 0.569255 0.316735
O O8 0.732918 0.565361 0.107906
O O9 0.500000 0.833514 0.677231
O O10 0.338768 0.756112 0.736470
O O11 0.500000 0.562985 0.982802
O O12 0.753695 0.587937 0.908573
O O13 0.716653 0.496858 0.964933
O O14 0.258001 0.180850 0.847087
O O15 0.000000 0.220148 0.888783
O O16 0.500000 0.131022 0.859987
O O17 0.305413 0.108367 0.713520
O O18 0.500000 0.569129 0.441999
O O19 0.755393 0.595214 0.513359
O O20 0.000000 0.637142 0.571743
#
# Coordination Sequence:
#
# PCOD8175948 Si02
#       8
#     8   8   8   8   8   8   8   8
#     4  11  22  38  60  89 124 164 209 253 305 366
#     4  10  22  40  61  92 125 157 204 259 313 372
#     4  10  22  38  57  84 119 161 200 239 297 362
#     4  10  23  42  67  94 122 162 210 263 320 379
#     4  11  22  38  60  89 124 164 209 253 305 366
#     4  11  24  41  62  93 130 167 212 261 313 374
#     4  10  23  42  67  94 122 162 210 263 320 379
#     4  11  24  41  62  93 130 167 212 261 313 374
#
# _framework density 20.511084
#
# number of rings (size 3 to 8) (size 9 to 14) (size 15 to 20)
#    0.000    1.500    1.250    3.000    1.750    9.000 
#    0.000    0.000    0.000    0.000    0.000    0.000 
#    0.000    0.000    0.000    0.000    0.000    0.000 
#
# Total GULP energy -396775.053752 kJ/mol
# GULP energy per Si atom -12399.220430 kJ/mol
# Density = 2.046440 g / cm^3
# Si number density = 20.511084 Si / 1000 Ang^3
#
#
#
# Elastic Constant Matrix: (Units=GPa)
#
#
# Indices 1 2 3 4 5 6 
#
# 1 60.9635 38.8842 47.7006 0.0000 0.0000 0.0000
# 2 38.8842 114.7370 59.5600 0.0000 0.0000 0.0000
# 3 47.7006 59.5600 134.6324 0.0000 0.0000 0.0000
# 4 0.0000 0.0000 0.0000 32.2689 0.0000 0.0000
# 5 0.0000 0.0000 0.0000 0.0000 32.0860 0.0000
# 6 0.0000 0.0000 0.0000 0.0000 0.0000 32.5170
#
#
#
# Elastic Compliance Matrix: (Units=1/GPa)
#
#
# Indices 1 2 3 4 5 6 
#
# 1 0.024700 -0.004969 -0.006553 0.000000 0.000000 0.000000
# 2 -0.004969 0.012313 -0.003687 0.000000 0.000000 0.000000
# 3 -0.006553 -0.003687 0.011380 0.000000 0.000000 0.000000
# 4 0.000000 0.000000 0.000000 0.030990 0.000000 0.000000
# 5 0.000000 0.000000 0.000000 0.000000 0.031166 0.000000
# 6 0.000000 0.000000 0.000000 0.000000 0.000000 0.030753
#
#
# Mechanical properties :
#
#
# Convention : Reuss Voigt Hill
#
# Bulk Modulus (GPa) = 55.62958 66.95807 61.29382
# Shear Modulus (GPa) = 28.13531 30.32025 29.22778
#
# Velocity S-wave (km/s) = 3.70768 3.84896 3.77898
# Velocity P-wave (km/s) = 6.74610 7.24350 6.99922
#
# Compressibility (1/GPa) = 0.01797605
#
# Stress axis : x y z
#
# Youngs Moduli (GPa) = 40.48574 81.21222 87.87073
#
# Poissons Ratio (x) = 0.40356 0.57582
# Poissons Ratio (y) = 0.20118 0.32396
# Poissons Ratio (z) = 0.26530 0.29941
#
# Static dielectric constant tensor:
#      x y z
#    x 3.712560 0.000000 0.000000 
#    y 0.000000 3.578480 0.000000 
#    z 0.000000 0.000000 4.073040 
# 
# 
# High freq. dielectric constant tensor:
#      x y z
#    x 1.800580 0.000000 0.000000 
#    y 0.000000 1.796410 0.000000 
#    z 0.000000 0.000000 1.822770 
# 
# From -- ./inp_files/7248.got.cif
#   From: 2010.03.12/outbox.cif.g09.slc.cpg/sg36_4_cif.got.tgz:7248.got - 2010.04.14 02:13:53.
