data_PCOD8175464
_publ_section_title
;
Structure prediction by ZEFSAII (Michael W. Deem and Ramdas Pophale) SiO2 
 PCOD8175464
Probable space group: C M C 21
;
_chemical_formula_sum "Si O2"
_cell_formula_units_Z 48
_cell_length_a 8.865968
_cell_length_b 23.984216
_cell_length_c 11.805593
_cell_angle_alpha 90.000000
_cell_angle_beta 90.000000
_cell_angle_gamma 90.000000
_cell_volume 2510.380154
_symmetry_space_group_name_H-M "C M C 21"
_symmetry_group_IT_number 36
_symmetry_cell_setting 'orthorhombic'
loop_
_space_group_symop_operation_xyz
x,y,z
-x,-y,1/2+z
x,-y,1/2+z
-x,y,z
1/2+x,1/2+y,z
1/2-x,1/2-y,1/2+z
1/2+x,1/2-y,1/2+z
1/2-x,1/2+y,z
loop_
_atom_site_type_symbol
_atom_site_label
_atom_site_fract_x
_atom_site_fract_y
_atom_site_fract_z
Si Si1 0.321293 0.170991 0.793090
Si Si2 0.324048 0.292914 0.854777
Si Si3 0.677166 0.921487 0.469227
Si Si4 0.824317 0.038128 0.422004
Si Si5 0.678759 0.137233 0.546583
Si Si6 0.827970 0.105283 0.199301
O O1 0.500000 0.173791 0.789177
O O2 0.259067 0.232347 0.823006
O O3 0.265425 0.128132 0.888502
O O4 0.259353 0.151716 0.671406
O O5 0.500000 0.292083 0.887540
O O6 0.297509 0.333032 0.747388
O O7 0.233530 0.314434 0.962981
O O8 0.500000 0.931726 0.456960
O O9 0.714182 0.905514 0.597576
O O10 0.763219 0.976251 0.430368
O O11 0.742697 0.076967 0.513632
O O12 0.792455 0.060005 0.295857
O O13 0.000000 0.039645 0.450799
O O14 0.500000 0.134149 0.543146
O O15 0.000000 0.099344 0.156740
#
# Coordination Sequence:
#
# PCOD8175464 Si02
#       6
#     8   8   8   8   8   8
#     4   9  21  38  57  85 120 151 184 233 289 336
#     4   9  19  39  61  82 116 156 189 230 285 342
#     4  11  23  37  58  87 118 150 189 239 287 337
#     4  10  22  41  61  83 114 153 193 236 288 345
#     4  10  20  37  61  88 114 148 193 239 286 338
#     4   9  20  38  60  83 112 152 192 233 283 340
#
# _framework density 19.120611
#
# number of rings (size 3 to 8) (size 9 to 14) (size 15 to 20)
#    0.000    2.333    0.000    2.500    4.667    3.333 
#    0.000    5.000    0.000    0.000    0.000    0.000 
#    0.000    0.000    0.000    0.000    0.000    0.000 
#
# Total GULP energy -297677.529492 kJ/mol
# GULP energy per Si atom -12403.230396 kJ/mol
# Density = 1.907709 g / cm^3
# Si number density = 19.120611 Si / 1000 Ang^3
#
#
#
# Elastic Constant Matrix: (Units=GPa)
#
#
# Indices 1 2 3 4 5 6 
#
# 1 61.9948 34.8049 42.6164 0.0000 0.0000 0.0000
# 2 34.8049 163.5985 72.0575 0.0000 0.0000 0.0000
# 3 42.6164 72.0575 120.7739 0.0000 0.0000 0.0000
# 4 0.0000 0.0000 0.0000 22.0602 0.0000 0.0000
# 5 0.0000 0.0000 0.0000 0.0000 29.0733 0.0000
# 6 0.0000 0.0000 0.0000 0.0000 0.0000 28.7059
#
#
#
# Elastic Compliance Matrix: (Units=1/GPa)
#
#
# Indices 1 2 3 4 5 6 
#
# 1 0.021632 -0.001682 -0.006629 0.000000 0.000000 0.000000
# 2 -0.001682 0.008422 -0.004431 0.000000 0.000000 0.000000
# 3 -0.006629 -0.004431 0.013263 0.000000 0.000000 0.000000
# 4 0.000000 0.000000 0.000000 0.045330 0.000000 0.000000
# 5 0.000000 0.000000 0.000000 0.000000 0.034396 0.000000
# 6 0.000000 0.000000 0.000000 0.000000 0.000000 0.034836
#
#
# Mechanical properties :
#
#
# Convention : Reuss Voigt Hill
#
# Bulk Modulus (GPa) = 56.08112 71.70275 63.89194
# Shear Modulus (GPa) = 26.41178 29.09377 27.75278
#
# Velocity S-wave (km/s) = 3.72065 3.90499 3.81393
# Velocity P-wave (km/s) = 6.91748 7.61010 7.27204
#
# Compressibility (1/GPa) = 0.01783131
#
# Stress axis : x y z
#
# Youngs Moduli (GPa) = 46.22786 118.73357 75.39699
#
# Poissons Ratio (x) = 0.19973 0.49984
# Poissons Ratio (y) = 0.07776 0.33411
# Poissons Ratio (z) = 0.30647 0.52616
#
# Static dielectric constant tensor:
#      x y z
#    x 3.336530 0.000000 0.000000 
#    y 0.000000 3.710660 0.000000 
#    z 0.000000 0.000000 3.538010 
# 
# 
# High freq. dielectric constant tensor:
#      x y z
#    x 1.732350 0.000000 0.000000 
#    y 0.000000 1.756440 0.000000 
#    z 0.000000 0.000000 1.747930 
# 
# From -- ./inp_files/6712.got.cif
#   From: 2010.03.12/outbox.cif.g09.slc.cpg/sg36_4_cif.got.tgz:6712.got - 2010.04.14 02:13:53.
