data_PCOD8175753
_publ_section_title
;
Structure prediction by ZEFSAII (Michael W. Deem and Ramdas Pophale) SiO2 
 PCOD8175753
Probable space group: C M C 21
;
_chemical_formula_sum "Si O2"
_cell_formula_units_Z 64
_cell_length_a 8.853496
_cell_length_b 23.950246
_cell_length_c 15.363921
_cell_angle_alpha 90.000000
_cell_angle_beta 90.000000
_cell_angle_gamma 90.000000
_cell_volume 3257.818156
_symmetry_space_group_name_H-M "C M C 21"
_symmetry_group_IT_number 36
_symmetry_cell_setting 'orthorhombic'
loop_
_space_group_symop_operation_xyz
x,y,z
-x,-y,1/2+z
x,-y,1/2+z
-x,y,z
1/2+x,1/2+y,z
1/2-x,1/2-y,1/2+z
1/2+x,1/2-y,1/2+z
1/2-x,1/2+y,z
loop_
_atom_site_type_symbol
_atom_site_label
_atom_site_fract_x
_atom_site_fract_y
_atom_site_fract_z
Si Si1 0.678175 0.107632 0.988720
Si Si2 0.178509 0.501469 0.739576
Si Si3 0.174586 0.122636 0.473460
Si Si4 0.178086 0.619065 0.181487
Si Si5 0.179056 0.302779 0.832550
Si Si6 0.178134 0.176431 0.833789
Si Si7 0.178706 0.001088 0.923105
Si Si8 0.674585 0.604674 0.668286
O O1 0.500000 0.102578 0.976974
O O2 0.743528 0.146470 0.914123
O O3 0.747458 0.045562 0.988421
O O4 0.721825 0.134386 0.082398
O O5 0.240179 0.442141 0.706016
O O6 0.263804 0.517130 0.827865
O O7 0.224193 0.548977 0.670689
O O8 0.000000 0.501500 0.755141
O O9 0.268641 0.168293 0.421267
O O10 0.201810 0.134177 0.575485
O O11 0.000000 0.128975 0.447990
O O12 0.232587 0.060723 0.449170
O O13 0.246456 0.664507 0.248472
O O14 0.000000 0.617715 0.192157
O O15 0.239177 0.239627 0.829839
O O16 0.000000 0.303479 0.829821
O O17 0.224614 0.147557 0.743277
O O18 0.000000 0.173791 0.848822
O O19 0.000000 0.007372 0.928002
O O20 0.500000 0.587116 0.678149
#
# Coordination Sequence:
#
# PCOD8175753 Si02
#       8
#     8   8   8   8   8   8   8   8
#     4  11  22  37  60  87 116 150 191 237 285 340
#     4  11  20  34  59  88 115 146 190 234 282 343
#     4  10  22  38  59  88 116 151 192 235 286 341
#     4   9  20  37  58  86 115 147 188 234 286 342
#     4  10  21  40  61  81 112 154 195 239 290 340
#     4  10  22  39  59  82 113 154 195 237 290 341
#     4  11  21  35  56  85 121 152 185 230 288 346
#     4  10  21  38  58  83 118 154 188 228 287 349
#
# _framework density 19.645050000000001
#
# number of rings (size 3 to 8) (size 9 to 14) (size 15 to 20)
#    0.000    1.750    2.500    1.875    0.000    2.500 
#    0.000    5.625    0.000    0.000    0.000    0.000 
#    0.000    0.000    0.000    0.000    0.000    0.000 
#
# Total GULP energy -396881.361024 kJ/mol
# GULP energy per Si atom -12402.542532 kJ/mol
# Density = 1.960034 g / cm^3
# Si number density = 19.645050 Si / 1000 Ang^3
#
#
#
# Elastic Constant Matrix: (Units=GPa)
#
#
# Indices 1 2 3 4 5 6 
#
# 1 37.5106 36.1038 28.0762 0.0000 0.0000 0.0000
# 2 36.1038 146.5412 57.9149 0.0000 0.0000 0.0000
# 3 28.0762 57.9149 128.8889 0.0000 0.0000 0.0000
# 4 0.0000 0.0000 0.0000 15.8868 0.0000 0.0000
# 5 0.0000 0.0000 0.0000 0.0000 25.7890 0.0000
# 6 0.0000 0.0000 0.0000 0.0000 0.0000 24.4228
#
#
#
# Elastic Compliance Matrix: (Units=1/GPa)
#
#
# Indices 1 2 3 4 5 6 
#
# 1 0.037290 -0.007268 -0.004857 0.000000 0.000000 0.000000
# 2 -0.007268 0.009714 -0.002782 0.000000 0.000000 0.000000
# 3 -0.004857 -0.002782 0.010067 0.000000 0.000000 0.000000
# 4 0.000000 0.000000 0.000000 0.062945 0.000000 0.000000
# 5 0.000000 0.000000 0.000000 0.000000 0.038776 0.000000
# 6 0.000000 0.000000 0.000000 0.000000 0.000000 0.040945
#
#
# Mechanical properties :
#
#
# Convention : Reuss Voigt Hill
#
# Bulk Modulus (GPa) = 36.68766 61.90340 49.29553
# Shear Modulus (GPa) = 20.95239 25.94276 23.44757
#
# Velocity S-wave (km/s) = 3.26935 3.63791 3.45854
# Velocity P-wave (km/s) = 5.74172 7.01607 6.41064
#
# Compressibility (1/GPa) = 0.02725712
#
# Stress axis : x y z
#
# Youngs Moduli (GPa) = 26.81702 102.94501 99.33787
#
# Poissons Ratio (x) = 0.74815 0.48252
# Poissons Ratio (y) = 0.19489 0.27633
# Poissons Ratio (z) = 0.13026 0.28637
#
# Static dielectric constant tensor:
#      x y z
#    x 3.375950 0.000000 0.000000 
#    y 0.000000 3.743400 0.000000 
#    z 0.000000 0.000000 3.718960 
# 
# 
# High freq. dielectric constant tensor:
#      x y z
#    x 1.748050 0.000000 0.000000 
#    y 0.000000 1.764920 0.000000 
#    z 0.000000 0.000000 1.778340 
# 
# From -- ./inp_files/11029.got.cif
#   From: 2010.03.12/outbox.cif.g09.slc.cpg/sg36_6_cif.got.tgz:11029.got - 2010.04.14 02:13:53.
