data_PCOD8175813
_publ_section_title
;
Structure prediction by ZEFSAII (Michael W. Deem and Ramdas Pophale) SiO2 
 PCOD8175813
Probable space group: C M C 21
;
_chemical_formula_sum "Si O2"
_cell_formula_units_Z 64
_cell_length_a 8.765232
_cell_length_b 24.396109
_cell_length_c 14.651860
_cell_angle_alpha 90.000000
_cell_angle_beta 90.000000
_cell_angle_gamma 90.000000
_cell_volume 3133.117923
_symmetry_space_group_name_H-M "C M C 21"
_symmetry_group_IT_number 36
_symmetry_cell_setting 'orthorhombic'
loop_
_space_group_symop_operation_xyz
x,y,z
-x,-y,1/2+z
x,-y,1/2+z
-x,y,z
1/2+x,1/2+y,z
1/2-x,1/2-y,1/2+z
1/2+x,1/2-y,1/2+z
1/2-x,1/2+y,z
loop_
_atom_site_type_symbol
_atom_site_label
_atom_site_fract_x
_atom_site_fract_y
_atom_site_fract_z
Si Si1 0.679986 0.996541 0.589830
Si Si2 0.323622 0.777441 0.994573
Si Si3 0.318926 0.696644 0.311362
Si Si4 0.180800 0.206021 0.691470
Si Si5 0.331562 0.652660 0.987957
Si Si6 0.318345 0.089295 0.719648
Si Si7 0.675549 0.054424 0.910028
Si Si8 0.171626 0.896153 0.678861
O O1 0.500000 0.994279 0.583439
O O2 0.753036 0.985063 0.488096
O O3 0.726053 0.949268 0.661074
O O4 0.730732 0.055891 0.628390
O O5 0.500000 0.794764 0.005900
O O6 0.244416 0.811093 0.913577
O O7 0.305595 0.715166 0.962321
O O8 0.239077 0.787690 0.088862
O O9 0.500000 0.704770 0.310897
O O10 0.247182 0.747966 0.258116
O O11 0.271222 0.638913 0.265199
O O12 0.230131 0.146217 0.726627
O O13 0.000000 0.210823 0.693430
O O14 0.500000 0.633197 0.955115
O O15 0.202390 0.617352 0.938797
O O16 0.318720 0.647086 0.096434
O O17 0.500000 0.100260 0.722632
O O18 0.266999 0.050263 0.805542
O O19 0.500000 0.040314 0.912303
O O20 0.000000 0.917453 0.693315
#
# Coordination Sequence:
#
# PCOD8175813 Si02
#       8
#     8   8   8   8   8   8   8   8
#     4   9  19  36  58  84 112 146 195 248 294 353
#     4  11  22  38  58  86 121 159 199 242 299 362
#     4  11  22  39  60  87 123 160 198 244 300 363
#     4  12  25  40  60  88 122 161 205 250 299 361
#     4   9  17  32  54  79 109 145 185 232 284 339
#     4  10  21  39  59  81 117 157 195 246 304 356
#     4   9  18  33  56  84 110 145 193 241 292 345
#     4   9  18  35  57  79 110 147 184 235 292 343
#
# _framework density 20.426938
#
# number of rings (size 3 to 8) (size 9 to 14) (size 15 to 20)
#    0.000    2.000    1.250    2.625    0.000    5.000 
#    2.250    0.000    0.000    0.000    0.000    0.000 
#    0.000    0.000    0.000    0.000    0.000    0.000 
#
# Total GULP energy -396588.699751 kJ/mol
# GULP energy per Si atom -12393.396867 kJ/mol
# Density = 2.038045 g / cm^3
# Si number density = 20.426938 Si / 1000 Ang^3
#
#
#
# Elastic Constant Matrix: (Units=GPa)
#
#
# Indices 1 2 3 4 5 6 
#
# 1 59.4352 15.3554 23.7428 0.0000 0.0000 0.0000
# 2 15.3554 45.0639 10.4876 0.0000 0.0000 0.0000
# 3 23.7428 10.4876 103.0483 0.0000 0.0000 0.0000
# 4 0.0000 0.0000 0.0000 24.2733 0.0000 0.0000
# 5 0.0000 0.0000 0.0000 0.0000 29.4089 0.0000
# 6 0.0000 0.0000 0.0000 0.0000 0.0000 26.4000
#
#
#
# Elastic Compliance Matrix: (Units=1/GPa)
#
#
# Indices 1 2 3 4 5 6 
#
# 1 0.019936 -0.005863 -0.003997 0.000000 0.000000 0.000000
# 2 -0.005863 0.024453 -0.001138 0.000000 0.000000 0.000000
# 3 -0.003997 -0.001138 0.010741 0.000000 0.000000 0.000000
# 4 0.000000 0.000000 0.000000 0.041197 0.000000 0.000000
# 5 0.000000 0.000000 0.000000 0.000000 0.034003 0.000000
# 6 0.000000 0.000000 0.000000 0.000000 0.000000 0.037879
#
#
# Mechanical properties :
#
#
# Convention : Reuss Voigt Hill
#
# Bulk Modulus (GPa) = 30.17933 34.07991 32.12962
# Shear Modulus (GPa) = 24.84463 26.54721 25.69592
#
# Velocity S-wave (km/s) = 3.49129 3.60893 3.55060
# Velocity P-wave (km/s) = 5.57301 5.83831 5.70720
#
# Compressibility (1/GPa) = 0.03313527
#
# Stress axis : x y z
#
# Youngs Moduli (GPa) = 50.15953 40.89413 93.10250
#
# Poissons Ratio (x) = 0.23977 0.37211
# Poissons Ratio (y) = 0.29409 0.10593
# Poissons Ratio (z) = 0.20047 0.04653
#
# Static dielectric constant tensor:
#      x y z
#    x 3.611800 0.000000 0.000000 
#    y 0.000000 3.567620 0.000000 
#    z 0.000000 0.000000 4.092470 
# 
# 
# High freq. dielectric constant tensor:
#      x y z
#    x 1.786500 0.000000 0.000000 
#    y 0.000000 1.780930 0.000000 
#    z 0.000000 0.000000 1.811980 
# 
# From -- ./inp_files/10892.got.cif
#   From: 2010.03.12/outbox.cif.g09.slc.cpg/sg36_6_cif.got.tgz:10892.got - 2010.04.14 02:13:53.
