data_PCOD8175357
_publ_section_title
;
Structure prediction by ZEFSAII (Michael W. Deem and Ramdas Pophale) SiO2 
 PCOD8175357
Probable space group: C M C 21
;
_chemical_formula_sum "Si O2"
_cell_formula_units_Z 64
_cell_length_a 8.729112
_cell_length_b 15.460200
_cell_length_c 23.940982
_cell_angle_alpha 90.000000
_cell_angle_beta 90.000000
_cell_angle_gamma 90.000000
_cell_volume 3230.926912
_symmetry_space_group_name_H-M "C M C 21"
_symmetry_group_IT_number 36
_symmetry_cell_setting 'orthorhombic'
loop_
_space_group_symop_operation_xyz
x,y,z
-x,-y,1/2+z
x,-y,1/2+z
-x,y,z
1/2+x,1/2+y,z
1/2-x,1/2-y,1/2+z
1/2+x,1/2-y,1/2+z
1/2-x,1/2+y,z
loop_
_atom_site_type_symbol
_atom_site_label
_atom_site_fract_x
_atom_site_fract_y
_atom_site_fract_z
Si Si1 0.180318 0.777498 0.661480
Si Si2 0.324626 0.036702 0.762129
Si Si3 0.181827 0.621032 0.585518
Si Si4 0.181946 0.290206 0.388579
Si Si5 0.178954 0.783633 0.271019
Si Si6 0.177819 0.484777 0.386086
Si Si7 0.817305 0.641030 0.459446
Si Si8 0.177781 0.451110 0.647506
O O1 0.244205 0.699733 0.623106
O O2 0.262421 0.777485 0.721453
O O3 0.224794 0.866950 0.630953
O O4 0.000000 0.770142 0.669967
O O5 0.500000 0.071595 0.760443
O O6 0.214156 0.117963 0.753947
O O7 0.291530 0.990432 0.821333
O O8 0.294929 0.969289 0.713041
O O9 0.242047 0.630757 0.522583
O O10 0.241521 0.530717 0.610875
O O11 0.000000 0.622242 0.587108
O O12 0.237555 0.257007 0.328270
O O13 0.243461 0.388569 0.398636
O O14 0.250580 0.230461 0.436635
O O15 0.000000 0.286889 0.390129
O O16 0.000000 0.769057 0.279536
O O17 0.251610 0.559421 0.424662
O O18 0.000000 0.482606 0.400014
O O19 0.000000 0.645036 0.455621
O O20 0.000000 0.434007 0.634560
#
# Coordination Sequence:
#
# PCOD8175357 Si02
#       8
#     8   8   8   8   8   8   8   8
#     4  11  22  38  57  84 118 156 194 243 299 346
#     4   9  17  34  57  81 117 153 182 232 296 345
#     4   9  20  39  59  79 115 158 195 238 295 349
#     4  10  21  38  57  85 119 153 184 237 303 347
#     4  11  21  35  58  87 117 153 195 240 288 352
#     4   8  17  33  55  81 111 146 183 226 282 343
#     4  10  20  37  61  85 109 153 204 240 280 350
#     4  10  20  36  58  84 114 154 197 236 287 356
#
# _framework density 19.808557
#
# number of rings (size 3 to 8) (size 9 to 14) (size 15 to 20)
#    0.000    2.250    1.250    2.625    1.750    1.500 
#    0.000    6.250    0.000    0.000    0.000    0.000 
#    0.000    0.000    0.000    0.000    0.000    0.000 
#
# Total GULP energy -396804.417613 kJ/mol
# GULP energy per Si atom -12400.138050 kJ/mol
# Density = 1.976347 g / cm^3
# Si number density = 19.808557 Si / 1000 Ang^3
#
#
#
# Elastic Constant Matrix: (Units=GPa)
#
#
# Indices 1 2 3 4 5 6 
#
# 1 46.4959 20.7315 23.0124 0.0000 0.0000 0.0000
# 2 20.7315 106.5915 50.4970 0.0000 0.0000 0.0000
# 3 23.0124 50.4970 118.9375 0.0000 0.0000 0.0000
# 4 0.0000 0.0000 0.0000 28.4618 0.0000 0.0000
# 5 0.0000 0.0000 0.0000 0.0000 20.2223 0.0000
# 6 0.0000 0.0000 0.0000 0.0000 0.0000 28.8268
#
#
#
# Elastic Compliance Matrix: (Units=1/GPa)
#
#
# Indices 1 2 3 4 5 6 
#
# 1 0.024611 -0.003168 -0.003417 0.000000 0.000000 0.000000
# 2 -0.003168 0.012152 -0.004546 0.000000 0.000000 0.000000
# 3 -0.003417 -0.004546 0.010999 0.000000 0.000000 0.000000
# 4 0.000000 0.000000 0.000000 0.035135 0.000000 0.000000
# 5 0.000000 0.000000 0.000000 0.000000 0.049450 0.000000
# 6 0.000000 0.000000 0.000000 0.000000 0.000000 0.034690
#
#
# Mechanical properties :
#
#
# Convention : Reuss Voigt Hill
#
# Bulk Modulus (GPa) = 39.21648 51.16743 45.19196
# Shear Modulus (GPa) = 25.27829 27.35444 26.31636
#
# Velocity S-wave (km/s) = 3.57617 3.72013 3.64886
# Velocity P-wave (km/s) = 6.07394 6.65880 6.37308
#
# Compressibility (1/GPa) = 0.02549948
#
# Stress axis : x y z
#
# Youngs Moduli (GPa) = 40.63243 82.29437 90.91716
#
# Poissons Ratio (x) = 0.26071 0.31064
# Poissons Ratio (y) = 0.12872 0.41333
# Poissons Ratio (z) = 0.13883 0.37412
#
# Static dielectric constant tensor:
#      x y z
#    x 3.258050 0.000000 0.000000 
#    y 0.000000 3.717440 0.000000 
#    z 0.000000 0.000000 3.752540 
# 
# 
# High freq. dielectric constant tensor:
#      x y z
#    x 1.739670 0.000000 0.000000 
#    y 0.000000 1.777940 0.000000 
#    z 0.000000 0.000000 1.772030 
# 
# From -- ./inp_files/16675.got.cif
#   From: 2010.03.12/outbox.cif.g09.slc.cpg/sg36_9_cif.got.tgz:16675.got - 2010.04.14 02:13:53.
