data_PCOD8175451
_publ_section_title
;
Structure prediction by ZEFSAII (Michael W. Deem and Ramdas Pophale) SiO2 
 PCOD8175451
Probable space group: C M C 21
;
_chemical_formula_sum "Si O2"
_cell_formula_units_Z 48
_cell_length_a 9.122685
_cell_length_b 27.628277
_cell_length_c 9.973829
_cell_angle_alpha 90.000000
_cell_angle_beta 90.000000
_cell_angle_gamma 90.000000
_cell_volume 2513.844436
_symmetry_space_group_name_H-M "C M C 21"
_symmetry_group_IT_number 36
_symmetry_cell_setting 'orthorhombic'
loop_
_space_group_symop_operation_xyz
x,y,z
-x,-y,1/2+z
x,-y,1/2+z
-x,y,z
1/2+x,1/2+y,z
1/2-x,1/2-y,1/2+z
1/2+x,1/2-y,1/2+z
1/2-x,1/2+y,z
loop_
_atom_site_type_symbol
_atom_site_label
_atom_site_fract_x
_atom_site_fract_y
_atom_site_fract_z
Si Si1 0.828156 0.292275 0.740400
Si Si2 0.331712 0.319202 0.240523
Si Si3 0.172884 0.545076 0.381267
Si Si4 0.173700 0.358502 0.495966
Si Si5 0.172052 0.463033 0.578216
Si Si6 0.329035 0.355757 0.948034
O O1 0.788228 0.236491 0.718803
O O2 0.773843 0.320706 0.608566
O O3 0.740538 0.310862 0.869095
O O4 0.000000 0.300922 0.764964
O O5 0.500000 0.323427 0.284761
O O6 0.232931 0.343322 0.352649
O O7 0.300569 0.348065 0.104698
O O8 0.236873 0.505836 0.485848
O O9 0.209499 0.525714 0.232534
O O10 0.253286 0.595223 0.402746
O O11 0.000000 0.554126 0.399044
O O12 0.238022 0.411254 0.534375
O O13 0.000000 0.359499 0.487436
O O14 0.000000 0.461213 0.553981
O O15 0.500000 0.358093 0.914342
#
# Coordination Sequence:
#
# PCOD8175451 Si02
#       6
#     8   8   8   8   8   8
#     4  10  20  39  62  82 112 152 194 239 286 337
#     4  10  23  38  55  84 119 154 190 233 284 342
#     4  10  20  38  61  86 114 147 190 240 286 335
#     4  10  20  37  60  86 113 148 191 239 288 337
#     4   9  19  35  60  87 110 142 189 238 283 332
#     4  11  23  39  58  85 120 155 190 233 287 347
#
# _framework density 19.094260999999999
#
# number of rings (size 3 to 8) (size 9 to 14) (size 15 to 20)
#    0.000    2.000    1.667    1.500    2.333    4.000 
#    0.000    1.667    0.000    0.000    0.000    0.000 
#    0.000    0.000    0.000    0.000    0.000    0.000 
#
# Total GULP energy -297676.820170 kJ/mol
# GULP energy per Si atom -12403.200840 kJ/mol
# Density = 1.905080 g / cm^3
# Si number density = 19.094261 Si / 1000 Ang^3
#
#
#
# Elastic Constant Matrix: (Units=GPa)
#
#
# Indices 1 2 3 4 5 6 
#
# 1 38.3882 18.5572 30.0880 0.0000 0.0000 0.0000
# 2 18.5572 74.2591 27.2431 0.0000 0.0000 0.0000
# 3 30.0880 27.2431 98.1784 0.0000 0.0000 0.0000
# 4 0.0000 0.0000 0.0000 43.6498 0.0000 0.0000
# 5 0.0000 0.0000 0.0000 0.0000 26.8929 0.0000
# 6 0.0000 0.0000 0.0000 0.0000 0.0000 17.4079
#
#
#
# Elastic Compliance Matrix: (Units=1/GPa)
#
#
# Indices 1 2 3 4 5 6 
#
# 1 0.036225 -0.005544 -0.009563 0.000000 0.000000 0.000000
# 2 -0.005544 0.015841 -0.002697 0.000000 0.000000 0.000000
# 3 -0.009563 -0.002697 0.013865 0.000000 0.000000 0.000000
# 4 0.000000 0.000000 0.000000 0.022910 0.000000 0.000000
# 5 0.000000 0.000000 0.000000 0.000000 0.037185 0.000000
# 6 0.000000 0.000000 0.000000 0.000000 0.000000 0.057445
#
#
# Mechanical properties :
#
#
# Convention : Reuss Voigt Hill
#
# Bulk Modulus (GPa) = 32.97837 40.28915 36.63376
# Shear Modulus (GPa) = 21.81634 26.58594 24.20114
#
# Velocity S-wave (km/s) = 3.38384 3.73547 3.56400
# Velocity P-wave (km/s) = 5.70754 6.30483 6.01361
#
# Compressibility (1/GPa) = 0.03032291
#
# Stress axis : x y z
#
# Youngs Moduli (GPa) = 27.60506 63.12679 72.12626
#
# Poissons Ratio (x) = 0.34999 0.68976
# Poissons Ratio (y) = 0.15305 0.19450
# Poissons Ratio (z) = 0.26399 0.17023
#
# Static dielectric constant tensor:
#      x y z
#    x 3.259290 0.000000 0.000000 
#    y 0.000000 3.729910 0.000000 
#    z 0.000000 0.000000 3.609110 
# 
# 
# High freq. dielectric constant tensor:
#      x y z
#    x 1.715470 0.000000 0.000000 
#    y 0.000000 1.755120 0.000000 
#    z 0.000000 0.000000 1.756380 
# 
# From -- ./inp_files/2672.got.cif
#   From: 2010.03.12/outbox.cif.g09.slc.cpg/sg36_2_cif.got.tgz:2672.got - 2010.04.14 02:13:53.
