data_PCOD8175598
_publ_section_title
;
Structure prediction by ZEFSAII (Michael W. Deem and Ramdas Pophale) SiO2 
 PCOD8175598
Probable space group: C M C 21
;
_chemical_formula_sum "Si O2"
_cell_formula_units_Z 48
_cell_length_a 16.723507
_cell_length_b 9.433145
_cell_length_c 13.739406
_cell_angle_alpha 90.000000
_cell_angle_beta 90.000000
_cell_angle_gamma 90.000000
_cell_volume 2167.463654
_symmetry_space_group_name_H-M "C M C 21"
_symmetry_group_IT_number 36
_symmetry_cell_setting 'orthorhombic'
loop_
_space_group_symop_operation_xyz
x,y,z
-x,-y,1/2+z
x,-y,1/2+z
-x,y,z
1/2+x,1/2+y,z
1/2-x,1/2-y,1/2+z
1/2+x,1/2-y,1/2+z
1/2-x,1/2+y,z
loop_
_atom_site_type_symbol
_atom_site_label
_atom_site_fract_x
_atom_site_fract_y
_atom_site_fract_z
Si Si1 0.329466 0.049195 0.855760
Si Si2 0.175323 0.129936 0.413746
Si Si3 0.590119 0.166970 0.466697
Si Si4 0.407312 0.300337 0.108796
Si Si5 0.093210 0.521616 0.654049
Si Si6 0.092768 0.891513 0.318473
O O1 0.314533 0.211345 0.878129
O O2 0.344283 0.033152 0.741319
O O3 0.256882 0.955361 0.897999
O O4 0.406657 0.983183 0.909161
O O5 0.146497 0.126689 0.525600
O O6 0.108598 0.054177 0.346212
O O7 0.500000 0.214936 0.479672
O O8 0.623207 0.140545 0.575942
O O9 0.633330 0.290404 0.402442
O O10 0.500000 0.345933 0.094106
O O11 0.371957 0.355970 0.212067
O O12 0.398614 0.131434 0.103908
O O13 0.000000 0.545688 0.685096
O O14 0.000000 0.855574 0.312534
#
# Coordination Sequence:
#
# PCOD8175598 Si02
#       6
#     8   8   8   8   8   8
#     4  12  25  42  62  95 133 178 227 274 331 398
#     4  12  27  44  64  95 137 181 230 274 339 400
#     4  10  20  40  69  99 132 170 219 274 333 400
#     4  10  21  42  71 101 132 173 221 277 342 404
#     4  10  21  40  71 102 130 175 225 274 335 406
#     4  10  22  42  69 100 136 173 220 285 340 398
#
# _framework density 22.145700999999999
#
# number of rings (size 3 to 8) (size 9 to 14) (size 15 to 20)
#    0.000    1.333    3.333    2.000    0.000    4.667 
#    0.000    3.333    0.000    0.000    0.000    0.000 
#    0.000    0.000    0.000    0.000    0.000    0.000 
#
# Total GULP energy -297426.398502 kJ/mol
# GULP energy per Si atom -12392.766604 kJ/mol
# Density = 2.209530 g / cm^3
# Si number density = 22.145701 Si / 1000 Ang^3
#
#
#
# Elastic Constant Matrix: (Units=GPa)
#
#
# Indices 1 2 3 4 5 6 
#
# 1 52.6515 33.6584 57.3625 0.0000 0.0000 0.0000
# 2 33.6584 131.0088 49.8450 0.0000 0.0000 0.0000
# 3 57.3625 49.8450 168.4932 0.0000 0.0000 0.0000
# 4 0.0000 0.0000 0.0000 34.7482 0.0000 0.0000
# 5 0.0000 0.0000 0.0000 0.0000 33.7299 0.0000
# 6 0.0000 0.0000 0.0000 0.0000 0.0000 27.3281
#
#
#
# Elastic Compliance Matrix: (Units=1/GPa)
#
#
# Indices 1 2 3 4 5 6 
#
# 1 0.032544 -0.004672 -0.009698 0.000000 0.000000 0.000000
# 2 -0.004672 0.009272 -0.001152 0.000000 0.000000 0.000000
# 3 -0.009698 -0.001152 0.009577 0.000000 0.000000 0.000000
# 4 0.000000 0.000000 0.000000 0.028778 0.000000 0.000000
# 5 0.000000 0.000000 0.000000 0.000000 0.029647 0.000000
# 6 0.000000 0.000000 0.000000 0.000000 0.000000 0.036592
#
#
# Mechanical properties :
#
#
# Convention : Reuss Voigt Hill
#
# Bulk Modulus (GPa) = 49.13916 70.43172 59.78544
# Shear Modulus (GPa) = 27.13877 33.24709 30.19293
#
# Velocity S-wave (km/s) = 3.50446 3.87885 3.69640
# Velocity P-wave (km/s) = 6.21387 7.20649 6.72851
#
# Compressibility (1/GPa) = 0.02035037
#
# Stress axis : x y z
#
# Youngs Moduli (GPa) = 30.72723 107.85448 104.41300
#
# Poissons Ratio (x) = 0.50385 1.01255
# Poissons Ratio (y) = 0.14355 0.12033
# Poissons Ratio (z) = 0.29798 0.12429
#
# Static dielectric constant tensor:
#      x y z
#    x 3.839400 0.000000 0.000000 
#    y 0.000000 4.101330 0.000000 
#    z 0.000000 0.000000 4.285430 
# 
# 
# High freq. dielectric constant tensor:
#      x y z
#    x 1.855290 0.000000 0.000000 
#    y 0.000000 1.868120 0.000000 
#    z 0.000000 0.000000 1.885200 
# 
# From -- ./inp_files/12503.got.cif
#   From: 2010.03.12/outbox.cif.g09.slc.cpg/sg36_7_cif.got.tgz:12503.got - 2010.04.14 02:13:53.
