data_PCOD8175326
_publ_section_title
;
Structure prediction by ZEFSAII (Michael W. Deem and Ramdas Pophale) SiO2 
 PCOD8175326
Probable space group: C M C 21
;
_chemical_formula_sum "Si O2"
_cell_formula_units_Z 64
_cell_length_a 8.575307
_cell_length_b 15.269144
_cell_length_c 23.542957
_cell_angle_alpha 90.000000
_cell_angle_beta 90.000000
_cell_angle_gamma 90.000000
_cell_volume 3082.658226
_symmetry_space_group_name_H-M "C M C 21"
_symmetry_group_IT_number 36
_symmetry_cell_setting 'orthorhombic'
loop_
_space_group_symop_operation_xyz
x,y,z
-x,-y,1/2+z
x,-y,1/2+z
-x,y,z
1/2+x,1/2+y,z
1/2-x,1/2-y,1/2+z
1/2+x,1/2-y,1/2+z
1/2-x,1/2+y,z
loop_
_atom_site_type_symbol
_atom_site_label
_atom_site_fract_x
_atom_site_fract_y
_atom_site_fract_z
Si Si1 0.684142 0.408359 0.481900
Si Si2 0.682260 0.249282 0.407478
Si Si3 0.319904 0.604391 0.484705
Si Si4 0.818190 0.851980 0.603614
Si Si5 0.177406 0.832183 0.108662
Si Si6 0.179338 0.907480 0.229403
Si Si7 0.319581 0.256552 0.786088
Si Si8 0.819163 0.587130 0.216741
O O1 0.500000 0.399751 0.487201
O O2 0.743664 0.341060 0.433903
O O3 0.732784 0.507026 0.465648
O O4 0.752951 0.381227 0.543095
O O5 0.500000 0.253652 0.392386
O O6 0.709972 0.172664 0.452905
O O7 0.781077 0.229334 0.351838
O O8 0.500000 0.622156 0.468729
O O9 0.294642 0.610686 0.552351
O O10 0.795586 0.748391 0.610721
O O11 0.725184 0.905067 0.650983
O O12 0.000000 0.874784 0.610108
O O13 0.211778 0.893293 0.162607
O O14 0.000000 0.796207 0.110828
O O15 0.279617 0.841821 0.267655
O O16 0.000000 0.892893 0.245535
O O17 0.227744 0.006188 0.245170
O O18 0.500000 0.276053 0.775430
O O19 0.220391 0.323283 0.748600
O O20 0.000000 0.567418 0.222708
#
# Coordination Sequence:
#
# PCOD8175326 Si02
#       8
#     8   8   8   8   8   8   8   8
#     4   9  20  38  62  90 123 164 204 247 307 373
#     4  11  23  42  63  88 121 161 210 264 314 371
#     4  10  20  38  62  90 124 164 206 250 304 374
#     4  11  20  36  63  93 127 167 207 252 312 379
#     4  10  20  35  61  93 129 165 203 251 310 374
#     4  11  23  42  67  96 129 168 207 255 315 379
#     4  12  26  45  66  91 122 165 215 267 318 373
#     4  12  25  42  64  95 129 166 210 260 314 377
#
# _framework density 20.761302000000001
#
# number of rings (size 3 to 8) (size 9 to 14) (size 15 to 20)
#    0.000    1.250    2.500    4.125    0.000    3.500 
#    0.000    7.500    0.000    0.000    0.000    0.000 
#    0.000    0.000    0.000    0.000    0.000    0.000 
#
# Total GULP energy -396986.147220 kJ/mol
# GULP energy per Si atom -12405.817101 kJ/mol
# Density = 2.071405 g / cm^3
# Si number density = 20.761302 Si / 1000 Ang^3
#
#
#
# Elastic Constant Matrix: (Units=GPa)
#
#
# Indices 1 2 3 4 5 6 
#
# 1 64.6383 14.6104 24.4674 0.0000 0.0000 0.0000
# 2 14.6104 104.4584 6.5119 0.0000 0.0000 0.0000
# 3 24.4674 6.5119 76.7989 0.0000 0.0000 0.0000
# 4 0.0000 0.0000 0.0000 15.3772 0.0000 0.0000
# 5 0.0000 0.0000 0.0000 0.0000 31.1161 0.0000
# 6 0.0000 0.0000 0.0000 0.0000 0.0000 34.3206
#
#
#
# Elastic Compliance Matrix: (Units=1/GPa)
#
#
# Indices 1 2 3 4 5 6 
#
# 1 0.018073 -0.002180 -0.005573 0.000000 0.000000 0.000000
# 2 -0.002180 0.009887 -0.000144 0.000000 0.000000 0.000000
# 3 -0.005573 -0.000144 0.014809 0.000000 0.000000 0.000000
# 4 0.000000 0.000000 0.000000 0.065031 0.000000 0.000000
# 5 0.000000 0.000000 0.000000 0.000000 0.032138 0.000000
# 6 0.000000 0.000000 0.000000 0.000000 0.000000 0.029137
#
#
# Mechanical properties :
#
#
# Convention : Reuss Voigt Hill
#
# Bulk Modulus (GPa) = 37.07185 37.45279 37.26232
# Shear Modulus (GPa) = 25.79169 29.51651 27.65410
#
# Velocity S-wave (km/s) = 3.52845 3.77464 3.65362
# Velocity P-wave (km/s) = 5.87324 6.08902 5.98210
#
# Compressibility (1/GPa) = 0.02697464
#
# Stress axis : x y z
#
# Youngs Moduli (GPa) = 55.33088 101.14177 67.52781
#
# Poissons Ratio (x) = 0.22053 0.37633
# Poissons Ratio (y) = 0.12064 0.00970
# Poissons Ratio (z) = 0.30836 0.01453
#
# Static dielectric constant tensor:
#      x y z
#    x 3.577750 0.000000 0.000000 
#    y 0.000000 3.801940 0.000000 
#    z 0.000000 0.000000 3.777960 
# 
# 
# High freq. dielectric constant tensor:
#      x y z
#    x 1.800410 0.000000 0.000000 
#    y 0.000000 1.821480 0.000000 
#    z 0.000000 0.000000 1.811120 
# 
# From -- ./inp_files/16606.got.cif
#   From: 2010.03.12/outbox.cif.g09.slc.cpg/sg36_9_cif.got.tgz:16606.got - 2010.04.14 02:13:53.
