data_PCOD8175235
_publ_section_title
;
Structure prediction by ZEFSAII (Michael W. Deem and Ramdas Pophale) SiO2 
 PCOD8175235
Probable space group: C M C 21
;
_chemical_formula_sum "Si O2"
_cell_formula_units_Z 64
_cell_length_a 17.696121
_cell_length_b 8.942682
_cell_length_c 20.418532
_cell_angle_alpha 90.000000
_cell_angle_beta 90.000000
_cell_angle_gamma 90.000000
_cell_volume 3231.248671
_symmetry_space_group_name_H-M "C M C 21"
_symmetry_group_IT_number 36
_symmetry_cell_setting 'orthorhombic'
loop_
_space_group_symop_operation_xyz
x,y,z
-x,-y,1/2+z
x,-y,1/2+z
-x,y,z
1/2+x,1/2+y,z
1/2-x,1/2-y,1/2+z
1/2+x,1/2-y,1/2+z
1/2-x,1/2+y,z
loop_
_atom_site_type_symbol
_atom_site_label
_atom_site_fract_x
_atom_site_fract_y
_atom_site_fract_z
Si Si1 0.838218 0.036359 0.003500
Si Si2 0.322353 0.112043 0.494066
Si Si3 0.415076 0.432986 0.635881
Si Si4 0.837944 0.551177 0.749790
Si Si5 0.678682 0.400016 0.758620
Si Si6 0.086778 0.886350 0.885920
Si Si7 0.086694 0.455900 0.384429
Si Si8 0.415261 0.920637 0.118866
O O1 0.874761 0.994275 0.073120
O O2 0.820633 0.210429 0.998456
O O3 0.762989 0.942108 0.994179
O O4 0.897857 0.990797 0.947954
O O5 0.367233 0.038033 0.554598
O O6 0.361410 0.065120 0.426633
O O7 0.500000 0.497213 0.642322
O O8 0.367383 0.478641 0.699831
O O9 0.418472 0.255734 0.628792
O O10 0.763339 0.456962 0.761264
O O11 0.816748 0.724158 0.747401
O O12 0.896546 0.517916 0.807932
O O13 0.876832 0.501681 0.681749
O O14 0.638029 0.442543 0.826157
O O15 0.105183 0.714773 0.904013
O O16 0.000000 0.901750 0.864007
O O17 0.000000 0.496837 0.398050
O O18 0.500000 0.984291 0.110001
#
# Coordination Sequence:
#
# PCOD8175235 Si02
#       8
#     8   8   8   8   8   8   8   8
#     4  11  22  36  56  81 110 144 181 222 269 320
#     4  11  22  36  56  81 110 144 181 222 269 320
#     4   9  18  34  56  80 105 137 179 223 267 317
#     4  10  20  35  56  80 107 140 178 220 266 317
#     4  10  20  35  56  80 107 140 178 220 266 317
#     4  10  21  37  57  81 109 142 180 223 271 321
#     4  10  21  37  57  81 109 142 180 223 271 321
#     4   9  18  34  56  80 105 137 179 223 267 317
#
# _framework density 19.806584000000001
#
# number of rings (size 3 to 8) (size 9 to 14) (size 15 to 20)
#    0.000    2.000    0.000    3.750    0.000    7.500 
#    0.000    1.250    0.000    5.250    0.000    0.000 
#    0.000    0.000    0.000    0.000    0.000    0.000 
#
# Total GULP energy -396944.446579 kJ/mol
# GULP energy per Si atom -12404.513956 kJ/mol
# Density = 1.976150 g / cm^3
# Si number density = 19.806584 Si / 1000 Ang^3
#
#
#
# Elastic Constant Matrix: (Units=GPa)
#
#
# Indices 1 2 3 4 5 6 
#
# 1 92.0025 13.1665 8.9050 0.0000 0.0000 0.0000
# 2 13.1665 34.5421 17.9944 0.0000 0.0000 0.0000
# 3 8.9050 17.9944 89.3050 0.0000 0.0000 0.0000
# 4 0.0000 0.0000 0.0000 25.3491 0.0000 0.0000
# 5 0.0000 0.0000 0.0000 0.0000 43.3211 0.0000
# 6 0.0000 0.0000 0.0000 0.0000 0.0000 19.5754
#
#
#
# Elastic Compliance Matrix: (Units=1/GPa)
#
#
# Indices 1 2 3 4 5 6 
#
# 1 0.011503 -0.004231 -0.000294 0.000000 0.000000 0.000000
# 2 -0.004231 0.033902 -0.006409 0.000000 0.000000 0.000000
# 3 -0.000294 -0.006409 0.012518 0.000000 0.000000 0.000000
# 4 0.000000 0.000000 0.000000 0.039449 0.000000 0.000000
# 5 0.000000 0.000000 0.000000 0.000000 0.023083 0.000000
# 6 0.000000 0.000000 0.000000 0.000000 0.000000 0.051085
#
#
# Mechanical properties :
#
#
# Convention : Reuss Voigt Hill
#
# Bulk Modulus (GPa) = 27.73641 32.88681 30.31161
# Shear Modulus (GPa) = 24.33938 29.36801 26.85370
#
# Velocity S-wave (km/s) = 3.50930 3.85481 3.68611
# Velocity P-wave (km/s) = 5.51854 6.03762 5.78391
#
# Compressibility (1/GPa) = 0.03605369
#
# Stress axis : x y z
#
# Youngs Moduli (GPa) = 86.93140 29.49696 79.88281
#
# Poissons Ratio (x) = 0.12481 0.02352
# Poissons Ratio (y) = 0.36784 0.51198
# Poissons Ratio (z) = 0.02560 0.18905
#
# Static dielectric constant tensor:
#      x y z
#    x 3.692200 0.000000 0.000000 
#    y 0.000000 3.278130 0.000000 
#    z 0.000000 0.000000 3.818900 
# 
# 
# High freq. dielectric constant tensor:
#      x y z
#    x 1.788320 0.000000 0.000000 
#    y 0.000000 1.740120 0.000000 
#    z 0.000000 0.000000 1.788110 
# 
# From -- ./inp_files/15691.got.cif
#   From: 2010.03.12/outbox.cif.g09.slc.cpg/sg36_8_cif.got.tgz:15691.got - 2010.04.14 02:13:53.
