data_PCOD8175233
_publ_section_title
;
Structure prediction by ZEFSAII (Michael W. Deem and Ramdas Pophale) SiO2 
 PCOD8175233
Probable space group: C M C 21
;
_chemical_formula_sum "Si O2"
_cell_formula_units_Z 64
_cell_length_a 8.954694
_cell_length_b 20.021634
_cell_length_c 19.428115
_cell_angle_alpha 90.000000
_cell_angle_beta 90.000000
_cell_angle_gamma 90.000000
_cell_volume 3483.220225
_symmetry_space_group_name_H-M "C M C 21"
_symmetry_group_IT_number 36
_symmetry_cell_setting 'orthorhombic'
loop_
_space_group_symop_operation_xyz
x,y,z
-x,-y,1/2+z
x,-y,1/2+z
-x,y,z
1/2+x,1/2+y,z
1/2-x,1/2-y,1/2+z
1/2+x,1/2-y,1/2+z
1/2-x,1/2+y,z
loop_
_atom_site_type_symbol
_atom_site_label
_atom_site_fract_x
_atom_site_fract_y
_atom_site_fract_z
Si Si1 0.825600 0.924931 0.767040
Si Si2 0.329673 0.421332 0.261804
Si Si3 0.328207 0.819726 0.509095
Si Si4 0.673545 0.429787 0.419207
Si Si5 0.175388 0.431762 0.909409
Si Si6 0.826942 0.314981 0.170884
Si Si7 0.672151 0.178976 0.170651
Si Si8 0.327520 0.815135 0.012803
O O1 0.746971 0.906423 0.838556
O O2 0.761935 0.879950 0.706504
O O3 0.000000 0.911673 0.776580
O O4 0.793926 0.001421 0.746929
O O5 0.500000 0.404197 0.242145
O O6 0.298429 0.405070 0.341548
O O7 0.218867 0.378058 0.216151
O O8 0.500000 0.827283 0.487385
O O9 0.229936 0.874051 0.470824
O O10 0.304343 0.830664 0.589811
O O11 0.272010 0.746631 0.487287
O O12 0.500000 0.444008 0.431834
O O13 0.760430 0.497882 0.434417
O O14 0.000000 0.438897 0.898520
O O15 0.216743 0.378935 0.968168
O O16 0.734920 0.250298 0.195064
O O17 0.792206 0.332803 0.091842
O O18 0.000000 0.299360 0.182631
O O19 0.500000 0.175107 0.192233
O O20 0.500000 0.795206 0.002905
#
# Coordination Sequence:
#
# PCOD8175233 Si02
#       8
#     8   8   8   8   8   8   8   8
#     4  10  21  37  56  80 109 141 179 220 264 318
#     4   9  20  37  54  76 107 140 175 216 262 313
#     4  10  21  36  56  81 107 138 179 223 265 315
#     4  10  21  37  56  78 108 144 180 220 266 318
#     4  10  20  36  57  80 109 142 177 221 268 316
#     4  10  20  35  56  80 106 138 177 219 263 315
#     4  10  21  37  56  79 108 141 177 219 267 317
#     4   9  20  37  55  78 108 140 174 216 267 318
#
# _framework density 18.373802000000001
#
# number of rings (size 3 to 8) (size 9 to 14) (size 15 to 20)
#    0.000    2.250    0.000    3.000    0.000    8.000 
#    0.000    5.000    0.000    0.000    0.000    0.000 
#    0.000    0.000    0.000    0.000    0.000    0.000 
#
# Total GULP energy -396947.050961 kJ/mol
# GULP energy per Si atom -12404.595343 kJ/mol
# Density = 1.833198 g / cm^3
# Si number density = 18.373802 Si / 1000 Ang^3
#
#
#
# Elastic Constant Matrix: (Units=GPa)
#
#
# Indices 1 2 3 4 5 6 
#
# 1 104.2272 63.9349 50.0219 0.0000 0.0000 0.0000
# 2 63.9349 109.9097 64.4888 0.0000 0.0000 0.0000
# 3 50.0219 64.4888 69.6640 0.0000 0.0000 0.0000
# 4 0.0000 0.0000 0.0000 52.6818 0.0000 0.0000
# 5 0.0000 0.0000 0.0000 0.0000 32.5163 0.0000
# 6 0.0000 0.0000 0.0000 0.0000 0.0000 39.0831
#
#
#
# Elastic Compliance Matrix: (Units=1/GPa)
#
#
# Indices 1 2 3 4 5 6 
#
# 1 0.016098 -0.005652 -0.006327 0.000000 0.000000 0.000000
# 2 -0.005652 0.021900 -0.016215 0.000000 0.000000 0.000000
# 3 -0.006327 -0.016215 0.033908 0.000000 0.000000 0.000000
# 4 0.000000 0.000000 0.000000 0.018982 0.000000 0.000000
# 5 0.000000 0.000000 0.000000 0.000000 0.030754 0.000000
# 6 0.000000 0.000000 0.000000 0.000000 0.000000 0.025586
#
#
# Mechanical properties :
#
#
# Convention : Reuss Voigt Hill
#
# Bulk Modulus (GPa) = 64.43933 71.18799 67.81366
# Shear Modulus (GPa) = 23.94769 31.87993 27.91381
#
# Velocity S-wave (km/s) = 3.61413 4.16994 3.90194
# Velocity P-wave (km/s) = 7.25006 7.87483 7.56889
#
# Compressibility (1/GPa) = 0.01551847
#
# Stress axis : x y z
#
# Youngs Moduli (GPa) = 62.11974 45.66202 29.49163
#
# Poissons Ratio (x) = 0.25808 0.18659
# Poissons Ratio (y) = 0.35109 0.47820
# Poissons Ratio (z) = 0.39303 0.74040
#
# Static dielectric constant tensor:
#      x y z
#    x 3.492270 0.000000 0.000000 
#    y 0.000000 3.359310 0.000000 
#    z 0.000000 0.000000 3.342470 
# 
# 
# High freq. dielectric constant tensor:
#      x y z
#    x 1.727060 0.000000 0.000000 
#    y 0.000000 1.716620 0.000000 
#    z 0.000000 0.000000 1.709650 
# 
# From -- ./inp_files/15697.got.cif
#   From: 2010.03.12/outbox.cif.g09.slc.cpg/sg36_8_cif.got.tgz:15697.got - 2010.04.14 02:13:53.
