data_PCOD8175692
_publ_section_title
;
Structure prediction by ZEFSAII (Michael W. Deem and Ramdas Pophale) SiO2 
 PCOD8175692
Probable space group: C M C 21
;
_chemical_formula_sum "Si O2"
_cell_formula_units_Z 64
_cell_length_a 9.017811
_cell_length_b 27.899905
_cell_length_c 13.795737
_cell_angle_alpha 90.000000
_cell_angle_beta 90.000000
_cell_angle_gamma 90.000000
_cell_volume 3470.953215
_symmetry_space_group_name_H-M "C M C 21"
_symmetry_group_IT_number 36
_symmetry_cell_setting 'orthorhombic'
loop_
_space_group_symop_operation_xyz
x,y,z
-x,-y,1/2+z
x,-y,1/2+z
-x,y,z
1/2+x,1/2+y,z
1/2-x,1/2-y,1/2+z
1/2+x,1/2-y,1/2+z
1/2-x,1/2+y,z
loop_
_atom_site_type_symbol
_atom_site_label
_atom_site_fract_x
_atom_site_fract_y
_atom_site_fract_z
Si Si1 0.324422 0.985246 0.240850
Si Si2 0.827603 0.068495 0.130544
Si Si3 0.673739 0.425236 0.080143
Si Si4 0.828853 0.326829 0.063140
Si Si5 0.828790 0.737304 0.747355
Si Si6 0.174627 0.235445 0.945205
Si Si7 0.676416 0.675839 0.122816
Si Si8 0.830653 0.989161 0.440955
O O1 0.500000 0.983469 0.232901
O O2 0.257990 0.942227 0.176818
O O3 0.277373 0.978425 0.352020
O O4 0.266051 0.036337 0.203807
O O5 0.765034 0.122344 0.141456
O O6 0.000000 0.064239 0.160206
O O7 0.805821 0.052576 0.019635
O O8 0.500000 0.426037 0.103569
O O9 0.725108 0.372620 0.049817
O O10 0.710382 0.460184 0.990455
O O11 0.801263 0.303484 0.167833
O O12 0.000000 0.342083 0.051975
O O13 0.782325 0.288910 0.980303
O O14 0.739930 0.722659 0.841787
O O15 0.770850 0.788862 0.708722
O O16 0.000000 0.740951 0.774852
O O17 0.000000 0.230939 0.939346
O O18 0.238162 0.196409 0.021139
O O19 0.500000 0.676260 0.117483
O O20 0.000000 0.989554 0.403823
#
# Coordination Sequence:
#
# PCOD8175692 Si02
#       8
#     8   8   8   8   8   8   8   8
#     4  11  22  35  53  77 107 138 166 206 262 315
#     4   9  18  35  57  77 100 133 175 218 253 295
#     4  10  21  37  57  78 101 134 177 219 256 305
#     4   9  19  35  52  74 108 141 169 211 265 311
#     4   9  18  33  52  75 104 137 171 207 251 302
#     4   9  18  33  52  75 104 137 172 209 251 300
#     4   8  16  33  54  73  98 134 169 204 250 298
#     4   9  19  35  53  75 102 132 171 216 256 300
#
# _framework density 18.438738000000001
#
# number of rings (size 3 to 8) (size 9 to 14) (size 15 to 20)
#    0.000    2.750    0.000    3.750    0.000    5.500 
#    0.000    8.125    0.000    0.000    0.000    0.000 
#    0.000    0.000    0.000    0.000    0.000    0.000 
#
# Total GULP energy -396794.458509 kJ/mol
# GULP energy per Si atom -12399.826828 kJ/mol
# Density = 1.839677 g / cm^3
# Si number density = 18.438738 Si / 1000 Ang^3
#
#
#
# Elastic Constant Matrix: (Units=GPa)
#
#
# Indices 1 2 3 4 5 6 
#
# 1 58.8185 11.7735 13.0292 0.0000 0.0000 0.0000
# 2 11.7735 49.9909 -20.4938 0.0000 0.0000 0.0000
# 3 13.0292 -20.4938 50.8485 0.0000 0.0000 0.0000
# 4 0.0000 0.0000 0.0000 12.7873 0.0000 0.0000
# 5 0.0000 0.0000 0.0000 0.0000 31.3204 0.0000
# 6 0.0000 0.0000 0.0000 0.0000 0.0000 23.2790
#
#
#
# Elastic Compliance Matrix: (Units=1/GPa)
#
#
# Indices 1 2 3 4 5 6 
#
# 1 0.020604 -0.008406 -0.008667 0.000000 0.000000 0.000000
# 2 -0.008406 0.027392 0.013194 0.000000 0.000000 0.000000
# 3 -0.008667 0.013194 0.027205 0.000000 0.000000 0.000000
# 4 0.000000 0.000000 0.000000 0.078203 0.000000 0.000000
# 5 0.000000 0.000000 0.000000 0.000000 0.031928 0.000000
# 6 0.000000 0.000000 0.000000 0.000000 0.000000 0.042957
#
#
# Mechanical properties :
#
#
# Convention : Reuss Voigt Hill
#
# Bulk Modulus (GPa) = 14.82743 18.69732 16.76237
# Shear Modulus (GPa) = 19.34031 23.83393 21.58712
#
# Velocity S-wave (km/s) = 3.24218 3.59918 3.42533
# Velocity P-wave (km/s) = 4.69836 5.23778 4.97538
#
# Compressibility (1/GPa) = 0.06744257
#
# Stress axis : x y z
#
# Youngs Moduli (GPa) = 48.53455 36.50696 36.75837
#
# Poissons Ratio (x) = 0.30686 0.31859
# Poissons Ratio (y) = 0.40796 -0.48498
# Poissons Ratio (z) = 0.42066 -0.48167
#
# Static dielectric constant tensor:
#      x y z
#    x 3.148090 0.000000 0.000000 
#    y 0.000000 3.544590 0.000000 
#    z 0.000000 0.000000 3.361170 
# 
# 
# High freq. dielectric constant tensor:
#      x y z
#    x 1.696320 0.000000 0.000000 
#    y 0.000000 1.718790 0.000000 
#    z 0.000000 0.000000 1.714300 
# 
# From -- ./inp_files/7096.got.cif
#   From: 2010.03.12/outbox.cif.g09.slc.cpg/sg36_4_cif.got.tgz:7096.got - 2010.04.14 02:13:53.
