data_PCOD8175012
_publ_section_title
;
Structure prediction by ZEFSAII (Michael W. Deem and Ramdas Pophale) SiO2 
 PCOD8175012
Probable space group: C M C 21
;
_chemical_formula_sum "Si O2"
_cell_formula_units_Z 40
_cell_length_a 13.780346
_cell_length_b 12.315975
_cell_length_c 12.263938
_cell_angle_alpha 90.000000
_cell_angle_beta 90.000000
_cell_angle_gamma 90.000000
_cell_volume 2081.415896
_symmetry_space_group_name_H-M "C M C 21"
_symmetry_group_IT_number 36
_symmetry_cell_setting 'orthorhombic'
loop_
_space_group_symop_operation_xyz
x,y,z
-x,-y,1/2+z
x,-y,1/2+z
-x,y,z
1/2+x,1/2+y,z
1/2-x,1/2-y,1/2+z
1/2+x,1/2-y,1/2+z
1/2-x,1/2+y,z
loop_
_atom_site_type_symbol
_atom_site_label
_atom_site_fract_x
_atom_site_fract_y
_atom_site_fract_z
Si Si1 0.500000 0.089134 0.210191
Si Si2 0.000000 0.335697 0.958521
Si Si3 0.000000 0.916305 0.509932
Si Si4 0.000000 0.769459 0.027202
Si Si5 0.500000 0.495644 0.784262
Si Si6 0.866481 0.594044 0.641164
Si Si7 0.360488 0.435934 0.120510
Si Si8 0.500000 0.756616 0.275398
O O1 0.500000 0.139882 0.330753
O O2 0.500000 0.175888 0.115566
O O3 0.595796 0.016893 0.194747
O O4 0.000000 0.206791 0.974065
O O5 0.906365 0.387199 0.018477
O O6 0.099767 0.948271 0.573267
O O7 0.000000 0.002280 0.412131
O O8 0.097196 0.839363 0.046209
O O9 0.000000 0.720653 0.904959
O O10 0.594064 0.562990 0.741851
O O11 0.500000 0.369995 0.745528
O O12 0.752589 0.581611 0.630628
O O13 0.903477 0.691408 0.719903
#
# Coordination Sequence:
#
# PCOD8175012 Si02
#       8
#     4   4   4   4   4   8   8   4
#     4  10  23  40  61  84 129 162 197 259 302 374
#     4  10  21  43  61  87 126 169 206 247 323 363
#     4  10  20  40  62  86 122 162 196 264 299 362
#     4  10  21  41  61  90 128 156 201 252 313 360
#     4  10  19  39  64  83 126 156 203 250 313 354
#     4  10  24  38  64  90 122 164 206 252 303 377
#     4  10  21  39  60  95 116 155 210 252 302 364
#     4  10  20  43  63  88 127 169 191 252 320 369
#
# _framework density 19.217687999999999
#
# number of rings (size 3 to 8) (size 9 to 14) (size 15 to 20)
#    0.000    2.400    2.000    3.600    5.600    4.800 
#    7.200    0.000    0.000    0.000    0.000    0.000 
#    0.000    0.000    0.000    0.000    0.000    0.000 
#
# Total GULP energy -247772.765897 kJ/mol
# GULP energy per Si atom -12388.638295 kJ/mol
# Density = 1.917395 g / cm^3
# Si number density = 19.217688 Si / 1000 Ang^3
#
#
#
# Elastic Constant Matrix: (Units=GPa)
#
#
# Indices 1 2 3 4 5 6 
#
# 1 206.9891 52.2875 55.8093 0.0000 0.0000 0.0000
# 2 52.2875 97.5357 34.9385 0.0000 0.0000 0.0000
# 3 55.8093 34.9385 135.2510 0.0000 0.0000 0.0000
# 4 0.0000 0.0000 0.0000 42.7128 0.0000 0.0000
# 5 0.0000 0.0000 0.0000 0.0000 8.8749 0.0000
# 6 0.0000 0.0000 0.0000 0.0000 0.0000 8.6282
#
#
#
# Elastic Compliance Matrix: (Units=1/GPa)
#
#
# Indices 1 2 3 4 5 6 
#
# 1 0.005961 -0.002551 -0.001801 0.000000 0.000000 0.000000
# 2 -0.002551 0.012389 -0.002148 0.000000 0.000000 0.000000
# 3 -0.001801 -0.002148 0.008692 0.000000 0.000000 0.000000
# 4 0.000000 0.000000 0.000000 0.023412 0.000000 0.000000
# 5 0.000000 0.000000 0.000000 0.000000 0.112678 0.000000
# 6 0.000000 0.000000 0.000000 0.000000 0.000000 0.115900
#
#
# Mechanical properties :
#
#
# Convention : Reuss Voigt Hill
#
# Bulk Modulus (GPa) = 71.20875 80.64960 75.92918
# Shear Modulus (GPa) = 16.85140 31.82587 24.33863
#
# Velocity S-wave (km/s) = 2.96441 4.07390 3.56261
# Velocity P-wave (km/s) = 6.98936 8.01164 7.51790
#
# Compressibility (1/GPa) = 0.01404322
#
# Stress axis : x y z
#
# Youngs Moduli (GPa) = 167.75665 80.71413 115.05303
#
# Poissons Ratio (x) = 0.20586 0.20719
# Poissons Ratio (y) = 0.42787 0.24714
# Poissons Ratio (z) = 0.30211 0.17338
#
# Static dielectric constant tensor:
#      x y z
#    x 3.262610 0.000000 0.000000 
#    y 0.000000 3.626210 0.000000 
#    z 0.000000 0.000000 3.769280 
# 
# 
# High freq. dielectric constant tensor:
#      x y z
#    x 1.720030 0.000000 0.000000 
#    y 0.000000 1.759870 0.000000 
#    z 0.000000 0.000000 1.764880 
# 
# From -- ./inp_files/8305.got.cif
#   From: 2010.03.12/outbox.cif.g09.slc.cpg/sg36_5_cif.got.tgz:8305.got - 2010.04.14 02:13:53.
