data_PCOD8175552
_publ_section_title
;
Structure prediction by ZEFSAII (Michael W. Deem and Ramdas Pophale) SiO2 
 PCOD8175552
Probable space group: C M C 21
;
_chemical_formula_sum "Si O2"
_cell_formula_units_Z 48
_cell_length_a 8.818096
_cell_length_b 20.026793
_cell_length_c 13.933119
_cell_angle_alpha 90.000000
_cell_angle_beta 90.000000
_cell_angle_gamma 90.000000
_cell_volume 2460.563502
_symmetry_space_group_name_H-M "C M C 21"
_symmetry_group_IT_number 36
_symmetry_cell_setting 'orthorhombic'
loop_
_space_group_symop_operation_xyz
x,y,z
-x,-y,1/2+z
x,-y,1/2+z
-x,y,z
1/2+x,1/2+y,z
1/2-x,1/2-y,1/2+z
1/2+x,1/2-y,1/2+z
1/2-x,1/2+y,z
loop_
_atom_site_type_symbol
_atom_site_label
_atom_site_fract_x
_atom_site_fract_y
_atom_site_fract_z
Si Si1 0.679909 0.951034 0.125000
Si Si2 0.821251 0.390197 0.328056
Si Si3 0.326336 0.176698 0.518094
Si Si4 0.678824 0.755379 0.830001
Si Si5 0.172512 0.800712 0.648841
Si Si6 0.678331 0.425616 0.523136
O O1 0.500000 0.959545 0.114516
O O2 0.723128 0.933045 0.234332
O O3 0.743925 0.893218 0.053836
O O4 0.763306 0.018377 0.095720
O O5 0.752746 0.316740 0.319785
O O6 0.758237 0.430142 0.419896
O O7 0.000000 0.382521 0.337285
O O8 0.500000 0.163605 0.492872
O O9 0.249847 0.206645 0.422399
O O10 0.309351 0.227742 0.605031
O O11 0.500000 0.744636 0.840886
O O12 0.717521 0.803045 0.740406
O O13 0.222396 0.854949 0.570505
O O14 0.000000 0.813866 0.681991
O O15 0.500000 0.432622 0.507526
#
# Coordination Sequence:
#
# PCOD8175552 Si02
#       6
#     8   8   8   8   8   8
#     4  10  22  41  63  86 118 161 204 245 298 366
#     4  11  22  39  64  89 119 162 205 246 303 370
#     4   9  18  37  60  83 116 156 196 243 298 352
#     4  11  21  35  61  94 122 153 201 256 301 351
#     4  10  20  39  60  83 119 159 196 241 299 358
#     4  11  24  41  62  89 126 161 198 253 305 357
#
# _framework density 19.507726999999999
#
# number of rings (size 3 to 8) (size 9 to 14) (size 15 to 20)
#    0.000    1.667    3.333    1.500    0.000    4.000 
#    0.000    6.667    0.000    0.000    0.000    0.000 
#    0.000    0.000    0.000    0.000    0.000    0.000 
#
# Total GULP energy -297612.531537 kJ/mol
# GULP energy per Si atom -12400.522147 kJ/mol
# Density = 1.946333 g / cm^3
# Si number density = 19.507727 Si / 1000 Ang^3
#
#
#
# Elastic Constant Matrix: (Units=GPa)
#
#
# Indices 1 2 3 4 5 6 
#
# 1 61.8872 25.3391 43.1268 0.0000 0.0000 0.0000
# 2 25.3391 71.6221 20.8765 0.0000 0.0000 0.0000
# 3 43.1268 20.8765 124.4043 0.0000 0.0000 0.0000
# 4 0.0000 0.0000 0.0000 32.1272 0.0000 0.0000
# 5 0.0000 0.0000 0.0000 0.0000 32.8820 0.0000
# 6 0.0000 0.0000 0.0000 0.0000 0.0000 29.9386
#
#
#
# Elastic Compliance Matrix: (Units=1/GPa)
#
#
# Indices 1 2 3 4 5 6 
#
# 1 0.023738 -0.006308 -0.007171 0.000000 0.000000 0.000000
# 2 -0.006308 0.016357 -0.000558 0.000000 0.000000 0.000000
# 3 -0.007171 -0.000558 0.010618 0.000000 0.000000 0.000000
# 4 0.000000 0.000000 0.000000 0.031126 0.000000 0.000000
# 5 0.000000 0.000000 0.000000 0.000000 0.030412 0.000000
# 6 0.000000 0.000000 0.000000 0.000000 0.000000 0.033402
#
#
# Mechanical properties :
#
#
# Convention : Reuss Voigt Hill
#
# Bulk Modulus (GPa) = 44.17179 48.51094 46.34136
# Shear Modulus (GPa) = 27.58283 30.22766 28.90524
#
# Velocity S-wave (km/s) = 3.76432 3.94067 3.85350
# Velocity P-wave (km/s) = 6.44871 6.75475 6.60351
#
# Compressibility (1/GPa) = 0.02263889
#
# Stress axis : x y z
#
# Youngs Moduli (GPa) = 42.12621 61.13743 94.18182
#
# Poissons Ratio (x) = 0.38567 0.67534
# Poissons Ratio (y) = 0.26574 0.05255
# Poissons Ratio (z) = 0.30207 0.03411
#
# Static dielectric constant tensor:
#      x y z
#    x 3.404950 0.000000 0.000000 
#    y 0.000000 3.555830 0.000000 
#    z 0.000000 0.000000 3.820920 
# 
# 
# High freq. dielectric constant tensor:
#      x y z
#    x 1.742110 0.000000 0.000000 
#    y 0.000000 1.758310 0.000000 
#    z 0.000000 0.000000 1.776060 
# 
# From -- ./inp_files/6762.got.cif
#   From: 2010.03.12/outbox.cif.g09.slc.cpg/sg36_4_cif.got.tgz:6762.got - 2010.04.14 02:13:53.
