data_PCOD8175259
_publ_section_title
;
Structure prediction by ZEFSAII (Michael W. Deem and Ramdas Pophale) SiO2 
 PCOD8175259
Probable space group: C M C 21
;
_chemical_formula_sum "Si O2"
_cell_formula_units_Z 64
_cell_length_a 9.164954
_cell_length_b 23.023187
_cell_length_c 14.212126
_cell_angle_alpha 90.000000
_cell_angle_beta 90.000000
_cell_angle_gamma 90.000000
_cell_volume 2998.850251
_symmetry_space_group_name_H-M "C M C 21"
_symmetry_group_IT_number 36
_symmetry_cell_setting 'orthorhombic'
loop_
_space_group_symop_operation_xyz
x,y,z
-x,-y,1/2+z
x,-y,1/2+z
-x,y,z
1/2+x,1/2+y,z
1/2-x,1/2-y,1/2+z
1/2+x,1/2-y,1/2+z
1/2-x,1/2+y,z
loop_
_atom_site_type_symbol
_atom_site_label
_atom_site_fract_x
_atom_site_fract_y
_atom_site_fract_z
Si Si1 0.834442 0.283094 0.798920
Si Si2 0.829299 0.513450 0.214198
Si Si3 0.828836 0.822009 0.971240
Si Si4 0.835427 0.037933 0.880418
Si Si5 0.327987 0.589182 0.071908
Si Si6 0.669279 0.106014 0.613180
Si Si7 0.170682 0.705259 0.080980
Si Si8 0.162606 0.155493 0.775487
O O1 0.728503 0.320741 0.864307
O O2 0.789760 0.288794 0.690536
O O3 0.814050 0.215924 0.829449
O O4 0.000000 0.304138 0.815349
O O5 0.772010 0.503120 0.320615
O O6 0.792752 0.458405 0.148770
O O7 0.000000 0.526773 0.220063
O O8 0.748145 0.568342 0.168529
O O9 0.000000 0.831075 0.969871
O O10 0.757503 0.879016 0.018697
O O11 0.781661 0.763846 0.027140
O O12 0.794975 0.040675 0.990978
O O13 0.820193 0.104608 0.849864
O O14 0.000000 0.015187 0.864440
O O15 0.500000 0.596022 0.087644
O O16 0.261131 0.650885 0.040877
O O17 0.500000 0.114263 0.593012
O O18 0.718680 0.150901 0.693424
O O19 0.000000 0.693409 0.064897
O O20 0.000000 0.154890 0.728764
#
# Coordination Sequence:
#
# PCOD8175259 Si02
#       8
#     8   8   8   8   8   8   8   8
#     4  10  20  36  56  83 120 159 194 234 292 353
#     4  10  22  40  62  88 117 153 196 245 298 352
#     4  11  22  37  58  87 119 156 198 239 290 351
#     4   9  19  36  61  90 116 151 198 247 296 348
#     4  11  23  40  63  90 120 156 200 247 298 354
#     4  10  20  35  57  83 111 146 192 240 290 344
#     4  10  22  40  60  85 123 163 196 239 297 354
#     4   9  16  32  57  82 114 150 188 237 289 340
#
# _framework density 21.341511000000001
#
# number of rings (size 3 to 8) (size 9 to 14) (size 15 to 20)
#    0.000    2.000    1.250    2.250    0.000    5.500 
#    2.250    2.500    0.000    0.000    0.000    0.000 
#    0.000    0.000    0.000    0.000    0.000    0.000 
#
# Total GULP energy -396826.258868 kJ/mol
# GULP energy per Si atom -12400.820590 kJ/mol
# Density = 2.129294 g / cm^3
# Si number density = 21.341511 Si / 1000 Ang^3
#
#
#
# Elastic Constant Matrix: (Units=GPa)
#
#
# Indices 1 2 3 4 5 6 
#
# 1 80.9783 15.7147 25.0335 0.0000 0.0000 0.0000
# 2 15.7147 29.5404 -9.3624 0.0000 0.0000 0.0000
# 3 25.0335 -9.3624 65.2355 0.0000 0.0000 0.0000
# 4 0.0000 0.0000 0.0000 24.4578 0.0000 0.0000
# 5 0.0000 0.0000 0.0000 0.0000 35.4393 0.0000
# 6 0.0000 0.0000 0.0000 0.0000 0.0000 29.9144
#
#
#
# Elastic Compliance Matrix: (Units=1/GPa)
#
#
# Indices 1 2 3 4 5 6 
#
# 1 0.017197 -0.011775 -0.008289 0.000000 0.000000 0.000000
# 2 -0.011775 0.043528 0.010766 0.000000 0.000000 0.000000
# 3 -0.008289 0.010766 0.020055 0.000000 0.000000 0.000000
# 4 0.000000 0.000000 0.000000 0.040887 0.000000 0.000000
# 5 0.000000 0.000000 0.000000 0.000000 0.028217 0.000000
# 6 0.000000 0.000000 0.000000 0.000000 0.000000 0.033429
#
#
# Mechanical properties :
#
#
# Convention : Reuss Voigt Hill
#
# Bulk Modulus (GPa) = 16.08168 26.50288 21.29228
# Shear Modulus (GPa) = 22.45811 27.58686 25.02248
#
# Velocity S-wave (km/s) = 3.24747 3.59923 3.42786
# Velocity P-wave (km/s) = 4.64900 5.45142 5.06612
#
# Compressibility (1/GPa) = 0.06218257
#
# Stress axis : x y z
#
# Youngs Moduli (GPa) = 58.15135 22.97367 49.86309
#
# Poissons Ratio (x) = 0.27052 0.41331
# Poissons Ratio (y) = 0.68474 -0.53681
# Poissons Ratio (z) = 0.48201 -0.24733
#
# Static dielectric constant tensor:
#      x y z
#    x 3.736610 0.000000 0.000000 
#    y 0.000000 3.750170 0.000000 
#    z 0.000000 0.000000 3.764900 
# 
# 
# High freq. dielectric constant tensor:
#      x y z
#    x 1.832330 0.000000 0.000000 
#    y 0.000000 1.827230 0.000000 
#    z 0.000000 0.000000 1.835330 
# 
# From -- ./inp_files/10961.got.cif
#   From: 2010.03.12/outbox.cif.g09.slc.cpg/sg36_6_cif.got.tgz:10961.got - 2010.04.14 02:13:53.
