data_PCOD8175435
_publ_section_title
;
Structure prediction by ZEFSAII (Michael W. Deem and Ramdas Pophale) SiO2 
 PCOD8175435
Probable space group: C M C 21
;
_chemical_formula_sum "Si O2"
_cell_formula_units_Z 64
_cell_length_a 8.907302
_cell_length_b 28.659476
_cell_length_c 12.396647
_cell_angle_alpha 90.000000
_cell_angle_beta 90.000000
_cell_angle_gamma 90.000000
_cell_volume 3164.598789
_symmetry_space_group_name_H-M "C M C 21"
_symmetry_group_IT_number 36
_symmetry_cell_setting 'orthorhombic'
loop_
_space_group_symop_operation_xyz
x,y,z
-x,-y,1/2+z
x,-y,1/2+z
-x,y,z
1/2+x,1/2+y,z
1/2-x,1/2-y,1/2+z
1/2+x,1/2-y,1/2+z
1/2-x,1/2+y,z
loop_
_atom_site_type_symbol
_atom_site_label
_atom_site_fract_x
_atom_site_fract_y
_atom_site_fract_z
Si Si1 0.323503 0.839128 0.063150
Si Si2 0.833078 0.076267 0.463945
Si Si3 0.172841 0.323502 0.448763
Si Si4 0.822738 0.878497 0.269829
Si Si5 0.667339 0.476605 0.178103
Si Si6 0.326719 0.062011 0.254884
Si Si7 0.173660 0.219980 0.389840
Si Si8 0.675179 0.833453 0.692889
O O1 0.500000 0.833381 0.077224
O O2 0.250742 0.844379 0.180906
O O3 0.285978 0.883376 0.988869
O O4 0.258452 0.794977 0.999154
O O5 0.837421 0.037261 0.554028
O O6 0.777174 0.051313 0.357000
O O7 0.000000 0.098056 0.449405
O O8 0.268645 0.363310 0.388281
O O9 0.195546 0.275519 0.383694
O O10 0.226861 0.318475 0.572853
O O11 0.000000 0.339565 0.448181
O O12 0.775316 0.932272 0.248845
O O13 0.000000 0.873255 0.257724
O O14 0.500000 0.491559 0.216234
O O15 0.783674 0.519350 0.177249
O O16 0.500000 0.059372 0.286223
O O17 0.286387 0.111838 0.203472
O O18 0.236952 0.196704 0.281292
O O19 0.000000 0.206336 0.400451
O O20 0.500000 0.823660 0.711778
#
# Coordination Sequence:
#
# PCOD8175435 Si02
#       8
#     8   8   8   8   8   8   8   8
#     4  11  21  36  61  89 119 156 201 257 311 363
#     4  10  20  37  59  85 118 157 202 256 309 363
#     4  10  24  43  62  90 128 167 206 255 315 373
#     4  10  22  41  63  89 122 163 210 257 314 371
#     4   9  21  39  59  86 120 161 207 254 308 367
#     4  11  22  36  60  91 121 161 206 252 313 372
#     4  11  23  39  62  92 121 160 208 253 309 373
#     4  10  23  43  62  88 127 165 204 258 315 370
#
# _framework density 20.223731000000001
#
# number of rings (size 3 to 8) (size 9 to 14) (size 15 to 20)
#    0.000    1.750    1.250    3.375    1.750    6.000 
#    0.000    2.500    0.000    0.000    0.000    0.000 
#    0.000    0.000    0.000    0.000    0.000    0.000 
#
# Total GULP energy -396824.976805 kJ/mol
# GULP energy per Si atom -12400.780525 kJ/mol
# Density = 2.017770 g / cm^3
# Si number density = 20.223731 Si / 1000 Ang^3
#
#
#
# Elastic Constant Matrix: (Units=GPa)
#
#
# Indices 1 2 3 4 5 6 
#
# 1 106.7449 46.1646 49.6787 0.0000 0.0000 0.0000
# 2 46.1646 95.4072 43.8670 0.0000 0.0000 0.0000
# 3 49.6787 43.8670 94.3155 0.0000 0.0000 0.0000
# 4 0.0000 0.0000 0.0000 21.1134 0.0000 0.0000
# 5 0.0000 0.0000 0.0000 0.0000 35.3373 0.0000
# 6 0.0000 0.0000 0.0000 0.0000 0.0000 28.6549
#
#
#
# Elastic Compliance Matrix: (Units=1/GPa)
#
#
# Indices 1 2 3 4 5 6 
#
# 1 0.013608 -0.004183 -0.005222 0.000000 0.000000 0.000000
# 2 -0.004183 0.014619 -0.004596 0.000000 0.000000 0.000000
# 3 -0.005222 -0.004596 0.015491 0.000000 0.000000 0.000000
# 4 0.000000 0.000000 0.000000 0.047363 0.000000 0.000000
# 5 0.000000 0.000000 0.000000 0.000000 0.028299 0.000000
# 6 0.000000 0.000000 0.000000 0.000000 0.000000 0.034898
#
#
# Mechanical properties :
#
#
# Convention : Reuss Voigt Hill
#
# Bulk Modulus (GPa) = 63.63309 63.98759 63.81034
# Shear Modulus (GPa) = 26.66425 27.47162 27.06794
#
# Velocity S-wave (km/s) = 3.63500 3.68963 3.66242
# Velocity P-wave (km/s) = 7.01075 7.06114 7.03599
#
# Compressibility (1/GPa) = 0.01571509
#
# Stress axis : x y z
#
# Youngs Moduli (GPa) = 73.48888 68.40570 64.55489
#
# Poissons Ratio (x) = 0.28617 0.33709
# Poissons Ratio (y) = 0.30743 0.29668
# Poissons Ratio (z) = 0.38374 0.31438
#
# Static dielectric constant tensor:
#      x y z
#    x 3.668270 0.000000 0.000000 
#    y 0.000000 3.569850 0.000000 
#    z 0.000000 0.000000 3.686750 
# 
# 
# High freq. dielectric constant tensor:
#      x y z
#    x 1.792570 0.000000 0.000000 
#    y 0.000000 1.785130 0.000000 
#    z 0.000000 0.000000 1.792280 
# 
# From -- ./inp_files/7125.got.cif
#   From: 2010.03.12/outbox.cif.g09.slc.cpg/sg36_4_cif.got.tgz:7125.got - 2010.04.14 02:13:53.
