data_PCOD8175105
_publ_section_title
;
Structure prediction by ZEFSAII (Michael W. Deem and Ramdas Pophale) SiO2 
 PCOD8175105
Probable space group: C M C 21
;
_chemical_formula_sum "Si O2"
_cell_formula_units_Z 64
_cell_length_a 9.620069
_cell_length_b 28.629199
_cell_length_c 12.659507
_cell_angle_alpha 90.000000
_cell_angle_beta 90.000000
_cell_angle_gamma 90.000000
_cell_volume 3486.616472
_symmetry_space_group_name_H-M "C M C 21"
_symmetry_group_IT_number 36
_symmetry_cell_setting 'orthorhombic'
loop_
_space_group_symop_operation_xyz
x,y,z
-x,-y,1/2+z
x,-y,1/2+z
-x,y,z
1/2+x,1/2+y,z
1/2-x,1/2-y,1/2+z
1/2+x,1/2-y,1/2+z
1/2-x,1/2+y,z
loop_
_atom_site_type_symbol
_atom_site_label
_atom_site_fract_x
_atom_site_fract_y
_atom_site_fract_z
Si Si1 0.836902 0.412444 0.400500
Si Si2 0.336118 0.075213 0.664207
Si Si3 0.836514 0.669743 0.561443
Si Si4 0.152295 0.908194 0.712661
Si Si5 0.337879 0.734962 0.159847
Si Si6 0.654536 0.342248 0.511780
Si Si7 0.662453 0.024692 0.097012
Si Si8 0.336375 0.676361 0.354338
O O1 0.786005 0.429165 0.285465
O O2 0.758412 0.364008 0.425595
O O3 0.797986 0.453444 0.483523
O O4 0.000000 0.401405 0.404056
O O5 0.500000 0.080367 0.663734
O O6 0.275353 0.121471 0.608329
O O7 0.288951 0.029377 0.599109
O O8 0.807795 0.710083 0.648522
O O9 0.752567 0.683906 0.458356
O O10 0.000000 0.666742 0.534275
O O11 0.145199 0.876705 0.609856
O O12 0.263282 0.949182 0.694564
O O13 0.195508 0.875758 0.811222
O O14 0.000000 0.930478 0.733131
O O15 0.500000 0.722804 0.161037
O O16 0.281342 0.706514 0.056747
O O17 0.279381 0.715118 0.270629
O O18 0.500000 0.335975 0.461689
O O19 0.500000 0.028998 0.120460
O O20 0.500000 0.682707 0.378377
#
# Coordination Sequence:
#
# PCOD8175105 Si02
#       8
#     8   8   8   8   8   8   8   8
#     4   9  17  30  48  70  95 123 157 195 237 284
#     4   9  19  33  47  68 100 131 156 192 244 293
#     4  10  20  34  51  72  99 131 166 199 238 293
#     4   8  15  29  49  71  95 123 155 195 243 288
#     4   8  16  32  52  71  95 131 166 195 238 295
#     4   8  14  28  49  70  92 119 155 196 236 279
#     4   9  17  30  49  71  94 125 166 203 233 277
#     4   9  18  34  53  73 100 131 161 199 249 293
#
# _framework density 18.355903999999999
#
# number of rings (size 3 to 8) (size 9 to 14) (size 15 to 20)
#    0.000    3.250    0.000    1.500    0.000    2.500 
#    0.000    8.750    0.000    3.000    0.000    0.000 
#    0.000    0.000    0.000    0.000    0.000    0.000 
#
# Total GULP energy -396591.124991 kJ/mol
# GULP energy per Si atom -12393.472656 kJ/mol
# Density = 1.831413 g / cm^3
# Si number density = 18.355904 Si / 1000 Ang^3
#
#
#
# Elastic Constant Matrix: (Units=GPa)
#
#
# Indices 1 2 3 4 5 6 
#
# 1 42.7930 35.6516 33.0444 0.0000 0.0000 0.0000
# 2 35.6516 126.6835 46.1284 0.0000 0.0000 0.0000
# 3 33.0444 46.1284 94.8047 0.0000 0.0000 0.0000
# 4 0.0000 0.0000 0.0000 24.9073 0.0000 0.0000
# 5 0.0000 0.0000 0.0000 0.0000 22.5489 0.0000
# 6 0.0000 0.0000 0.0000 0.0000 0.0000 20.3805
#
#
#
# Elastic Compliance Matrix: (Units=1/GPa)
#
#
# Indices 1 2 3 4 5 6 
#
# 1 0.036232 -0.006803 -0.009318 0.000000 0.000000 0.000000
# 2 -0.006803 0.010871 -0.002918 0.000000 0.000000 0.000000
# 3 -0.009318 -0.002918 0.015216 0.000000 0.000000 0.000000
# 4 0.000000 0.000000 0.000000 0.040149 0.000000 0.000000
# 5 0.000000 0.000000 0.000000 0.000000 0.044348 0.000000
# 6 0.000000 0.000000 0.000000 0.000000 0.000000 0.049066
#
#
# Mechanical properties :
#
#
# Convention : Reuss Voigt Hill
#
# Bulk Modulus (GPa) = 41.25612 54.88112 48.06862
# Shear Modulus (GPa) = 20.65763 23.53113 22.09438
#
# Velocity S-wave (km/s) = 3.35833 3.58430 3.47315
# Velocity P-wave (km/s) = 6.12881 6.86242 6.50596
#
# Compressibility (1/GPa) = 0.02423883
#
# Stress axis : x y z
#
# Youngs Moduli (GPa) = 27.59992 91.98930 65.72137
#
# Poissons Ratio (x) = 0.62584 0.61242
# Poissons Ratio (y) = 0.18777 0.19177
# Poissons Ratio (z) = 0.25719 0.26842
#
# Static dielectric constant tensor:
#      x y z
#    x 3.246260 0.000000 0.000000 
#    y 0.000000 3.603680 0.000000 
#    z 0.000000 0.000000 3.279910 
# 
# 
# High freq. dielectric constant tensor:
#      x y z
#    x 1.680300 0.000000 0.000000 
#    y 0.000000 1.713240 0.000000 
#    z 0.000000 0.000000 1.698260 
# 
# From -- ./inp_files/8084.got.cif
#   From: 2010.03.12/outbox.cif.g09.slc.cpg/sg36_5_cif.got.tgz:8084.got - 2010.04.14 02:13:53.
