data_PCOD8175456
_publ_section_title
;
Structure prediction by ZEFSAII (Michael W. Deem and Ramdas Pophale) SiO2 
 PCOD8175456
Probable space group: C M C 21
;
_chemical_formula_sum "Si O2"
_cell_formula_units_Z 64
_cell_length_a 8.729817
_cell_length_b 28.859748
_cell_length_c 12.312784
_cell_angle_alpha 90.000000
_cell_angle_beta 90.000000
_cell_angle_gamma 90.000000
_cell_volume 3102.086725
_symmetry_space_group_name_H-M "C M C 21"
_symmetry_group_IT_number 36
_symmetry_cell_setting 'orthorhombic'
loop_
_space_group_symop_operation_xyz
x,y,z
-x,-y,1/2+z
x,-y,1/2+z
-x,y,z
1/2+x,1/2+y,z
1/2-x,1/2-y,1/2+z
1/2+x,1/2-y,1/2+z
1/2-x,1/2+y,z
loop_
_atom_site_type_symbol
_atom_site_label
_atom_site_fract_x
_atom_site_fract_y
_atom_site_fract_z
Si Si1 0.322230 0.837190 0.076070
Si Si2 0.830327 0.078077 0.478924
Si Si3 0.321823 0.314801 0.472201
Si Si4 0.822166 0.879220 0.280672
Si Si5 0.670968 0.475919 0.192461
Si Si6 0.323847 0.063341 0.264864
Si Si7 0.180832 0.223792 0.400660
Si Si8 0.679411 0.833781 0.702445
O O1 0.500000 0.823979 0.075298
O O2 0.267118 0.844973 0.199088
O O3 0.294940 0.883102 0.005333
O O4 0.228408 0.796360 0.018132
O O5 0.832464 0.038419 0.567752
O O6 0.782288 0.054146 0.368144
O O7 0.000000 0.100831 0.468918
O O8 0.500000 0.306739 0.495732
O O9 0.295359 0.362412 0.404115
O O10 0.257267 0.274312 0.394986
O O11 0.234343 0.315738 0.586067
O O12 0.767484 0.932618 0.266118
O O13 0.000000 0.876683 0.246250
O O14 0.500000 0.490344 0.230780
O O15 0.786161 0.519215 0.190638
O O16 0.500000 0.063192 0.298533
O O17 0.280396 0.111679 0.207414
O O18 0.237748 0.192584 0.300560
O O19 0.000000 0.228637 0.392548
O O20 0.500000 0.824357 0.714001
#
# Coordination Sequence:
#
# PCOD8175456 Si02
#       8
#     8   8   8   8   8   8   8   8
#     4  11  21  36  62  92 122 156 204 263 317 373
#     4  10  20  37  60  86 118 160 209 260 314 375
#     4  11  25  44  67  94 129 170 215 265 324 386
#     4   9  21  42  64  90 126 168 214 262 317 380
#     4   9  20  38  61  90 123 165 215 260 311 381
#     4  11  23  38  61  92 127 165 207 264 322 374
#     4  12  25  42  66  93 125 166 212 261 319 382
#     4  11  25  45  65  93 132 168 214 267 322 385
#
# _framework density 20.631273
#
# number of rings (size 3 to 8) (size 9 to 14) (size 15 to 20)
#    0.000    1.500    1.250    4.500    1.750    6.000 
#    0.000    3.750    0.000    0.000    0.000    0.000 
#    0.000    0.000    0.000    0.000    0.000    0.000 
#
# Total GULP energy -396824.572344 kJ/mol
# GULP energy per Si atom -12400.767886 kJ/mol
# Density = 2.058432 g / cm^3
# Si number density = 20.631273 Si / 1000 Ang^3
#
#
#
# Elastic Constant Matrix: (Units=GPa)
#
#
# Indices 1 2 3 4 5 6 
#
# 1 79.2388 26.8595 26.2880 0.0000 0.0000 0.0000
# 2 26.8595 101.0024 27.1974 0.0000 0.0000 0.0000
# 3 26.2880 27.1974 74.9821 0.0000 0.0000 0.0000
# 4 0.0000 0.0000 0.0000 21.7342 0.0000 0.0000
# 5 0.0000 0.0000 0.0000 0.0000 33.7666 0.0000
# 6 0.0000 0.0000 0.0000 0.0000 0.0000 34.2925
#
#
#
# Elastic Compliance Matrix: (Units=1/GPa)
#
#
# Indices 1 2 3 4 5 6 
#
# 1 0.014986 -0.002849 -0.004221 0.000000 0.000000 0.000000
# 2 -0.002849 0.011514 -0.003178 0.000000 0.000000 0.000000
# 3 -0.004221 -0.003178 0.015969 0.000000 0.000000 0.000000
# 4 0.000000 0.000000 0.000000 0.046010 0.000000 0.000000
# 5 0.000000 0.000000 0.000000 0.000000 0.029615 0.000000
# 6 0.000000 0.000000 0.000000 0.000000 0.000000 0.029161
#
#
# Mechanical properties :
#
#
# Convention : Reuss Voigt Hill
#
# Bulk Modulus (GPa) = 45.50665 46.21257 45.85961
# Shear Modulus (GPa) = 28.55938 29.61722 29.08830
#
# Velocity S-wave (km/s) = 3.72462 3.79298 3.75895
# Velocity P-wave (km/s) = 6.37198 6.45214 6.41218
#
# Compressibility (1/GPa) = 0.02197481
#
# Stress axis : x y z
#
# Youngs Moduli (GPa) = 66.72932 86.85119 62.62210
#
# Poissons Ratio (x) = 0.24741 0.26431
# Poissons Ratio (y) = 0.19009 0.19899
# Poissons Ratio (z) = 0.28164 0.27598
#
# Static dielectric constant tensor:
#      x y z
#    x 3.756780 0.000000 0.000000 
#    y 0.000000 3.754080 0.000000 
#    z 0.000000 0.000000 3.659580 
# 
# 
# High freq. dielectric constant tensor:
#      x y z
#    x 1.811980 0.000000 0.000000 
#    y 0.000000 1.806730 0.000000 
#    z 0.000000 0.000000 1.805110 
# 
# From -- ./inp_files/7195.got.cif
#   From: 2010.03.12/outbox.cif.g09.slc.cpg/sg36_4_cif.got.tgz:7195.got - 2010.04.14 02:13:53.
