data_PCOD8175509
_publ_section_title
;
Structure prediction by ZEFSAII (Michael W. Deem and Ramdas Pophale) SiO2 
 PCOD8175509
Probable space group: C M C 21
;
_chemical_formula_sum "Si O2"
_cell_formula_units_Z 48
_cell_length_a 8.892867
_cell_length_b 27.039545
_cell_length_c 10.028131
_cell_angle_alpha 90.000000
_cell_angle_beta 90.000000
_cell_angle_gamma 90.000000
_cell_volume 2411.355129
_symmetry_space_group_name_H-M "C M C 21"
_symmetry_group_IT_number 36
_symmetry_cell_setting 'orthorhombic'
loop_
_space_group_symop_operation_xyz
x,y,z
-x,-y,1/2+z
x,-y,1/2+z
-x,y,z
1/2+x,1/2+y,z
1/2-x,1/2-y,1/2+z
1/2+x,1/2-y,1/2+z
1/2-x,1/2+y,z
loop_
_atom_site_type_symbol
_atom_site_label
_atom_site_fract_x
_atom_site_fract_y
_atom_site_fract_z
Si Si1 0.176910 0.822872 0.799610
Si Si2 0.175377 0.531763 0.952068
Si Si3 0.322274 0.534016 0.674660
Si Si4 0.674130 0.857356 0.537286
Si Si5 0.823815 0.856706 0.087295
Si Si6 0.678465 0.210980 0.800945
O O1 0.242462 0.853310 0.677051
O O2 0.239657 0.766904 0.804154
O O3 0.000000 0.821568 0.782699
O O4 0.224938 0.851371 0.933491
O O5 0.234009 0.517216 0.806160
O O6 0.000000 0.518065 0.964983
O O7 0.272952 0.501689 0.056893
O O8 0.205537 0.589419 0.974483
O O9 0.500000 0.529379 0.698005
O O10 0.274340 0.589563 0.637261
O O11 0.500000 0.848384 0.565130
O O12 0.738087 0.816913 0.433276
O O13 0.740078 0.814595 0.169073
O O14 0.000000 0.847833 0.104753
O O15 0.500000 0.208197 0.796908
#
# Coordination Sequence:
#
# PCOD8175509 Si02
#       6
#     8   8   8   8   8   8
#     4  10  22  37  58  89 123 160 201 247 296 352
#     4  11  24  43  66  92 122 161 204 253 309 366
#     4  11  24  42  65  93 123 161 204 253 309 366
#     4  10  22  40  61  87 121 159 199 247 301 356
#     4  10  22  40  61  87 121 159 198 246 302 356
#     4  10  20  38  61  86 120 160 202 248 297 352
#
# _framework density 19.905821
#
# number of rings (size 3 to 8) (size 9 to 14) (size 15 to 20)
#    0.000    1.667    1.667    2.000    2.333    5.333 
#    0.000    0.000    0.000    0.000    0.000    0.000 
#    0.000    0.000    0.000    0.000    0.000    0.000 
#
# Total GULP energy -297734.615357 kJ/mol
# GULP energy per Si atom -12405.608973 kJ/mol
# Density = 1.986051 g / cm^3
# Si number density = 19.905821 Si / 1000 Ang^3
#
#
#
# Elastic Constant Matrix: (Units=GPa)
#
#
# Indices 1 2 3 4 5 6 
#
# 1 32.3030 18.8028 24.1951 0.0000 0.0000 0.0000
# 2 18.8028 51.6950 23.3259 0.0000 0.0000 0.0000
# 3 24.1951 23.3259 134.5392 0.0000 0.0000 0.0000
# 4 0.0000 0.0000 0.0000 41.8157 0.0000 0.0000
# 5 0.0000 0.0000 0.0000 0.0000 37.2557 0.0000
# 6 0.0000 0.0000 0.0000 0.0000 0.0000 21.2716
#
#
#
# Elastic Compliance Matrix: (Units=1/GPa)
#
#
# Indices 1 2 3 4 5 6 
#
# 1 0.042601 -0.013060 -0.005397 0.000000 0.000000 0.000000
# 2 -0.013060 0.024990 -0.001984 0.000000 0.000000 0.000000
# 3 -0.005397 -0.001984 0.008747 0.000000 0.000000 0.000000
# 4 0.000000 0.000000 0.000000 0.023914 0.000000 0.000000
# 5 0.000000 0.000000 0.000000 0.000000 0.026842 0.000000
# 6 0.000000 0.000000 0.000000 0.000000 0.000000 0.047011
#
#
# Mechanical properties :
#
#
# Convention : Reuss Voigt Hill
#
# Bulk Modulus (GPa) = 28.20362 39.02054 33.61208
# Shear Modulus (GPa) = 22.04531 30.21617 26.13074
#
# Velocity S-wave (km/s) = 3.33149 3.90032 3.62708
# Velocity P-wave (km/s) = 5.38496 6.31890 5.87053
#
# Compressibility (1/GPa) = 0.03545644
#
# Stress axis : x y z
#
# Youngs Moduli (GPa) = 23.47356 40.01653 114.32065
#
# Poissons Ratio (x) = 0.52261 0.61699
# Poissons Ratio (y) = 0.30656 0.22681
# Poissons Ratio (z) = 0.12669 0.07939
#
# Static dielectric constant tensor:
#      x y z
#    x 3.599850 0.000000 0.000000 
#    y 0.000000 3.791770 0.000000 
#    z 0.000000 0.000000 3.701950 
# 
# 
# High freq. dielectric constant tensor:
#      x y z
#    x 1.768340 0.000000 0.000000 
#    y 0.000000 1.784820 0.000000 
#    z 0.000000 0.000000 1.792810 
# 
# From -- ./inp_files/2673.got.cif
#   From: 2010.03.12/outbox.cif.g09.slc.cpg/sg36_2_cif.got.tgz:2673.got - 2010.04.14 02:13:53.
