data_PCOD8175833
_publ_section_title
;
Structure prediction by ZEFSAII (Michael W. Deem and Ramdas Pophale) SiO2 
 PCOD8175833
Probable space group: C M C 21
;
_chemical_formula_sum "Si O2"
_cell_formula_units_Z 64
_cell_length_a 8.920113
_cell_length_b 33.020157
_cell_length_c 10.143120
_cell_angle_alpha 90.000000
_cell_angle_beta 90.000000
_cell_angle_gamma 90.000000
_cell_volume 2987.590387
_symmetry_space_group_name_H-M "C M C 21"
_symmetry_group_IT_number 36
_symmetry_cell_setting 'orthorhombic'
loop_
_space_group_symop_operation_xyz
x,y,z
-x,-y,1/2+z
x,-y,1/2+z
-x,y,z
1/2+x,1/2+y,z
1/2-x,1/2-y,1/2+z
1/2+x,1/2-y,1/2+z
1/2-x,1/2+y,z
loop_
_atom_site_type_symbol
_atom_site_label
_atom_site_fract_x
_atom_site_fract_y
_atom_site_fract_z
Si Si1 0.322393 0.230381 0.593700
Si Si2 0.671274 0.605922 0.949613
Si Si3 0.335109 0.079613 0.565458
Si Si4 0.826272 0.287661 0.795289
Si Si5 0.676539 0.453331 0.835118
Si Si6 0.826511 0.375960 0.703952
Si Si7 0.828614 0.849188 0.173611
Si Si8 0.165842 0.534475 0.833388
O O1 0.500000 0.226599 0.602540
O O2 0.268181 0.270124 0.672032
O O3 0.273061 0.229469 0.438721
O O4 0.247184 0.194332 0.675602
O O5 0.500000 0.600039 0.992952
O O6 0.683828 0.631664 0.817477
O O7 0.740771 0.560497 0.939897
O O8 0.760086 0.631550 0.058679
O O9 0.500000 0.083843 0.497826
O O10 0.227221 0.049049 0.487319
O O11 0.258717 0.123629 0.567063
O O12 0.355032 0.063570 0.710700
O O13 0.801120 0.336098 0.792834
O O14 0.000000 0.276680 0.771952
O O15 0.500000 0.455115 0.818872
O O16 0.740458 0.414016 0.764150
O O17 0.746525 0.495011 0.782267
O O18 0.000000 0.386830 0.691303
O O19 0.000000 0.845640 0.127966
O O20 0.000000 0.523183 0.889773
#
# Coordination Sequence:
#
# PCOD8175833 Si02
#       8
#     8   8   8   8   8   8   8   8
#     4  11  24  42  69  99 133 175 220 274 333 398
#     4  10  22  40  63  94 131 168 212 268 326 389
#     4  10  21  39  62  87 118 157 207 258 312 381
#     4  10  25  46  66  97 135 173 222 279 334 398
#     4  12  25  39  61  89 124 165 209 263 324 385
#     4  11  24  43  66  91 129 173 219 272 330 396
#     4  10  21  39  65  94 128 165 207 262 322 386
#     4  10  22  40  62  89 122 164 212 260 315 383
#
# _framework density 21.421945000000001
#
# number of rings (size 3 to 8) (size 9 to 14) (size 15 to 20)
#    0.000    1.500    0.000    4.125    3.500    6.000 
#    0.000    0.000    0.000    0.000    0.000    0.000 
#    0.000    0.000    0.000    0.000    0.000    0.000 
#
# Total GULP energy -396810.814411 kJ/mol
# GULP energy per Si atom -12400.337950 kJ/mol
# Density = 2.137319 g / cm^3
# Si number density = 21.421945 Si / 1000 Ang^3
#
#
#
# Elastic Constant Matrix: (Units=GPa)
#
#
# Indices 1 2 3 4 5 6 
#
# 1 162.1547 55.6199 44.1976 0.0000 0.0000 0.0000
# 2 55.6199 98.0676 29.3342 0.0000 0.0000 0.0000
# 3 44.1976 29.3342 77.6584 0.0000 0.0000 0.0000
# 4 0.0000 0.0000 0.0000 27.4783 0.0000 0.0000
# 5 0.0000 0.0000 0.0000 0.0000 32.1448 0.0000
# 6 0.0000 0.0000 0.0000 0.0000 0.0000 38.4830
#
#
#
# Elastic Compliance Matrix: (Units=1/GPa)
#
#
# Indices 1 2 3 4 5 6 
#
# 1 0.008362 -0.003742 -0.003346 0.000000 0.000000 0.000000
# 2 -0.003742 0.013170 -0.002845 0.000000 0.000000 0.000000
# 3 -0.003346 -0.002845 0.015856 0.000000 0.000000 0.000000
# 4 0.000000 0.000000 0.000000 0.036392 0.000000 0.000000
# 5 0.000000 0.000000 0.000000 0.000000 0.031109 0.000000
# 6 0.000000 0.000000 0.000000 0.000000 0.000000 0.025985
#
#
# Mechanical properties :
#
#
# Convention : Reuss Voigt Hill
#
# Bulk Modulus (GPa) = 57.06917 66.24266 61.65591
# Shear Modulus (GPa) = 31.93200 33.53650 32.73425
#
# Velocity S-wave (km/s) = 3.86504 3.96096 3.91330
# Velocity P-wave (km/s) = 6.82762 7.20478 7.01874
#
# Compressibility (1/GPa) = 0.01752260
#
# Stress axis : x y z
#
# Youngs Moduli (GPa) = 119.58250 75.92761 63.06825
#
# Poissons Ratio (x) = 0.28412 0.21101
# Poissons Ratio (y) = 0.44748 0.17944
# Poissons Ratio (z) = 0.40010 0.21603
#
# Static dielectric constant tensor:
#      x y z
#    x 4.210430 0.000000 0.000000 
#    y 0.000000 3.863360 0.000000 
#    z 0.000000 0.000000 3.926830 
# 
# 
# High freq. dielectric constant tensor:
#      x y z
#    x 1.853000 0.000000 0.000000 
#    y 0.000000 1.842180 0.000000 
#    z 0.000000 0.000000 1.839330 
# 
# From -- ./inp_files/7093.got.cif
#   From: 2010.03.12/outbox.cif.g09.slc.cpg/sg36_4_cif.got.tgz:7093.got - 2010.04.14 02:13:53.
