data_PCOD8175384
_publ_section_title
;
Structure prediction by ZEFSAII (Michael W. Deem and Ramdas Pophale) SiO2 
 PCOD8175384
Probable space group: C M C 21
;
_chemical_formula_sum "Si O2"
_cell_formula_units_Z 64
_cell_length_a 8.507635
_cell_length_b 26.932931
_cell_length_c 12.957460
_cell_angle_alpha 90.000000
_cell_angle_beta 90.000000
_cell_angle_gamma 90.000000
_cell_volume 2969.014677
_symmetry_space_group_name_H-M "C M C 21"
_symmetry_group_IT_number 36
_symmetry_cell_setting 'orthorhombic'
loop_
_space_group_symop_operation_xyz
x,y,z
-x,-y,1/2+z
x,-y,1/2+z
-x,y,z
1/2+x,1/2+y,z
1/2-x,1/2-y,1/2+z
1/2+x,1/2-y,1/2+z
1/2-x,1/2+y,z
loop_
_atom_site_type_symbol
_atom_site_label
_atom_site_fract_x
_atom_site_fract_y
_atom_site_fract_z
Si Si1 0.316767 0.057680 0.202490
Si Si2 0.324900 0.803843 0.953336
Si Si3 0.825292 0.774303 0.614258
Si Si4 0.817559 0.621874 0.799309
Si Si5 0.812959 0.586885 0.433239
Si Si6 0.180935 0.228644 0.795058
Si Si7 0.682374 0.622865 0.019027
Si Si8 0.316401 0.545587 0.639651
O O1 0.500000 0.068324 0.190574
O O2 0.261258 0.069718 0.319197
O O3 0.228836 0.091960 0.119862
O O4 0.280706 0.000590 0.182617
O O5 0.500000 0.811497 0.907268
O O6 0.243256 0.857488 0.950461
O O7 0.241853 0.760756 0.886945
O O8 0.329581 0.780976 0.066585
O O9 0.694283 0.767860 0.701322
O O10 0.777702 0.818912 0.537175
O O11 0.000000 0.786439 0.658330
O O12 0.782666 0.679583 0.780794
O O13 0.721509 0.592154 0.712672
O O14 0.000000 0.610952 0.781692
O O15 0.772521 0.605235 0.915851
O O16 0.731872 0.553459 0.520470
O O17 0.000000 0.583948 0.449455
O O18 0.000000 0.213402 0.815804
O O19 0.500000 0.614595 0.996879
O O20 0.500000 0.533607 0.644151
#
# Coordination Sequence:
#
# PCOD8175384 Si02
#       8
#     8   8   8   8   8   8   8   8
#     4  11  25  45  70 100 133 175 221 274 339 405
#     4   9  18  36  60  87 125 168 205 251 313 376
#     4  10  20  36  59  90 131 175 214 259 320 383
#     4  12  25  43  67  97 135 178 226 278 336 401
#     4  10  22  43  70  98 133 173 220 273 332 405
#     4  11  21  37  61  93 131 172 217 265 320 385
#     4  11  23  42  67  99 138 179 224 277 332 395
#     4  12  27  46  70  98 130 172 223 283 342 400
#
# _framework density 21.555973000000002
#
# number of rings (size 3 to 8) (size 9 to 14) (size 15 to 20)
#    0.000    1.250    1.250    4.875    1.750    4.000 
#    0.000    1.250    0.000    0.000    0.000    0.000 
#    0.000    0.000    0.000    0.000    0.000    0.000 
#
# Total GULP energy -396710.335679 kJ/mol
# GULP energy per Si atom -12397.197990 kJ/mol
# Density = 2.150691 g / cm^3
# Si number density = 21.555973 Si / 1000 Ang^3
#
#
#
# Elastic Constant Matrix: (Units=GPa)
#
#
# Indices 1 2 3 4 5 6 
#
# 1 51.4588 8.1447 22.5485 0.0000 0.0000 0.0000
# 2 8.1447 91.5338 22.3256 0.0000 0.0000 0.0000
# 3 22.5485 22.3256 118.5773 0.0000 0.0000 0.0000
# 4 0.0000 0.0000 0.0000 38.9662 0.0000 0.0000
# 5 0.0000 0.0000 0.0000 0.0000 28.7033 0.0000
# 6 0.0000 0.0000 0.0000 0.0000 0.0000 27.5571
#
#
#
# Elastic Compliance Matrix: (Units=1/GPa)
#
#
# Indices 1 2 3 4 5 6 
#
# 1 0.021278 -0.000950 -0.003867 0.000000 0.000000 0.000000
# 2 -0.000950 0.011493 -0.001983 0.000000 0.000000 0.000000
# 3 -0.003867 -0.001983 0.009542 0.000000 0.000000 0.000000
# 4 0.000000 0.000000 0.000000 0.025663 0.000000 0.000000
# 5 0.000000 0.000000 0.000000 0.000000 0.034839 0.000000
# 6 0.000000 0.000000 0.000000 0.000000 0.000000 0.036288
#
#
# Mechanical properties :
#
#
# Convention : Reuss Voigt Hill
#
# Bulk Modulus (GPa) = 34.82860 40.84528 37.83694
# Shear Modulus (GPa) = 30.81169 32.94872 31.88021
#
# Velocity S-wave (km/s) = 3.78482 3.91387 3.84988
# Velocity P-wave (km/s) = 5.94072 6.27807 6.11172
#
# Compressibility (1/GPa) = 0.02871203
#
# Stress axis : x y z
#
# Youngs Moduli (GPa) = 46.99690 87.00805 104.79838
#
# Poissons Ratio (x) = 0.08266 0.40529
# Poissons Ratio (y) = 0.04465 0.20784
# Poissons Ratio (z) = 0.18175 0.17256
#
# Static dielectric constant tensor:
#      x y z
#    x 3.664920 0.000000 0.000000 
#    y 0.000000 3.947130 0.000000 
#    z 0.000000 0.000000 4.000530 
# 
# 
# High freq. dielectric constant tensor:
#      x y z
#    x 1.828170 0.000000 0.000000 
#    y 0.000000 1.853480 0.000000 
#    z 0.000000 0.000000 1.860080 
# 
# From -- ./inp_files/7239.got.cif
#   From: 2010.03.12/outbox.cif.g09.slc.cpg/sg36_4_cif.got.tgz:7239.got - 2010.04.14 02:13:53.
