data_PCOD8175730
_publ_section_title
;
Structure prediction by ZEFSAII (Michael W. Deem and Ramdas Pophale) SiO2 
 PCOD8175730
Probable space group: C M C 21
;
_chemical_formula_sum "Si O2"
_cell_formula_units_Z 64
_cell_length_a 15.336305
_cell_length_b 22.583316
_cell_length_c 8.815842
_cell_angle_alpha 90.000000
_cell_angle_beta 90.000000
_cell_angle_gamma 90.000000
_cell_volume 3053.319466
_symmetry_space_group_name_H-M "C M C 21"
_symmetry_group_IT_number 36
_symmetry_cell_setting 'orthorhombic'
loop_
_space_group_symop_operation_xyz
x,y,z
-x,-y,1/2+z
x,-y,1/2+z
-x,y,z
1/2+x,1/2+y,z
1/2-x,1/2-y,1/2+z
1/2+x,1/2-y,1/2+z
1/2-x,1/2+y,z
loop_
_atom_site_type_symbol
_atom_site_label
_atom_site_fract_x
_atom_site_fract_y
_atom_site_fract_z
Si Si1 0.095835 0.080445 0.781640
Si Si2 0.746506 0.675955 0.774701
Si Si3 0.598157 0.806066 0.456799
Si Si4 0.163318 0.006974 0.045740
Si Si5 0.734855 0.419255 0.807703
Si Si6 0.836006 0.259690 0.014898
Si Si7 0.901811 0.185724 0.287407
Si Si8 0.096509 0.653724 0.288712
O O1 0.173336 0.126608 0.758078
O O2 0.099802 0.031483 0.650574
O O3 0.000000 0.111047 0.772914
O O4 0.103226 0.049124 0.943954
O O5 0.836565 0.653139 0.854835
O O6 0.767595 0.700429 0.608497
O O7 0.717870 0.728781 0.883271
O O8 0.500000 0.828050 0.422392
O O9 0.608302 0.737130 0.411918
O O10 0.621283 0.811400 0.634240
O O11 0.225186 0.048276 0.147035
O O12 0.224126 0.965282 0.944120
O O13 0.665243 0.366393 0.824734
O O14 0.833412 0.397046 0.818123
O O15 0.884816 0.212217 0.119911
O O16 0.905551 0.301299 0.930484
O O17 0.000000 0.159550 0.290803
O O18 0.000000 0.625442 0.275607
#
# Coordination Sequence:
#
# PCOD8175730 Si02
#       8
#     8   8   8   8   8   8   8   8
#     4  11  23  39  61  88 117 152 194 240 291 346
#     4  11  22  38  58  85 120 162 199 234 286 347
#     4   9  19  36  59  89 123 157 193 234 284 347
#     4  10  24  42  60  82 114 150 196 252 297 335
#     4  11  23  42  62  83 114 154 197 245 296 344
#     4  11  22  36  56  87 126 158 193 237 281 346
#     4  10  21  37  60  90 125 162 193 229 285 351
#     4  11  22  38  62  90 119 153 193 239 294 354
#
# _framework density 20.960795000000001
#
# number of rings (size 3 to 8) (size 9 to 14) (size 15 to 20)
#    0.000    1.500    0.000    6.000    0.000    6.500 
#    0.000    3.750    0.000    3.000    0.000    0.000 
#    0.000    0.000    0.000    0.000    0.000    0.000 
#
# Total GULP energy -396798.234619 kJ/mol
# GULP energy per Si atom -12399.944832 kJ/mol
# Density = 2.091309 g / cm^3
# Si number density = 20.960795 Si / 1000 Ang^3
#
#
#
# Elastic Constant Matrix: (Units=GPa)
#
#
# Indices 1 2 3 4 5 6 
#
# 1 128.2205 38.8294 5.0921 0.0000 0.0000 0.0000
# 2 38.8294 63.1424 9.8528 0.0000 0.0000 0.0000
# 3 5.0921 9.8528 73.2806 0.0000 0.0000 0.0000
# 4 0.0000 0.0000 0.0000 -6.0733 0.0000 0.0000
# 5 0.0000 0.0000 0.0000 0.0000 22.1034 0.0000
# 6 0.0000 0.0000 0.0000 0.0000 0.0000 17.7132
#
#
#
# Elastic Compliance Matrix: (Units=1/GPa)
#
#
# Indices 1 2 3 4 5 6 
#
# 1 0.009585 -0.005914 0.000129 0.000000 0.000000 0.000000
# 2 -0.005914 0.019826 -0.002255 0.000000 0.000000 0.000000
# 3 0.000129 -0.002255 0.013940 0.000000 0.000000 0.000000
# 4 0.000000 0.000000 0.000000 -0.164655 0.000000 0.000000
# 5 0.000000 0.000000 0.000000 0.000000 0.045242 0.000000
# 6 0.000000 0.000000 0.000000 0.000000 0.000000 0.056455
#
#
# Mechanical properties :
#
#
# Convention : Reuss Voigt Hill
#
# Bulk Modulus (GPa) = 36.66826 41.35467 39.01147
# Shear Modulus (GPa) = 898.59688 20.80660 459.70174
#
# Velocity S-wave (km/s) = 20.72762 3.15404 14.82535
# Velocity P-wave (km/s) = 24.29768 5.74773 17.65522
#
# Compressibility (1/GPa) = 0.02727154
#
# Stress axis : x y z
#
# Youngs Moduli (GPa) = 104.32939 50.43845 71.73420
#
# Poissons Ratio (x) = 0.29832 -0.00927
# Poissons Ratio (y) = 0.61705 0.16174
# Poissons Ratio (z) = -0.01348 0.11372
#
# Static dielectric constant tensor:
#      x y z
#    x 3.966590 0.000000 0.000000 
#    y 0.000000 3.607990 0.000000 
#    z 0.000000 0.000000 4.116770 
# 
# 
# High freq. dielectric constant tensor:
#      x y z
#    x 1.827030 0.000000 0.000000 
#    y 0.000000 1.792740 0.000000 
#    z 0.000000 0.000000 1.844090 
# 
# From -- ./inp_files/4337.got.cif
#   From: 2010.03.12/outbox.cif.g09.slc.cpg/sg36_3_cif.got.tgz:4337.got - 2010.04.14 02:13:53.
