data_PCOD8175117
_publ_section_title
;
Structure prediction by ZEFSAII (Michael W. Deem and Ramdas Pophale) SiO2 
 PCOD8175117
Probable space group: C M C 21
;
_chemical_formula_sum "Si O2"
_cell_formula_units_Z 56
_cell_length_a 21.041125
_cell_length_b 11.702050
_cell_length_c 12.745800
_cell_angle_alpha 90.000000
_cell_angle_beta 90.000000
_cell_angle_gamma 90.000000
_cell_volume 3138.325642
_symmetry_space_group_name_H-M "C M C 21"
_symmetry_group_IT_number 36
_symmetry_cell_setting 'orthorhombic'
loop_
_space_group_symop_operation_xyz
x,y,z
-x,-y,1/2+z
x,-y,1/2+z
-x,y,z
1/2+x,1/2+y,z
1/2-x,1/2-y,1/2+z
1/2+x,1/2-y,1/2+z
1/2-x,1/2+y,z
loop_
_atom_site_type_symbol
_atom_site_label
_atom_site_fract_x
_atom_site_fract_y
_atom_site_fract_z
Si Si1 0.569400 0.237056 0.809780
Si Si2 0.758665 0.205474 0.803247
Si Si3 0.848743 0.596178 0.677899
Si Si4 0.182438 0.918768 0.493327
Si Si5 0.336125 0.679342 0.460426
Si Si6 0.572713 0.279057 0.581850
Si Si7 0.802824 0.353036 0.628847
O O1 0.500000 0.195809 0.843253
O O2 0.609744 0.120653 0.784194
O O3 0.596243 0.315970 0.902301
O O4 0.568103 0.315599 0.704381
O O5 0.721820 0.139559 0.709098
O O6 0.798515 0.117688 0.874987
O O7 0.715298 0.281757 0.876713
O O8 0.802056 0.297658 0.744116
O O9 0.883119 0.663462 0.580765
O O10 0.844816 0.466630 0.640512
O O11 0.111220 0.873424 0.516272
O O12 0.232546 0.875059 0.580458
O O13 0.180877 0.054710 0.501657
O O14 0.341259 0.766994 0.555755
O O15 0.500000 0.261581 0.537794
#
# Coordination Sequence:
#
# PCOD8175117 Si02
#       7
#     8   8   8   8   8   8   8
#     4   8  17  37  56  73 101 146 194 224 267 338
#     4  10  20  34  52  83 116 148 184 227 289 343
#     4   9  17  35  55  77 106 144 185 226 278 335
#     4  11  21  33  55  85 121 146 187 236 286 340
#     4  10  21  32  53  85 109 147 183 234 288 332
#     4   9  19  38  60  78 107 156 195 225 274 343
#     4  11  20  33  55  83 119 143 180 236 294 337
#
# _framework density 17.843909
#
# number of rings (size 3 to 8) (size 9 to 14) (size 15 to 20)
#    0.857    1.429    1.429    1.714    2.000    1.714 
#    0.000    1.429    0.000    1.714    0.000    0.000 
#    0.000    0.000    0.000    0.000    0.000    0.000 
#
# Total GULP energy -346876.460709 kJ/mol
# GULP energy per Si atom -12388.445025 kJ/mol
# Density = 1.780330 g / cm^3
# Si number density = 17.843909 Si / 1000 Ang^3
#
#
#
# Elastic Constant Matrix: (Units=GPa)
#
#
# Indices 1 2 3 4 5 6 
#
# 1 90.0357 34.0671 24.7072 0.0000 0.0000 0.0000
# 2 34.0671 116.2106 38.1134 0.0000 0.0000 0.0000
# 3 24.7072 38.1134 62.7897 0.0000 0.0000 0.0000
# 4 0.0000 0.0000 0.0000 28.4991 0.0000 0.0000
# 5 0.0000 0.0000 0.0000 0.0000 20.1557 0.0000
# 6 0.0000 0.0000 0.0000 0.0000 0.0000 15.1740
#
#
#
# Elastic Compliance Matrix: (Units=1/GPa)
#
#
# Indices 1 2 3 4 5 6 
#
# 1 0.013088 -0.002682 -0.003522 0.000000 0.000000 0.000000
# 2 -0.002682 0.011293 -0.005800 0.000000 0.000000 0.000000
# 3 -0.003522 -0.005800 0.020833 0.000000 0.000000 0.000000
# 4 0.000000 0.000000 0.000000 0.035089 0.000000 0.000000
# 5 0.000000 0.000000 0.000000 0.000000 0.049614 0.000000
# 6 0.000000 0.000000 0.000000 0.000000 0.000000 0.065902
#
#
# Mechanical properties :
#
#
# Convention : Reuss Voigt Hill
#
# Bulk Modulus (GPa) = 47.15529 51.42348 49.28938
# Shear Modulus (GPa) = 22.03664 24.24232 23.13948
#
# Velocity S-wave (km/s) = 3.51802 3.68989 3.60498
# Velocity P-wave (km/s) = 6.55636 6.85819 6.70897
#
# Compressibility (1/GPa) = 0.02120653
#
# Stress axis : x y z
#
# Youngs Moduli (GPa) = 76.40654 88.54779 48.00138
#
# Poissons Ratio (x) = 0.23744 0.16907
# Poissons Ratio (y) = 0.20488 0.27840
# Poissons Ratio (z) = 0.26913 0.51357
#
# Static dielectric constant tensor:
#      x y z
#    x 3.284420 0.000000 0.000000 
#    y 0.000000 3.096340 0.000000 
#    z 0.000000 0.000000 3.284250 
# 
# 
# High freq. dielectric constant tensor:
#      x y z
#    x 1.676340 0.000000 0.000000 
#    y 0.000000 1.673750 0.000000 
#    z 0.000000 0.000000 1.680570 
# 
# From -- ./inp_files/9486.got.cif
#   From: 2010.03.12/outbox.cif.g09.slc.cpg/sg36_5_cif.got.tgz:9486.got - 2010.04.14 02:13:53.
