data_PCOD8175555
_publ_section_title
;
Structure prediction by ZEFSAII (Michael W. Deem and Ramdas Pophale) SiO2 
 PCOD8175555
Probable space group: C M C 21
;
_chemical_formula_sum "Si O2"
_cell_formula_units_Z 48
_cell_length_a 16.832541
_cell_length_b 9.672136
_cell_length_c 14.958306
_cell_angle_alpha 90.000000
_cell_angle_beta 90.000000
_cell_angle_gamma 90.000000
_cell_volume 2435.311327
_symmetry_space_group_name_H-M "C M C 21"
_symmetry_group_IT_number 36
_symmetry_cell_setting 'orthorhombic'
loop_
_space_group_symop_operation_xyz
x,y,z
-x,-y,1/2+z
x,-y,1/2+z
-x,y,z
1/2+x,1/2+y,z
1/2-x,1/2-y,1/2+z
1/2+x,1/2-y,1/2+z
1/2-x,1/2+y,z
loop_
_atom_site_type_symbol
_atom_site_label
_atom_site_fract_x
_atom_site_fract_y
_atom_site_fract_z
Si Si1 0.795096 0.739739 0.704430
Si Si2 0.169238 0.450638 0.646157
Si Si3 0.593693 0.373865 0.843791
Si Si4 0.648617 0.135586 0.954733
Si Si5 0.090248 0.600799 0.333285
Si Si6 0.691449 0.646969 0.865660
O O1 0.818795 0.616526 0.636509
O O2 0.751591 0.865296 0.654101
O O3 0.871419 0.801777 0.754997
O O4 0.738311 0.660336 0.773315
O O5 0.125291 0.401759 0.555885
O O6 0.113824 0.416124 0.730037
O O7 0.500000 0.384695 0.832551
O O8 0.619328 0.290199 0.932649
O O9 0.628866 0.525086 0.857249
O O10 0.744150 0.119832 0.943512
O O11 0.601014 0.042295 0.884337
O O12 0.144372 0.712032 0.384787
O O13 0.000000 0.650530 0.337164
#
# Coordination Sequence:
#
# PCOD8175555 Si02
#       6
#     8   8   8   8   8   8
#     4  10  20  39  61  90 112 156 203 245 293 355
#     4  11  23  38  66  88 122 158 210 247 294 355
#     4  11  21  38  61  89 121 155 196 251 306 354
#     4  11  23  38  65  89 119 158 208 252 292 352
#     4  11  23  41  62  90 125 160 196 247 310 358
#     4  10  20  40  61  86 117 157 201 244 293 358
#
# _framework density 19.710004999999999
#
# number of rings (size 3 to 8) (size 9 to 14) (size 15 to 20)
#    0.000    1.333    5.000    3.000    4.667    1.333 
#    0.000    0.000    0.000    0.000    0.000    0.000 
#    0.000    0.000    0.000    0.000    0.000    0.000 
#
# Total GULP energy -297623.799464 kJ/mol
# GULP energy per Si atom -12400.991644 kJ/mol
# Density = 1.966514 g / cm^3
# Si number density = 19.710005 Si / 1000 Ang^3
#
#
#
# Elastic Constant Matrix: (Units=GPa)
#
#
# Indices 1 2 3 4 5 6 
#
# 1 115.5522 26.6230 20.1671 0.0000 0.0000 0.0000
# 2 26.6230 84.9384 10.9951 0.0000 0.0000 0.0000
# 3 20.1671 10.9951 91.8840 0.0000 0.0000 0.0000
# 4 0.0000 0.0000 0.0000 13.1746 0.0000 0.0000
# 5 0.0000 0.0000 0.0000 0.0000 6.7432 0.0000
# 6 0.0000 0.0000 0.0000 0.0000 0.0000 30.1133
#
#
#
# Elastic Compliance Matrix: (Units=1/GPa)
#
#
# Indices 1 2 3 4 5 6 
#
# 1 0.009605 -0.002781 -0.001775 0.000000 0.000000 0.000000
# 2 -0.002781 0.012763 -0.000917 0.000000 0.000000 0.000000
# 3 -0.001775 -0.000917 0.011383 0.000000 0.000000 0.000000
# 4 0.000000 0.000000 0.000000 0.075904 0.000000 0.000000
# 5 0.000000 0.000000 0.000000 0.000000 0.148297 0.000000
# 6 0.000000 0.000000 0.000000 0.000000 0.000000 0.033208
#
#
# Mechanical properties :
#
#
# Convention : Reuss Voigt Hill
#
# Bulk Modulus (GPa) = 43.85034 45.32720 44.58877
# Shear Modulus (GPa) = 16.14430 25.64553 20.89491
#
# Velocity S-wave (km/s) = 2.86508 3.61105 3.25948
# Velocity P-wave (km/s) = 5.76550 6.35871 6.06936
#
# Compressibility (1/GPa) = 0.02280484
#
# Stress axis : x y z
#
# Youngs Moduli (GPa) = 104.11685 78.34842 87.85287
#
# Poissons Ratio (x) = 0.21786 0.15597
# Poissons Ratio (y) = 0.28951 0.08056
# Poissons Ratio (z) = 0.18484 0.07185
#
# Static dielectric constant tensor:
#      x y z
#    x 3.516850 0.000000 0.000000 
#    y 0.000000 3.746480 0.000000 
#    z 0.000000 0.000000 3.382760 
# 
# 
# High freq. dielectric constant tensor:
#      x y z
#    x 1.759470 0.000000 0.000000 
#    y 0.000000 1.785750 0.000000 
#    z 0.000000 0.000000 1.745940 
# 
# From -- ./inp_files/12479.got.cif
#   From: 2010.03.12/outbox.cif.g09.slc.cpg/sg36_7_cif.got.tgz:12479.got - 2010.04.14 02:13:53.
