data_PCOD8175257
_publ_section_title
;
Structure prediction by ZEFSAII (Michael W. Deem and Ramdas Pophale) SiO2 
 PCOD8175257
Probable space group: C M C 21
;
_chemical_formula_sum "Si O2"
_cell_formula_units_Z 64
_cell_length_a 9.002086
_cell_length_b 20.397404
_cell_length_c 17.896931
_cell_angle_alpha 90.000000
_cell_angle_beta 90.000000
_cell_angle_gamma 90.000000
_cell_volume 3286.219884
_symmetry_space_group_name_H-M "C M C 21"
_symmetry_group_IT_number 36
_symmetry_cell_setting 'orthorhombic'
loop_
_space_group_symop_operation_xyz
x,y,z
-x,-y,1/2+z
x,-y,1/2+z
-x,y,z
1/2+x,1/2+y,z
1/2-x,1/2-y,1/2+z
1/2+x,1/2-y,1/2+z
1/2-x,1/2+y,z
loop_
_atom_site_type_symbol
_atom_site_label
_atom_site_fract_x
_atom_site_fract_y
_atom_site_fract_z
Si Si1 0.171836 0.117576 0.307840
Si Si2 0.174561 0.747016 0.881522
Si Si3 0.327252 0.631368 0.137416
Si Si4 0.172222 0.126697 0.609139
Si Si5 0.175081 0.747864 0.535494
Si Si6 0.332660 0.011001 0.798878
Si Si7 0.167413 0.502916 0.121882
Si Si8 0.827502 0.859125 0.284277
O O1 0.208601 0.177317 0.362701
O O2 0.217079 0.138851 0.224052
O O3 0.000000 0.097892 0.310225
O O4 0.263688 0.054366 0.335749
O O5 0.239513 0.702709 0.815672
O O6 0.000000 0.733928 0.887774
O O7 0.254496 0.728215 0.958127
O O8 0.500000 0.615412 0.127755
O O9 0.282540 0.698682 0.097640
O O10 0.238309 0.572163 0.098173
O O11 0.256858 0.179084 0.559272
O O12 0.199139 0.141621 0.695880
O O13 0.000000 0.128286 0.587854
O O14 0.236883 0.055856 0.586783
O O15 0.000000 0.740170 0.525913
O O16 0.500000 0.020292 0.828529
O O17 0.236745 0.074503 0.821333
O O18 0.328457 0.002570 0.710576
O O19 0.000000 0.498919 0.091061
O O20 0.000000 0.854181 0.305063
#
# Coordination Sequence:
#
# PCOD8175257 Si02
#       8
#     8   8   8   8   8   8   8   8
#     4   9  18  34  56  80 106 138 175 216 265 319
#     4  11  23  38  55  77 109 146 183 224 269 319
#     4   9  18  34  56  80 106 138 175 216 265 319
#     4  10  20  35  57  83 110 141 178 220 266 318
#     4  11  23  38  55  77 109 146 183 224 269 319
#     4   9  17  30  52  82 111 137 170 216 266 315
#     4   9  17  30  52  82 111 137 170 216 266 315
#     4  10  20  35  57  83 110 141 178 220 266 318
#
# _framework density 19.475265
#
# number of rings (size 3 to 8) (size 9 to 14) (size 15 to 20)
#    0.000    2.250    0.000    3.000    0.000    7.500 
#    0.000    3.750    0.000    7.500    0.000    0.000 
#    0.000    0.000    0.000    0.000    0.000    0.000 
#
# Total GULP energy -396900.328780 kJ/mol
# GULP energy per Si atom -12403.135274 kJ/mol
# Density = 1.943094 g / cm^3
# Si number density = 19.475265 Si / 1000 Ang^3
#
#
#
# Elastic Constant Matrix: (Units=GPa)
#
#
# Indices 1 2 3 4 5 6 
#
# 1 109.0710 47.4493 25.7532 0.0000 0.0000 0.0000
# 2 47.4493 87.1211 9.8087 0.0000 0.0000 0.0000
# 3 25.7532 9.8087 35.5698 0.0000 0.0000 0.0000
# 4 0.0000 0.0000 0.0000 9.6276 0.0000 0.0000
# 5 0.0000 0.0000 0.0000 0.0000 26.1204 0.0000
# 6 0.0000 0.0000 0.0000 0.0000 0.0000 40.9998
#
#
#
# Elastic Compliance Matrix: (Units=1/GPa)
#
#
# Indices 1 2 3 4 5 6 
#
# 1 0.014057 -0.006719 -0.008325 0.000000 0.000000 0.000000
# 2 -0.006719 0.015057 0.000712 0.000000 0.000000 0.000000
# 3 -0.008325 0.000712 0.033945 0.000000 0.000000 0.000000
# 4 0.000000 0.000000 0.000000 0.103868 0.000000 0.000000
# 5 0.000000 0.000000 0.000000 0.000000 0.038284 0.000000
# 6 0.000000 0.000000 0.000000 0.000000 0.000000 0.024390
#
#
# Mechanical properties :
#
#
# Convention : Reuss Voigt Hill
#
# Bulk Modulus (GPa) = 29.07269 44.19824 36.63546
# Shear Modulus (GPa) = 18.53714 25.26628 21.90171
#
# Velocity S-wave (km/s) = 3.08852 3.60579 3.35713
# Velocity P-wave (km/s) = 5.26109 6.33083 5.82059
#
# Compressibility (1/GPa) = 0.03439654
#
# Stress axis : x y z
#
# Youngs Moduli (GPa) = 71.14068 66.41317 29.45985
#
# Poissons Ratio (x) = 0.44620 0.24524
# Poissons Ratio (y) = 0.47796 -0.02098
# Poissons Ratio (z) = 0.59222 -0.04730
#
# Static dielectric constant tensor:
#      x y z
#    x 3.659330 0.000000 0.000000 
#    y 0.000000 3.663470 0.000000 
#    z 0.000000 0.000000 3.252130 
# 
# 
# High freq. dielectric constant tensor:
#      x y z
#    x 1.768960 0.000000 0.000000 
#    y 0.000000 1.771320 0.000000 
#    z 0.000000 0.000000 1.722450 
# 
# From -- ./inp_files/13810.got.cif
#   From: 2010.03.12/outbox.cif.g09.slc.cpg/sg36_7_cif.got.tgz:13810.got - 2010.04.14 02:13:53.
