data_PCOD8175997
_publ_section_title
;
Structure prediction by ZEFSAII (Michael W. Deem and Ramdas Pophale) SiO2 
 PCOD8175997
Probable space group: C M C 21
;
_chemical_formula_sum "Si O2"
_cell_formula_units_Z 64
_cell_length_a 14.688342
_cell_length_b 7.692091
_cell_length_c 26.459353
_cell_angle_alpha 90.000000
_cell_angle_beta 90.000000
_cell_angle_gamma 90.000000
_cell_volume 2989.485214
_symmetry_space_group_name_H-M "C M C 21"
_symmetry_group_IT_number 36
_symmetry_cell_setting 'orthorhombic'
loop_
_space_group_symop_operation_xyz
x,y,z
-x,-y,1/2+z
x,-y,1/2+z
-x,y,z
1/2+x,1/2+y,z
1/2-x,1/2-y,1/2+z
1/2+x,1/2-y,1/2+z
1/2-x,1/2+y,z
loop_
_atom_site_type_symbol
_atom_site_label
_atom_site_fract_x
_atom_site_fract_y
_atom_site_fract_z
Si Si1 0.746347 0.919679 0.169190
Si Si2 0.605412 0.431430 0.250479
Si Si3 0.249817 0.330495 0.590285
Si Si4 0.892166 0.626507 0.323609
Si Si5 0.393924 0.418136 0.510513
Si Si6 0.107679 0.378438 0.935977
Si Si7 0.605823 0.826546 0.250704
Si Si8 0.394834 0.813452 0.507461
O O1 0.837497 0.884147 0.200893
O O2 0.742729 0.122209 0.151973
O O3 0.747694 0.872127 0.107431
O O4 0.655524 0.866588 0.198348
O O5 0.500000 0.402574 0.236585
O O6 0.637003 0.303478 0.295338
O O7 0.624094 0.628930 0.268739
O O8 0.343202 0.381654 0.562878
O O9 0.161666 0.368163 0.556586
O O10 0.849299 0.627382 0.379819
O O11 0.855471 0.457506 0.293395
O O12 0.000000 0.613160 0.327544
O O13 0.500000 0.386338 0.521075
O O14 0.354963 0.284932 0.468422
O O15 0.375421 0.614425 0.491067
O O16 0.135355 0.561049 0.961700
O O17 0.000000 0.360432 0.932201
O O18 0.500000 0.860165 0.240519
O O19 0.500000 0.842013 0.521421
#
# Coordination Sequence:
#
# PCOD8175997 Si02
#       8
#     8   8   8   8   8   8   8   8
#     4  12  23  38  61  86 121 161 201 249 301 351
#     4  10  22  40  62  88 122 159 200 247 295 359
#     4  12  23  38  61  86 121 161 201 249 301 351
#     4   9  19  38  64  91 119 155 198 248 305 358
#     4  10  22  40  62  88 122 159 200 247 295 359
#     4   9  19  38  64  91 119 155 198 248 305 358
#     4  10  22  40  62  89 122 158 202 251 297 358
#     4  10  22  40  62  89 122 158 202 251 297 358
#
# _framework density 21.408367999999999
#
# number of rings (size 3 to 8) (size 9 to 14) (size 15 to 20)
#    0.000    1.750    2.500    1.500    0.000    3.000 
#    0.000    6.250    0.000    0.000    0.000    0.000 
#    0.000    0.000    0.000    0.000    0.000    0.000 
#
# Total GULP energy -396625.223468 kJ/mol
# GULP energy per Si atom -12394.538233 kJ/mol
# Density = 2.135964 g / cm^3
# Si number density = 21.408368 Si / 1000 Ang^3
#
#
#
# Elastic Constant Matrix: (Units=GPa)
#
#
# Indices 1 2 3 4 5 6 
#
# 1 67.2353 49.3032 53.0953 0.0000 0.0000 0.0000
# 2 49.3032 136.8765 93.3479 0.0000 0.0000 0.0000
# 3 53.0953 93.3479 170.0905 0.0000 0.0000 0.0000
# 4 0.0000 0.0000 0.0000 42.4506 0.0000 0.0000
# 5 0.0000 0.0000 0.0000 0.0000 24.9894 0.0000
# 6 0.0000 0.0000 0.0000 0.0000 0.0000 24.7200
#
#
#
# Elastic Compliance Matrix: (Units=1/GPa)
#
#
# Indices 1 2 3 4 5 6 
#
# 1 0.021780 -0.005128 -0.003985 0.000000 0.000000 0.000000
# 2 -0.005128 0.012883 -0.005470 0.000000 0.000000 0.000000
# 3 -0.003985 -0.005470 0.010125 0.000000 0.000000 0.000000
# 4 0.000000 0.000000 0.000000 0.023557 0.000000 0.000000
# 5 0.000000 0.000000 0.000000 0.000000 0.040017 0.000000
# 6 0.000000 0.000000 0.000000 0.000000 0.000000 0.040453
#
#
# Mechanical properties :
#
#
# Convention : Reuss Voigt Hill
#
# Bulk Modulus (GPa) = 64.00510 85.07723 74.54116
# Shear Modulus (GPa) = 27.29451 30.32907 28.81179
#
# Velocity S-wave (km/s) = 3.57451 3.76798 3.67252
# Velocity P-wave (km/s) = 6.85553 7.66529 7.27169
#
# Compressibility (1/GPa) = 0.01562376
#
# Stress axis : x y z
#
# Youngs Moduli (GPa) = 45.91393 77.62044 98.76565
#
# Poissons Ratio (x) = 0.39801 0.39355
# Poissons Ratio (y) = 0.23543 0.54023
# Poissons Ratio (z) = 0.18295 0.42457
#
# Static dielectric constant tensor:
#      x y z
#    x 3.569630 0.000000 0.000000 
#    y 0.000000 4.428430 0.000000 
#    z 0.000000 0.000000 3.829040 
# 
# 
# High freq. dielectric constant tensor:
#      x y z
#    x 1.824020 0.000000 0.000000 
#    y 0.000000 1.878190 0.000000 
#    z 0.000000 0.000000 1.831680 
# 
# From -- ./inp_files/16981.got.cif
#   From: 2010.03.12/outbox.cif.g09.slc.cpg/sg36_9_cif.got.tgz:16981.got - 2010.04.14 02:13:53.
