data_PCOD8175955
_publ_section_title
;
Structure prediction by ZEFSAII (Michael W. Deem and Ramdas Pophale) SiO2 
 PCOD8175955
Probable space group: C M C 21
;
_chemical_formula_sum "Si O2"
_cell_formula_units_Z 64
_cell_length_a 24.398345
_cell_length_b 14.168465
_cell_length_c 8.348191
_cell_angle_alpha 90.000000
_cell_angle_beta 90.000000
_cell_angle_gamma 90.000000
_cell_volume 2885.861914
_symmetry_space_group_name_H-M "C M C 21"
_symmetry_group_IT_number 36
_symmetry_cell_setting 'orthorhombic'
loop_
_space_group_symop_operation_xyz
x,y,z
-x,-y,1/2+z
x,-y,1/2+z
-x,y,z
1/2+x,1/2+y,z
1/2-x,1/2-y,1/2+z
1/2+x,1/2-y,1/2+z
1/2-x,1/2+y,z
loop_
_atom_site_type_symbol
_atom_site_label
_atom_site_fract_x
_atom_site_fract_y
_atom_site_fract_z
Si Si1 0.875675 0.640330 0.252150
Si Si2 0.936698 0.793803 0.433266
Si Si3 0.131351 0.546812 0.914907
Si Si4 0.631351 0.546812 0.795761
Si Si5 0.124325 0.140330 0.458518
Si Si6 0.936698 0.706197 0.777402
Si Si7 0.250000 0.113985 0.855334
Si Si8 0.779883 0.250000 0.605334
O O1 0.920277 0.720550 0.291829
O O2 0.879936 0.564271 0.395392
O O3 0.817712 0.694626 0.235132
O O4 0.887150 0.582834 0.089058
O O5 0.901945 0.890064 0.422354
O O6 0.923822 0.750000 0.605334
O O7 0.000000 0.819629 0.412182
O O8 0.098055 0.609936 0.788313
O O9 0.196312 0.552186 0.881695
O O10 0.612850 0.582834 0.621609
O O11 0.696312 0.552186 0.828972
O O12 0.620064 0.435729 0.815276
O O13 0.079723 0.220550 0.418839
O O14 0.182288 0.194626 0.475536
O O15 0.000000 0.680371 0.798486
O O16 0.259307 0.178479 0.698598
O O17 0.240693 0.178479 0.012070
#
# Coordination Sequence:
#
# PCOD8175955 Si02
#       8
#     8   8   8   8   8   8   8   8
#     4  11  22  44  64  97 135 170 224 265 329 389
#     4  11  24  44  68  95 128 170 219 274 332 387
#     4  11  24  40  65  99 130 175 217 267 328 393
#     4  11  24  40  65  99 130 175 217 267 328 393
#     4  11  22  44  64  97 135 170 224 265 329 389
#     4  11  24  44  68  95 128 170 219 274 332 387
#     4  10  22  38  62  98 130 174 216 262 330 392
#     4  10  22  40  63  96 133 180 214 264 330 396
#
# _framework density 22.177083
#
# number of rings (size 3 to 8) (size 9 to 14) (size 15 to 20)
#    0.000    1.250    5.000    1.500    1.750   10.000 
#    0.000    0.000    0.000    0.000    0.000    0.000 
#    0.000    0.000    0.000    0.000    0.000    0.000 
#
# Total GULP energy -396720.040678 kJ/mol
# GULP energy per Si atom -12397.501271 kJ/mol
# Density = 2.212661 g / cm^3
# Si number density = 22.177083 Si / 1000 Ang^3
#
#
#
# Elastic Constant Matrix: (Units=GPa)
#
#
# Indices 1 2 3 4 5 6 
#
# 1 73.6209 19.7332 19.7467 0.0000 0.0000 0.0000
# 2 19.7332 108.2142 5.6691 0.0000 0.0000 0.0000
# 3 19.7467 5.6691 62.1452 0.0000 0.0000 0.0000
# 4 0.0000 0.0000 0.0000 44.9138 0.0000 0.0000
# 5 0.0000 0.0000 0.0000 0.0000 24.1633 0.0000
# 6 0.0000 0.0000 0.0000 0.0000 0.0000 1.1211
#
#
#
# Elastic Compliance Matrix: (Units=1/GPa)
#
#
# Indices 1 2 3 4 5 6 
#
# 1 0.015537 -0.002587 -0.004701 0.000000 0.000000 0.000000
# 2 -0.002587 0.009716 -0.000064 0.000000 0.000000 0.000000
# 3 -0.004701 -0.000064 0.017591 0.000000 0.000000 0.000000
# 4 0.000000 0.000000 0.000000 0.022265 0.000000 0.000000
# 5 0.000000 0.000000 0.000000 0.000000 0.041385 0.000000
# 6 0.000000 0.000000 0.000000 0.000000 0.000000 0.892004
#
#
# Mechanical properties :
#
#
# Convention : Reuss Voigt Hill
#
# Bulk Modulus (GPa) = 35.53694 37.14203 36.33948
# Shear Modulus (GPa) = 4.88958 27.29505 16.09231
#
# Velocity S-wave (km/s) = 1.48646 3.51205 2.69667
# Velocity P-wave (km/s) = 4.35948 5.76457 5.11054
#
# Compressibility (1/GPa) = 0.02813974
#
# Stress axis : x y z
#
# Youngs Moduli (GPa) = 64.36066 102.92251 56.84735
#
# Poissons Ratio (x) = 0.26626 0.26724
# Poissons Ratio (y) = 0.16650 0.00366
# Poissons Ratio (z) = 0.30256 0.00662
#
# Static dielectric constant tensor:
#      x y z
#    x 3.719100 0.000000 0.000000 
#    y 0.000000 4.132990 0.000000 
#    z 0.000000 0.000000 4.161190 
# 
# 
# High freq. dielectric constant tensor:
#      x y z
#    x 1.849580 0.000000 0.000000 
#    y 0.000000 1.884580 0.000000 
#    z 0.000000 0.000000 1.878250 
# 
# From -- ./inp_files/5677.got.cif
#   From: 2010.03.12/outbox.cif.g09.slc.cpg/sg36_3_cif.got.tgz:5677.got - 2010.04.14 02:13:53.
