data_PCOD8175268
_publ_section_title
;
Structure prediction by ZEFSAII (Michael W. Deem and Ramdas Pophale) SiO2 
 PCOD8175268
Probable space group: C M C 21
;
_chemical_formula_sum "Si O2"
_cell_formula_units_Z 64
_cell_length_a 8.923488
_cell_length_b 19.830121
_cell_length_c 19.582975
_cell_angle_alpha 90.000000
_cell_angle_beta 90.000000
_cell_angle_gamma 90.000000
_cell_volume 3465.282758
_symmetry_space_group_name_H-M "C M C 21"
_symmetry_group_IT_number 36
_symmetry_cell_setting 'orthorhombic'
loop_
_space_group_symop_operation_xyz
x,y,z
-x,-y,1/2+z
x,-y,1/2+z
-x,y,z
1/2+x,1/2+y,z
1/2-x,1/2-y,1/2+z
1/2+x,1/2-y,1/2+z
1/2-x,1/2+y,z
loop_
_atom_site_type_symbol
_atom_site_label
_atom_site_fract_x
_atom_site_fract_y
_atom_site_fract_z
Si Si1 0.174631 0.340071 0.643200
Si Si2 0.672280 0.667402 0.753886
Si Si3 0.326825 0.484545 0.270741
Si Si4 0.826889 0.418003 0.023681
Si Si5 0.175727 0.026097 0.118126
Si Si6 0.826550 0.589764 0.365873
Si Si7 0.328065 0.693942 0.599519
Si Si8 0.323227 0.299989 0.783329
O O1 0.240650 0.403620 0.602640
O O2 0.202038 0.274078 0.596763
O O3 0.257082 0.333452 0.715359
O O4 0.000000 0.350229 0.658372
O O5 0.500000 0.689729 0.761591
O O6 0.702306 0.594301 0.785982
O O7 0.713957 0.665630 0.674113
O O8 0.772183 0.722597 0.792970
O O9 0.500000 0.503584 0.283190
O O10 0.280831 0.500458 0.193275
O O11 0.223610 0.525845 0.321695
O O12 0.727299 0.471908 0.063186
O O13 0.777935 0.342481 0.044877
O O14 0.000000 0.428711 0.042165
O O15 0.795911 0.428016 0.944096
O O16 0.000000 0.037313 0.110200
O O17 0.733262 0.656587 0.347335
O O18 0.000000 0.604485 0.351801
O O19 0.500000 0.676961 0.582118
O O20 0.500000 0.303385 0.779045
#
# Coordination Sequence:
#
# PCOD8175268 Si02
#       8
#     8   8   8   8   8   8   8   8
#     4  10  20  35  57  85 116 147 183 233 288 335
#     4   9  18  35  57  83 115 144 179 231 287 336
#     4  10  20  36  59  87 115 147 191 240 289 343
#     4  11  24  39  57  83 116 155 197 237 288 348
#     4  11  21  36  59  88 117 148 193 240 286 342
#     4  11  24  40  57  81 116 157 196 237 288 347
#     4   9  18  35  57  82 113 147 184 232 285 336
#     4  11  21  34  55  85 114 145 189 234 281 339
#
# _framework density 18.468910999999999
#
# number of rings (size 3 to 8) (size 9 to 14) (size 15 to 20)
#    0.000    1.750    2.500    3.375    0.000    5.500 
#    0.000    1.250    0.000    0.000    0.000    0.000 
#    0.000    0.000    0.000    0.000    0.000    0.000 
#
# Total GULP energy -396925.381291 kJ/mol
# GULP energy per Si atom -12403.918165 kJ/mol
# Density = 1.842688 g / cm^3
# Si number density = 18.468911 Si / 1000 Ang^3
#
#
#
# Elastic Constant Matrix: (Units=GPa)
#
#
# Indices 1 2 3 4 5 6 
#
# 1 116.3140 60.1767 54.2213 0.0000 0.0000 0.0000
# 2 60.1767 120.2121 47.6790 0.0000 0.0000 0.0000
# 3 54.2213 47.6790 79.9064 0.0000 0.0000 0.0000
# 4 0.0000 0.0000 0.0000 22.7989 0.0000 0.0000
# 5 0.0000 0.0000 0.0000 0.0000 25.6219 0.0000
# 6 0.0000 0.0000 0.0000 0.0000 0.0000 37.9140
#
#
#
# Elastic Compliance Matrix: (Units=1/GPa)
#
#
# Indices 1 2 3 4 5 6 
#
# 1 0.014068 -0.004265 -0.007001 0.000000 0.000000 0.000000
# 2 -0.004265 0.012191 -0.004380 0.000000 0.000000 0.000000
# 3 -0.007001 -0.004380 0.019878 0.000000 0.000000 0.000000
# 4 0.000000 0.000000 0.000000 0.043862 0.000000 0.000000
# 5 0.000000 0.000000 0.000000 0.000000 0.039029 0.000000
# 6 0.000000 0.000000 0.000000 0.000000 0.000000 0.026375
#
#
# Mechanical properties :
#
#
# Convention : Reuss Voigt Hill
#
# Bulk Modulus (GPa) = 67.36176 71.17628 69.26902
# Shear Modulus (GPa) = 26.09009 27.55731 26.82370
#
# Velocity S-wave (km/s) = 3.76260 3.86695 3.81513
# Velocity P-wave (km/s) = 7.44503 7.65244 7.54945
#
# Compressibility (1/GPa) = 0.01484522
#
# Stress axis : x y z
#
# Youngs Moduli (GPa) = 71.08507 82.02757 50.30601
#
# Poissons Ratio (x) = 0.34989 0.35217
# Poissons Ratio (y) = 0.30321 0.22033
# Poissons Ratio (z) = 0.49764 0.35927
#
# Static dielectric constant tensor:
#      x y z
#    x 3.430410 0.000000 0.000000 
#    y 0.000000 3.609010 0.000000 
#    z 0.000000 0.000000 3.154960 
# 
# 
# High freq. dielectric constant tensor:
#      x y z
#    x 1.724190 0.000000 0.000000 
#    y 0.000000 1.732000 0.000000 
#    z 0.000000 0.000000 1.683600 
# 
# From -- ./inp_files/13920.got.cif
#   From: 2010.03.12/outbox.cif.g09.slc.cpg/sg36_7_cif.got.tgz:13920.got - 2010.04.14 02:13:53.
