data_PCOD8175786
_publ_section_title
;
Structure prediction by ZEFSAII (Michael W. Deem and Ramdas Pophale) SiO2 
 PCOD8175786
Probable space group: C M C 21
;
_chemical_formula_sum "Si O2"
_cell_formula_units_Z 16
_cell_length_a 8.592312
_cell_length_b 17.320619
_cell_length_c 5.059346
_cell_angle_alpha 90.000000
_cell_angle_beta 90.000000
_cell_angle_gamma 90.000000
_cell_volume 752.952931
_symmetry_space_group_name_H-M "C M C 21"
_symmetry_group_IT_number 36
_symmetry_cell_setting 'orthorhombic'
loop_
_space_group_symop_operation_xyz
x,y,z
-x,-y,1/2+z
x,-y,1/2+z
-x,y,z
1/2+x,1/2+y,z
1/2-x,1/2-y,1/2+z
1/2+x,1/2-y,1/2+z
1/2-x,1/2+y,z
loop_
_atom_site_type_symbol
_atom_site_label
_atom_site_fract_x
_atom_site_fract_y
_atom_site_fract_z
Si Si1 0.180060 0.788161 0.199700
Si Si2 0.820046 0.450358 0.170147
O O1 0.278573 0.768094 0.458990
O O2 0.215531 0.875737 0.116626
O O3 0.000000 0.777575 0.267907
O O4 0.778838 0.485033 0.454628
O O5 0.000000 0.425722 0.147479
#
# Coordination Sequence:
#
# PCOD8175786 Si02
#       2
#     8   8
#     4  12  25  42  65  93 127 165 209 258 309 368
#     4  10  21  38  61  89 123 161 201 250 309 368
#
# _framework density 21.249669000000001
#
# number of rings (size 3 to 8) (size 9 to 14) (size 15 to 20)
#    0.000    1.000    0.000    7.500    0.000    6.000 
#    0.000    0.000    0.000    0.000    0.000    0.000 
#    0.000    0.000    0.000    0.000    0.000    0.000 
#
# Total GULP energy -99282.906595 kJ/mol
# GULP energy per Si atom -12410.363324 kJ/mol
# Density = 2.120130 g / cm^3
# Si number density = 21.249669 Si / 1000 Ang^3
#
#
#
# Elastic Constant Matrix: (Units=GPa)
#
#
# Indices 1 2 3 4 5 6 
#
# 1 79.3629 39.1513 17.0972 0.0000 0.0000 0.0000
# 2 39.1513 92.6079 9.3869 0.0000 0.0000 0.0000
# 3 17.0972 9.3869 97.2264 0.0000 0.0000 0.0000
# 4 0.0000 0.0000 0.0000 30.6702 0.0000 0.0000
# 5 0.0000 0.0000 0.0000 0.0000 28.7420 0.0000
# 6 0.0000 0.0000 0.0000 0.0000 0.0000 31.4328
#
#
#
# Elastic Compliance Matrix: (Units=1/GPa)
#
#
# Indices 1 2 3 4 5 6 
#
# 1 0.016388 -0.006702 -0.002235 0.000000 0.000000 0.000000
# 2 -0.006702 0.013646 -0.000139 0.000000 0.000000 0.000000
# 3 -0.002235 -0.000139 0.010692 0.000000 0.000000 0.000000
# 4 0.000000 0.000000 0.000000 0.032605 0.000000 0.000000
# 5 0.000000 0.000000 0.000000 0.000000 0.034792 0.000000
# 6 0.000000 0.000000 0.000000 0.000000 0.000000 0.031814
#
#
# Mechanical properties :
#
#
# Convention : Reuss Voigt Hill
#
# Bulk Modulus (GPa) = 44.29822 44.49643 44.39733
# Shear Modulus (GPa) = 30.19111 31.73980 30.96545
#
# Velocity S-wave (km/s) = 3.77341 3.86898 3.82150
# Velocity P-wave (km/s) = 6.31480 6.39875 6.35691
#
# Compressibility (1/GPa) = 0.02257427
#
# Stress axis : x y z
#
# Youngs Moduli (GPa) = 61.02084 73.28407 93.53079
#
# Poissons Ratio (x) = 0.49113 0.20902
# Poissons Ratio (y) = 0.40894 0.01300
# Poissons Ratio (z) = 0.13637 0.01018
#
# Static dielectric constant tensor:
#      x y z
#    x 3.718650 0.000000 0.000000 
#    y 0.000000 3.689540 0.000000 
#    z 0.000000 0.000000 3.937620 
# 
# 
# High freq. dielectric constant tensor:
#      x y z
#    x 1.825190 0.000000 0.000000 
#    y 0.000000 1.842450 0.000000 
#    z 0.000000 0.000000 1.848140 
# 
# From -- ./inp_files/4.got.cif
#   From: 2010.03.12/outbox.cif.g09.slc.cpg/sg36_1_cif.got.tgz:4.got - 2010.04.14 02:13:53.
