data_PCOD8175495
_publ_section_title
;
Structure prediction by ZEFSAII (Michael W. Deem and Ramdas Pophale) SiO2 
 PCOD8175495
Probable space group: C M C 21
;
_chemical_formula_sum "Si O2"
_cell_formula_units_Z 52
_cell_length_a 7.569785
_cell_length_b 14.064126
_cell_length_c 26.349785
_cell_angle_alpha 90.000000
_cell_angle_beta 90.000000
_cell_angle_gamma 90.000000
_cell_volume 2805.261615
_symmetry_space_group_name_H-M "C M C 21"
_symmetry_group_IT_number 36
_symmetry_cell_setting 'orthorhombic'
loop_
_space_group_symop_operation_xyz
x,y,z
-x,-y,1/2+z
x,-y,1/2+z
-x,y,z
1/2+x,1/2+y,z
1/2-x,1/2-y,1/2+z
1/2+x,1/2-y,1/2+z
1/2-x,1/2+y,z
loop_
_atom_site_type_symbol
_atom_site_label
_atom_site_fract_x
_atom_site_fract_y
_atom_site_fract_z
Si Si1 0.000000 0.015359 0.418320
Si Si2 0.803027 0.851442 0.461860
Si Si3 0.210746 0.266717 0.159258
Si Si4 0.000000 0.772284 0.915332
Si Si5 0.706895 0.625629 0.074177
Si Si6 0.797289 0.380742 0.737728
Si Si7 0.205767 0.522632 0.652124
Si Si8 0.500000 0.616419 0.319770
O O1 0.000000 0.024060 0.356864
O O2 0.000000 0.122628 0.442187
O O3 0.174609 0.956720 0.436537
O O4 0.675940 0.785280 0.429102
O O5 0.714856 0.863481 0.517655
O O6 0.000000 0.803888 0.464372
O O7 0.284572 0.206992 0.111206
O O8 0.283632 0.222503 0.211456
O O9 0.289988 0.372606 0.154670
O O10 0.000000 0.264774 0.159909
O O11 0.000000 0.787951 0.854352
O O12 0.500000 0.635307 0.069226
O O13 0.753685 0.522672 0.097288
O O14 0.718673 0.457178 0.697449
O O15 0.678181 0.385019 0.787370
O O16 0.000000 0.401226 0.753248
O O17 0.000000 0.531511 0.660515
#
# Coordination Sequence:
#
# PCOD8175495 Si02
#       8
#     4   8   8   4   8   8   8   4
#     4   8  22  44  58  90 122 148 213 259 296 372
#     4   9  20  42  60  89 124 155 205 257 300 372
#     4   9  17  34  54  84 122 152 190 236 283 365
#     4  10  22  42  65  84 117 164 198 263 317 341
#     4   9  18  32  56  79 119 156 183 238 297 338
#     4  10  20  38  57  81 115 155 191 243 302 349
#     4   9  19  32  52  85 119 151 194 230 285 368
#     4  10  22  44  57  82 117 152 201 262 305 351
#
# _framework density 18.536595999999999
#
# number of rings (size 3 to 8) (size 9 to 14) (size 15 to 20)
#    0.923    1.846    0.769    0.000    2.154    2.462 
#    5.538    0.000    0.000    0.000    0.000    0.000 
#    0.000    0.000    0.000    0.000    0.000    0.000 
#
# Total GULP energy -322197.761616 kJ/mol
# GULP energy per Si atom -12392.221601 kJ/mol
# Density = 1.849441 g / cm^3
# Si number density = 18.536596 Si / 1000 Ang^3
#
#
#
# Elastic Constant Matrix: (Units=GPa)
#
#
# Indices 1 2 3 4 5 6 
#
# 1 69.3610 32.2376 39.9127 0.0000 0.0000 0.0000
# 2 32.2376 131.1199 54.8530 0.0000 0.0000 0.0000
# 3 39.9127 54.8530 139.8220 0.0000 0.0000 0.0000
# 4 0.0000 0.0000 0.0000 24.3245 0.0000 0.0000
# 5 0.0000 0.0000 0.0000 0.0000 23.6502 0.0000
# 6 0.0000 0.0000 0.0000 0.0000 0.0000 23.1801
#
#
#
# Elastic Compliance Matrix: (Units=1/GPa)
#
#
# Indices 1 2 3 4 5 6 
#
# 1 0.018031 -0.002728 -0.004077 0.000000 0.000000 0.000000
# 2 -0.002728 0.009537 -0.002963 0.000000 0.000000 0.000000
# 3 -0.004077 -0.002963 0.009478 0.000000 0.000000 0.000000
# 4 0.000000 0.000000 0.000000 0.041111 0.000000 0.000000
# 5 0.000000 0.000000 0.000000 0.000000 0.042283 0.000000
# 6 0.000000 0.000000 0.000000 0.000000 0.000000 0.043140
#
#
# Mechanical properties :
#
#
# Convention : Reuss Voigt Hill
#
# Bulk Modulus (GPa) = 57.10627 66.03438 61.57033
# Shear Modulus (GPa) = 26.46179 28.45091 27.45635
#
# Velocity S-wave (km/s) = 3.78238 3.92197 3.85281
# Velocity P-wave (km/s) = 7.06749 7.49735 7.28559
#
# Compressibility (1/GPa) = 0.01751121
#
# Stress axis : x y z
#
# Youngs Moduli (GPa) = 55.45968 104.85870 105.50728
#
# Poissons Ratio (x) = 0.28601 0.43015
# Poissons Ratio (y) = 0.15127 0.31258
# Poissons Ratio (z) = 0.22611 0.31066
#
# Static dielectric constant tensor:
#      x y z
#    x 3.168810 0.000000 0.000000 
#    y 0.000000 3.546850 0.000000 
#    z 0.000000 0.000000 3.430990 
# 
# 
# High freq. dielectric constant tensor:
#      x y z
#    x 1.711150 0.000000 0.000000 
#    y 0.000000 1.712460 0.000000 
#    z 0.000000 0.000000 1.709270 
# 
# From -- ./inp_files/16497.got.cif
#   From: 2010.03.12/outbox.cif.g09.slc.cpg/sg36_9_cif.got.tgz:16497.got - 2010.04.14 02:13:53.
