data_PCOD8175110
_publ_section_title
;
Structure prediction by ZEFSAII (Michael W. Deem and Ramdas Pophale) SiO2 
 PCOD8175110
Probable space group: C M C 21
;
_chemical_formula_sum "Si O2"
_cell_formula_units_Z 64
_cell_length_a 9.679800
_cell_length_b 20.026891
_cell_length_c 19.607872
_cell_angle_alpha 90.000000
_cell_angle_beta 90.000000
_cell_angle_gamma 90.000000
_cell_volume 3801.109507
_symmetry_space_group_name_H-M "C M C 21"
_symmetry_group_IT_number 36
_symmetry_cell_setting 'orthorhombic'
loop_
_space_group_symop_operation_xyz
x,y,z
-x,-y,1/2+z
x,-y,1/2+z
-x,y,z
1/2+x,1/2+y,z
1/2-x,1/2-y,1/2+z
1/2+x,1/2-y,1/2+z
1/2-x,1/2+y,z
loop_
_atom_site_type_symbol
_atom_site_label
_atom_site_fract_x
_atom_site_fract_y
_atom_site_fract_z
Si Si1 0.657771 0.541723 0.572310
Si Si2 0.842230 0.458276 0.390437
Si Si3 0.662109 0.332837 0.163674
Si Si4 0.159482 0.922370 0.918282
Si Si5 0.163585 0.773062 0.909133
Si Si6 0.337891 0.167163 0.799073
Si Si7 0.340519 0.922369 0.544465
Si Si8 0.836414 0.273061 0.553613
O O1 0.500000 0.518093 0.577092
O O2 0.692732 0.595973 0.629409
O O3 0.688310 0.574317 0.498982
O O4 0.752315 0.477126 0.585190
O O5 0.747684 0.522873 0.377557
O O6 0.807267 0.404026 0.333339
O O7 0.811697 0.425683 0.463766
O O8 0.000000 0.481905 0.385651
O O9 0.500000 0.324646 0.179938
O O10 0.750000 0.327167 0.231373
O O11 0.716805 0.274395 0.113933
O O12 0.206262 0.849260 0.892939
O O13 0.000000 0.936102 0.901652
O O14 0.216804 0.725607 0.848813
O O15 0.000000 0.766518 0.914992
O O16 0.228892 0.750000 0.981373
O O17 0.500000 0.175354 0.782808
O O18 0.500000 0.936100 0.561098
O O19 0.293738 0.849259 0.569807
O O20 0.000000 0.266516 0.547754
#
# Coordination Sequence:
#
# PCOD8175110 Si02
#       8
#     8   8   8   8   8   8   8   8
#     4   9  17  30  48  72 100 128 158 200 248 293
#     4   9  17  30  48  72 100 128 158 200 248 293
#     4  10  20  34  52  73 100 134 169 205 248 299
#     4   9  16  28  51  77  97 121 161 207 246 287
#     4   9  15  29  53  76  96 126 169 208 244 293
#     4  10  20  34  52  73 100 134 169 205 248 299
#     4   9  16  28  51  77  97 121 161 207 246 287
#     4   9  15  29  53  76  96 126 169 208 244 293
#
# _framework density 16.83719
#
# number of rings (size 3 to 8) (size 9 to 14) (size 15 to 20)
#    0.000    2.750    2.500    0.000    0.000    1.000 
#    0.000    2.500    0.000    7.500    0.000    0.000 
#    0.000    0.000    0.000    0.000    0.000    0.000 
#
# Total GULP energy -396767.441013 kJ/mol
# GULP energy per Si atom -12398.982532 kJ/mol
# Density = 1.679887 g / cm^3
# Si number density = 16.837190 Si / 1000 Ang^3
#
#
#
# Elastic Constant Matrix: (Units=GPa)
#
#
# Indices 1 2 3 4 5 6 
#
# 1 55.4610 63.1816 48.4721 0.0000 0.0000 0.0000
# 2 63.1816 146.0556 76.4178 0.0000 0.0000 0.0000
# 3 48.4721 76.4178 107.4719 0.0000 0.0000 0.0000
# 4 0.0000 0.0000 0.0000 23.6095 0.0000 0.0000
# 5 0.0000 0.0000 0.0000 0.0000 27.6225 0.0000
# 6 0.0000 0.0000 0.0000 0.0000 0.0000 25.9086
#
#
#
# Elastic Compliance Matrix: (Units=1/GPa)
#
#
# Indices 1 2 3 4 5 6 
#
# 1 0.040636 -0.012722 -0.009281 0.000000 0.000000 0.000000
# 2 -0.012722 0.014886 -0.004847 0.000000 0.000000 0.000000
# 3 -0.009281 -0.004847 0.016937 0.000000 0.000000 0.000000
# 4 0.000000 0.000000 0.000000 0.042356 0.000000 0.000000
# 5 0.000000 0.000000 0.000000 0.000000 0.036202 0.000000
# 6 0.000000 0.000000 0.000000 0.000000 0.000000 0.038597
#
#
# Mechanical properties :
#
#
# Convention : Reuss Voigt Hill
#
# Bulk Modulus (GPa) = 53.31012 76.12572 64.71792
# Shear Modulus (GPa) = 20.03460 23.48926 21.76193
#
# Velocity S-wave (km/s) = 3.45324 3.73913 3.59902
# Velocity P-wave (km/s) = 6.90150 7.99703 7.46937
#
# Compressibility (1/GPa) = 0.01875817
#
# Stress axis : x y z
#
# Youngs Moduli (GPa) = 24.60872 67.17686 59.04204
#
# Poissons Ratio (x) = 0.85465 0.54799
# Poissons Ratio (y) = 0.31308 0.28616
# Poissons Ratio (z) = 0.22840 0.32558
#
# Static dielectric constant tensor:
#      x y z
#    x 2.919530 0.000000 0.000000 
#    y 0.000000 3.371780 0.000000 
#    z 0.000000 0.000000 2.958010 
# 
# 
# High freq. dielectric constant tensor:
#      x y z
#    x 1.620350 0.000000 0.000000 
#    y 0.000000 1.663180 0.000000 
#    z 0.000000 0.000000 1.626870 
# 
# From -- ./inp_files/11783.got.cif
#   From: 2010.03.12/outbox.cif.g09.slc.cpg/sg36_6_cif.got.tgz:11783.got - 2010.04.14 02:13:53.
