data_PCOD8175572
_publ_section_title
;
Structure prediction by ZEFSAII (Michael W. Deem and Ramdas Pophale) SiO2 
 PCOD8175572
Probable space group: C M C 21
;
_chemical_formula_sum "Si O2"
_cell_formula_units_Z 64
_cell_length_a 22.945277
_cell_length_b 14.958291
_cell_length_c 8.701115
_cell_angle_alpha 90.000000
_cell_angle_beta 90.000000
_cell_angle_gamma 90.000000
_cell_volume 2986.415228
_symmetry_space_group_name_H-M "C M C 21"
_symmetry_group_IT_number 36
_symmetry_cell_setting 'orthorhombic'
loop_
_space_group_symop_operation_xyz
x,y,z
-x,-y,1/2+z
x,-y,1/2+z
-x,y,z
1/2+x,1/2+y,z
1/2-x,1/2-y,1/2+z
1/2+x,1/2-y,1/2+z
1/2-x,1/2+y,z
loop_
_atom_site_type_symbol
_atom_site_label
_atom_site_fract_x
_atom_site_fract_y
_atom_site_fract_z
Si Si1 0.106779 0.931569 0.871080
Si Si2 0.854761 0.612566 0.896666
Si Si3 0.270449 0.629924 0.290930
Si Si4 0.113839 0.250564 0.889926
Si Si5 0.933850 0.098575 0.699908
Si Si6 0.146305 0.568711 0.243651
Si Si7 0.066205 0.754342 0.731883
Si Si8 0.239522 0.206439 0.962060
O O1 0.172654 0.930378 0.807522
O O2 0.068340 0.855910 0.789574
O O3 0.080059 0.027835 0.833640
O O4 0.107410 0.918683 0.054196
O O5 0.874134 0.530240 0.789373
O O6 0.891706 0.697363 0.841577
O O7 0.785421 0.634729 0.892695
O O8 0.871916 0.587632 0.069710
O O9 0.215470 0.565226 0.274478
O O10 0.265796 0.694147 0.439592
O O11 0.272336 0.694022 0.142128
O O12 0.074052 0.197677 0.769050
O O13 0.116704 0.354813 0.846385
O O14 0.177132 0.202632 0.877267
O O15 0.087136 0.247679 0.057904
O O16 0.000000 0.089022 0.643540
O O17 0.000000 0.719036 0.743516
#
# Coordination Sequence:
#
# PCOD8175572 Si02
#       8
#     8   8   8   8   8   8   8   8
#     4  12  25  44  65  97 132 174 229 273 337 400
#     4  11  22  42  65  99 136 175 222 275 341 393
#     4  10  22  38  65 101 130 175 212 271 342 406
#     4  11  23  43  68  99 130 176 226 277 342 396
#     4  12  27  44  65  93 135 183 230 281 330 396
#     4  10  24  40  67  96 139 169 218 279 340 404
#     4  12  24  44  71  97 134 180 226 276 333 401
#     4  10  20  39  64  98 134 168 216 276 331 408
#
# _framework density 21.430375999999999
#
# number of rings (size 3 to 8) (size 9 to 14) (size 15 to 20)
#    0.000    1.000    2.500    3.750    5.250    2.000 
#    0.000    3.750    0.000    0.000    0.000    0.000 
#    0.000    0.000    0.000    0.000    0.000    0.000 
#
# Total GULP energy -396903.698027 kJ/mol
# GULP energy per Si atom -12403.240563 kJ/mol
# Density = 2.138160 g / cm^3
# Si number density = 21.430376 Si / 1000 Ang^3
#
#
#
# Elastic Constant Matrix: (Units=GPa)
#
#
# Indices 1 2 3 4 5 6 
#
# 1 97.0129 28.0235 29.3748 0.0000 0.0000 0.0000
# 2 28.0235 66.6629 11.9761 0.0000 0.0000 0.0000
# 3 29.3748 11.9761 96.6892 0.0000 0.0000 0.0000
# 4 0.0000 0.0000 0.0000 38.2482 0.0000 0.0000
# 5 0.0000 0.0000 0.0000 0.0000 25.3351 0.0000
# 6 0.0000 0.0000 0.0000 0.0000 0.0000 24.0558
#
#
#
# Elastic Compliance Matrix: (Units=1/GPa)
#
#
# Indices 1 2 3 4 5 6 
#
# 1 0.012664 -0.004738 -0.003260 0.000000 0.000000 0.000000
# 2 -0.004738 0.017115 -0.000680 0.000000 0.000000 0.000000
# 3 -0.003260 -0.000680 0.011417 0.000000 0.000000 0.000000
# 4 0.000000 0.000000 0.000000 0.026145 0.000000 0.000000
# 5 0.000000 0.000000 0.000000 0.000000 0.039471 0.000000
# 6 0.000000 0.000000 0.000000 0.000000 0.000000 0.041570
#
#
# Mechanical properties :
#
#
# Convention : Reuss Voigt Hill
#
# Bulk Modulus (GPa) = 41.94947 44.34598 43.14773
# Shear Modulus (GPa) = 28.78768 30.26052 29.52410
#
# Velocity S-wave (km/s) = 3.66910 3.76179 3.71573
# Velocity P-wave (km/s) = 6.12919 6.29333 6.21180
#
# Compressibility (1/GPa) = 0.02383820
#
# Stress axis : x y z
#
# Youngs Moduli (GPa) = 78.96563 58.42911 87.58669
#
# Poissons Ratio (x) = 0.27682 0.28558
# Poissons Ratio (y) = 0.37412 0.05960
# Poissons Ratio (z) = 0.25747 0.03976
#
# Static dielectric constant tensor:
#      x y z
#    x 3.905280 0.000000 0.000000 
#    y 0.000000 3.823410 0.000000 
#    z 0.000000 0.000000 3.871360 
# 
# 
# High freq. dielectric constant tensor:
#      x y z
#    x 1.835280 0.000000 0.000000 
#    y 0.000000 1.837610 0.000000 
#    z 0.000000 0.000000 1.849250 
# 
# From -- ./inp_files/5670.got.cif
#   From: 2010.03.12/outbox.cif.g09.slc.cpg/sg36_3_cif.got.tgz:5670.got - 2010.04.14 02:13:53.
