data_PCOD8175756
_publ_section_title
;
Structure prediction by ZEFSAII (Michael W. Deem and Ramdas Pophale) SiO2 
 PCOD8175756
Probable space group: C M C 21
;
_chemical_formula_sum "Si O2"
_cell_formula_units_Z 48
_cell_length_a 28.517928
_cell_length_b 15.981087
_cell_length_c 5.025846
_cell_angle_alpha 90.000000
_cell_angle_beta 90.000000
_cell_angle_gamma 90.000000
_cell_volume 2290.516692
_symmetry_space_group_name_H-M "C M C 21"
_symmetry_group_IT_number 36
_symmetry_cell_setting 'orthorhombic'
loop_
_space_group_symop_operation_xyz
x,y,z
-x,-y,1/2+z
x,-y,1/2+z
-x,y,z
1/2+x,1/2+y,z
1/2-x,1/2-y,1/2+z
1/2+x,1/2-y,1/2+z
1/2-x,1/2+y,z
loop_
_atom_site_type_symbol
_atom_site_label
_atom_site_fract_x
_atom_site_fract_y
_atom_site_fract_z
Si Si1 0.266656 0.199028 0.583870
Si Si2 0.625232 0.205331 0.637586
Si Si3 0.698232 0.556665 0.679444
Si Si4 0.946711 0.444428 0.159337
Si Si5 0.944788 0.047579 0.477098
Si Si6 0.115616 0.188494 0.641838
O O1 0.245848 0.233054 0.307798
O O2 0.321953 0.183494 0.552824
O O3 0.246375 0.107611 0.648105
O O4 0.590827 0.127394 0.604072
O O5 0.607334 0.277784 0.438658
O O6 0.625523 0.235308 0.942196
O O7 0.695431 0.480113 0.474931
O O8 0.657066 0.621994 0.630080
O O9 0.938484 0.480522 0.452666
O O10 0.000000 0.409055 0.130823
O O11 0.931268 0.142535 0.542027
O O12 0.000000 0.042299 0.473497
O O13 0.923682 0.984049 0.698331
#
# Coordination Sequence:
#
# PCOD8175756 Si02
#       6
#     8   8   8   8   8   8
#     4  12  23  44  62  87 130 168 206 268 323 367
#     4  12  24  40  68  92 124 170 206 253 329 381
#     4  12  24  39  63  90 119 162 211 252 307 373
#     4  10  23  44  68  96 131 165 210 272 328 383
#     4  10  21  38  58  84 122 165 204 250 300 352
#     4  12  23  39  61  93 126 162 205 259 307 374
#
# _framework density 20.955971000000002
#
# number of rings (size 3 to 8) (size 9 to 14) (size 15 to 20)
#    0.000    0.667    3.333    5.000    0.000    2.667 
#    0.000    0.000    0.000    0.000    0.000    0.000 
#    0.000    0.000    0.000    0.000    0.000    0.000 
#
# Total GULP energy -297720.346862 kJ/mol
# GULP energy per Si atom -12405.014453 kJ/mol
# Density = 2.090827 g / cm^3
# Si number density = 20.955971 Si / 1000 Ang^3
#
#
#
# Elastic Constant Matrix: (Units=GPa)
#
#
# Indices 1 2 3 4 5 6 
#
# 1 83.7626 45.5020 18.4979 0.0000 0.0000 0.0000
# 2 45.5020 87.6487 8.5314 0.0000 0.0000 0.0000
# 3 18.4979 8.5314 68.3431 0.0000 0.0000 0.0000
# 4 0.0000 0.0000 0.0000 39.4321 0.0000 0.0000
# 5 0.0000 0.0000 0.0000 0.0000 22.2815 0.0000
# 6 0.0000 0.0000 0.0000 0.0000 0.0000 37.8713
#
#
#
# Elastic Compliance Matrix: (Units=1/GPa)
#
#
# Indices 1 2 3 4 5 6 
#
# 1 0.017480 -0.008720 -0.003643 0.000000 0.000000 0.000000
# 2 -0.008720 0.015900 0.000375 0.000000 0.000000 0.000000
# 3 -0.003643 0.000375 0.015571 0.000000 0.000000 0.000000
# 4 0.000000 0.000000 0.000000 0.025360 0.000000 0.000000
# 5 0.000000 0.000000 0.000000 0.000000 0.044880 0.000000
# 6 0.000000 0.000000 0.000000 0.000000 0.000000 0.026405
#
#
# Mechanical properties :
#
#
# Convention : Reuss Voigt Hill
#
# Bulk Modulus (GPa) = 40.03817 42.75743 41.39780
# Shear Modulus (GPa) = 28.10638 31.06519 29.58579
#
# Velocity S-wave (km/s) = 3.66623 3.85438 3.76148
# Velocity P-wave (km/s) = 6.08843 6.34476 6.21792
#
# Compressibility (1/GPa) = 0.02497617
#
# Stress axis : x y z
#
# Youngs Moduli (GPa) = 57.20890 62.89506 64.22146
#
# Poissons Ratio (x) = 0.54844 0.23393
# Poissons Ratio (y) = 0.49886 -0.02411
# Poissons Ratio (z) = 0.20839 -0.02361
#
# Static dielectric constant tensor:
#      x y z
#    x 3.926260 0.000000 0.000000 
#    y 0.000000 3.826320 0.000000 
#    z 0.000000 0.000000 4.102500 
# 
# 
# High freq. dielectric constant tensor:
#      x y z
#    x 1.825200 0.000000 0.000000 
#    y 0.000000 1.812330 0.000000 
#    z 0.000000 0.000000 1.842460 
# 
# From -- ./inp_files/1724.got.cif
#   From: 2010.03.12/outbox.cif.g09.slc.cpg/sg36_1_cif.got.tgz:1724.got - 2010.04.14 02:13:53.
