data_PCOD8175131
_publ_section_title
;
Structure prediction by ZEFSAII (Michael W. Deem and Ramdas Pophale) SiO2 
 PCOD8175131
Probable space group: C M C 21
;
_chemical_formula_sum "Si O2"
_cell_formula_units_Z 64
_cell_length_a 19.787499
_cell_length_b 19.896979
_cell_length_c 8.990623
_cell_angle_alpha 90.000000
_cell_angle_beta 90.000000
_cell_angle_gamma 90.000000
_cell_volume 3539.711236
_symmetry_space_group_name_H-M "C M C 21"
_symmetry_group_IT_number 36
_symmetry_cell_setting 'orthorhombic'
loop_
_space_group_symop_operation_xyz
x,y,z
-x,-y,1/2+z
x,-y,1/2+z
-x,y,z
1/2+x,1/2+y,z
1/2-x,1/2-y,1/2+z
1/2+x,1/2-y,1/2+z
1/2-x,1/2+y,z
loop_
_atom_site_type_symbol
_atom_site_label
_atom_site_fract_x
_atom_site_fract_y
_atom_site_fract_z
Si Si1 0.923776 0.567469 0.667010
Si Si2 0.176957 0.829061 0.015264
Si Si3 0.176957 0.829061 0.667907
Si Si4 0.423776 0.932531 0.516161
Si Si5 0.685465 0.174368 0.668547
Si Si6 0.921458 0.931086 0.515485
Si Si7 0.078542 0.068915 0.667687
Si Si8 0.314534 0.825632 0.514624
O O1 0.895751 0.500000 0.591585
O O2 0.877730 0.629664 0.617656
O O3 0.000000 0.582979 0.612990
O O4 0.920923 0.556209 0.841585
O O5 0.250428 0.850408 0.074410
O O6 0.119012 0.869024 0.100192
O O7 0.165257 0.750717 0.050344
O O8 0.172344 0.845360 0.841586
O O9 0.165257 0.750717 0.632828
O O10 0.119012 0.869024 0.582981
O O11 0.250428 0.850408 0.608761
O O12 0.500000 0.917021 0.570181
O O13 0.377730 0.870336 0.565515
O O14 0.703259 0.165232 0.841586
O O15 0.906421 0.936788 0.341586
O O16 0.000000 0.917938 0.549000
O O17 0.897022 0.000000 0.591586
O O18 0.000000 0.082063 0.634171
#
# Coordination Sequence:
#
# PCOD8175131 Si02
#       8
#     8   8   8   8   8   8   8   8
#     4   9  18  33  52  74 100 131 168 209 252 298
#     4  10  20  34  54  78 104 136 173 214 259 306
#     4  10  20  34  54  78 104 136 173 214 259 306
#     4   9  18  33  52  74 100 131 168 209 252 298
#     4   9  19  35  53  74 104 140 175 212 254 305
#     4  10  21  37  56  78 105 136 171 213 260 312
#     4  10  21  37  56  78 105 136 171 213 260 312
#     4   9  19  35  53  74 104 140 175 212 254 305
#
# _framework density 18.080570000000002
#
# number of rings (size 3 to 8) (size 9 to 14) (size 15 to 20)
#    0.000    2.500    0.000    1.500    0.000    5.500 
#    0.000    5.000    0.000    3.000    0.000    0.000 
#    0.000    0.000    0.000    0.000    0.000    0.000 
#
# Total GULP energy -396908.992869 kJ/mol
# GULP energy per Si atom -12403.406027 kJ/mol
# Density = 1.803942 g / cm^3
# Si number density = 18.080570 Si / 1000 Ang^3
#
#
#
# Elastic Constant Matrix: (Units=GPa)
#
#
# Indices 1 2 3 4 5 6 
#
# 1 104.5888 78.6029 54.0653 0.0000 0.0000 0.0000
# 2 78.6029 109.3821 51.1680 0.0000 0.0000 0.0000
# 3 54.0653 51.1680 80.0616 0.0000 0.0000 0.0000
# 4 0.0000 0.0000 0.0000 34.2655 0.0000 0.0000
# 5 0.0000 0.0000 0.0000 0.0000 27.6357 0.0000
# 6 0.0000 0.0000 0.0000 0.0000 0.0000 30.9482
#
#
#
# Elastic Compliance Matrix: (Units=1/GPa)
#
#
# Indices 1 2 3 4 5 6 
#
# 1 0.023378 -0.013430 -0.007204 0.000000 0.000000 0.000000
# 2 -0.013430 0.020756 -0.004196 0.000000 0.000000 0.000000
# 3 -0.007204 -0.004196 0.020037 0.000000 0.000000 0.000000
# 4 0.000000 0.000000 0.000000 0.029184 0.000000 0.000000
# 5 0.000000 0.000000 0.000000 0.000000 0.036185 0.000000
# 6 0.000000 0.000000 0.000000 0.000000 0.000000 0.032312
#
#
# Mechanical properties :
#
#
# Convention : Reuss Voigt Hill
#
# Bulk Modulus (GPa) = 68.91297 73.52275 71.21786
# Shear Modulus (GPa) = 23.11067 25.91631 24.51349
#
# Velocity S-wave (km/s) = 3.57908 3.79011 3.68610
# Velocity P-wave (km/s) = 7.43484 7.73986 7.58888
#
# Compressibility (1/GPa) = 0.01451106
#
# Stress axis : x y z
#
# Youngs Moduli (GPa) = 42.77438 48.17876 49.90720
#
# Poissons Ratio (x) = 0.64704 0.35954
# Poissons Ratio (y) = 0.57445 0.20942
# Poissons Ratio (z) = 0.30816 0.20217
#
# Static dielectric constant tensor:
#      x y z
#    x 3.409620 0.000000 0.000000 
#    y 0.000000 3.381890 0.000000 
#    z 0.000000 0.000000 3.376740 
# 
# 
# High freq. dielectric constant tensor:
#      x y z
#    x 1.700520 0.000000 0.000000 
#    y 0.000000 1.702240 0.000000 
#    z 0.000000 0.000000 1.705570 
# 
# From -- ./inp_files/4950.got.cif
#   From: 2010.03.12/outbox.cif.g09.slc.cpg/sg36_3_cif.got.tgz:4950.got - 2010.04.14 02:13:53.
