data_PCOD8175284
_publ_section_title
;
Structure prediction by ZEFSAII (Michael W. Deem and Ramdas Pophale) SiO2 
 PCOD8175284
Probable space group: C M C 21
;
_chemical_formula_sum "Si O2"
_cell_formula_units_Z 48
_cell_length_a 9.224857
_cell_length_b 14.982724
_cell_length_c 18.508749
_cell_angle_alpha 90.000000
_cell_angle_beta 90.000000
_cell_angle_gamma 90.000000
_cell_volume 2558.158728
_symmetry_space_group_name_H-M "C M C 21"
_symmetry_group_IT_number 36
_symmetry_cell_setting 'orthorhombic'
loop_
_space_group_symop_operation_xyz
x,y,z
-x,-y,1/2+z
x,-y,1/2+z
-x,y,z
1/2+x,1/2+y,z
1/2-x,1/2-y,1/2+z
1/2+x,1/2-y,1/2+z
1/2-x,1/2+y,z
loop_
_atom_site_type_symbol
_atom_site_label
_atom_site_fract_x
_atom_site_fract_y
_atom_site_fract_z
Si Si1 0.168215 0.668871 0.923820
Si Si2 0.833510 0.505282 0.823493
Si Si3 0.665857 0.161357 0.593278
Si Si4 0.668615 0.153781 0.428733
Si Si5 0.329000 0.516059 0.676988
Si Si6 0.832092 0.862653 0.567212
O O1 0.191680 0.602427 0.857195
O O2 0.240413 0.761929 0.900816
O O3 0.000000 0.684272 0.940506
O O4 0.239549 0.626393 0.994882
O O5 0.787927 0.431550 0.882160
O O6 0.732425 0.492252 0.754977
O O7 0.000000 0.492558 0.800204
O O8 0.500000 0.136976 0.610933
O O9 0.706901 0.132511 0.511867
O O10 0.766911 0.109844 0.649330
O O11 0.694704 0.266472 0.603699
O O12 0.500000 0.179014 0.422141
O O13 0.500000 0.524138 0.682830
O O14 0.280609 0.437540 0.623099
O O15 0.000000 0.873429 0.545880
#
# Coordination Sequence:
#
# PCOD8175284 Si02
#       6
#     8   8   8   8   8   8
#     4  10  20  35  58  84 106 135 178 222 264 314
#     4  10  22  38  54  76 110 148 178 210 264 326
#     4   9  18  36  59  79 105 140 174 214 267 322
#     4   9  19  37  59  81 106 139 178 219 265 316
#     4  11  23  36  53  80 110 141 180 223 263 307
#     4   9  20  38  57  78 107 141 176 218 267 315
#
# _framework density 18.763496
#
# number of rings (size 3 to 8) (size 9 to 14) (size 15 to 20)
#    0.000    2.333    0.000    3.000    0.000    8.667 
#    0.000    5.000    0.000    0.000    0.000    0.000 
#    0.000    0.000    0.000    0.000    0.000    0.000 
#
# Total GULP energy -297699.194081 kJ/mol
# GULP energy per Si atom -12404.133087 kJ/mol
# Density = 1.872079 g / cm^3
# Si number density = 18.763496 Si / 1000 Ang^3
#
#
#
# Elastic Constant Matrix: (Units=GPa)
#
#
# Indices 1 2 3 4 5 6 
#
# 1 70.6065 32.2037 32.0431 0.0000 0.0000 0.0000
# 2 32.2037 70.8260 22.2078 0.0000 0.0000 0.0000
# 3 32.0431 22.2078 58.5002 0.0000 0.0000 0.0000
# 4 0.0000 0.0000 0.0000 18.2405 0.0000 0.0000
# 5 0.0000 0.0000 0.0000 0.0000 36.2950 0.0000
# 6 0.0000 0.0000 0.0000 0.0000 0.0000 31.6481
#
#
#
# Elastic Compliance Matrix: (Units=1/GPa)
#
#
# Indices 1 2 3 4 5 6 
#
# 1 0.021450 -0.006889 -0.009134 0.000000 0.000000 0.000000
# 2 -0.006889 0.018239 -0.003150 0.000000 0.000000 0.000000
# 3 -0.009134 -0.003150 0.023293 0.000000 0.000000 0.000000
# 4 0.000000 0.000000 0.000000 0.054823 0.000000 0.000000
# 5 0.000000 0.000000 0.000000 0.000000 0.027552 0.000000
# 6 0.000000 0.000000 0.000000 0.000000 0.000000 0.031598
#
#
# Mechanical properties :
#
#
# Convention : Reuss Voigt Hill
#
# Bulk Modulus (GPa) = 40.59206 41.42687 41.00947
# Shear Modulus (GPa) = 22.36989 24.80192 23.58591
#
# Velocity S-wave (km/s) = 3.45657 3.63963 3.54928
# Velocity P-wave (km/s) = 6.13278 6.30784 6.22093
#
# Compressibility (1/GPa) = 0.02463536
#
# Stress axis : x y z
#
# Youngs Moduli (GPa) = 46.61911 54.82634 42.93129
#
# Poissons Ratio (x) = 0.37771 0.39214
# Poissons Ratio (y) = 0.32117 0.13525
# Poissons Ratio (z) = 0.42582 0.17273
#
# Static dielectric constant tensor:
#      x y z
#    x 3.421730 0.000000 0.000000 
#    y 0.000000 3.505380 0.000000 
#    z 0.000000 0.000000 3.329370 
# 
# 
# High freq. dielectric constant tensor:
#      x y z
#    x 1.729270 0.000000 0.000000 
#    y 0.000000 1.738120 0.000000 
#    z 0.000000 0.000000 1.721240 
# 
# From -- ./inp_files/13473.got.cif
#   From: 2010.03.12/outbox.cif.g09.slc.cpg/sg36_7_cif.got.tgz:13473.got - 2010.04.14 02:13:53.
