data_PCOD8175048
_publ_section_title
;
Structure prediction by ZEFSAII (Michael W. Deem and Ramdas Pophale) SiO2 
 PCOD8175048
Probable space group: C M C 21
;
_chemical_formula_sum "Si O2"
_cell_formula_units_Z 64
_cell_length_a 9.135798
_cell_length_b 22.608296
_cell_length_c 17.832643
_cell_angle_alpha 90.000000
_cell_angle_beta 90.000000
_cell_angle_gamma 90.000000
_cell_volume 3683.240135
_symmetry_space_group_name_H-M "C M C 21"
_symmetry_group_IT_number 36
_symmetry_cell_setting 'orthorhombic'
loop_
_space_group_symop_operation_xyz
x,y,z
-x,-y,1/2+z
x,-y,1/2+z
-x,y,z
1/2+x,1/2+y,z
1/2-x,1/2-y,1/2+z
1/2+x,1/2-y,1/2+z
1/2-x,1/2+y,z
loop_
_atom_site_type_symbol
_atom_site_label
_atom_site_fract_x
_atom_site_fract_y
_atom_site_fract_z
Si Si1 0.337984 0.482231 0.282000
Si Si2 0.671860 0.302001 0.197377
Si Si3 0.829575 0.862353 0.353535
Si Si4 0.325244 0.685204 0.147685
Si Si5 0.162523 0.419532 0.720130
Si Si6 0.340463 0.982663 0.562235
Si Si7 0.160209 0.920302 0.123021
Si Si8 0.824945 0.638882 0.002475
O O1 0.500000 0.501963 0.308121
O O2 0.278881 0.429351 0.334396
O O3 0.231083 0.539052 0.285526
O O4 0.348990 0.458549 0.197862
O O5 0.500000 0.287352 0.184511
O O6 0.698691 0.319563 0.283543
O O7 0.777380 0.248142 0.179444
O O8 0.723801 0.355602 0.142908
O O9 0.731457 0.838573 0.422141
O O10 0.000000 0.861674 0.375832
O O11 0.500000 0.680750 0.141305
O O12 0.267177 0.636305 0.206131
O O13 0.251785 0.677793 0.066370
O O14 0.149009 0.458260 0.645996
O O15 0.000000 0.398284 0.744958
O O16 0.500000 0.999392 0.531685
O O17 0.250322 0.043789 0.560061
O O18 0.274223 0.929856 0.511408
O O19 0.000000 0.912127 0.088243
O O20 0.000000 0.645439 0.010501
#
# Coordination Sequence:
#
# PCOD8175048 Si02
#       8
#     8   8   8   8   8   8   8   8
#     4   8  14  26  44  68  95 120 149 186 230 283
#     4   9  18  33  50  71 100 130 164 206 251 297
#     4   9  18  32  51  74 100 130 162 201 250 302
#     4  11  21  32  49  72  97 130 173 213 250 295
#     4   9  16  27  44  67  94 122 152 191 238 281
#     4   8  15  26  41  64  92 119 147 184 231 279
#     4   8  14  25  44  67  90 118 148 183 229 278
#     4  10  20  33  49  71 100 131 163 204 253 301
#
# _framework density 17.376004999999999
#
# number of rings (size 3 to 8) (size 9 to 14) (size 15 to 20)
#    0.000    3.000    0.000    4.125    0.000    5.000 
#    0.000    2.500    0.000    1.500    0.000    7.000 
#    0.000    0.000    0.000    0.000    0.000    0.000 
#
# Total GULP energy -396551.417988 kJ/mol
# GULP energy per Si atom -12392.231812 kJ/mol
# Density = 1.733646 g / cm^3
# Si number density = 17.376005 Si / 1000 Ang^3
#
#
#
# Elastic Constant Matrix: (Units=GPa)
#
#
# Indices 1 2 3 4 5 6 
#
# 1 107.9433 58.1615 37.7141 0.0000 0.0000 0.0000
# 2 58.1615 100.3778 33.9708 0.0000 0.0000 0.0000
# 3 37.7141 33.9708 55.6687 0.0000 0.0000 0.0000
# 4 0.0000 0.0000 0.0000 15.0603 0.0000 0.0000
# 5 0.0000 0.0000 0.0000 0.0000 21.7438 0.0000
# 6 0.0000 0.0000 0.0000 0.0000 0.0000 31.0133
#
#
#
# Elastic Compliance Matrix: (Units=1/GPa)
#
#
# Indices 1 2 3 4 5 6 
#
# 1 0.014951 -0.006598 -0.006103 0.000000 0.000000 0.000000
# 2 -0.006598 0.015467 -0.004968 0.000000 0.000000 0.000000
# 3 -0.006103 -0.004968 0.025130 0.000000 0.000000 0.000000
# 4 0.000000 0.000000 0.000000 0.066400 0.000000 0.000000
# 5 0.000000 0.000000 0.000000 0.000000 0.045990 0.000000
# 6 0.000000 0.000000 0.000000 0.000000 0.000000 0.032244
#
#
# Mechanical properties :
#
#
# Convention : Reuss Voigt Hill
#
# Bulk Modulus (GPa) = 49.48147 58.18698 53.83422
# Shear Modulus (GPa) = 20.63920 22.50637 21.57278
#
# Velocity S-wave (km/s) = 3.45018 3.60287 3.52735
# Velocity P-wave (km/s) = 6.66411 7.13213 6.90209
#
# Compressibility (1/GPa) = 0.02020959
#
# Stress axis : x y z
#
# Youngs Moduli (GPa) = 66.88313 64.65470 39.79310
#
# Poissons Ratio (x) = 0.42658 0.24286
# Poissons Ratio (y) = 0.44128 0.19771
# Poissons Ratio (z) = 0.40819 0.32123
#
# Static dielectric constant tensor:
#      x y z
#    x 3.452710 0.000000 0.000000 
#    y 0.000000 3.202430 0.000000 
#    z 0.000000 0.000000 2.930370 
# 
# 
# High freq. dielectric constant tensor:
#      x y z
#    x 1.674150 0.000000 0.000000 
#    y 0.000000 1.659300 0.000000 
#    z 0.000000 0.000000 1.629720 
# 
# From -- ./inp_files/14046.got.cif
#   From: 2010.03.12/outbox.cif.g09.slc.cpg/sg36_8_cif.got.tgz:14046.got - 2010.04.14 02:13:53.
