data_PCOD8175610
_publ_section_title
;
Structure prediction by ZEFSAII (Michael W. Deem and Ramdas Pophale) SiO2 
 PCOD8175610
Probable space group: C M C 21
;
_chemical_formula_sum "Si O2"
_cell_formula_units_Z 56
_cell_length_a 18.367486
_cell_length_b 14.809714
_cell_length_c 9.091867
_cell_angle_alpha 90.000000
_cell_angle_beta 90.000000
_cell_angle_gamma 90.000000
_cell_volume 2473.144336
_symmetry_space_group_name_H-M "C M C 21"
_symmetry_group_IT_number 36
_symmetry_cell_setting 'orthorhombic'
loop_
_space_group_symop_operation_xyz
x,y,z
-x,-y,1/2+z
x,-y,1/2+z
-x,y,z
1/2+x,1/2+y,z
1/2-x,1/2-y,1/2+z
1/2+x,1/2-y,1/2+z
1/2-x,1/2+y,z
loop_
_atom_site_type_symbol
_atom_site_label
_atom_site_fract_x
_atom_site_fract_y
_atom_site_fract_z
Si Si1 0.581699 0.537519 0.383080
Si Si2 0.918852 0.622443 0.408673
Si Si3 0.774041 0.417982 0.428201
Si Si4 0.721695 0.423083 0.729602
Si Si5 0.580819 0.375917 0.188253
Si Si6 0.918112 0.550721 0.082583
Si Si7 0.692425 0.249996 0.304066
O O1 0.500000 0.567536 0.335186
O O2 0.641190 0.594168 0.292531
O O3 0.593059 0.431871 0.340140
O O4 0.593103 0.553051 0.556275
O O5 0.909066 0.556130 0.547728
O O6 0.860805 0.703898 0.426090
O O7 0.000000 0.663901 0.408285
O O8 0.904920 0.568363 0.255072
O O9 0.720932 0.452171 0.559318
O O10 0.767884 0.499152 0.311787
O O11 0.856716 0.400192 0.484060
O O12 0.747193 0.322527 0.368529
O O13 0.761633 0.327259 0.727414
O O14 0.500000 0.333501 0.180693
O O15 0.639290 0.295616 0.181759
O O16 0.000000 0.581778 0.035118
#
# Coordination Sequence:
#
# PCOD8175610 Si02
#       7
#     8   8   8   8   8   8   8
#     4  10  22  43  69  97 131 175 222 274 335 400
#     4  10  21  42  70  98 131 174 224 278 336 404
#     4  12  25  44  66 103 134 181 222 286 335 404
#     4  12  26  44  69  97 138 177 227 279 343 399
#     4  10  22  42  70  98 131 176 224 276 337 403
#     4  10  20  42  69  96 131 176 223 269 334 398
#     4  12  25  39  66  99 136 171 228 276 335 400
#
# _framework density 22.643241
#
# number of rings (size 3 to 8) (size 9 to 14) (size 15 to 20)
#    0.000    1.143    4.286    1.286    2.000    0.000 
#    2.571    1.429    0.000    0.000    0.000    0.000 
#    0.000    0.000    0.000    0.000    0.000    0.000 
#
# Total GULP energy -347045.535435 kJ/mol
# GULP energy per Si atom -12394.483408 kJ/mol
# Density = 2.259170 g / cm^3
# Si number density = 22.643241 Si / 1000 Ang^3
#
#
#
# Elastic Constant Matrix: (Units=GPa)
#
#
# Indices 1 2 3 4 5 6 
#
# 1 119.2811 52.5889 -9.0328 0.0000 0.0000 0.0000
# 2 52.5889 120.4882 33.9655 0.0000 0.0000 0.0000
# 3 -9.0328 33.9655 46.3259 0.0000 0.0000 0.0000
# 4 0.0000 0.0000 0.0000 21.1691 0.0000 0.0000
# 5 0.0000 0.0000 0.0000 0.0000 26.5021 0.0000
# 6 0.0000 0.0000 0.0000 0.0000 0.0000 45.8088
#
#
#
# Elastic Compliance Matrix: (Units=1/GPa)
#
#
# Indices 1 2 3 4 5 6 
#
# 1 0.012370 -0.007663 0.008030 0.000000 0.000000 0.000000
# 2 -0.007663 0.015209 -0.012645 0.000000 0.000000 0.000000
# 3 0.008030 -0.012645 0.032423 0.000000 0.000000 0.000000
# 4 0.000000 0.000000 0.000000 0.047239 0.000000 0.000000
# 5 0.000000 0.000000 0.000000 0.000000 0.037733 0.000000
# 6 0.000000 0.000000 0.000000 0.000000 0.000000 0.021830
#
#
# Mechanical properties :
#
#
# Convention : Reuss Voigt Hill
#
# Bulk Modulus (GPa) = 28.21132 49.01538 38.61335
# Shear Modulus (GPa) = 24.60950 32.60093 28.60521
#
# Velocity S-wave (km/s) = 3.30030 3.79854 3.55815
# Velocity P-wave (km/s) = 5.19699 6.39784 5.82842
#
# Compressibility (1/GPa) = 0.03544676
#
# Stress axis : x y z
#
# Youngs Moduli (GPa) = 80.84040 65.75186 30.84229
#
# Poissons Ratio (x) = 0.50384 -0.24767
# Poissons Ratio (y) = 0.61946 0.39000
# Poissons Ratio (z) = -0.64917 0.83143
#
# Static dielectric constant tensor:
#      x y z
#    x 4.660270 0.000000 0.000000 
#    y 0.000000 3.843910 0.000000 
#    z 0.000000 0.000000 3.968680 
# 
# 
# High freq. dielectric constant tensor:
#      x y z
#    x 1.926990 0.000000 0.000000 
#    y 0.000000 1.871390 0.000000 
#    z 0.000000 0.000000 1.873750 
# 
# From -- ./inp_files/5201.got.cif
#   From: 2010.03.12/outbox.cif.g09.slc.cpg/sg36_3_cif.got.tgz:5201.got - 2010.04.14 02:13:53.
