data_PCOD8175883
_publ_section_title
;
Structure prediction by ZEFSAII (Michael W. Deem and Ramdas Pophale) SiO2 
 PCOD8175883
Probable space group: C M C 21
;
_chemical_formula_sum "Si O2"
_cell_formula_units_Z 64
_cell_length_a 8.606265
_cell_length_b 23.950236
_cell_length_c 15.271126
_cell_angle_alpha 90.000000
_cell_angle_beta 90.000000
_cell_angle_gamma 90.000000
_cell_volume 3147.716222
_symmetry_space_group_name_H-M "C M C 21"
_symmetry_group_IT_number 36
_symmetry_cell_setting 'orthorhombic'
loop_
_space_group_symop_operation_xyz
x,y,z
-x,-y,1/2+z
x,-y,1/2+z
-x,y,z
1/2+x,1/2+y,z
1/2-x,1/2-y,1/2+z
1/2+x,1/2-y,1/2+z
1/2-x,1/2+y,z
loop_
_atom_site_type_symbol
_atom_site_label
_atom_site_fract_x
_atom_site_fract_y
_atom_site_fract_z
Si Si1 0.186083 0.076270 0.699710
Si Si2 0.819440 0.997517 0.544927
Si Si3 0.818245 0.733495 0.363549
Si Si4 0.318553 0.765405 0.543697
Si Si5 0.681326 0.495471 0.851456
Si Si6 0.327813 0.113369 0.095867
Si Si7 0.683003 0.799870 0.206813
Si Si8 0.173954 0.384109 0.796105
O O1 0.261424 0.136670 0.699058
O O2 0.000000 0.080730 0.699500
O O3 0.248258 0.042617 0.613882
O O4 0.247442 0.042877 0.785811
O O5 0.795440 0.934975 0.579126
O O6 0.000000 0.009570 0.537078
O O7 0.741351 0.001993 0.448385
O O8 0.782260 0.741961 0.464820
O O9 0.724769 0.776659 0.302834
O O10 0.764846 0.670116 0.346579
O O11 0.000000 0.741475 0.343906
O O12 0.500000 0.752676 0.529870
O O13 0.284901 0.831523 0.541833
O O14 0.266313 0.737268 0.633829
O O15 0.500000 0.505911 0.859668
O O16 0.710155 0.434766 0.812047
O O17 0.500000 0.091403 0.070626
O O18 0.323959 0.132733 0.195465
O O19 0.500000 0.797074 0.192475
O O20 0.000000 0.400988 0.826447
#
# Coordination Sequence:
#
# PCOD8175883 Si02
#       8
#     8   8   8   8   8   8   8   8
#     4  10  22  41  60  85 127 166 200 256 313 362
#     4  10  22  39  61  91 121 158 204 249 306 369
#     4  11  24  44  66  94 129 167 211 261 317 376
#     4  11  24  44  66  94 129 167 211 261 317 376
#     4  10  22  39  61  91 121 158 204 249 306 369
#     4  10  21  40  64  89 120 158 200 254 313 363
#     4  12  26  43  64  93 127 170 216 258 315 378
#     4  10  21  40  64  89 120 158 200 254 313 363
#
# _framework density 20.332201999999999
#
# number of rings (size 3 to 8) (size 9 to 14) (size 15 to 20)
#    0.000    1.500    2.500    1.875    3.500    3.500 
#    0.000    0.000    0.000    0.000    0.000    0.000 
#    0.000    0.000    0.000    0.000    0.000    0.000 
#
# Total GULP energy -396838.840109 kJ/mol
# GULP energy per Si atom -12401.213753 kJ/mol
# Density = 2.028592 g / cm^3
# Si number density = 20.332202 Si / 1000 Ang^3
#
#
#
# Elastic Constant Matrix: (Units=GPa)
#
#
# Indices 1 2 3 4 5 6 
#
# 1 33.3193 27.0925 17.9487 0.0000 0.0000 0.0000
# 2 27.0925 103.9064 24.0717 0.0000 0.0000 0.0000
# 3 17.9487 24.0717 92.0176 0.0000 0.0000 0.0000
# 4 0.0000 0.0000 0.0000 34.9026 0.0000 0.0000
# 5 0.0000 0.0000 0.0000 0.0000 26.2981 0.0000
# 6 0.0000 0.0000 0.0000 0.0000 0.0000 29.5615
#
#
#
# Elastic Compliance Matrix: (Units=1/GPa)
#
#
# Indices 1 2 3 4 5 6 
#
# 1 0.040520 -0.009298 -0.005471 0.000000 0.000000 0.000000
# 2 -0.009298 0.012378 -0.001425 0.000000 0.000000 0.000000
# 3 -0.005471 -0.001425 0.012307 0.000000 0.000000 0.000000
# 4 0.000000 0.000000 0.000000 0.028651 0.000000 0.000000
# 5 0.000000 0.000000 0.000000 0.000000 0.038026 0.000000
# 6 0.000000 0.000000 0.000000 0.000000 0.000000 0.033828
#
#
# Mechanical properties :
#
#
# Convention : Reuss Voigt Hill
#
# Bulk Modulus (GPa) = 30.47067 40.82991 35.65029
# Shear Modulus (GPa) = 23.91917 28.82780 26.37349
#
# Velocity S-wave (km/s) = 3.43362 3.76951 3.60547
# Velocity P-wave (km/s) = 5.54424 6.25065 5.90801
#
# Compressibility (1/GPa) = 0.03281844
#
# Stress axis : x y z
#
# Youngs Moduli (GPa) = 24.67908 80.78624 81.25190
#
# Poissons Ratio (x) = 0.75112 0.44457
# Poissons Ratio (y) = 0.22946 0.11575
# Poissons Ratio (z) = 0.13503 0.11509
#
# Static dielectric constant tensor:
#      x y z
#    x 3.517540 0.000000 0.000000 
#    y 0.000000 3.637930 0.000000 
#    z 0.000000 0.000000 4.015310 
# 
# 
# High freq. dielectric constant tensor:
#      x y z
#    x 1.780330 0.000000 0.000000 
#    y 0.000000 1.802950 0.000000 
#    z 0.000000 0.000000 1.807130 
# 
# From -- ./inp_files/11120.got.cif
#   From: 2010.03.12/outbox.cif.g09.slc.cpg/sg36_6_cif.got.tgz:11120.got - 2010.04.14 02:13:53.
