data_PCOD8175375
_publ_section_title
;
Structure prediction by ZEFSAII (Michael W. Deem and Ramdas Pophale) SiO2 
 PCOD8175375
Probable space group: C M C 21
;
_chemical_formula_sum "Si O2"
_cell_formula_units_Z 64
_cell_length_a 20.795056
_cell_length_b 28.629703
_cell_length_c 5.192703
_cell_angle_alpha 90.000000
_cell_angle_beta 90.000000
_cell_angle_gamma 90.000000
_cell_volume 3091.508326
_symmetry_space_group_name_H-M "C M C 21"
_symmetry_group_IT_number 36
_symmetry_cell_setting 'orthorhombic'
loop_
_space_group_symop_operation_xyz
x,y,z
-x,-y,1/2+z
x,-y,1/2+z
-x,y,z
1/2+x,1/2+y,z
1/2-x,1/2-y,1/2+z
1/2+x,1/2-y,1/2+z
1/2-x,1/2+y,z
loop_
_atom_site_type_symbol
_atom_site_label
_atom_site_fract_x
_atom_site_fract_y
_atom_site_fract_z
Si Si1 0.879251 0.131315 0.789160
Si Si2 0.879317 0.368565 0.127838
Si Si3 0.573571 0.682606 0.274544
Si Si4 0.249992 0.326054 0.208570
Si Si5 0.425089 0.970711 0.174503
Si Si6 0.074975 0.970907 0.279161
Si Si7 0.073532 0.317310 0.642628
Si Si8 0.333579 0.749990 0.458589
O O1 0.906346 0.157706 0.540187
O O2 0.803747 0.141726 0.843238
O O3 0.885021 0.076261 0.750408
O O4 0.918799 0.147093 0.038979
O O5 0.803861 0.358098 0.073468
O O6 0.884542 0.423623 0.164831
O O7 0.906607 0.342174 0.376554
O O8 0.918844 0.352926 0.877743
O O9 0.500000 0.698713 0.290766
O O10 0.618202 0.729258 0.237506
O O11 0.287288 0.292921 0.013662
O O12 0.212738 0.292911 0.403656
O O13 0.500000 0.957475 0.169778
O O14 0.406088 0.997332 0.433955
O O15 0.000000 0.958062 0.269101
O O16 0.094036 0.995315 0.545601
O O17 0.118244 0.270719 0.679801
O O18 0.000000 0.301112 0.626983
#
# Coordination Sequence:
#
# PCOD8175375 Si02
#       8
#     8   8   8   8   8   8   8   8
#     4  11  23  39  61  87 120 158 195 238 291 349
#     4  11  23  39  61  87 120 158 195 238 291 349
#     4  11  22  37  60  89 121 153 195 248 296 341
#     4  10  22  40  60  84 118 162 202 236 280 348
#     4  10  20  36  59  86 115 146 187 239 295 350
#     4  10  20  36  59  86 115 146 187 239 295 350
#     4  11  22  37  60  89 121 153 195 248 296 341
#     4  10  21  38  60  86 117 160 202 242 286 342
#
# _framework density 20.701868999999999
#
# number of rings (size 3 to 8) (size 9 to 14) (size 15 to 20)
#    0.000    1.500    0.000    5.625    0.000    8.000 
#    0.000    7.500    0.000    0.000    0.000    0.000 
#    0.000    0.000    0.000    0.000    0.000    0.000 
#
# Total GULP energy -396676.666150 kJ/mol
# GULP energy per Si atom -12396.145817 kJ/mol
# Density = 2.065475 g / cm^3
# Si number density = 20.701869 Si / 1000 Ang^3
#
#
#
# Elastic Constant Matrix: (Units=GPa)
#
#
# Indices 1 2 3 4 5 6 
#
# 1 172.6563 109.7448 82.7644 0.0000 0.0000 0.0000
# 2 109.7448 228.5753 139.3054 0.0000 0.0000 0.0000
# 3 82.7644 139.3054 243.9143 0.0000 0.0000 0.0000
# 4 0.0000 0.0000 0.0000 24.1940 0.0000 0.0000
# 5 0.0000 0.0000 0.0000 0.0000 14.3012 0.0000
# 6 0.0000 0.0000 0.0000 0.0000 0.0000 -22.2441
#
#
#
# Elastic Compliance Matrix: (Units=1/GPa)
#
#
# Indices 1 2 3 4 5 6 
#
# 1 0.008447 -0.003542 -0.000844 0.000000 0.000000 0.000000
# 2 -0.003542 0.008196 -0.003479 0.000000 0.000000 0.000000
# 3 -0.000844 -0.003479 0.006373 0.000000 0.000000 0.000000
# 4 0.000000 0.000000 0.000000 0.041333 0.000000 0.000000
# 5 0.000000 0.000000 0.000000 0.000000 0.069924 0.000000
# 6 0.000000 0.000000 0.000000 0.000000 0.000000 -0.044956
#
#
# Mechanical properties :
#
#
# Convention : Reuss Voigt Hill
#
# Bulk Modulus (GPa) = 137.22122 145.41944 141.32033
# Shear Modulus (GPa) = 46.52250 24.13898 35.33074
#
# Velocity S-wave (km/s) = 4.74567 3.41842 4.13564
# Velocity P-wave (km/s) = 9.82125 9.27243 9.55078
#
# Compressibility (1/GPa) = 0.00728750
#
# Stress axis : x y z
#
# Youngs Moduli (GPa) = 118.37906 122.01611 156.91239
#
# Poissons Ratio (x) = 0.43214 0.13237
# Poissons Ratio (y) = 0.41926 0.54589
# Poissons Ratio (z) = 0.09987 0.42449
#
# Static dielectric constant tensor:
#      x y z
#    x 4.277800 0.000000 0.000000 
#    y 0.000000 3.856820 0.000000 
#    z 0.000000 0.000000 3.493550 
# 
# 
# High freq. dielectric constant tensor:
#      x y z
#    x 1.816010 0.000000 0.000000 
#    y 0.000000 1.811730 0.000000 
#    z 0.000000 0.000000 1.805430 
# 
# From -- ./inp_files/1489.got.cif
#   From: 2010.03.12/outbox.cif.g09.slc.cpg/sg36_1_cif.got.tgz:1489.got - 2010.04.14 02:13:53.
