data_PCOD8175762
_publ_section_title
;
Structure prediction by ZEFSAII (Michael W. Deem and Ramdas Pophale) SiO2 
 PCOD8175762
Probable space group: C M C 21
;
_chemical_formula_sum "Si O2"
_cell_formula_units_Z 64
_cell_length_a 9.116403
_cell_length_b 24.086847
_cell_length_c 14.491413
_cell_angle_alpha 90.000000
_cell_angle_beta 90.000000
_cell_angle_gamma 90.000000
_cell_volume 3182.102782
_symmetry_space_group_name_H-M "C M C 21"
_symmetry_group_IT_number 36
_symmetry_cell_setting 'orthorhombic'
loop_
_space_group_symop_operation_xyz
x,y,z
-x,-y,1/2+z
x,-y,1/2+z
-x,y,z
1/2+x,1/2+y,z
1/2-x,1/2-y,1/2+z
1/2+x,1/2-y,1/2+z
1/2-x,1/2+y,z
loop_
_atom_site_type_symbol
_atom_site_label
_atom_site_fract_x
_atom_site_fract_y
_atom_site_fract_z
Si Si1 0.669663 0.556143 0.579400
Si Si2 0.173349 0.247414 0.867896
Si Si3 0.169885 0.332045 0.493771
Si Si4 0.168669 0.976632 0.281471
Si Si5 0.164209 0.640046 0.465539
Si Si6 0.673793 0.803211 0.689916
Si Si7 0.828287 0.458165 0.469596
Si Si8 0.665306 0.915206 0.774980
O O1 0.500000 0.549960 0.552175
O O2 0.690155 0.560302 0.689812
O O3 0.729563 0.615348 0.543541
O O4 0.752870 0.503761 0.534381
O O5 0.223248 0.300695 0.928488
O O6 0.227712 0.255370 0.761024
O O7 0.000000 0.241231 0.871388
O O8 0.243016 0.190987 0.905873
O O9 0.222548 0.296134 0.583613
O O10 0.200724 0.397007 0.511863
O O11 0.000000 0.321956 0.473913
O O12 0.266783 0.955414 0.365730
O O13 0.000000 0.977948 0.313286
O O14 0.220854 0.037181 0.250850
O O15 0.161185 0.594687 0.384361
O O16 0.000000 0.647171 0.505653
O O17 0.500000 0.806935 0.697926
O O18 0.733541 0.862061 0.724669
O O19 0.000000 0.472119 0.464489
O O20 0.500000 0.929885 0.740072
#
# Coordination Sequence:
#
# PCOD8175762 Si02
#       8
#     8   8   8   8   8   8   8   8
#     4  11  23  37  56  85 119 152 188 234 289 345
#     4   9  19  37  60  84 111 146 187 234 287 340
#     4  10  21  38  59  84 114 149 192 238 282 335
#     4  11  23  36  52  82 120 154 187 228 287 348
#     4   9  18  34  57  82 107 141 187 232 280 337
#     4   8  16  34  59  84 109 144 189 232 281 338
#     4  11  23  39  60  85 115 155 195 237 288 343
#     4   9  16  31  57  82 105 141 189 235 276 330
#
# _framework density 20.112486000000001
#
# number of rings (size 3 to 8) (size 9 to 14) (size 15 to 20)
#    0.000    2.250    1.250    3.375    0.000    4.500 
#    2.250    3.125    0.000    0.000    0.000    0.000 
#    0.000    0.000    0.000    0.000    0.000    0.000 
#
# Total GULP energy -396649.810766 kJ/mol
# GULP energy per Si atom -12395.306586 kJ/mol
# Density = 2.006671 g / cm^3
# Si number density = 20.112486 Si / 1000 Ang^3
#
#
#
# Elastic Constant Matrix: (Units=GPa)
#
#
# Indices 1 2 3 4 5 6 
#
# 1 75.4666 17.8920 31.1279 0.0000 0.0000 0.0000
# 2 17.8920 35.4017 7.8453 0.0000 0.0000 0.0000
# 3 31.1279 7.8453 85.8143 0.0000 0.0000 0.0000
# 4 0.0000 0.0000 0.0000 25.9004 0.0000 0.0000
# 5 0.0000 0.0000 0.0000 0.0000 25.4658 0.0000
# 6 0.0000 0.0000 0.0000 0.0000 0.0000 25.4430
#
#
#
# Elastic Compliance Matrix: (Units=1/GPa)
#
#
# Indices 1 2 3 4 5 6 
#
# 1 0.017347 -0.007525 -0.005604 0.000000 0.000000 0.000000
# 2 -0.007525 0.032096 -0.000205 0.000000 0.000000 0.000000
# 3 -0.005604 -0.000205 0.013705 0.000000 0.000000 0.000000
# 4 0.000000 0.000000 0.000000 0.038609 0.000000 0.000000
# 5 0.000000 0.000000 0.000000 0.000000 0.039268 0.000000
# 6 0.000000 0.000000 0.000000 0.000000 0.000000 0.039304
#
#
# Mechanical properties :
#
#
# Convention : Reuss Voigt Hill
#
# Bulk Modulus (GPa) = 27.41301 34.49035 30.95168
# Shear Modulus (GPa) = 22.81482 24.68300 23.74891
#
# Velocity S-wave (km/s) = 3.37168 3.50701 3.44001
# Velocity P-wave (km/s) = 5.36815 5.79524 5.58578
#
# Compressibility (1/GPa) = 0.03647903
#
# Stress axis : x y z
#
# Youngs Moduli (GPa) = 57.64831 31.15682 72.96800
#
# Poissons Ratio (x) = 0.23446 0.40893
# Poissons Ratio (y) = 0.43380 0.01493
# Poissons Ratio (z) = 0.32308 0.00638
#
# Static dielectric constant tensor:
#      x y z
#    x 3.438570 0.000000 0.000000 
#    y 0.000000 3.508930 0.000000 
#    z 0.000000 0.000000 3.791640 
# 
# 
# High freq. dielectric constant tensor:
#      x y z
#    x 1.766320 0.000000 0.000000 
#    y 0.000000 1.771560 0.000000 
#    z 0.000000 0.000000 1.789940 
# 
# From -- ./inp_files/11121.got.cif
#   From: 2010.03.12/outbox.cif.g09.slc.cpg/sg36_6_cif.got.tgz:11121.got - 2010.04.14 02:13:53.
