data_PCOD8175712
_publ_section_title
;
Structure prediction by ZEFSAII (Michael W. Deem and Ramdas Pophale) SiO2 
 PCOD8175712
Probable space group: C M C 21
;
_chemical_formula_sum "Si O2"
_cell_formula_units_Z 64
_cell_length_a 9.065743
_cell_length_b 32.277482
_cell_length_c 10.765328
_cell_angle_alpha 90.000000
_cell_angle_beta 90.000000
_cell_angle_gamma 90.000000
_cell_volume 3150.143352
_symmetry_space_group_name_H-M "C M C 21"
_symmetry_group_IT_number 36
_symmetry_cell_setting 'orthorhombic'
loop_
_space_group_symop_operation_xyz
x,y,z
-x,-y,1/2+z
x,-y,1/2+z
-x,y,z
1/2+x,1/2+y,z
1/2-x,1/2-y,1/2+z
1/2+x,1/2-y,1/2+z
1/2-x,1/2+y,z
loop_
_atom_site_type_symbol
_atom_site_label
_atom_site_fract_x
_atom_site_fract_y
_atom_site_fract_z
Si Si1 0.332625 0.367395 0.035760
Si Si2 0.165374 0.429604 0.596180
Si Si3 0.824852 0.715468 0.596286
Si Si4 0.325215 0.767937 0.379624
Si Si5 0.667095 0.927134 0.884429
Si Si6 0.829990 0.008688 0.928390
Si Si7 0.663670 0.419212 0.264895
Si Si8 0.831526 0.642229 0.931457
O O1 0.500000 0.352902 0.007795
O O2 0.243756 0.330458 0.101188
O O3 0.330248 0.409242 0.119444
O O4 0.253094 0.384184 0.912162
O O5 0.179753 0.434861 0.740347
O O6 0.286925 0.458795 0.535018
O O7 0.195073 0.381042 0.562598
O O8 0.000000 0.441448 0.549613
O O9 0.757099 0.736378 0.472266
O O10 0.788113 0.737481 0.730622
O O11 0.000000 0.712581 0.579455
O O12 0.500000 0.762394 0.400459
O O13 0.259656 0.812295 0.425177
O O14 0.500000 0.922190 0.931081
O O15 0.734735 0.967819 0.947125
O O16 0.000000 0.996071 0.942558
O O17 0.798717 0.032630 0.796551
O O18 0.500000 0.409897 0.318274
O O19 0.776770 0.388083 0.325707
O O20 0.000000 0.650733 0.900506
#
# Coordination Sequence:
#
# PCOD8175712 Si02
#       8
#     8   8   8   8   8   8   8   8
#     4  11  23  40  62  89 122 161 203 251 309 368
#     4   9  20  38  58  84 116 154 198 250 305 362
#     4  11  24  42  65  95 129 168 216 265 322 387
#     4  10  22  40  63  95 129 166 210 264 323 382
#     4  11  24  39  56  85 122 159 205 252 305 369
#     4  10  21  37  58  85 116 155 200 248 304 361
#     4   9  19  35  58  86 114 147 192 241 293 352
#     4   9  17  35  62  85 112 148 192 243 299 357
#
# _framework density 20.316534999999998
#
# number of rings (size 3 to 8) (size 9 to 14) (size 15 to 20)
#    0.000    2.000    1.250    1.500    1.750    4.500 
#    0.000    1.250    0.000    0.000    0.000    0.000 
#    0.000    0.000    0.000    0.000    0.000    0.000 
#
# Total GULP energy -396518.802909 kJ/mol
# GULP energy per Si atom -12391.212591 kJ/mol
# Density = 2.027029 g / cm^3
# Si number density = 20.316535 Si / 1000 Ang^3
#
#
#
# Elastic Constant Matrix: (Units=GPa)
#
#
# Indices 1 2 3 4 5 6 
#
# 1 90.9861 38.2878 45.8828 0.0000 0.0000 0.0000
# 2 38.2878 78.1057 38.8665 0.0000 0.0000 0.0000
# 3 45.8828 38.8665 77.6603 0.0000 0.0000 0.0000
# 4 0.0000 0.0000 0.0000 30.6478 0.0000 0.0000
# 5 0.0000 0.0000 0.0000 0.0000 26.4650 0.0000
# 6 0.0000 0.0000 0.0000 0.0000 0.0000 33.3478
#
#
#
# Elastic Compliance Matrix: (Units=1/GPa)
#
#
# Indices 1 2 3 4 5 6 
#
# 1 0.016702 -0.004364 -0.007684 0.000000 0.000000 0.000000
# 2 -0.004364 0.018189 -0.006525 0.000000 0.000000 0.000000
# 3 -0.007684 -0.006525 0.020682 0.000000 0.000000 0.000000
# 4 0.000000 0.000000 0.000000 0.032629 0.000000 0.000000
# 5 0.000000 0.000000 0.000000 0.000000 0.037786 0.000000
# 6 0.000000 0.000000 0.000000 0.000000 0.000000 0.029987
#
#
# Mechanical properties :
#
#
# Convention : Reuss Voigt Hill
#
# Bulk Modulus (GPa) = 54.26554 54.75846 54.51200
# Shear Modulus (GPa) = 25.09264 26.33979 25.71621
#
# Velocity S-wave (km/s) = 3.51819 3.60456 3.56164
# Velocity P-wave (km/s) = 6.57811 6.65845 6.61840
#
# Compressibility (1/GPa) = 0.01842790
#
# Stress axis : x y z
#
# Youngs Moduli (GPa) = 59.87390 54.97771 48.35187
#
# Poissons Ratio (x) = 0.23991 0.37152
# Poissons Ratio (y) = 0.26128 0.31549
# Poissons Ratio (z) = 0.46005 0.35873
#
# Static dielectric constant tensor:
#      x y z
#    x 3.782690 0.000000 0.000000 
#    y 0.000000 3.701960 0.000000 
#    z 0.000000 0.000000 3.650370 
# 
# 
# High freq. dielectric constant tensor:
#      x y z
#    x 1.795850 0.000000 0.000000 
#    y 0.000000 1.791270 0.000000 
#    z 0.000000 0.000000 1.787700 
# 
# From -- ./inp_files/7146.got.cif
#   From: 2010.03.12/outbox.cif.g09.slc.cpg/sg36_4_cif.got.tgz:7146.got - 2010.04.14 02:13:53.
