data_PCOD8175508
_publ_section_title
;
Structure prediction by ZEFSAII (Michael W. Deem and Ramdas Pophale) SiO2 
 PCOD8175508
Probable space group: C M C 21
;
_chemical_formula_sum "Si O2"
_cell_formula_units_Z 64
_cell_length_a 8.735541
_cell_length_b 28.645942
_cell_length_c 12.311891
_cell_angle_alpha 90.000000
_cell_angle_beta 90.000000
_cell_angle_gamma 90.000000
_cell_volume 3080.900528
_symmetry_space_group_name_H-M "C M C 21"
_symmetry_group_IT_number 36
_symmetry_cell_setting 'orthorhombic'
loop_
_space_group_symop_operation_xyz
x,y,z
-x,-y,1/2+z
x,-y,1/2+z
-x,y,z
1/2+x,1/2+y,z
1/2-x,1/2-y,1/2+z
1/2+x,1/2-y,1/2+z
1/2-x,1/2+y,z
loop_
_atom_site_type_symbol
_atom_site_label
_atom_site_fract_x
_atom_site_fract_y
_atom_site_fract_z
Si Si1 0.180094 0.335784 0.110830
Si Si2 0.823673 0.066648 0.666002
Si Si3 0.670599 0.976089 0.601230
Si Si4 0.329704 0.926744 0.379833
Si Si5 0.323896 0.221022 0.823678
Si Si6 0.680890 0.121550 0.197097
Si Si7 0.820260 0.840225 0.489765
Si Si8 0.175992 0.824091 0.881503
O O1 0.223263 0.389678 0.127990
O O2 0.234951 0.304298 0.213389
O O3 0.000000 0.331007 0.094411
O O4 0.261038 0.317039 0.002623
O O5 0.784484 0.053611 0.789651
O O6 0.000000 0.079481 0.650182
O O7 0.784351 0.019659 0.601710
O O8 0.500000 0.989959 0.642505
O O9 0.664522 0.963486 0.475631
O O10 0.731911 0.931827 0.671310
O O11 0.500000 0.919027 0.331493
O O12 0.268004 0.877470 0.417744
O O13 0.500000 0.207476 0.845782
O O14 0.222174 0.207849 0.929440
O O15 0.305001 0.276626 0.812324
O O16 0.500000 0.126056 0.181911
O O17 0.731651 0.135143 0.318553
O O18 0.761803 0.157395 0.113522
O O19 0.000000 0.849067 0.488532
O O20 0.000000 0.839518 0.888755
#
# Coordination Sequence:
#
# PCOD8175508 Si02
#       8
#     8   8   8   8   8   8   8   8
#     4  11  24  44  67  91 128 173 215 256 317 390
#     4  12  24  38  62  95 127 162 208 267 324 370
#     4   9  21  40  63  89 121 167 215 257 310 385
#     4  10  20  38  61  86 119 160 208 257 312 381
#     4  10  23  42  64  91 125 167 210 258 315 382
#     4  10  22  42  65  91 127 170 214 255 316 386
#     4  11  21  35  62  93 122 156 204 264 316 364
#     4  11  25  43  64  96 133 167 214 270 322 374
#
# _framework density 20.773147999999999
#
# number of rings (size 3 to 8) (size 9 to 14) (size 15 to 20)
#    0.000    1.500    1.250    4.500    1.750    5.500 
#    0.000    1.250    0.000    0.000    0.000    0.000 
#    0.000    0.000    0.000    0.000    0.000    0.000 
#
# Total GULP energy -396846.199185 kJ/mol
# GULP energy per Si atom -12401.443725 kJ/mol
# Density = 2.072587 g / cm^3
# Si number density = 20.773148 Si / 1000 Ang^3
#
#
#
# Elastic Constant Matrix: (Units=GPa)
#
#
# Indices 1 2 3 4 5 6 
#
# 1 42.8414 23.5862 26.1897 0.0000 0.0000 0.0000
# 2 23.5862 90.0046 35.7169 0.0000 0.0000 0.0000
# 3 26.1897 35.7169 90.0535 0.0000 0.0000 0.0000
# 4 0.0000 0.0000 0.0000 23.2891 0.0000 0.0000
# 5 0.0000 0.0000 0.0000 0.0000 35.8729 0.0000
# 6 0.0000 0.0000 0.0000 0.0000 0.0000 27.5890
#
#
#
# Elastic Compliance Matrix: (Units=1/GPa)
#
#
# Indices 1 2 3 4 5 6 
#
# 1 0.030370 -0.005285 -0.006736 0.000000 0.000000 0.000000
# 2 -0.005285 0.014106 -0.004057 0.000000 0.000000 0.000000
# 3 -0.006736 -0.004057 0.014673 0.000000 0.000000 0.000000
# 4 0.000000 0.000000 0.000000 0.042938 0.000000 0.000000
# 5 0.000000 0.000000 0.000000 0.000000 0.027876 0.000000
# 6 0.000000 0.000000 0.000000 0.000000 0.000000 0.036246
#
#
# Mechanical properties :
#
#
# Convention : Reuss Voigt Hill
#
# Bulk Modulus (GPa) = 37.05016 43.76502 40.40759
# Shear Modulus (GPa) = 24.11223 26.51065 25.31144
#
# Velocity S-wave (km/s) = 3.41066 3.57627 3.49444
# Velocity P-wave (km/s) = 5.77793 6.17792 5.98127
#
# Compressibility (1/GPa) = 0.02699043
#
# Stress axis : x y z
#
# Youngs Moduli (GPa) = 32.92766 70.89298 68.15361
#
# Poissons Ratio (x) = 0.37470 0.45908
# Poissons Ratio (y) = 0.17404 0.27653
# Poissons Ratio (z) = 0.22180 0.28765
#
# Static dielectric constant tensor:
#      x y z
#    x 3.797130 0.000000 0.000000 
#    y 0.000000 3.645310 0.000000 
#    z 0.000000 0.000000 4.041330 
# 
# 
# High freq. dielectric constant tensor:
#      x y z
#    x 1.815100 0.000000 0.000000 
#    y 0.000000 1.809110 0.000000 
#    z 0.000000 0.000000 1.814960 
# 
# From -- ./inp_files/7180.got.cif
#   From: 2010.03.12/outbox.cif.g09.slc.cpg/sg36_4_cif.got.tgz:7180.got - 2010.04.14 02:13:53.
