data_PCOD8175411
_publ_section_title
;
Structure prediction by ZEFSAII (Michael W. Deem and Ramdas Pophale) SiO2 
 PCOD8175411
Probable space group: C M C 21
;
_chemical_formula_sum "Si O2"
_cell_formula_units_Z 64
_cell_length_a 8.592169
_cell_length_b 15.253733
_cell_length_c 23.433950
_cell_angle_alpha 90.000000
_cell_angle_beta 90.000000
_cell_angle_gamma 90.000000
_cell_volume 3071.315630
_symmetry_space_group_name_H-M "C M C 21"
_symmetry_group_IT_number 36
_symmetry_cell_setting 'orthorhombic'
loop_
_space_group_symop_operation_xyz
x,y,z
-x,-y,1/2+z
x,-y,1/2+z
-x,y,z
1/2+x,1/2+y,z
1/2-x,1/2-y,1/2+z
1/2+x,1/2-y,1/2+z
1/2-x,1/2+y,z
loop_
_atom_site_type_symbol
_atom_site_label
_atom_site_fract_x
_atom_site_fract_y
_atom_site_fract_z
Si Si1 0.320037 0.836186 0.668900
Si Si2 0.819752 0.100734 0.561462
Si Si3 0.821553 0.348591 0.439769
Si Si4 0.677986 0.348794 0.935306
Si Si5 0.819940 0.493715 0.859126
Si Si6 0.320632 0.602567 0.056286
Si Si7 0.179902 0.656459 0.676797
Si Si8 0.179917 0.994064 0.737203
O O1 0.500000 0.814688 0.676398
O O2 0.283742 0.846729 0.602003
O O3 0.223721 0.755125 0.695110
O O4 0.279349 0.924268 0.702204
O O5 0.776869 0.146529 0.501892
O O6 0.715590 0.144915 0.609908
O O7 0.000000 0.114679 0.577337
O O8 0.776459 0.999163 0.557213
O O9 0.799796 0.251078 0.414421
O O10 0.771564 0.417222 0.391304
O O11 0.711466 0.359891 0.493934
O O12 0.000000 0.364735 0.458557
O O13 0.500000 0.380690 0.927023
O O14 0.791070 0.410281 0.899285
O O15 0.713544 0.485595 0.803854
O O16 0.000000 0.495631 0.841065
O O17 0.500000 0.617529 0.072179
O O18 0.278998 0.590593 0.715364
O O19 0.000000 0.639172 0.689195
O O20 0.000000 0.975096 0.725335
#
# Coordination Sequence:
#
# PCOD8175411 Si02
#       8
#     8   8   8   8   8   8   8   8
#     4  12  25  43  67  95 129 168 211 263 321 381
#     4  10  20  36  62  94 132 170 209 257 314 375
#     4  10  22  39  63  92 127 167 210 257 313 376
#     4  10  21  40  63  90 124 167 209 256 314 375
#     4  11  24  42  63  91 124 162 212 267 317 373
#     4  11  21  36  63  97 131 166 209 258 315 379
#     4  12  25  42  67  98 131 168 211 260 317 383
#     4  12  26  46  68  91 124 168 217 268 319 376
#
# _framework density 20.837976000000001
#
# number of rings (size 3 to 8) (size 9 to 14) (size 15 to 20)
#    0.000    1.000    2.500    4.875    0.000    4.000 
#    0.000    3.750    0.000    0.000    0.000    0.000 
#    0.000    0.000    0.000    0.000    0.000    0.000 
#
# Total GULP energy -397062.129748 kJ/mol
# GULP energy per Si atom -12408.191555 kJ/mol
# Density = 2.079055 g / cm^3
# Si number density = 20.837976 Si / 1000 Ang^3
#
#
#
# Elastic Constant Matrix: (Units=GPa)
#
#
# Indices 1 2 3 4 5 6 
#
# 1 70.9435 27.1969 33.1059 0.0000 0.0000 0.0000
# 2 27.1969 94.1165 2.7378 0.0000 0.0000 0.0000
# 3 33.1059 2.7378 60.7634 0.0000 0.0000 0.0000
# 4 0.0000 0.0000 0.0000 7.5075 0.0000 0.0000
# 5 0.0000 0.0000 0.0000 0.0000 33.2807 0.0000
# 6 0.0000 0.0000 0.0000 0.0000 0.0000 32.3254
#
#
#
# Elastic Compliance Matrix: (Units=1/GPa)
#
#
# Indices 1 2 3 4 5 6 
#
# 1 0.021798 -0.005961 -0.011607 0.000000 0.000000 0.000000
# 2 -0.005961 0.012269 0.002695 0.000000 0.000000 0.000000
# 3 -0.011607 0.002695 0.022660 0.000000 0.000000 0.000000
# 4 0.000000 0.000000 0.000000 0.133200 0.000000 0.000000
# 5 0.000000 0.000000 0.000000 0.000000 0.030047 0.000000
# 6 0.000000 0.000000 0.000000 0.000000 0.000000 0.030935
#
#
# Mechanical properties :
#
#
# Convention : Reuss Voigt Hill
#
# Bulk Modulus (GPa) = 37.06494 39.10051 38.08272
# Shear Modulus (GPa) = 17.26219 25.47492 21.36855
#
# Velocity S-wave (km/s) = 2.88132 3.50025 3.20576
# Velocity P-wave (km/s) = 5.37542 5.92794 5.65843
#
# Compressibility (1/GPa) = 0.02697967
#
# Stress axis : x y z
#
# Youngs Moduli (GPa) = 45.87645 81.50393 44.13064
#
# Poissons Ratio (x) = 0.48586 0.51225
# Poissons Ratio (y) = 0.27348 -0.11893
# Poissons Ratio (z) = 0.53251 -0.21966
#
# Static dielectric constant tensor:
#      x y z
#    x 3.773980 0.000000 0.000000 
#    y 0.000000 3.906440 0.000000 
#    z 0.000000 0.000000 3.650940 
# 
# 
# High freq. dielectric constant tensor:
#      x y z
#    x 1.815480 0.000000 0.000000 
#    y 0.000000 1.831710 0.000000 
#    z 0.000000 0.000000 1.807640 
# 
# From -- ./inp_files/16666.got.cif
#   From: 2010.03.12/outbox.cif.g09.slc.cpg/sg36_9_cif.got.tgz:16666.got - 2010.04.14 02:13:53.
