data_PCOD8175392
_publ_section_title
;
Structure prediction by ZEFSAII (Michael W. Deem and Ramdas Pophale) SiO2 
 PCOD8175392
Probable space group: C M C 21
;
_chemical_formula_sum "Si O2"
_cell_formula_units_Z 64
_cell_length_a 9.312385
_cell_length_b 22.028967
_cell_length_c 16.519106
_cell_angle_alpha 90.000000
_cell_angle_beta 90.000000
_cell_angle_gamma 90.000000
_cell_volume 3388.766108
_symmetry_space_group_name_H-M "C M C 21"
_symmetry_group_IT_number 36
_symmetry_cell_setting 'orthorhombic'
loop_
_space_group_symop_operation_xyz
x,y,z
-x,-y,1/2+z
x,-y,1/2+z
-x,y,z
1/2+x,1/2+y,z
1/2-x,1/2-y,1/2+z
1/2+x,1/2-y,1/2+z
1/2-x,1/2+y,z
loop_
_atom_site_type_symbol
_atom_site_label
_atom_site_fract_x
_atom_site_fract_y
_atom_site_fract_z
Si Si1 0.165547 0.154627 0.956300
Si Si2 0.162280 0.973964 0.771054
Si Si3 0.662106 0.793544 0.996251
Si Si4 0.168041 0.705239 0.229089
Si Si5 0.165262 0.888163 0.628969
Si Si6 0.335958 0.352965 0.867719
Si Si7 0.841623 0.312694 0.183087
Si Si8 0.663927 0.908875 0.313209
O O1 0.209576 0.223014 0.983571
O O2 0.260749 0.131753 0.882036
O O3 0.000000 0.153332 0.929002
O O4 0.187412 0.107536 0.032152
O O5 0.205415 0.948519 0.681061
O O6 0.177247 0.921964 0.838723
O O7 0.000000 0.999006 0.768273
O O8 0.266337 0.025755 0.801912
O O9 0.500000 0.801517 0.963071
O O10 0.772164 0.841319 0.956282
O O11 0.670595 0.816072 0.087571
O O12 0.235523 0.666710 0.156830
O O13 0.235786 0.689433 0.314329
O O14 0.207884 0.774737 0.215896
O O15 0.000000 0.694941 0.231018
O O16 0.000000 0.871148 0.649587
O O17 0.500000 0.331004 0.863865
O O18 0.825465 0.377971 0.225176
O O19 0.000000 0.285394 0.205812
O O20 0.500000 0.917957 0.340668
#
# Coordination Sequence:
#
# PCOD8175392 Si02
#       8
#     8   8   8   8   8   8   8   8
#     4  10  20  37  62  87 117 153 192 234 290 354
#     4   9  20  40  62  80 108 151 200 239 281 346
#     4  10  20  36  60  88 118 150 187 235 292 352
#     4  11  20  31  55  88 116 146 188 233 281 340
#     4   9  18  37  62  85 112 152 191 237 292 340
#     4  10  21  37  58  83 113 150 190 236 288 342
#     4  10  21  39  57  79 118 158 187 230 295 350
#     4  11  24  39  58  84 118 156 193 242 295 340
#
# _framework density 18.885930999999999
#
# number of rings (size 3 to 8) (size 9 to 14) (size 15 to 20)
#    0.000    2.000    1.250    3.375    0.000    7.000 
#    2.250    0.000    0.000    0.000    0.000    0.000 
#    0.000    0.000    0.000    0.000    0.000    0.000 
#
# Total GULP energy -396636.949747 kJ/mol
# GULP energy per Si atom -12394.904680 kJ/mol
# Density = 1.884295 g / cm^3
# Si number density = 18.885931 Si / 1000 Ang^3
#
#
#
# Elastic Constant Matrix: (Units=GPa)
#
#
# Indices 1 2 3 4 5 6 
#
# 1 117.3451 51.3709 52.6164 0.0000 0.0000 0.0000
# 2 51.3709 67.1549 54.7518 0.0000 0.0000 0.0000
# 3 52.6164 54.7518 100.7352 0.0000 0.0000 0.0000
# 4 0.0000 0.0000 0.0000 24.1412 0.0000 0.0000
# 5 0.0000 0.0000 0.0000 0.0000 28.0741 0.0000
# 6 0.0000 0.0000 0.0000 0.0000 0.0000 32.3783
#
#
#
# Elastic Compliance Matrix: (Units=1/GPa)
#
#
# Indices 1 2 3 4 5 6 
#
# 1 0.013159 -0.008013 -0.002518 0.000000 0.000000 0.000000
# 2 -0.008013 0.031620 -0.013001 0.000000 0.000000 0.000000
# 3 -0.002518 -0.013001 0.018308 0.000000 0.000000 0.000000
# 4 0.000000 0.000000 0.000000 0.041423 0.000000 0.000000
# 5 0.000000 0.000000 0.000000 0.000000 0.035620 0.000000
# 6 0.000000 0.000000 0.000000 0.000000 0.000000 0.030885
#
#
# Mechanical properties :
#
#
# Convention : Reuss Voigt Hill
#
# Bulk Modulus (GPa) = 62.40712 66.96816 64.68764
# Shear Modulus (GPa) = 22.37930 25.35177 23.86554
#
# Velocity S-wave (km/s) = 3.44608 3.66780 3.55867
# Velocity P-wave (km/s) = 6.99642 7.31254 7.15623
#
# Compressibility (1/GPa) = 0.01602381
#
# Stress axis : x y z
#
# Youngs Moduli (GPa) = 75.99459 31.62514 54.61972
#
# Poissons Ratio (x) = 0.25342 0.13752
# Poissons Ratio (y) = 0.60896 0.71011
# Poissons Ratio (z) = 0.19134 0.41116
#
# Static dielectric constant tensor:
#      x y z
#    x 3.554280 0.000000 0.000000 
#    y 0.000000 3.228950 0.000000 
#    z 0.000000 0.000000 3.587610 
# 
# 
# High freq. dielectric constant tensor:
#      x y z
#    x 1.737420 0.000000 0.000000 
#    y 0.000000 1.712110 0.000000 
#    z 0.000000 0.000000 1.739740 
# 
# From -- ./inp_files/13987.got.cif
#   From: 2010.03.12/outbox.cif.g09.slc.cpg/sg36_7_cif.got.tgz:13987.got - 2010.04.14 02:13:53.
