data_PCOD8175066
_publ_section_title
;
Structure prediction by ZEFSAII (Michael W. Deem and Ramdas Pophale) SiO2 
 PCOD8175066
Probable space group: C M C 21
;
_chemical_formula_sum "Si O2"
_cell_formula_units_Z 64
_cell_length_a 8.896178
_cell_length_b 22.911634
_cell_length_c 17.514914
_cell_angle_alpha 90.000000
_cell_angle_beta 90.000000
_cell_angle_gamma 90.000000
_cell_volume 3569.994411
_symmetry_space_group_name_H-M "C M C 21"
_symmetry_group_IT_number 36
_symmetry_cell_setting 'orthorhombic'
loop_
_space_group_symop_operation_xyz
x,y,z
-x,-y,1/2+z
x,-y,1/2+z
-x,y,z
1/2+x,1/2+y,z
1/2-x,1/2-y,1/2+z
1/2+x,1/2-y,1/2+z
1/2-x,1/2+y,z
loop_
_atom_site_type_symbol
_atom_site_label
_atom_site_fract_x
_atom_site_fract_y
_atom_site_fract_z
Si Si1 0.168631 0.080110 0.108750
Si Si2 0.325893 0.128331 0.879832
Si Si3 0.167713 0.476030 0.168718
Si Si4 0.822070 0.136194 0.727359
Si Si5 0.678693 0.806526 0.084501
Si Si6 0.833254 0.978006 0.444225
Si Si7 0.334420 0.079775 0.504026
Si Si8 0.175281 0.686769 0.040838
O O1 0.264687 0.139155 0.100898
O O2 0.000000 0.095268 0.136633
O O3 0.248817 0.038649 0.171246
O O4 0.161497 0.046971 0.028961
O O5 0.500000 0.128095 0.857885
O O6 0.231094 0.157107 0.811098
O O7 0.274580 0.061533 0.892517
O O8 0.293670 0.166382 0.954726
O O9 0.263015 0.429653 0.216797
O O10 0.154318 0.455636 0.082161
O O11 0.000000 0.481919 0.203794
O O12 0.753898 0.180749 0.665970
O O13 0.000000 0.137482 0.720461
O O14 0.500000 0.808179 0.095618
O O15 0.729259 0.855704 0.022821
O O16 0.732231 0.745378 0.052357
O O17 0.000000 0.978291 0.408280
O O18 0.772801 0.044718 0.445830
O O19 0.500000 0.084081 0.466858
O O20 0.000000 0.697169 0.056416
#
# Coordination Sequence:
#
# PCOD8175066 Si02
#       8
#     8   8   8   8   8   8   8   8
#     4   9  16  27  45  70  98 126 158 198 243 289
#     4  10  20  34  51  72 101 134 167 207 259 313
#     4   9  16  28  46  69  97 126 157 194 242 295
#     4  11  21  33  51  75 102 131 168 212 260 312
#     4  10  20  34  52  74 102 136 175 216 258 305
#     4   9  16  26  44  70  96 122 154 194 240 289
#     4   8  15  27  44  67  94 124 155 191 238 290
#     4  10  20  33  51  75 102 135 176 218 258 303
#
# _framework density 17.927199000000002
#
# number of rings (size 3 to 8) (size 9 to 14) (size 15 to 20)
#    0.000    2.500    0.000    4.125    0.000    8.000 
#    0.000    0.000    0.000    1.500    0.000    7.000 
#    0.000    0.000    0.000    0.000    0.000    0.000 
#
# Total GULP energy -396739.527874 kJ/mol
# GULP energy per Si atom -12398.110246 kJ/mol
# Density = 1.788640 g / cm^3
# Si number density = 17.927199 Si / 1000 Ang^3
#
#
#
# Elastic Constant Matrix: (Units=GPa)
#
#
# Indices 1 2 3 4 5 6 
#
# 1 127.5995 45.3928 35.3534 0.0000 0.0000 0.0000
# 2 45.3928 107.4732 29.0500 0.0000 0.0000 0.0000
# 3 35.3534 29.0500 47.2470 0.0000 0.0000 0.0000
# 4 0.0000 0.0000 0.0000 12.5678 0.0000 0.0000
# 5 0.0000 0.0000 0.0000 0.0000 23.5104 0.0000
# 6 0.0000 0.0000 0.0000 0.0000 0.0000 32.5484
#
#
#
# Elastic Compliance Matrix: (Units=1/GPa)
#
#
# Indices 1 2 3 4 5 6 
#
# 1 0.010537 -0.002782 -0.006174 0.000000 0.000000 0.000000
# 2 -0.002782 0.011894 -0.005231 0.000000 0.000000 0.000000
# 3 -0.006174 -0.005231 0.029002 0.000000 0.000000 0.000000
# 4 0.000000 0.000000 0.000000 0.079568 0.000000 0.000000
# 5 0.000000 0.000000 0.000000 0.000000 0.042534 0.000000
# 6 0.000000 0.000000 0.000000 0.000000 0.000000 0.030723
#
#
# Mechanical properties :
#
#
# Convention : Reuss Voigt Hill
#
# Bulk Modulus (GPa) = 43.36894 55.76800 49.56847
# Shear Modulus (GPa) = 20.80560 25.22689 23.01624
#
# Velocity S-wave (km/s) = 3.41040 3.75532 3.58700
# Velocity P-wave (km/s) = 6.30491 7.06957 6.69816
#
# Compressibility (1/GPa) = 0.02305798
#
# Stress axis : x y z
#
# Youngs Moduli (GPa) = 94.90112 84.07911 34.48037
#
# Poissons Ratio (x) = 0.23388 0.21290
# Poissons Ratio (y) = 0.26398 0.18038
# Poissons Ratio (z) = 0.58596 0.43985
#
# Static dielectric constant tensor:
#      x y z
#    x 3.567070 0.000000 0.000000 
#    y 0.000000 3.303930 0.000000 
#    z 0.000000 0.000000 3.009380 
# 
# 
# High freq. dielectric constant tensor:
#      x y z
#    x 1.712350 0.000000 0.000000 
#    y 0.000000 1.681280 0.000000 
#    z 0.000000 0.000000 1.652320 
# 
# From -- ./inp_files/14047.got.cif
#   From: 2010.03.12/outbox.cif.g09.slc.cpg/sg36_8_cif.got.tgz:14047.got - 2010.04.14 02:13:53.
