data_PCOD8175690
_publ_section_title
;
Structure prediction by ZEFSAII (Michael W. Deem and Ramdas Pophale) SiO2 
 PCOD8175690
Probable space group: C M C 21
;
_chemical_formula_sum "Si O2"
_cell_formula_units_Z 64
_cell_length_a 8.909870
_cell_length_b 29.481215
_cell_length_c 12.478512
_cell_angle_alpha 90.000000
_cell_angle_beta 90.000000
_cell_angle_gamma 90.000000
_cell_volume 3277.778079
_symmetry_space_group_name_H-M "C M C 21"
_symmetry_group_IT_number 36
_symmetry_cell_setting 'orthorhombic'
loop_
_space_group_symop_operation_xyz
x,y,z
-x,-y,1/2+z
x,-y,1/2+z
-x,y,z
1/2+x,1/2+y,z
1/2-x,1/2-y,1/2+z
1/2+x,1/2-y,1/2+z
1/2-x,1/2+y,z
loop_
_atom_site_type_symbol
_atom_site_label
_atom_site_fract_x
_atom_site_fract_y
_atom_site_fract_z
Si Si1 0.826460 0.660673 0.059800
Si Si2 0.165405 0.919885 0.642877
Si Si3 0.673808 0.470393 0.433461
Si Si4 0.675187 0.322530 0.176150
Si Si5 0.177226 0.723322 0.242827
Si Si6 0.169076 0.066695 0.382942
Si Si7 0.821411 0.382839 0.345108
Si Si8 0.322232 0.334124 0.931491
O O1 0.794468 0.617524 0.134515
O O2 0.762136 0.702980 0.128579
O O3 0.000000 0.668414 0.042146
O O4 0.757535 0.650091 0.941543
O O5 0.192626 0.959142 0.557665
O O6 0.174651 0.942566 0.757233
O O7 0.000000 0.897356 0.625093
O O8 0.500000 0.471018 0.396095
O O9 0.746967 0.520941 0.427589
O O10 0.759696 0.433742 0.359981
O O11 0.500000 0.333463 0.185496
O O12 0.717198 0.276310 0.238160
O O13 0.765301 0.363223 0.232171
O O14 0.721078 0.318593 0.051294
O O15 0.253608 0.701005 0.346372
O O16 0.000000 0.714704 0.251972
O O17 0.245101 0.114926 0.413806
O O18 0.000000 0.069164 0.427861
O O19 0.000000 0.384930 0.346760
O O20 0.500000 0.333787 0.911667
#
# Coordination Sequence:
#
# PCOD8175690 Si02
#       8
#     8   8   8   8   8   8   8   8
#     4   9  18  33  54  77 105 141 178 225 277 325
#     4   9  16  29  50  77 105 136 183 231 269 321
#     4   9  18  32  53  79 111 147 184 230 282 331
#     4  10  23  39  57  82 116 153 188 228 283 341
#     4  10  21  37  56  81 111 145 185 228 279 338
#     4   9  17  31  53  82 109 141 186 232 280 333
#     4  10  21  37  57  81 112 147 189 231 276 332
#     4  10  21  38  60  85 113 146 189 235 282 335
#
# _framework density 19.525421000000001
#
# number of rings (size 3 to 8) (size 9 to 14) (size 15 to 20)
#    0.000    2.500    1.250    0.375    1.750    2.500 
#    0.000    5.000    0.000    3.000    0.000    0.000 
#    0.000    0.000    0.000    0.000    0.000    0.000 
#
# Total GULP energy -396514.339385 kJ/mol
# GULP energy per Si atom -12391.073106 kJ/mol
# Density = 1.948098 g / cm^3
# Si number density = 19.525421 Si / 1000 Ang^3
#
#
#
# Elastic Constant Matrix: (Units=GPa)
#
#
# Indices 1 2 3 4 5 6 
#
# 1 30.5145 28.2372 29.3634 0.0000 0.0000 0.0000
# 2 28.2372 130.4442 59.8203 0.0000 0.0000 0.0000
# 3 29.3634 59.8203 93.1236 0.0000 0.0000 0.0000
# 4 0.0000 0.0000 0.0000 28.8685 0.0000 0.0000
# 5 0.0000 0.0000 0.0000 0.0000 22.4623 0.0000
# 6 0.0000 0.0000 0.0000 0.0000 0.0000 24.2739
#
#
#
# Elastic Compliance Matrix: (Units=1/GPa)
#
#
# Indices 1 2 3 4 5 6 
#
# 1 0.049260 -0.005019 -0.012308 0.000000 0.000000 0.000000
# 2 -0.005019 0.011379 -0.005727 0.000000 0.000000 0.000000
# 3 -0.012308 -0.005727 0.018298 0.000000 0.000000 0.000000
# 4 0.000000 0.000000 0.000000 0.034640 0.000000 0.000000
# 5 0.000000 0.000000 0.000000 0.000000 0.044519 0.000000
# 6 0.000000 0.000000 0.000000 0.000000 0.000000 0.041196
#
#
# Mechanical properties :
#
#
# Convention : Reuss Voigt Hill
#
# Bulk Modulus (GPa) = 30.46133 54.32489 42.39311
# Shear Modulus (GPa) = 19.50509 24.23171 21.86840
#
# Velocity S-wave (km/s) = 3.16406 3.52665 3.35027
# Velocity P-wave (km/s) = 5.38359 6.66829 6.06008
#
# Compressibility (1/GPa) = 0.03282851
#
# Stress axis : x y z
#
# Youngs Moduli (GPa) = 20.30060 87.88230 54.64966
#
# Poissons Ratio (x) = 0.44105 0.67265
# Poissons Ratio (y) = 0.10188 0.31298
# Poissons Ratio (z) = 0.24987 0.50330
#
# Static dielectric constant tensor:
#      x y z
#    x 3.319100 0.000000 0.000000 
#    y 0.000000 3.651670 0.000000 
#    z 0.000000 0.000000 3.657700 
# 
# 
# High freq. dielectric constant tensor:
#      x y z
#    x 1.726460 0.000000 0.000000 
#    y 0.000000 1.762180 0.000000 
#    z 0.000000 0.000000 1.765370 
# 
# From -- ./inp_files/7266.got.cif
#   From: 2010.03.12/outbox.cif.g09.slc.cpg/sg36_4_cif.got.tgz:7266.got - 2010.04.14 02:13:53.
