data_PCOD8175686
_publ_section_title
;
Structure prediction by ZEFSAII (Michael W. Deem and Ramdas Pophale) SiO2 
 PCOD8175686
Probable space group: C M C 21
;
_chemical_formula_sum "Si O2"
_cell_formula_units_Z 64
_cell_length_a 8.989944
_cell_length_b 19.817593
_cell_length_c 20.001180
_cell_angle_alpha 90.000000
_cell_angle_beta 90.000000
_cell_angle_gamma 90.000000
_cell_volume 3563.391253
_symmetry_space_group_name_H-M "C M C 21"
_symmetry_group_IT_number 36
_symmetry_cell_setting 'orthorhombic'
loop_
_space_group_symop_operation_xyz
x,y,z
-x,-y,1/2+z
x,-y,1/2+z
-x,y,z
1/2+x,1/2+y,z
1/2-x,1/2-y,1/2+z
1/2+x,1/2-y,1/2+z
1/2-x,1/2+y,z
loop_
_atom_site_type_symbol
_atom_site_label
_atom_site_fract_x
_atom_site_fract_y
_atom_site_fract_z
Si Si1 0.327703 0.172371 0.206020
Si Si2 0.671448 0.076197 0.467670
Si Si3 0.331093 0.673584 0.715401
Si Si4 0.675770 0.681422 0.066862
Si Si5 0.175159 0.422170 0.317607
Si Si6 0.824732 0.178905 0.563567
Si Si7 0.676804 0.928880 0.817748
Si Si8 0.828777 0.581594 0.968516
O O1 0.500000 0.156667 0.189654
O O2 0.309891 0.248039 0.232988
O O3 0.234066 0.160112 0.139525
O O4 0.261688 0.123634 0.263288
O O5 0.500000 0.097489 0.477940
O O6 0.775208 0.117934 0.517037
O O7 0.726067 0.092592 0.392334
O O8 0.692218 0.997442 0.483396
O O9 0.500000 0.650587 0.726061
O O10 0.230457 0.631731 0.765010
O O11 0.280200 0.660070 0.639394
O O12 0.500000 0.688925 0.069004
O O13 0.745029 0.751947 0.042030
O O14 0.720340 0.622902 0.015978
O O15 0.239797 0.496591 0.300669
O O16 0.220651 0.401528 0.392715
O O17 0.000000 0.425615 0.312715
O O18 0.000000 0.191242 0.557981
O O19 0.500000 0.930213 0.816523
O O20 0.000000 0.602572 0.980943
#
# Coordination Sequence:
#
# PCOD8175686 Si02
#       8
#     8   8   8   8   8   8   8   8
#     4   9  18  35  55  73 100 136 169 207 260 310
#     4   9  18  34  56  80 105 136 175 213 250 303
#     4   9  19  33  49  72 103 136 166 204 255 306
#     4  11  22  35  53  77 103 134 178 221 254 301
#     4   9  18  33  54  77 101 132 170 209 247 299
#     4  10  21  37  54  75 106 139 171 211 263 312
#     4   8  16  33  55  77 101 132 170 208 250 302
#     4   9  19  36  54  75 107 141 171 209 259 307
#
# _framework density 17.960419999999999
#
# number of rings (size 3 to 8) (size 9 to 14) (size 15 to 20)
#    0.000    2.750    0.000    3.750    0.000    5.500 
#    0.000    8.125    0.000    0.000    0.000    0.000 
#    0.000    0.000    0.000    0.000    0.000    0.000 
#
# Total GULP energy -396782.936440 kJ/mol
# GULP energy per Si atom -12399.466764 kJ/mol
# Density = 1.791954 g / cm^3
# Si number density = 17.960420 Si / 1000 Ang^3
#
#
#
# Elastic Constant Matrix: (Units=GPa)
#
#
# Indices 1 2 3 4 5 6 
#
# 1 60.8868 38.1131 42.7576 0.0000 0.0000 0.0000
# 2 38.1131 91.7959 75.0383 0.0000 0.0000 0.0000
# 3 42.7576 75.0383 110.3508 0.0000 0.0000 0.0000
# 4 0.0000 0.0000 0.0000 33.2500 0.0000 0.0000
# 5 0.0000 0.0000 0.0000 0.0000 29.0095 0.0000
# 6 0.0000 0.0000 0.0000 0.0000 0.0000 30.1698
#
#
#
# Elastic Compliance Matrix: (Units=1/GPa)
#
#
# Indices 1 2 3 4 5 6 
#
# 1 0.023632 -0.005239 -0.005594 0.000000 0.000000 0.000000
# 2 -0.005239 0.025689 -0.015439 0.000000 0.000000 0.000000
# 3 -0.005594 -0.015439 0.021728 0.000000 0.000000 0.000000
# 4 0.000000 0.000000 0.000000 0.030075 0.000000 0.000000
# 5 0.000000 0.000000 0.000000 0.000000 0.034471 0.000000
# 6 0.000000 0.000000 0.000000 0.000000 0.000000 0.033146
#
#
# Mechanical properties :
#
#
# Convention : Reuss Voigt Hill
#
# Bulk Modulus (GPa) = 54.03833 63.87239 58.95536
# Shear Modulus (GPa) = 21.98257 25.62751 23.80504
#
# Velocity S-wave (km/s) = 3.50229 3.78151 3.64458
# Velocity P-wave (km/s) = 6.81964 7.39639 7.11386
#
# Compressibility (1/GPa) = 0.01850538
#
# Stress axis : x y z
#
# Youngs Moduli (GPa) = 42.31592 38.92699 46.02387
#
# Poissons Ratio (x) = 0.20393 0.25747
# Poissons Ratio (y) = 0.22168 0.71055
# Poissons Ratio (z) = 0.23673 0.60098
#
# Static dielectric constant tensor:
#      x y z
#    x 3.097040 0.000000 0.000000 
#    y 0.000000 3.439150 0.000000 
#    z 0.000000 0.000000 3.420760 
# 
# 
# High freq. dielectric constant tensor:
#      x y z
#    x 1.678010 0.000000 0.000000 
#    y 0.000000 1.698160 0.000000 
#    z 0.000000 0.000000 1.699680 
# 
# From -- ./inp_files/13831.got.cif
#   From: 2010.03.12/outbox.cif.g09.slc.cpg/sg36_7_cif.got.tgz:13831.got - 2010.04.14 02:13:53.
