data_PCOD8175099
_publ_section_title
;
Structure prediction by ZEFSAII (Michael W. Deem and Ramdas Pophale) SiO2 
 PCOD8175099
Probable space group: C M C 21
;
_chemical_formula_sum "Si O2"
_cell_formula_units_Z 48
_cell_length_a 9.033314
_cell_length_b 22.167020
_cell_length_c 12.831362
_cell_angle_alpha 90.000000
_cell_angle_beta 90.000000
_cell_angle_gamma 90.000000
_cell_volume 2569.373126
_symmetry_space_group_name_H-M "C M C 21"
_symmetry_group_IT_number 36
_symmetry_cell_setting 'orthorhombic'
loop_
_space_group_symop_operation_xyz
x,y,z
-x,-y,1/2+z
x,-y,1/2+z
-x,y,z
1/2+x,1/2+y,z
1/2-x,1/2-y,1/2+z
1/2+x,1/2-y,1/2+z
1/2-x,1/2+y,z
loop_
_atom_site_type_symbol
_atom_site_label
_atom_site_fract_x
_atom_site_fract_y
_atom_site_fract_z
Si Si1 0.675003 0.070796 0.053850
Si Si2 0.167522 0.139466 0.227270
Si Si3 0.823988 0.560393 0.618643
Si Si4 0.167932 0.749970 0.853019
Si Si5 0.324558 0.857509 0.929469
Si Si6 0.824718 0.384267 0.330848
O O1 0.500000 0.076794 0.066891
O O2 0.750255 0.123505 0.120666
O O3 0.735575 0.006344 0.092771
O O4 0.722015 0.079170 0.933685
O O5 0.169433 0.212513 0.243444
O O6 0.253674 0.110204 0.326869
O O7 0.000000 0.114769 0.224407
O O8 0.768787 0.606754 0.530737
O O9 0.758610 0.581540 0.730033
O O10 0.000000 0.558945 0.620185
O O11 0.265453 0.788193 0.936727
O O12 0.238304 0.684022 0.836088
O O13 0.000000 0.744793 0.896002
O O14 0.500000 0.858647 0.918540
O O15 0.000000 0.380602 0.318628
#
# Coordination Sequence:
#
# PCOD8175099 Si02
#       6
#     8   8   8   8   8   8
#     4  10  20  33  56  81 104 137 178 221 256 308
#     4   9  19  35  54  75 105 143 173 211 266 315
#     4   9  19  32  53  82 108 137 174 218 262 308
#     4   8  17  33  52  75 108 144 170 207 266 320
#     4   9  17  32  56  81 103 135 178 218 255 306
#     4   9  18  33  51  78 112 140 169 213 271 315
#
# _framework density 18.6816
#
# number of rings (size 3 to 8) (size 9 to 14) (size 15 to 20)
#    1.000    2.000    0.000    0.500    2.333    1.333 
#    0.000    4.167    0.000    4.000    0.000    0.000 
#    0.000    0.000    0.000    0.000    0.000    0.000 
#
# Total GULP energy -297386.871015 kJ/mol
# GULP energy per Si atom -12391.119626 kJ/mol
# Density = 1.863908 g / cm^3
# Si number density = 18.681600 Si / 1000 Ang^3
#
#
#
# Elastic Constant Matrix: (Units=GPa)
#
#
# Indices 1 2 3 4 5 6 
#
# 1 51.3945 25.3599 37.0063 0.0000 0.0000 0.0000
# 2 25.3599 124.9851 62.9872 0.0000 0.0000 0.0000
# 3 37.0063 62.9872 143.3628 0.0000 0.0000 0.0000
# 4 0.0000 0.0000 0.0000 32.5751 0.0000 0.0000
# 5 0.0000 0.0000 0.0000 0.0000 17.4827 0.0000
# 6 0.0000 0.0000 0.0000 0.0000 0.0000 17.6655
#
#
#
# Elastic Compliance Matrix: (Units=1/GPa)
#
#
# Indices 1 2 3 4 5 6 
#
# 1 0.024396 -0.002282 -0.005295 0.000000 0.000000 0.000000
# 2 -0.002282 0.010490 -0.004020 0.000000 0.000000 0.000000
# 3 -0.005295 -0.004020 0.010108 0.000000 0.000000 0.000000
# 4 0.000000 0.000000 0.000000 0.030698 0.000000 0.000000
# 5 0.000000 0.000000 0.000000 0.000000 0.057200 0.000000
# 6 0.000000 0.000000 0.000000 0.000000 0.000000 0.056607
#
#
# Mechanical properties :
#
#
# Convention : Reuss Voigt Hill
#
# Bulk Modulus (GPa) = 45.86910 63.38324 54.62617
# Shear Modulus (GPa) = 22.73160 26.50392 24.61776
#
# Velocity S-wave (km/s) = 3.49204 3.77067 3.63403
# Velocity P-wave (km/s) = 6.39261 7.27730 6.84926
#
# Compressibility (1/GPa) = 0.02180117
#
# Stress axis : x y z
#
# Youngs Moduli (GPa) = 40.99089 95.33175 98.92988
#
# Poissons Ratio (x) = 0.21751 0.52382
# Poissons Ratio (y) = 0.09352 0.39767
# Poissons Ratio (z) = 0.21704 0.38321
#
# Static dielectric constant tensor:
#      x y z
#    x 3.044890 0.000000 0.000000 
#    y 0.000000 3.461550 0.000000 
#    z 0.000000 0.000000 3.411870 
# 
# 
# High freq. dielectric constant tensor:
#      x y z
#    x 1.688950 0.000000 0.000000 
#    y 0.000000 1.721650 0.000000 
#    z 0.000000 0.000000 1.719250 
# 
# From -- ./inp_files/6761.got.cif
#   From: 2010.03.12/outbox.cif.g09.slc.cpg/sg36_4_cif.got.tgz:6761.got - 2010.04.14 02:13:53.
