data_PCOD8175714
_publ_section_title
;
Structure prediction by ZEFSAII (Michael W. Deem and Ramdas Pophale) SiO2 
 PCOD8175714
Probable space group: C M C 21
;
_chemical_formula_sum "Si O2"
_cell_formula_units_Z 64
_cell_length_a 9.237507
_cell_length_b 15.058848
_cell_length_c 23.681171
_cell_angle_alpha 90.000000
_cell_angle_beta 90.000000
_cell_angle_gamma 90.000000
_cell_volume 3294.198036
_symmetry_space_group_name_H-M "C M C 21"
_symmetry_group_IT_number 36
_symmetry_cell_setting 'orthorhombic'
loop_
_space_group_symop_operation_xyz
x,y,z
-x,-y,1/2+z
x,-y,1/2+z
-x,y,z
1/2+x,1/2+y,z
1/2-x,1/2-y,1/2+z
1/2+x,1/2-y,1/2+z
1/2-x,1/2+y,z
loop_
_atom_site_type_symbol
_atom_site_label
_atom_site_fract_x
_atom_site_fract_y
_atom_site_fract_z
Si Si1 0.828757 0.847842 0.106880
Si Si2 0.335794 0.010373 0.912431
Si Si3 0.664094 0.218395 0.923434
Si Si4 0.332998 0.278966 0.801956
Si Si5 0.331954 0.882508 0.221078
Si Si6 0.831599 0.996464 0.522487
Si Si7 0.829016 0.792990 0.533920
Si Si8 0.329601 0.948715 0.791866
O O1 0.772928 0.862824 0.169565
O O2 0.750236 0.760412 0.083282
O O3 0.000000 0.831463 0.107124
O O4 0.786338 0.935185 0.071202
O O5 0.500000 0.978652 0.920881
O O6 0.326020 0.115622 0.908758
O O7 0.269857 0.973862 0.853994
O O8 0.245761 0.972886 0.965064
O O9 0.500000 0.243657 0.941278
O O10 0.713155 0.270713 0.867514
O O11 0.772036 0.244007 0.973936
O O12 0.500000 0.304333 0.797051
O O13 0.300568 0.187911 0.770076
O O14 0.241916 0.356756 0.772441
O O15 0.500000 0.879839 0.202069
O O16 0.287625 0.977833 0.245842
O O17 0.786424 0.896779 0.540997
O O18 0.000000 0.999920 0.509397
O O19 0.000000 0.777716 0.537897
O O20 0.500000 0.937708 0.794663
#
# Coordination Sequence:
#
# PCOD8175714 Si02
#       8
#     8   8   8   8   8   8   8   8
#     4  11  24  41  61  85 115 153 197 243 288 342
#     4   9  17  33  58  85 117 152 188 232 283 340
#     4   9  17  34  58  84 118 156 189 231 287 345
#     4  10  21  37  59  85 115 154 193 233 289 346
#     4  10  22  43  62  80 115 158 197 237 286 344
#     4   9  21  39  57  82 117 152 188 235 288 342
#     4  10  21  38  59  86 117 153 192 236 288 343
#     4  10  21  37  58  87 118 150 192 241 287 340
#
# _framework density 19.428097000000001
#
# number of rings (size 3 to 8) (size 9 to 14) (size 15 to 20)
#    0.000    2.250    1.250    0.750    1.750    4.500 
#    0.000    3.750    0.000    0.000    0.000    0.000 
#    0.000    0.000    0.000    0.000    0.000    0.000 
#
# Total GULP energy -396875.814541 kJ/mol
# GULP energy per Si atom -12402.369204 kJ/mol
# Density = 1.938388 g / cm^3
# Si number density = 19.428097 Si / 1000 Ang^3
#
#
#
# Elastic Constant Matrix: (Units=GPa)
#
#
# Indices 1 2 3 4 5 6 
#
# 1 52.4148 20.1340 29.3375 0.0000 0.0000 0.0000
# 2 20.1340 50.1480 3.9568 0.0000 0.0000 0.0000
# 3 29.3375 3.9568 70.1008 0.0000 0.0000 0.0000
# 4 0.0000 0.0000 0.0000 21.5199 0.0000 0.0000
# 5 0.0000 0.0000 0.0000 0.0000 36.2170 0.0000
# 6 0.0000 0.0000 0.0000 0.0000 0.0000 31.9260
#
#
#
# Elastic Compliance Matrix: (Units=1/GPa)
#
#
# Indices 1 2 3 4 5 6 
#
# 1 0.030032 -0.011115 -0.011941 0.000000 0.000000 0.000000
# 2 -0.011115 0.024144 0.003289 0.000000 0.000000 0.000000
# 3 -0.011941 0.003289 0.019077 0.000000 0.000000 0.000000
# 4 0.000000 0.000000 0.000000 0.046469 0.000000 0.000000
# 5 0.000000 0.000000 0.000000 0.000000 0.027611 0.000000
# 6 0.000000 0.000000 0.000000 0.000000 0.000000 0.031322
#
#
# Mechanical properties :
#
#
# Convention : Reuss Voigt Hill
#
# Bulk Modulus (GPa) = 29.65762 31.05781 30.35771
# Shear Modulus (GPa) = 21.79315 25.88160 23.83738
#
# Velocity S-wave (km/s) = 3.35286 3.65386 3.50659
# Velocity P-wave (km/s) = 5.50340 5.81563 5.66167
#
# Compressibility (1/GPa) = 0.03371815
#
# Stress axis : x y z
#
# Youngs Moduli (GPa) = 33.29784 41.41783 52.41934
#
# Poissons Ratio (x) = 0.46038 0.62595
# Poissons Ratio (y) = 0.37012 -0.17241
# Poissons Ratio (z) = 0.39761 -0.13623
#
# Static dielectric constant tensor:
#      x y z
#    x 3.466520 0.000000 0.000000 
#    y 0.000000 3.615150 0.000000 
#    z 0.000000 0.000000 3.534750 
# 
# 
# High freq. dielectric constant tensor:
#      x y z
#    x 1.749490 0.000000 0.000000 
#    y 0.000000 1.762880 0.000000 
#    z 0.000000 0.000000 1.753000 
# 
# From -- ./inp_files/16570.got.cif
#   From: 2010.03.12/outbox.cif.g09.slc.cpg/sg36_9_cif.got.tgz:16570.got - 2010.04.14 02:13:53.
