data_PCOD8175602
_publ_section_title
;
Structure prediction by ZEFSAII (Michael W. Deem and Ramdas Pophale) SiO2 
 PCOD8175602
Probable space group: C M C 21
;
_chemical_formula_sum "Si O2"
_cell_formula_units_Z 64
_cell_length_a 8.902042
_cell_length_b 19.465162
_cell_length_c 18.110561
_cell_angle_alpha 90.000000
_cell_angle_beta 90.000000
_cell_angle_gamma 90.000000
_cell_volume 3138.192390
_symmetry_space_group_name_H-M "C M C 21"
_symmetry_group_IT_number 36
_symmetry_cell_setting 'orthorhombic'
loop_
_space_group_symop_operation_xyz
x,y,z
-x,-y,1/2+z
x,-y,1/2+z
-x,y,z
1/2+x,1/2+y,z
1/2-x,1/2-y,1/2+z
1/2+x,1/2-y,1/2+z
1/2-x,1/2+y,z
loop_
_atom_site_type_symbol
_atom_site_label
_atom_site_fract_x
_atom_site_fract_y
_atom_site_fract_z
Si Si1 0.673402 0.078860 0.179270
Si Si2 0.325989 0.635330 0.038163
Si Si3 0.671679 0.947415 0.270851
Si Si4 0.178375 0.383137 0.961309
Si Si5 0.173139 0.776505 0.062693
Si Si6 0.173927 0.979284 0.422154
Si Si7 0.323843 0.175072 0.307900
Si Si8 0.671737 0.310821 0.229599
O O1 0.500000 0.098320 0.163051
O O2 0.768376 0.089782 0.105919
O O3 0.742871 0.126678 0.243785
O O4 0.690854 0.999951 0.203226
O O5 0.500000 0.652073 0.050010
O O6 0.239475 0.706790 0.029140
O O7 0.298107 0.592491 0.963670
O O8 0.500000 0.945763 0.298342
O O9 0.717330 0.873798 0.239699
O O10 0.773881 0.970990 0.338386
O O11 0.233757 0.461378 0.963613
O O12 0.242144 0.346266 0.887237
O O13 0.000000 0.382055 0.965379
O O14 0.242473 0.342866 0.031317
O O15 0.195501 0.775181 0.150610
O O16 0.000000 0.781214 0.040388
O O17 0.000000 0.999926 0.423269
O O18 0.500000 0.161081 0.309278
O O19 0.287039 0.254495 0.291669
O O20 0.500000 0.336051 0.238769
#
# Coordination Sequence:
#
# PCOD8175602 Si02
#       8
#     8   8   8   8   8   8   8   8
#     4  10  20  41  66  89 119 159 204 254 312 370
#     4  11  25  42  63  92 125 164 212 260 311 375
#     4  11  24  41  64  95 126 160 209 263 313 370
#     4  11  23  41  66  93 127 166 210 262 314 375
#     4  11  24  43  65  92 127 167 210 257 315 379
#     4  11  25  44  63  90 128 169 212 258 313 376
#     4   9  18  39  65  87 116 159 201 245 308 369
#     4  10  22  41  64  88 124 166 202 251 314 376
#
# _framework density 20.393905
#
# number of rings (size 3 to 8) (size 9 to 14) (size 15 to 20)
#    0.000    1.500    2.500    1.875    3.500    4.000 
#    0.000    0.625    0.000    0.000    0.000    0.000 
#    0.000    0.000    0.000    0.000    0.000    0.000 
#
# Total GULP energy -396974.358694 kJ/mol
# GULP energy per Si atom -12405.448709 kJ/mol
# Density = 2.034749 g / cm^3
# Si number density = 20.393905 Si / 1000 Ang^3
#
#
#
# Elastic Constant Matrix: (Units=GPa)
#
#
# Indices 1 2 3 4 5 6 
#
# 1 91.5511 43.9253 29.0283 0.0000 0.0000 0.0000
# 2 43.9253 107.9818 11.4711 0.0000 0.0000 0.0000
# 3 29.0283 11.4711 43.1031 0.0000 0.0000 0.0000
# 4 0.0000 0.0000 0.0000 34.9494 0.0000 0.0000
# 5 0.0000 0.0000 0.0000 0.0000 31.2054 0.0000
# 6 0.0000 0.0000 0.0000 0.0000 0.0000 39.4084
#
#
#
# Elastic Compliance Matrix: (Units=1/GPa)
#
#
# Indices 1 2 3 4 5 6 
#
# 1 0.016803 -0.005797 -0.009774 0.000000 0.000000 0.000000
# 2 -0.005797 0.011530 0.000836 0.000000 0.000000 0.000000
# 3 -0.009774 0.000836 0.029560 0.000000 0.000000 0.000000
# 4 0.000000 0.000000 0.000000 0.028613 0.000000 0.000000
# 5 0.000000 0.000000 0.000000 0.000000 0.032046 0.000000
# 6 0.000000 0.000000 0.000000 0.000000 0.000000 0.025375
#
#
# Mechanical properties :
#
#
# Convention : Reuss Voigt Hill
#
# Bulk Modulus (GPa) = 35.18247 45.72061 40.45154
# Shear Modulus (GPa) = 27.34161 31.66005 29.50083
#
# Velocity S-wave (km/s) = 3.66550 3.94436 3.80748
# Velocity P-wave (km/s) = 5.93324 6.57354 6.26158
#
# Compressibility (1/GPa) = 0.02842325
#
# Stress axis : x y z
#
# Youngs Moduli (GPa) = 59.51277 86.72881 33.82958
#
# Poissons Ratio (x) = 0.50277 0.33063
# Poissons Ratio (y) = 0.34500 -0.02826
# Poissons Ratio (z) = 0.58165 -0.07246
#
# Static dielectric constant tensor:
#      x y z
#    x 3.622480 0.000000 0.000000 
#    y 0.000000 3.732490 0.000000 
#    z 0.000000 0.000000 3.724180 
# 
# 
# High freq. dielectric constant tensor:
#      x y z
#    x 1.788130 0.000000 0.000000 
#    y 0.000000 1.809220 0.000000 
#    z 0.000000 0.000000 1.798960 
# 
# From -- ./inp_files/13984.got.cif
#   From: 2010.03.12/outbox.cif.g09.slc.cpg/sg36_7_cif.got.tgz:13984.got - 2010.04.14 02:13:53.
