data_PCOD8175472
_publ_section_title
;
Structure prediction by ZEFSAII (Michael W. Deem and Ramdas Pophale) SiO2 
 PCOD8175472
Probable space group: C M C 21
;
_chemical_formula_sum "Si O2"
_cell_formula_units_Z 64
_cell_length_a 8.759496
_cell_length_b 29.012702
_cell_length_c 12.316947
_cell_angle_alpha 90.000000
_cell_angle_beta 90.000000
_cell_angle_gamma 90.000000
_cell_volume 3130.187613
_symmetry_space_group_name_H-M "C M C 21"
_symmetry_group_IT_number 36
_symmetry_cell_setting 'orthorhombic'
loop_
_space_group_symop_operation_xyz
x,y,z
-x,-y,1/2+z
x,-y,1/2+z
-x,y,z
1/2+x,1/2+y,z
1/2-x,1/2-y,1/2+z
1/2+x,1/2-y,1/2+z
1/2-x,1/2+y,z
loop_
_atom_site_type_symbol
_atom_site_label
_atom_site_fract_x
_atom_site_fract_y
_atom_site_fract_z
Si Si1 0.318714 0.084042 0.388270
Si Si2 0.681096 0.567224 0.616422
Si Si3 0.182475 0.627919 0.788734
Si Si4 0.821798 0.085993 0.996895
Si Si5 0.323775 0.814961 0.835346
Si Si6 0.319439 0.974875 0.676165
Si Si7 0.169362 0.331189 0.596674
Si Si8 0.331889 0.776985 0.385706
O O1 0.500000 0.082019 0.403921
O O2 0.238454 0.062080 0.492952
O O3 0.255554 0.136452 0.377219
O O4 0.271231 0.056205 0.279575
O O5 0.500000 0.569567 0.619082
O O6 0.750758 0.613417 0.671887
O O7 0.741277 0.524633 0.688506
O O8 0.238087 0.680353 0.815588
O O9 0.000000 0.625815 0.790813
O O10 0.245206 0.592424 0.879220
O O11 0.741370 0.045001 0.062165
O O12 0.797513 0.132007 0.066880
O O13 0.000000 0.075346 0.982937
O O14 0.500000 0.816762 0.861130
O O15 0.285179 0.808288 0.709322
O O16 0.261976 0.769661 0.891924
O O17 0.500000 0.980857 0.669762
O O18 0.161312 0.290730 0.510783
O O19 0.000000 0.355367 0.605747
O O20 0.500000 0.766068 0.340074
#
# Coordination Sequence:
#
# PCOD8175472 Si02
#       8
#     8   8   8   8   8   8   8   8
#     4  10  23  44  67  92 124 168 215 254 311 389
#     4  12  27  43  63  95 133 165 208 269 323 369
#     4  10  22  43  65  87 124 171 215 253 308 385
#     4  11  21  35  61  94 122 151 200 266 317 359
#     4  10  20  37  62  89 121 160 210 261 309 374
#     4  11  23  43  68  90 122 168 213 251 308 385
#     4   9  18  37  57  80 115 161 209 253 307 375
#     4   9  20  36  59  89 121 160 210 261 315 374
#
# _framework density 20.446059999999999
#
# number of rings (size 3 to 8) (size 9 to 14) (size 15 to 20)
#    0.000    1.750    1.250    3.750    1.750    5.500 
#    0.000    2.500    0.000    0.000    0.000    0.000 
#    0.000    0.000    0.000    0.000    0.000    0.000 
#
# Total GULP energy -396742.432154 kJ/mol
# GULP energy per Si atom -12398.201005 kJ/mol
# Density = 2.039952 g / cm^3
# Si number density = 20.446060 Si / 1000 Ang^3
#
#
#
# Elastic Constant Matrix: (Units=GPa)
#
#
# Indices 1 2 3 4 5 6 
#
# 1 80.6790 29.7493 34.4251 0.0000 0.0000 0.0000
# 2 29.7493 111.1146 35.0608 0.0000 0.0000 0.0000
# 3 34.4251 35.0608 78.5952 0.0000 0.0000 0.0000
# 4 0.0000 0.0000 0.0000 25.2388 0.0000 0.0000
# 5 0.0000 0.0000 0.0000 0.0000 25.2981 0.0000
# 6 0.0000 0.0000 0.0000 0.0000 0.0000 35.6216
#
#
#
# Elastic Compliance Matrix: (Units=1/GPa)
#
#
# Indices 1 2 3 4 5 6 
#
# 1 0.015765 -0.002377 -0.005845 0.000000 0.000000 0.000000
# 2 -0.002377 0.010832 -0.003791 0.000000 0.000000 0.000000
# 3 -0.005845 -0.003791 0.016975 0.000000 0.000000 0.000000
# 4 0.000000 0.000000 0.000000 0.039622 0.000000 0.000000
# 5 0.000000 0.000000 0.000000 0.000000 0.039529 0.000000
# 6 0.000000 0.000000 0.000000 0.000000 0.000000 0.028073
#
#
# Mechanical properties :
#
#
# Convention : Reuss Voigt Hill
#
# Bulk Modulus (GPa) = 51.15994 52.09545 51.62769
# Shear Modulus (GPa) = 27.57304 28.64195 28.10749
#
# Velocity S-wave (km/s) = 3.67628 3.74686 3.71174
# Velocity P-wave (km/s) = 6.56477 6.65232 6.60869
#
# Compressibility (1/GPa) = 0.01954655
#
# Stress axis : x y z
#
# Youngs Moduli (GPa) = 63.43103 92.31664 58.91072
#
# Poissons Ratio (x) = 0.21940 0.34434
# Poissons Ratio (y) = 0.15075 0.22335
# Poissons Ratio (z) = 0.37076 0.35000
#
# Static dielectric constant tensor:
#      x y z
#    x 3.607070 0.000000 0.000000 
#    y 0.000000 3.735620 0.000000 
#    z 0.000000 0.000000 3.767750 
# 
# 
# High freq. dielectric constant tensor:
#      x y z
#    x 1.789990 0.000000 0.000000 
#    y 0.000000 1.798530 0.000000 
#    z 0.000000 0.000000 1.802290 
# 
# From -- ./inp_files/7272.got.cif
#   From: 2010.03.12/outbox.cif.g09.slc.cpg/sg36_4_cif.got.tgz:7272.got - 2010.04.14 02:13:53.
