data_PCOD8175281
_publ_section_title
;
Structure prediction by ZEFSAII (Michael W. Deem and Ramdas Pophale) SiO2 
 PCOD8175281
Probable space group: C M C 21
;
_chemical_formula_sum "Si O2"
_cell_formula_units_Z 64
_cell_length_a 8.707659
_cell_length_b 15.368558
_cell_length_c 23.857538
_cell_angle_alpha 90.000000
_cell_angle_beta 90.000000
_cell_angle_gamma 90.000000
_cell_volume 3192.715039
_symmetry_space_group_name_H-M "C M C 21"
_symmetry_group_IT_number 36
_symmetry_cell_setting 'orthorhombic'
loop_
_space_group_symop_operation_xyz
x,y,z
-x,-y,1/2+z
x,-y,1/2+z
-x,y,z
1/2+x,1/2+y,z
1/2-x,1/2-y,1/2+z
1/2+x,1/2-y,1/2+z
1/2-x,1/2+y,z
loop_
_atom_site_type_symbol
_atom_site_label
_atom_site_fract_x
_atom_site_fract_y
_atom_site_fract_z
Si Si1 0.317126 0.203264 0.036510
Si Si2 0.682355 0.133211 0.593546
Si Si3 0.325591 0.266176 0.919686
Si Si4 0.316776 0.737622 0.296989
Si Si5 0.320359 0.947681 0.792040
Si Si6 0.673471 0.466430 0.906573
Si Si7 0.817972 0.608217 0.719886
Si Si8 0.819343 0.024580 0.026056
O O1 0.500000 0.213402 0.039545
O O2 0.240993 0.270577 0.079286
O O3 0.265611 0.106579 0.054402
O O4 0.248912 0.220984 0.973836
O O5 0.500000 0.129346 0.588459
O O6 0.739607 0.112169 0.656320
O O7 0.756079 0.063594 0.552300
O O8 0.500000 0.234759 0.918417
O O9 0.250302 0.240757 0.859566
O O10 0.311149 0.368711 0.928871
O O11 0.500000 0.735508 0.299298
O O12 0.263620 0.642239 0.277922
O O13 0.251145 0.809228 0.254269
O O14 0.500000 0.932315 0.786285
O O15 0.285414 0.983856 0.854426
O O16 0.259663 0.018697 0.747572
O O17 0.500000 0.484259 0.886152
O O18 0.717838 0.526520 0.959411
O O19 0.000000 0.613127 0.723443
O O20 0.000000 0.029824 0.037212
#
# Coordination Sequence:
#
# PCOD8175281 Si02
#       8
#     8   8   8   8   8   8   8   8
#     4  11  22  38  60  90 120 156 198 244 298 355
#     4  11  23  42  62  86 119 159 203 249 295 348
#     4   8  15  31  57  82 112 149 186 228 286 348
#     4   9  18  37  59  81 113 156 190 228 287 352
#     4  10  20  35  57  88 118 147 189 243 292 341
#     4   9  18  36  58  82 118 156 190 236 292 353
#     4   9  21  39  61  84 114 154 197 238 285 349
#     4  11  23  40  60  87 120 159 201 246 297 354
#
# _framework density 20.045634
#
# number of rings (size 3 to 8) (size 9 to 14) (size 15 to 20)
#    0.000    2.250    1.250    2.250    1.750    2.000 
#    0.000    8.125    0.000    0.000    0.000    0.000 
#    0.000    0.000    0.000    0.000    0.000    0.000 
#
# Total GULP energy -396743.908489 kJ/mol
# GULP energy per Si atom -12398.247140 kJ/mol
# Density = 2.000001 g / cm^3
# Si number density = 20.045634 Si / 1000 Ang^3
#
#
#
# Elastic Constant Matrix: (Units=GPa)
#
#
# Indices 1 2 3 4 5 6 
#
# 1 42.7323 9.3992 24.8142 0.0000 0.0000 0.0000
# 2 9.3992 65.3319 23.0195 0.0000 0.0000 0.0000
# 3 24.8142 23.0195 85.0623 0.0000 0.0000 0.0000
# 4 0.0000 0.0000 0.0000 29.9470 0.0000 0.0000
# 5 0.0000 0.0000 0.0000 0.0000 22.8292 0.0000
# 6 0.0000 0.0000 0.0000 0.0000 0.0000 30.3599
#
#
#
# Elastic Compliance Matrix: (Units=1/GPa)
#
#
# Indices 1 2 3 4 5 6 
#
# 1 0.028271 -0.001284 -0.007900 0.000000 0.000000 0.000000
# 2 -0.001284 0.016978 -0.004220 0.000000 0.000000 0.000000
# 3 -0.007900 -0.004220 0.015203 0.000000 0.000000 0.000000
# 4 0.000000 0.000000 0.000000 0.033392 0.000000 0.000000
# 5 0.000000 0.000000 0.000000 0.000000 0.043803 0.000000
# 6 0.000000 0.000000 0.000000 0.000000 0.000000 0.032938
#
#
# Mechanical properties :
#
#
# Convention : Reuss Voigt Hill
#
# Bulk Modulus (GPa) = 29.72252 34.17690 31.94971
# Shear Modulus (GPa) = 23.96837 25.68680 24.82759
#
# Velocity S-wave (km/s) = 3.46163 3.58357 3.52313
# Velocity P-wave (km/s) = 5.55309 5.84886 5.70289
#
# Compressibility (1/GPa) = 0.03364453
#
# Stress axis : x y z
#
# Youngs Moduli (GPa) = 35.37165 58.89943 65.77816
#
# Poissons Ratio (x) = 0.07562 0.51963
# Poissons Ratio (y) = 0.04541 0.27759
# Poissons Ratio (z) = 0.27943 0.24856
#
# Static dielectric constant tensor:
#      x y z
#    x 3.343650 0.000000 0.000000 
#    y 0.000000 3.652210 0.000000 
#    z 0.000000 0.000000 3.842870 
# 
# 
# High freq. dielectric constant tensor:
#      x y z
#    x 1.757150 0.000000 0.000000 
#    y 0.000000 1.787550 0.000000 
#    z 0.000000 0.000000 1.782440 
# 
# From -- ./inp_files/16661.got.cif
#   From: 2010.03.12/outbox.cif.g09.slc.cpg/sg36_9_cif.got.tgz:16661.got - 2010.04.14 02:13:53.
