data_PCOD8175702
_publ_section_title
;
Structure prediction by ZEFSAII (Michael W. Deem and Ramdas Pophale) SiO2 
 PCOD8175702
Probable space group: C M C 21
;
_chemical_formula_sum "Si O2"
_cell_formula_units_Z 64
_cell_length_a 8.440414
_cell_length_b 20.628858
_cell_length_c 17.687590
_cell_angle_alpha 90.000000
_cell_angle_beta 90.000000
_cell_angle_gamma 90.000000
_cell_volume 3079.694222
_symmetry_space_group_name_H-M "C M C 21"
_symmetry_group_IT_number 36
_symmetry_cell_setting 'orthorhombic'
loop_
_space_group_symop_operation_xyz
x,y,z
-x,-y,1/2+z
x,-y,1/2+z
-x,y,z
1/2+x,1/2+y,z
1/2-x,1/2-y,1/2+z
1/2+x,1/2-y,1/2+z
1/2-x,1/2+y,z
loop_
_atom_site_type_symbol
_atom_site_label
_atom_site_fract_x
_atom_site_fract_y
_atom_site_fract_z
Si Si1 0.688268 0.761321 0.371190
Si Si2 0.315153 0.368443 0.791699
Si Si3 0.684500 0.007118 0.541060
Si Si4 0.315130 0.372334 0.121536
Si Si5 0.685148 0.889275 0.285561
Si Si6 0.182559 0.003060 0.380784
Si Si7 0.311185 0.241934 0.041337
Si Si8 0.314595 0.882274 0.627960
O O1 0.500000 0.759403 0.373237
O O2 0.751115 0.697990 0.327430
O O3 0.749189 0.825008 0.327637
O O4 0.756986 0.761001 0.456179
O O5 0.500000 0.363863 0.771963
O O6 0.279395 0.425507 0.850291
O O7 0.220680 0.382727 0.715967
O O8 0.500000 0.019520 0.557505
O O9 0.708780 0.990091 0.453328
O O10 0.753081 0.947444 0.590133
O O11 0.785506 0.070026 0.562592
O O12 0.500000 0.367958 0.141694
O O13 0.215114 0.383785 0.196788
O O14 0.252088 0.306801 0.082628
O O15 0.500000 0.899275 0.300649
O O16 0.778721 0.951051 0.316352
O O17 0.000000 0.997142 0.404206
O O18 0.500000 0.241136 0.039018
O O19 0.240353 0.180917 0.087377
O O20 0.500000 0.880633 0.613632
#
# Coordination Sequence:
#
# PCOD8175702 Si02
#       8
#     8   8   8   8   8   8   8   8
#     4   9  18  35  58  82 110 147 190 234 282 334
#     4  10  21  37  58  83 111 147 188 230 279 333
#     4  11  23  39  60  85 114 149 190 235 286 342
#     4  11  22  37  59  85 116 152 190 234 283 338
#     4  11  22  37  59  85 116 152 190 234 283 338
#     4  11  23  39  60  85 114 149 190 235 286 342
#     4   9  18  35  58  82 110 147 190 234 282 334
#     4  10  21  37  58  83 111 147 188 230 279 333
#
# _framework density 20.781285
#
# number of rings (size 3 to 8) (size 9 to 14) (size 15 to 20)
#    0.000    1.750    0.000    4.500    0.000    8.000 
#    0.000    1.250    0.000    5.250    0.000    0.000 
#    0.000    0.000    0.000    0.000    0.000    0.000 
#
# Total GULP energy -396979.059027 kJ/mol
# GULP energy per Si atom -12405.595595 kJ/mol
# Density = 2.073399 g / cm^3
# Si number density = 20.781285 Si / 1000 Ang^3
#
#
#
# Elastic Constant Matrix: (Units=GPa)
#
#
# Indices 1 2 3 4 5 6 
#
# 1 24.9619 30.6398 14.1183 0.0000 0.0000 0.0000
# 2 30.6398 124.0480 19.1771 0.0000 0.0000 0.0000
# 3 14.1183 19.1771 104.5828 0.0000 0.0000 0.0000
# 4 0.0000 0.0000 0.0000 40.9247 0.0000 0.0000
# 5 0.0000 0.0000 0.0000 0.0000 30.4787 0.0000
# 6 0.0000 0.0000 0.0000 0.0000 0.0000 23.6784
#
#
#
# Elastic Compliance Matrix: (Units=1/GPa)
#
#
# Indices 1 2 3 4 5 6 
#
# 1 0.060504 -0.014081 -0.005586 0.000000 0.000000 0.000000
# 2 -0.014081 0.011574 -0.000221 0.000000 0.000000 0.000000
# 3 -0.005586 -0.000221 0.010356 0.000000 0.000000 0.000000
# 4 0.000000 0.000000 0.000000 0.024435 0.000000 0.000000
# 5 0.000000 0.000000 0.000000 0.000000 0.032810 0.000000
# 6 0.000000 0.000000 0.000000 0.000000 0.000000 0.042233
#
#
# Mechanical properties :
#
#
# Convention : Reuss Voigt Hill
#
# Bulk Modulus (GPa) = 23.44227 42.38479 32.91353
# Shear Modulus (GPa) = 21.19475 31.66019 26.42747
#
# Velocity S-wave (km/s) = 3.19705 3.90743 3.56995
# Velocity P-wave (km/s) = 4.99331 6.38728 5.73282
#
# Compressibility (1/GPa) = 0.04265798
#
# Stress axis : x y z
#
# Youngs Moduli (GPa) = 16.52776 86.40339 96.55815
#
# Poissons Ratio (x) = 1.21665 0.53936
# Poissons Ratio (y) = 0.23273 0.02137
# Poissons Ratio (z) = 0.09232 0.01913
#
# Static dielectric constant tensor:
#      x y z
#    x 3.356690 0.000000 0.000000 
#    y 0.000000 4.062960 0.000000 
#    z 0.000000 0.000000 3.734830 
# 
# 
# High freq. dielectric constant tensor:
#      x y z
#    x 1.782920 0.000000 0.000000 
#    y 0.000000 1.833140 0.000000 
#    z 0.000000 0.000000 1.826320 
# 
# From -- ./inp_files/13795.got.cif
#   From: 2010.03.12/outbox.cif.g09.slc.cpg/sg36_7_cif.got.tgz:13795.got - 2010.04.14 02:13:53.
