data_PCOD8175049
_publ_section_title
;
Structure prediction by ZEFSAII (Michael W. Deem and Ramdas Pophale) SiO2 
 PCOD8175049
Probable space group: C M C 21
;
_chemical_formula_sum "Si O2"
_cell_formula_units_Z 64
_cell_length_a 9.148444
_cell_length_b 19.149386
_cell_length_c 20.672739
_cell_angle_alpha 90.000000
_cell_angle_beta 90.000000
_cell_angle_gamma 90.000000
_cell_volume 3621.596894
_symmetry_space_group_name_H-M "C M C 21"
_symmetry_group_IT_number 36
_symmetry_cell_setting 'orthorhombic'
loop_
_space_group_symop_operation_xyz
x,y,z
-x,-y,1/2+z
x,-y,1/2+z
-x,y,z
1/2+x,1/2+y,z
1/2-x,1/2-y,1/2+z
1/2+x,1/2-y,1/2+z
1/2-x,1/2+y,z
loop_
_atom_site_type_symbol
_atom_site_label
_atom_site_fract_x
_atom_site_fract_y
_atom_site_fract_z
Si Si1 0.337794 0.289966 0.089380
Si Si2 0.836870 0.291722 0.210609
Si Si3 0.330471 0.544418 0.445538
Si Si4 0.825550 0.553599 0.847712
Si Si5 0.330910 0.291926 0.943821
Si Si6 0.840373 0.542723 0.706655
Si Si7 0.839466 0.955656 0.088670
Si Si8 0.325403 0.300356 0.340898
O O1 0.500000 0.259486 0.101085
O O2 0.231600 0.258824 0.144839
O O3 0.344450 0.372903 0.095670
O O4 0.284759 0.270350 0.017038
O O5 0.846343 0.374153 0.201977
O O6 0.736589 0.273221 0.272203
O O7 0.000000 0.260753 0.220643
O O8 0.500000 0.523086 0.435214
O O9 0.222445 0.503213 0.399206
O O10 0.310643 0.626014 0.432774
O O11 0.276864 0.524935 0.518097
O O12 0.776745 0.523699 0.777349
O O13 0.743157 0.625778 0.861309
O O14 0.000000 0.566676 0.849725
O O15 0.500000 0.270850 0.931098
O O16 0.220783 0.254146 0.895634
O O17 0.749666 0.509983 0.647575
O O18 0.000000 0.509871 0.699171
O O19 0.000000 0.987545 0.094917
O O20 0.500000 0.306091 0.336668
#
# Coordination Sequence:
#
# PCOD8175049 Si02
#       8
#     8   8   8   8   8   8   8   8
#     4   8  14  26  45  68  93 122 155 192 236 285
#     4   9  16  27  44  67  95 123 155 198 242 282
#     4   9  18  32  50  73  99 127 158 193 236 287
#     4  10  20  33  49  71  99 129 161 199 243 287
#     4   9  18  33  51  72 101 131 159 197 244 290
#     4   8  15  26  41  64  91 119 153 192 233 276
#     4   8  14  25  43  67  92 118 151 190 230 274
#     4  11  21  32  49  72  98 129 166 203 240 287
#
# _framework density 17.671762999999999
#
# number of rings (size 3 to 8) (size 9 to 14) (size 15 to 20)
#    0.000    3.000    0.000    4.125    0.000    5.000 
#    0.000    2.500    0.000    1.500    0.000    7.000 
#    0.000    0.000    0.000    0.000    0.000    0.000 
#
# Total GULP energy -396557.953015 kJ/mol
# GULP energy per Si atom -12392.436032 kJ/mol
# Density = 1.763154 g / cm^3
# Si number density = 17.671763 Si / 1000 Ang^3
#
#
#
# Elastic Constant Matrix: (Units=GPa)
#
#
# Indices 1 2 3 4 5 6 
#
# 1 113.1221 31.0317 76.6246 0.0000 0.0000 0.0000
# 2 31.0317 28.8507 39.3984 0.0000 0.0000 0.0000
# 3 76.6246 39.3984 157.3680 0.0000 0.0000 0.0000
# 4 0.0000 0.0000 0.0000 22.7074 0.0000 0.0000
# 5 0.0000 0.0000 0.0000 0.0000 37.0551 0.0000
# 6 0.0000 0.0000 0.0000 0.0000 0.0000 20.4231
#
#
#
# Elastic Compliance Matrix: (Units=1/GPa)
#
#
# Indices 1 2 3 4 5 6 
#
# 1 0.014616 -0.009120 -0.004833 0.000000 0.000000 0.000000
# 2 -0.009120 0.058359 -0.010170 0.000000 0.000000 0.000000
# 3 -0.004833 -0.010170 0.011254 0.000000 0.000000 0.000000
# 4 0.000000 0.000000 0.000000 0.044039 0.000000 0.000000
# 5 0.000000 0.000000 0.000000 0.000000 0.026987 0.000000
# 6 0.000000 0.000000 0.000000 0.000000 0.000000 0.048964
#
#
# Mechanical properties :
#
#
# Convention : Reuss Voigt Hill
#
# Bulk Modulus (GPa) = 27.79183 65.93889 46.86536
# Shear Modulus (GPa) = 18.90652 26.18951 22.54801
#
# Velocity S-wave (km/s) = 3.27444 3.85385 3.57590
# Velocity P-wave (km/s) = 5.48240 7.56287 6.60506
#
# Compressibility (1/GPa) = 0.03598179
#
# Stress axis : x y z
#
# Youngs Moduli (GPa) = 68.41924 17.13536 88.85733
#
# Poissons Ratio (x) = 0.15628 0.42947
# Poissons Ratio (y) = 0.62401 0.90366
# Poissons Ratio (z) = 0.33069 0.17426
#
# Static dielectric constant tensor:
#      x y z
#    x 3.486480 0.000000 0.000000 
#    y 0.000000 2.686750 0.000000 
#    z 0.000000 0.000000 3.608010 
# 
# 
# High freq. dielectric constant tensor:
#      x y z
#    x 1.685500 0.000000 0.000000 
#    y 0.000000 1.617720 0.000000 
#    z 0.000000 0.000000 1.702930 
# 
# From -- ./inp_files/14073.got.cif
#   From: 2010.03.12/outbox.cif.g09.slc.cpg/sg36_8_cif.got.tgz:14073.got - 2010.04.14 02:13:53.
