data_PCOD8175062
_publ_section_title
;
Structure prediction by ZEFSAII (Michael W. Deem and Ramdas Pophale) SiO2 
 PCOD8175062
Probable space group: C M C 21
;
_chemical_formula_sum "Si O2"
_cell_formula_units_Z 64
_cell_length_a 9.516858
_cell_length_b 23.533838
_cell_length_c 14.376090
_cell_angle_alpha 90.000000
_cell_angle_beta 90.000000
_cell_angle_gamma 90.000000
_cell_volume 3219.786920
_symmetry_space_group_name_H-M "C M C 21"
_symmetry_group_IT_number 36
_symmetry_cell_setting 'orthorhombic'
loop_
_space_group_symop_operation_xyz
x,y,z
-x,-y,1/2+z
x,-y,1/2+z
-x,y,z
1/2+x,1/2+y,z
1/2-x,1/2-y,1/2+z
1/2+x,1/2-y,1/2+z
1/2-x,1/2+y,z
loop_
_atom_site_type_symbol
_atom_site_label
_atom_site_fract_x
_atom_site_fract_y
_atom_site_fract_z
Si Si1 0.165031 0.239764 0.305600
Si Si2 0.834378 0.662031 0.177782
Si Si3 0.336827 0.198408 0.981001
Si Si4 0.665294 0.551483 0.189083
Si Si5 0.158684 0.585210 0.897994
Si Si6 0.156640 0.357280 0.207529
Si Si7 0.841615 0.021176 0.396056
Si Si8 0.340769 0.565769 0.591740
O O1 0.258229 0.188067 0.267696
O O2 0.213920 0.250115 0.413730
O O3 0.201956 0.295964 0.246490
O O4 0.000000 0.223797 0.297882
O O5 0.761727 0.602481 0.150216
O O6 0.000000 0.652973 0.196684
O O7 0.811049 0.706319 0.091130
O O8 0.500000 0.191526 0.955524
O O9 0.269049 0.138626 0.949919
O O10 0.500000 0.564499 0.172741
O O11 0.703179 0.548472 0.298530
O O12 0.711580 0.493791 0.136651
O O13 0.164121 0.595548 0.787866
O O14 0.246458 0.530918 0.925640
O O15 0.000000 0.574490 0.932248
O O16 0.256261 0.379064 0.125457
O O17 0.000000 0.353145 0.166786
O O18 0.827439 0.066291 0.479782
O O19 0.000000 0.998088 0.388090
O O20 0.500000 0.575116 0.624134
#
# Coordination Sequence:
#
# PCOD8175062 Si02
#       8
#     8   8   8   8   8   8   8   8
#     4   9  19  39  61  79 107 146 180 220 280 338
#     4  11  22  37  58  85 111 140 187 236 270 316
#     4   8  17  35  58  82 107 141 182 224 277 330
#     4  10  21  37  54  77 114 152 179 216 276 332
#     4   9  16  30  54  79 103 136 179 222 264 316
#     4   9  18  33  55  79 103 135 177 221 270 323
#     4  10  20  33  50  77 110 145 180 213 265 330
#     4  10  20  34  54  80 109 143 182 220 266 325
#
# _framework density 19.877091
#
# number of rings (size 3 to 8) (size 9 to 14) (size 15 to 20)
#    0.000    2.500    1.250    2.625    0.000    2.000 
#    2.250    3.750    0.000    0.000    0.000    0.000 
#    0.000    0.000    0.000    0.000    0.000    0.000 
#
# Total GULP energy -396639.628353 kJ/mol
# GULP energy per Si atom -12394.988386 kJ/mol
# Density = 1.983185 g / cm^3
# Si number density = 19.877091 Si / 1000 Ang^3
#
#
#
# Elastic Constant Matrix: (Units=GPa)
#
#
# Indices 1 2 3 4 5 6 
#
# 1 55.5775 16.7507 13.4291 0.0000 0.0000 0.0000
# 2 16.7507 33.1316 -1.5420 0.0000 0.0000 0.0000
# 3 13.4291 -1.5420 79.9054 0.0000 0.0000 0.0000
# 4 0.0000 0.0000 0.0000 25.1921 0.0000 0.0000
# 5 0.0000 0.0000 0.0000 0.0000 23.4005 0.0000
# 6 0.0000 0.0000 0.0000 0.0000 0.0000 27.7378
#
#
#
# Elastic Compliance Matrix: (Units=1/GPa)
#
#
# Indices 1 2 3 4 5 6 
#
# 1 0.022432 -0.011527 -0.003992 0.000000 0.000000 0.000000
# 2 -0.011527 0.036133 0.002635 0.000000 0.000000 0.000000
# 3 -0.003992 0.002635 0.013237 0.000000 0.000000 0.000000
# 4 0.000000 0.000000 0.000000 0.039695 0.000000 0.000000
# 5 0.000000 0.000000 0.000000 0.000000 0.042734 0.000000
# 6 0.000000 0.000000 0.000000 0.000000 0.000000 0.036052
#
#
# Mechanical properties :
#
#
# Convention : Reuss Voigt Hill
#
# Bulk Modulus (GPa) = 21.72405 25.09889 23.41147
# Shear Modulus (GPa) = 21.60802 24.59787 23.10294
#
# Velocity S-wave (km/s) = 3.30067 3.52163 3.41294
# Velocity P-wave (km/s) = 5.04765 5.40280 5.22824
#
# Compressibility (1/GPa) = 0.04603193
#
# Stress axis : x y z
#
# Youngs Moduli (GPa) = 44.57985 27.67556 75.54811
#
# Poissons Ratio (x) = 0.31901 0.30162
# Poissons Ratio (y) = 0.51386 -0.19903
# Poissons Ratio (z) = 0.17798 -0.07291
#
# Static dielectric constant tensor:
#      x y z
#    x 3.405820 0.000000 0.000000 
#    y 0.000000 3.305090 0.000000 
#    z 0.000000 0.000000 3.672380 
# 
# 
# High freq. dielectric constant tensor:
#      x y z
#    x 1.754840 0.000000 0.000000 
#    y 0.000000 1.755840 0.000000 
#    z 0.000000 0.000000 1.779910 
# 
# From -- ./inp_files/10983.got.cif
#   From: 2010.03.12/outbox.cif.g09.slc.cpg/sg36_6_cif.got.tgz:10983.got - 2010.04.14 02:13:53.
