data_PCOD8175050
_publ_section_title
;
Structure prediction by ZEFSAII (Michael W. Deem and Ramdas Pophale) SiO2 
 PCOD8175050
Probable space group: C M C 21
;
_chemical_formula_sum "Si O2"
_cell_formula_units_Z 64
_cell_length_a 9.495191
_cell_length_b 22.675844
_cell_length_c 15.975583
_cell_angle_alpha 90.000000
_cell_angle_beta 90.000000
_cell_angle_gamma 90.000000
_cell_volume 3439.726258
_symmetry_space_group_name_H-M "C M C 21"
_symmetry_group_IT_number 36
_symmetry_cell_setting 'orthorhombic'
loop_
_space_group_symop_operation_xyz
x,y,z
-x,-y,1/2+z
x,-y,1/2+z
-x,y,z
1/2+x,1/2+y,z
1/2-x,1/2-y,1/2+z
1/2+x,1/2-y,1/2+z
1/2-x,1/2+y,z
loop_
_atom_site_type_symbol
_atom_site_label
_atom_site_fract_x
_atom_site_fract_y
_atom_site_fract_z
Si Si1 0.334176 0.780990 0.950340
Si Si2 0.840814 0.974405 0.772286
Si Si3 0.152035 0.468673 0.490149
Si Si4 0.157005 0.898189 0.608706
Si Si5 0.167666 0.285925 0.303969
Si Si6 0.166831 0.768413 0.629283
Si Si7 0.655489 0.078997 0.804463
Si Si8 0.837465 0.414770 0.912332
O O1 0.500000 0.767940 0.937910
O O2 0.247464 0.746821 0.879269
O O3 0.299541 0.850086 0.944503
O O4 0.282063 0.762198 0.043152
O O5 0.840901 0.941328 0.685666
O O6 0.762125 0.931002 0.835447
O O7 0.000000 0.985836 0.804223
O O8 0.764130 0.036951 0.755343
O O9 0.266951 0.429495 0.533232
O O10 0.143985 0.447055 0.396033
O O11 0.189846 0.538506 0.487902
O O12 0.000000 0.459662 0.534246
O O13 0.226617 0.835204 0.630314
O O14 0.000000 0.885970 0.576504
O O15 0.223205 0.262657 0.213827
O O16 0.210981 0.354346 0.306916
O O17 0.000000 0.276775 0.316074
O O18 0.000000 0.766593 0.634003
O O19 0.500000 0.077024 0.761707
O O20 0.000000 0.418804 0.882575
#
# Coordination Sequence:
#
# PCOD8175050 Si02
#       8
#     8   8   8   8   8   8   8   8
#     4  10  20  35  56  80 108 143 179 218 264 313
#     4  10  20  33  52  76 102 135 173 214 260 311
#     4   9  18  32  50  73 100 130 167 213 260 308
#     4  10  20  33  49  73 103 133 170 213 257 308
#     4  10  20  36  58  80 106 143 181 217 262 317
#     4   9  19  35  54  77 106 141 179 215 260 323
#     4   9  19  35  54  77 103 132 171 216 262 312
#     4   9  19  35  53  76 104 133 172 216 259 310
#
# _framework density 18.606131000000001
#
# number of rings (size 3 to 8) (size 9 to 14) (size 15 to 20)
#    0.000    2.500    0.000    2.625    0.000    6.000 
#    0.000    3.750    0.000    0.000    0.000    0.000 
#    0.000    0.000    0.000    0.000    0.000    0.000 
#
# Total GULP energy -396653.964803 kJ/mol
# GULP energy per Si atom -12395.436400 kJ/mol
# Density = 1.856378 g / cm^3
# Si number density = 18.606131 Si / 1000 Ang^3
#
#
#
# Elastic Constant Matrix: (Units=GPa)
#
#
# Indices 1 2 3 4 5 6 
#
# 1 51.4819 39.7015 18.4069 0.0000 0.0000 0.0000
# 2 39.7015 165.2165 41.3047 0.0000 0.0000 0.0000
# 3 18.4069 41.3047 73.9055 0.0000 0.0000 0.0000
# 4 0.0000 0.0000 0.0000 24.1706 0.0000 0.0000
# 5 0.0000 0.0000 0.0000 0.0000 12.8498 0.0000
# 6 0.0000 0.0000 0.0000 0.0000 0.0000 16.3761
#
#
#
# Elastic Compliance Matrix: (Units=1/GPa)
#
#
# Indices 1 2 3 4 5 6 
#
# 1 0.024504 -0.005071 -0.003269 0.000000 0.000000 0.000000
# 2 -0.005071 0.008085 -0.003256 0.000000 0.000000 0.000000
# 3 -0.003269 -0.003256 0.016164 0.000000 0.000000 0.000000
# 4 0.000000 0.000000 0.000000 0.041373 0.000000 0.000000
# 5 0.000000 0.000000 0.000000 0.000000 0.077822 0.000000
# 6 0.000000 0.000000 0.000000 0.000000 0.000000 0.061065
#
#
# Mechanical properties :
#
#
# Convention : Reuss Voigt Hill
#
# Bulk Modulus (GPa) = 39.12004 54.38113 46.75059
# Shear Modulus (GPa) = 19.17732 23.42534 21.30133
#
# Velocity S-wave (km/s) = 3.21393 3.55211 3.38724
# Velocity P-wave (km/s) = 5.90284 6.79075 6.36230
#
# Compressibility (1/GPa) = 0.02556234
#
# Stress axis : x y z
#
# Youngs Moduli (GPa) = 40.81023 123.68338 61.86409
#
# Poissons Ratio (x) = 0.62720 0.20222
# Poissons Ratio (y) = 0.20695 0.20141
# Poissons Ratio (z) = 0.13340 0.40267
#
# Static dielectric constant tensor:
#      x y z
#    x 3.833910 0.000000 0.000000 
#    y 0.000000 3.839130 0.000000 
#    z 0.000000 0.000000 3.317460 
# 
# 
# High freq. dielectric constant tensor:
#      x y z
#    x 1.706560 0.000000 0.000000 
#    y 0.000000 1.742050 0.000000 
#    z 0.000000 0.000000 1.710250 
# 
# From -- ./inp_files/11035.got.cif
#   From: 2010.03.12/outbox.cif.g09.slc.cpg/sg36_6_cif.got.tgz:11035.got - 2010.04.14 02:13:53.
