data_PCOD8175670
_publ_section_title
;
Structure prediction by ZEFSAII (Michael W. Deem and Ramdas Pophale) SiO2 
 PCOD8175670
Probable space group: C M C 21
;
_chemical_formula_sum "Si O2"
_cell_formula_units_Z 40
_cell_length_a 7.889708
_cell_length_b 28.761839
_cell_length_c 8.660402
_cell_angle_alpha 90.000000
_cell_angle_beta 90.000000
_cell_angle_gamma 90.000000
_cell_volume 1965.240170
_symmetry_space_group_name_H-M "C M C 21"
_symmetry_group_IT_number 36
_symmetry_cell_setting 'orthorhombic'
loop_
_space_group_symop_operation_xyz
x,y,z
-x,-y,1/2+z
x,-y,1/2+z
-x,y,z
1/2+x,1/2+y,z
1/2-x,1/2-y,1/2+z
1/2+x,1/2-y,1/2+z
1/2-x,1/2+y,z
loop_
_atom_site_type_symbol
_atom_site_label
_atom_site_fract_x
_atom_site_fract_y
_atom_site_fract_z
Si Si1 0.313244 0.397746 0.006140
Si Si2 0.500000 0.056031 0.013113
Si Si3 0.687327 0.874523 0.328400
Si Si4 0.298431 0.785736 0.512179
Si Si5 0.000000 0.454567 0.878160
Si Si6 0.193638 0.693566 0.355332
O O1 0.500000 0.418286 0.968301
O O2 0.304770 0.392269 0.191071
O O3 0.302364 0.347351 0.928803
O O4 0.169607 0.432159 0.945891
O O5 0.500000 0.049662 0.194887
O O6 0.333166 0.085455 0.960541
O O7 0.500000 0.008004 0.922840
O O8 0.500000 0.863287 0.258132
O O9 0.764548 0.828151 0.404730
O O10 0.500000 0.779825 0.504861
O O11 0.206772 0.739119 0.459892
O O12 0.236260 0.795746 0.685301
O O13 0.000000 0.676547 0.347245
#
# Coordination Sequence:
#
# PCOD8175670 Si02
#       6
#     8   4   8   8   4   8
#     4  12  24  40  66  96 132 171 217 269 324 385
#     4  10  22  42  78  94 128 178 208 268 339 382
#     4   9  19  40  64  94 121 169 211 259 323 385
#     4  10  21  36  58  86 125 167 222 267 319 385
#     4  12  22  46  70 100 132 168 218 268 329 394
#     4  11  22  37  57  86 126 176 215 269 323 381
#
# _framework density 20.353746999999998
#
# number of rings (size 3 to 8) (size 9 to 14) (size 15 to 20)
#    0.600    0.800    2.000    4.200    0.000    5.600 
#    0.000    7.000    0.000    0.000    0.000    0.000 
#    0.000    0.000    0.000    0.000    0.000    0.000 
#
# Total GULP energy -248006.603245 kJ/mol
# GULP energy per Si atom -12400.330162 kJ/mol
# Density = 2.030742 g / cm^3
# Si number density = 20.353747 Si / 1000 Ang^3
#
#
#
# Elastic Constant Matrix: (Units=GPa)
#
#
# Indices 1 2 3 4 5 6 
#
# 1 85.3387 8.1240 7.6644 0.0000 0.0000 0.0000
# 2 8.1240 61.0286 -30.1755 0.0000 0.0000 0.0000
# 3 7.6644 -30.1755 67.7957 0.0000 0.0000 0.0000
# 4 0.0000 0.0000 0.0000 41.6839 0.0000 0.0000
# 5 0.0000 0.0000 0.0000 0.0000 18.1380 0.0000
# 6 0.0000 0.0000 0.0000 0.0000 0.0000 62.8352
#
#
#
# Elastic Compliance Matrix: (Units=1/GPa)
#
#
# Indices 1 2 3 4 5 6 
#
# 1 0.012243 -0.002967 -0.002705 0.000000 0.000000 0.000000
# 2 -0.002967 0.021729 0.010007 0.000000 0.000000 0.000000
# 3 -0.002705 0.010007 0.019510 0.000000 0.000000 0.000000
# 4 0.000000 0.000000 0.000000 0.023990 0.000000 0.000000
# 5 0.000000 0.000000 0.000000 0.000000 0.055133 0.000000
# 6 0.000000 0.000000 0.000000 0.000000 0.000000 0.015915
#
#
# Mechanical properties :
#
#
# Convention : Reuss Voigt Hill
#
# Bulk Modulus (GPa) = 16.08978 20.59877 18.34427
# Shear Modulus (GPa) = 31.13961 39.76810 35.45385
#
# Velocity S-wave (km/s) = 3.91566 4.42503 4.17812
# Velocity P-wave (km/s) = 5.32592 6.02081 5.68400
#
# Compressibility (1/GPa) = 0.06215124
#
# Stress axis : x y z
#
# Youngs Moduli (GPa) = 81.67662 46.02232 51.25598
#
# Poissons Ratio (x) = 0.13656 0.13864
# Poissons Ratio (y) = 0.24235 -0.51290
# Poissons Ratio (z) = 0.22092 -0.46053
#
# Static dielectric constant tensor:
#      x y z
#    x 3.510010 0.000000 0.000000 
#    y 0.000000 3.666970 0.000000 
#    z 0.000000 0.000000 3.782370 
# 
# 
# High freq. dielectric constant tensor:
#      x y z
#    x 1.772940 0.000000 0.000000 
#    y 0.000000 1.794340 0.000000 
#    z 0.000000 0.000000 1.809310 
# 
# From -- ./inp_files/2568.got.cif
#   From: 2010.03.12/outbox.cif.g09.slc.cpg/sg36_2_cif.got.tgz:2568.got - 2010.04.14 02:13:53.
