data_PCOD8175679
_publ_section_title
;
Structure prediction by ZEFSAII (Michael W. Deem and Ramdas Pophale) SiO2 
 PCOD8175679
Probable space group: C M C 21
;
_chemical_formula_sum "Si O2"
_cell_formula_units_Z 56
_cell_length_a 18.808987
_cell_length_b 5.164748
_cell_length_c 25.658231
_cell_angle_alpha 90.000000
_cell_angle_beta 90.000000
_cell_angle_gamma 90.000000
_cell_volume 2492.534930
_symmetry_space_group_name_H-M "C M C 21"
_symmetry_group_IT_number 36
_symmetry_cell_setting 'orthorhombic'
loop_
_space_group_symop_operation_xyz
x,y,z
-x,-y,1/2+z
x,-y,1/2+z
-x,y,z
1/2+x,1/2+y,z
1/2-x,1/2-y,1/2+z
1/2+x,1/2-y,1/2+z
1/2-x,1/2+y,z
loop_
_atom_site_type_symbol
_atom_site_label
_atom_site_fract_x
_atom_site_fract_y
_atom_site_fract_z
Si Si1 0.084383 0.540499 0.855930
Si Si2 0.292008 0.993698 0.931415
Si Si3 0.083562 0.960106 0.293892
Si Si4 0.918551 0.048638 0.571443
Si Si5 0.838815 0.449792 0.045280
Si Si6 0.209776 0.533266 0.657254
Si Si7 0.082481 0.150347 0.183477
O O1 0.127433 0.503835 0.909541
O O2 0.108417 0.315564 0.815860
O O3 0.000000 0.532596 0.868342
O O4 0.111020 0.806914 0.830210
O O5 0.253495 0.735981 0.910936
O O6 0.293496 0.002466 0.993898
O O7 0.109026 0.995854 0.234375
O O8 0.000000 0.975379 0.294591
O O9 0.899177 0.332154 0.551623
O O10 0.902890 0.032097 0.633577
O O11 0.000000 0.995846 0.559147
O O12 0.875103 0.830717 0.540485
O O13 0.785658 0.463608 0.094248
O O14 0.238630 0.261511 0.678766
O O15 0.129072 0.587708 0.676694
O O16 0.000000 0.238274 0.187359
#
# Coordination Sequence:
#
# PCOD8175679 Si02
#       7
#     8   8   8   8   8   8   8
#     4  10  22  41  64  90 119 156 203 254 305 360
#     4  12  25  43  65  92 120 159 205 253 306 362
#     4   9  19  38  64  90 119 158 202 246 301 365
#     4  10  21  36  59  94 128 157 199 252 297 345
#     4  11  22  39  60  85 121 167 203 240 298 370
#     4  11  22  38  57  85 120 157 196 241 290 351
#     4   9  20  39  63  90 122 162 204 246 295 359
#
# _framework density 22.467085999999998
#
# number of rings (size 3 to 8) (size 9 to 14) (size 15 to 20)
#    0.000    1.714    0.000    4.714    0.000    5.143 
#    0.000   15.000    0.000    0.000    0.000    0.000 
#    0.000    0.000    0.000    0.000    0.000    0.000 
#
# Total GULP energy -347257.950246 kJ/mol
# GULP energy per Si atom -12402.069652 kJ/mol
# Density = 2.241595 g / cm^3
# Si number density = 22.467086 Si / 1000 Ang^3
#
#
#
# Elastic Constant Matrix: (Units=GPa)
#
#
# Indices 1 2 3 4 5 6 
#
# 1 79.6947 22.8953 23.5469 0.0000 0.0000 0.0000
# 2 22.8953 103.1532 8.3629 0.0000 0.0000 0.0000
# 3 23.5469 8.3629 61.9174 0.0000 0.0000 0.0000
# 4 0.0000 0.0000 0.0000 20.0858 0.0000 0.0000
# 5 0.0000 0.0000 0.0000 0.0000 28.9995 0.0000
# 6 0.0000 0.0000 0.0000 0.0000 0.0000 31.5425
#
#
#
# Elastic Compliance Matrix: (Units=1/GPa)
#
#
# Indices 1 2 3 4 5 6 
#
# 1 0.014941 -0.002887 -0.005292 0.000000 0.000000 0.000000
# 2 -0.002887 0.010360 -0.000301 0.000000 0.000000 0.000000
# 3 -0.005292 -0.000301 0.018204 0.000000 0.000000 0.000000
# 4 0.000000 0.000000 0.000000 0.049786 0.000000 0.000000
# 5 0.000000 0.000000 0.000000 0.000000 0.034483 0.000000
# 6 0.000000 0.000000 0.000000 0.000000 0.000000 0.031703
#
#
# Mechanical properties :
#
#
# Convention : Reuss Voigt Hill
#
# Bulk Modulus (GPa) = 37.67412 39.37506 38.52459
# Shear Modulus (GPa) = 26.98531 28.78957 27.88744
#
# Velocity S-wave (km/s) = 3.46945 3.58356 3.52697
# Velocity P-wave (km/s) = 5.73188 5.88951 5.81123
#
# Compressibility (1/GPa) = 0.02654342
#
# Stress axis : x y z
#
# Youngs Moduli (GPa) = 66.93028 96.52924 54.93365
#
# Poissons Ratio (x) = 0.27870 0.29071
# Poissons Ratio (y) = 0.19324 0.01655
# Poissons Ratio (z) = 0.35420 0.02908
#
# Static dielectric constant tensor:
#      x y z
#    x 3.888880 0.000000 0.000000 
#    y 0.000000 4.357420 0.000000 
#    z 0.000000 0.000000 3.996930 
# 
# 
# High freq. dielectric constant tensor:
#      x y z
#    x 1.880430 0.000000 0.000000 
#    y 0.000000 1.898020 0.000000 
#    z 0.000000 0.000000 1.862820 
# 
# From -- ./inp_files/17039.got.cif
#   From: 2010.03.12/outbox.cif.g09.slc.cpg/sg36_9_cif.got.tgz:17039.got - 2010.04.14 02:13:53.
