data_PCOD8175700
_publ_section_title
;
Structure prediction by ZEFSAII (Michael W. Deem and Ramdas Pophale) SiO2 
 PCOD8175700
Probable space group: C M C 21
;
_chemical_formula_sum "Si O2"
_cell_formula_units_Z 64
_cell_length_a 13.625230
_cell_length_b 12.195656
_cell_length_c 18.563085
_cell_angle_alpha 90.000000
_cell_angle_beta 90.000000
_cell_angle_gamma 90.000000
_cell_volume 3084.602180
_symmetry_space_group_name_H-M "C M C 21"
_symmetry_group_IT_number 36
_symmetry_cell_setting 'orthorhombic'
loop_
_space_group_symop_operation_xyz
x,y,z
-x,-y,1/2+z
x,-y,1/2+z
-x,y,z
1/2+x,1/2+y,z
1/2-x,1/2-y,1/2+z
1/2+x,1/2-y,1/2+z
1/2-x,1/2+y,z
loop_
_atom_site_type_symbol
_atom_site_label
_atom_site_fract_x
_atom_site_fract_y
_atom_site_fract_z
Si Si1 0.108204 0.225033 0.699500
Si Si2 0.385216 0.692628 0.280286
Si Si3 0.111163 0.341852 0.989293
Si Si4 0.752012 0.302295 0.400820
Si Si5 0.889531 0.408777 0.509765
Si Si6 0.110162 0.947392 0.325493
Si Si7 0.388165 0.957230 0.668327
Si Si8 0.808880 0.318326 0.148683
O O1 0.116644 0.152071 0.769555
O O2 0.123389 0.354035 0.722907
O O3 0.191110 0.191839 0.642052
O O4 0.000000 0.212105 0.663385
O O5 0.500000 0.720283 0.293734
O O6 0.316818 0.762036 0.333734
O O7 0.364240 0.563425 0.289423
O O8 0.354844 0.723079 0.198700
O O9 0.117218 0.470849 0.975557
O O10 0.145336 0.311119 0.069920
O O11 0.000000 0.299171 0.980856
O O12 0.176004 0.289520 0.926586
O O13 0.823331 0.324326 0.466933
O O14 0.691314 0.414526 0.384583
O O15 0.850991 0.411427 0.591462
O O16 0.000000 0.363738 0.506276
O O17 0.000000 0.952594 0.358574
O O18 0.500000 0.997868 0.661118
O O19 0.327667 0.065083 0.689431
#
# Coordination Sequence:
#
# PCOD8175700 Si02
#       8
#     8   8   8   8   8   8   8   8
#     4  10  21  37  57  85 117 154 194 237 294 354
#     4  11  24  40  61  89 125 161 198 251 306 355
#     4  10  22  40  63  89 119 156 199 250 301 355
#     4  12  21  38  61  88 113 163 208 241 293 367
#     4   9  19  37  59  86 118 149 191 248 299 346
#     4  10  23  41  56  81 123 159 194 245 299 348
#     4   9  19  37  61  87 118 151 189 245 299 351
#     4  11  21  38  66  91 121 153 201 249 307 356
#
# _framework density 20.748218999999999
#
# number of rings (size 3 to 8) (size 9 to 14) (size 15 to 20)
#    0.000    1.750    1.250    4.125    1.750    0.000 
#    2.250    0.625    0.000    3.000    0.000    0.000 
#    0.000    0.000    0.000    0.000    0.000    0.000 
#
# Total GULP energy -396702.580147 kJ/mol
# GULP energy per Si atom -12396.955630 kJ/mol
# Density = 2.070100 g / cm^3
# Si number density = 20.748219 Si / 1000 Ang^3
#
#
#
# Elastic Constant Matrix: (Units=GPa)
#
#
# Indices 1 2 3 4 5 6 
#
# 1 116.9937 30.5300 21.8259 0.0000 0.0000 0.0000
# 2 30.5300 88.4556 11.7881 0.0000 0.0000 0.0000
# 3 21.8259 11.7881 43.1614 0.0000 0.0000 0.0000
# 4 0.0000 0.0000 0.0000 32.7143 0.0000 0.0000
# 5 0.0000 0.0000 0.0000 0.0000 21.4282 0.0000
# 6 0.0000 0.0000 0.0000 0.0000 0.0000 30.7830
#
#
#
# Elastic Compliance Matrix: (Units=1/GPa)
#
#
# Indices 1 2 3 4 5 6 
#
# 1 0.010114 -0.002915 -0.004318 0.000000 0.000000 0.000000
# 2 -0.002915 0.012572 -0.001960 0.000000 0.000000 0.000000
# 3 -0.004318 -0.001960 0.025888 0.000000 0.000000 0.000000
# 4 0.000000 0.000000 0.000000 0.030568 0.000000 0.000000
# 5 0.000000 0.000000 0.000000 0.000000 0.046667 0.000000
# 6 0.000000 0.000000 0.000000 0.000000 0.000000 0.032485
#
#
# Mechanical properties :
#
#
# Convention : Reuss Voigt Hill
#
# Bulk Modulus (GPa) = 33.12576 41.87762 37.50169
# Shear Modulus (GPa) = 26.77477 29.28290 28.02883
#
# Velocity S-wave (km/s) = 3.59620 3.76086 3.67945
# Velocity P-wave (km/s) = 5.76574 6.25191 6.01374
#
# Compressibility (1/GPa) = 0.03018799
#
# Stress axis : x y z
#
# Youngs Moduli (GPa) = 98.87483 79.53907 38.62845
#
# Poissons Ratio (x) = 0.23188 0.16680
# Poissons Ratio (y) = 0.28825 0.07569
# Poissons Ratio (z) = 0.42696 0.15586
#
# Static dielectric constant tensor:
#      x y z
#    x 4.122870 0.000000 0.000000 
#    y 0.000000 3.834230 0.000000 
#    z 0.000000 0.000000 3.437840 
# 
# 
# High freq. dielectric constant tensor:
#      x y z
#    x 1.832390 0.000000 0.000000 
#    y 0.000000 1.816000 0.000000 
#    z 0.000000 0.000000 1.784510 
# 
# From -- ./inp_files/14717.got.cif
#   From: 2010.03.12/outbox.cif.g09.slc.cpg/sg36_8_cif.got.tgz:14717.got - 2010.04.14 02:13:53.
