data_PCOD8175239
_publ_section_title
;
Structure prediction by ZEFSAII (Michael W. Deem and Ramdas Pophale) SiO2 
 PCOD8175239
Probable space group: C M C 21
;
_chemical_formula_sum "Si O2"
_cell_formula_units_Z 64
_cell_length_a 9.255837
_cell_length_b 20.343945
_cell_length_c 17.653135
_cell_angle_alpha 90.000000
_cell_angle_beta 90.000000
_cell_angle_gamma 90.000000
_cell_volume 3324.089537
_symmetry_space_group_name_H-M "C M C 21"
_symmetry_group_IT_number 36
_symmetry_cell_setting 'orthorhombic'
loop_
_space_group_symop_operation_xyz
x,y,z
-x,-y,1/2+z
x,-y,1/2+z
-x,y,z
1/2+x,1/2+y,z
1/2-x,1/2-y,1/2+z
1/2+x,1/2-y,1/2+z
1/2-x,1/2+y,z
loop_
_atom_site_type_symbol
_atom_site_label
_atom_site_fract_x
_atom_site_fract_y
_atom_site_fract_z
Si Si1 0.330712 0.867639 0.713650
Si Si2 0.832593 0.865884 0.867753
Si Si3 0.671519 0.238210 0.953698
Si Si4 0.329895 0.890917 0.367264
Si Si5 0.166510 0.511951 0.108213
Si Si6 0.828954 0.759386 0.122665
Si Si7 0.832240 0.001532 0.453115
Si Si8 0.334226 0.878154 0.193577
O O1 0.500000 0.869383 0.730391
O O2 0.250507 0.882357 0.791294
O O3 0.280783 0.797583 0.680383
O O4 0.288209 0.922983 0.653204
O O5 0.768714 0.799502 0.905021
O O6 0.000000 0.857714 0.846922
O O7 0.808070 0.923582 0.928074
O O8 0.500000 0.241101 0.953512
O O9 0.725446 0.170438 0.916972
O O10 0.730608 0.241811 0.039224
O O11 0.500000 0.903471 0.377292
O O12 0.245901 0.955415 0.392587
O O13 0.289192 0.876061 0.280965
O O14 0.194531 0.450734 0.162819
O O15 0.000000 0.515770 0.081810
O O16 0.266237 0.507587 0.035493
O O17 0.763533 0.828180 0.147453
O O18 0.000000 0.766891 0.120766
O O19 0.000000 0.982940 0.455842
O O20 0.500000 0.857044 0.183237
#
# Coordination Sequence:
#
# PCOD8175239 Si02
#       8
#     8   8   8   8   8   8   8   8
#     4  10  21  37  58  83 109 143 187 227 268 322
#     4  10  21  37  57  81 110 144 181 224 274 325
#     4   9  18  35  58  80 105 144 187 220 264 327
#     4  10  20  37  60  81 107 145 184 223 268 322
#     4  10  21  38  58  80 109 146 187 226 267 322
#     4  10  20  35  56  81 111 145 180 225 277 324
#     4  11  23  37  56  84 113 142 180 226 278 329
#     4  10  21  36  57  84 110 143 186 227 270 323
#
# _framework density 19.253391000000001
#
# number of rings (size 3 to 8) (size 9 to 14) (size 15 to 20)
#    0.000    2.000    0.000    3.375    0.000    8.000 
#    0.000    3.125    0.000    0.000    0.000    0.000 
#    0.000    0.000    0.000    0.000    0.000    0.000 
#
# Total GULP energy -396953.322819 kJ/mol
# GULP energy per Si atom -12404.791338 kJ/mol
# Density = 1.920957 g / cm^3
# Si number density = 19.253391 Si / 1000 Ang^3
#
#
#
# Elastic Constant Matrix: (Units=GPa)
#
#
# Indices 1 2 3 4 5 6 
#
# 1 46.1059 26.1310 35.7991 0.0000 0.0000 0.0000
# 2 26.1310 76.1514 9.8887 0.0000 0.0000 0.0000
# 3 35.7991 9.8887 99.7033 0.0000 0.0000 0.0000
# 4 0.0000 0.0000 0.0000 34.2675 0.0000 0.0000
# 5 0.0000 0.0000 0.0000 0.0000 32.0416 0.0000
# 6 0.0000 0.0000 0.0000 0.0000 0.0000 30.8332
#
#
#
# Elastic Compliance Matrix: (Units=1/GPa)
#
#
# Indices 1 2 3 4 5 6 
#
# 1 0.037780 -0.011349 -0.012440 0.000000 0.000000 0.000000
# 2 -0.011349 0.016712 0.002417 0.000000 0.000000 0.000000
# 3 -0.012440 0.002417 0.014257 0.000000 0.000000 0.000000
# 4 0.000000 0.000000 0.000000 0.029182 0.000000 0.000000
# 5 0.000000 0.000000 0.000000 0.000000 0.031209 0.000000
# 6 0.000000 0.000000 0.000000 0.000000 0.000000 0.032433
#
#
# Mechanical properties :
#
#
# Convention : Reuss Voigt Hill
#
# Bulk Modulus (GPa) = 38.45170 40.62203 39.53687
# Shear Modulus (GPa) = 23.47600 29.43790 26.45695
#
# Velocity S-wave (km/s) = 3.49566 3.91445 3.71097
# Velocity P-wave (km/s) = 6.02558 6.44787 6.24030
#
# Compressibility (1/GPa) = 0.02600665
#
# Stress axis : x y z
#
# Youngs Moduli (GPa) = 26.46908 59.83695 70.14338
#
# Poissons Ratio (x) = 0.67907 0.87255
# Poissons Ratio (y) = 0.30039 -0.16956
# Poissons Ratio (z) = 0.32926 -0.14464
#
# Static dielectric constant tensor:
#      x y z
#    x 3.311670 0.000000 0.000000 
#    y 0.000000 3.710960 0.000000 
#    z 0.000000 0.000000 3.673580 
# 
# 
# High freq. dielectric constant tensor:
#      x y z
#    x 1.726390 0.000000 0.000000 
#    y 0.000000 1.766170 0.000000 
#    z 0.000000 0.000000 1.764040 
# 
# From -- ./inp_files/13791.got.cif
#   From: 2010.03.12/outbox.cif.g09.slc.cpg/sg36_7_cif.got.tgz:13791.got - 2010.04.14 02:13:53.
