data_PCOD8175504
_publ_section_title
;
Structure prediction by ZEFSAII (Michael W. Deem and Ramdas Pophale) SiO2 
 PCOD8175504
Probable space group: C M C 21
;
_chemical_formula_sum "Si O2"
_cell_formula_units_Z 64
_cell_length_a 8.989947
_cell_length_b 30.326757
_cell_length_c 11.970360
_cell_angle_alpha 90.000000
_cell_angle_beta 90.000000
_cell_angle_gamma 90.000000
_cell_volume 3263.550328
_symmetry_space_group_name_H-M "C M C 21"
_symmetry_group_IT_number 36
_symmetry_cell_setting 'orthorhombic'
loop_
_space_group_symop_operation_xyz
x,y,z
-x,-y,1/2+z
x,-y,1/2+z
-x,y,z
1/2+x,1/2+y,z
1/2-x,1/2-y,1/2+z
1/2+x,1/2-y,1/2+z
1/2-x,1/2+y,z
loop_
_atom_site_type_symbol
_atom_site_label
_atom_site_fract_x
_atom_site_fract_y
_atom_site_fract_z
Si Si1 0.167622 0.327877 0.397000
Si Si2 0.175682 0.792931 0.605450
Si Si3 0.829591 0.955575 0.593830
Si Si4 0.676544 0.804048 0.154232
Si Si5 0.328089 0.445695 0.155678
Si Si6 0.177288 0.619416 0.491990
Si Si7 0.332122 0.928075 0.383154
Si Si8 0.676246 0.375398 0.751729
O O1 0.270043 0.301169 0.480692
O O2 0.233607 0.321918 0.272953
O O3 0.170464 0.378784 0.430694
O O4 0.000000 0.309044 0.403768
O O5 0.240274 0.745293 0.640024
O O6 0.230812 0.830552 0.691085
O O7 0.000000 0.792709 0.603311
O O8 0.735587 0.958275 0.480072
O O9 0.774984 0.917039 0.676541
O O10 0.000000 0.947025 0.559682
O O11 0.807667 0.001798 0.655287
O O12 0.500000 0.803874 0.151099
O O13 0.734007 0.836859 0.057410
O O14 0.500000 0.432193 0.145895
O O15 0.264495 0.429107 0.272161
O O16 0.240181 0.423837 0.053193
O O17 0.238555 0.621296 0.367573
O O18 0.000000 0.616248 0.490020
O O19 0.500000 0.943511 0.355903
O O20 0.500000 0.375498 0.773377
#
# Coordination Sequence:
#
# PCOD8175504 Si02
#       8
#     8   8   8   8   8   8   8   8
#     4  10  20  38  61  84 118 154 191 244 299 344
#     4  10  21  38  62  87 115 155 200 242 289 352
#     4  10  23  42  62  86 119 157 196 245 297 347
#     4   9  20  39  59  84 120 156 190 243 302 347
#     4  11  24  41  63  88 119 159 201 243 296 353
#     4  11  23  41  61  85 122 160 196 244 300 351
#     4  11  22  39  64  90 118 154 199 248 297 349
#     4  10  22  40  60  86 119 155 197 243 294 353
#
# _framework density 19.610545999999999
#
# number of rings (size 3 to 8) (size 9 to 14) (size 15 to 20)
#    0.000    1.750    2.500    1.125    3.500    2.500 
#    0.000    1.250    0.000    0.000    0.000    0.000 
#    0.000    0.000    0.000    0.000    0.000    0.000 
#
# Total GULP energy -396884.409358 kJ/mol
# GULP energy per Si atom -12402.637792 kJ/mol
# Density = 1.956591 g / cm^3
# Si number density = 19.610546 Si / 1000 Ang^3
#
#
#
# Elastic Constant Matrix: (Units=GPa)
#
#
# Indices 1 2 3 4 5 6 
#
# 1 56.2580 35.0375 43.8476 0.0000 0.0000 0.0000
# 2 35.0375 109.7593 42.5057 0.0000 0.0000 0.0000
# 3 43.8476 42.5057 134.2002 0.0000 0.0000 0.0000
# 4 0.0000 0.0000 0.0000 28.7062 0.0000 0.0000
# 5 0.0000 0.0000 0.0000 0.0000 40.3939 0.0000
# 6 0.0000 0.0000 0.0000 0.0000 0.0000 20.4740
#
#
#
# Elastic Compliance Matrix: (Units=1/GPa)
#
#
# Indices 1 2 3 4 5 6 
#
# 1 0.026819 -0.005890 -0.006897 0.000000 0.000000 0.000000
# 2 -0.005890 0.011678 -0.001774 0.000000 0.000000 0.000000
# 3 -0.006897 -0.001774 0.010267 0.000000 0.000000 0.000000
# 4 0.000000 0.000000 0.000000 0.034836 0.000000 0.000000
# 5 0.000000 0.000000 0.000000 0.000000 0.024756 0.000000
# 6 0.000000 0.000000 0.000000 0.000000 0.000000 0.048843
#
#
# Mechanical properties :
#
#
# Convention : Reuss Voigt Hill
#
# Bulk Modulus (GPa) = 50.91344 60.33324 55.62334
# Shear Modulus (GPa) = 25.92423 29.83658 27.88040
#
# Velocity S-wave (km/s) = 3.63981 3.90482 3.77464
# Velocity P-wave (km/s) = 6.60931 7.15280 6.88642
#
# Compressibility (1/GPa) = 0.01964118
#
# Stress axis : x y z
#
# Youngs Moduli (GPa) = 37.28647 85.62880 97.39885
#
# Poissons Ratio (x) = 0.50438 0.67177
# Poissons Ratio (y) = 0.21963 0.17282
# Poissons Ratio (z) = 0.25717 0.15194
#
# Static dielectric constant tensor:
#      x y z
#    x 3.458200 0.000000 0.000000 
#    y 0.000000 3.840860 0.000000 
#    z 0.000000 0.000000 3.541160 
# 
# 
# High freq. dielectric constant tensor:
#      x y z
#    x 1.750100 0.000000 0.000000 
#    y 0.000000 1.771990 0.000000 
#    z 0.000000 0.000000 1.772270 
# 
# From -- ./inp_files/7170.got.cif
#   From: 2010.03.12/outbox.cif.g09.slc.cpg/sg36_4_cif.got.tgz:7170.got - 2010.04.14 02:13:53.
