data_PCOD8175471
_publ_section_title
;
Structure prediction by ZEFSAII (Michael W. Deem and Ramdas Pophale) SiO2 
 PCOD8175471
Probable space group: C M C 21
;
_chemical_formula_sum "Si O2"
_cell_formula_units_Z 64
_cell_length_a 8.631848
_cell_length_b 24.093255
_cell_length_c 15.380639
_cell_angle_alpha 90.000000
_cell_angle_beta 90.000000
_cell_angle_gamma 90.000000
_cell_volume 3198.700957
_symmetry_space_group_name_H-M "C M C 21"
_symmetry_group_IT_number 36
_symmetry_cell_setting 'orthorhombic'
loop_
_space_group_symop_operation_xyz
x,y,z
-x,-y,1/2+z
x,-y,1/2+z
-x,y,z
1/2+x,1/2+y,z
1/2-x,1/2-y,1/2+z
1/2+x,1/2-y,1/2+z
1/2-x,1/2+y,z
loop_
_atom_site_type_symbol
_atom_site_label
_atom_site_fract_x
_atom_site_fract_y
_atom_site_fract_z
Si Si1 0.816138 0.004686 0.392550
Si Si2 0.320039 0.376587 0.823651
Si Si3 0.322785 0.226514 0.391270
Si Si4 0.682024 0.493010 0.585817
Si Si5 0.815457 0.071888 0.737400
Si Si6 0.317073 0.301449 0.229254
Si Si7 0.677915 0.273292 0.581132
Si Si8 0.178426 0.619557 0.144277
O O1 0.762989 0.065122 0.361426
O O2 0.000000 0.000439 0.397169
O O3 0.744286 0.996640 0.489087
O O4 0.751772 0.958690 0.324721
O O5 0.500000 0.378781 0.798370
O O6 0.286630 0.327653 0.891839
O O7 0.215496 0.360609 0.741403
O O8 0.500000 0.208664 0.375771
O O9 0.269805 0.270260 0.317713
O O10 0.299447 0.253331 0.484011
O O11 0.500000 0.501435 0.579094
O O12 0.748840 0.539978 0.651458
O O13 0.716026 0.433021 0.624360
O O14 0.756695 0.135140 0.736311
O O15 0.000000 0.068988 0.738541
O O16 0.500000 0.299940 0.213690
O O17 0.235468 0.273434 0.147340
O O18 0.500000 0.287221 0.602625
O O19 0.778598 0.329096 0.583377
O O20 0.000000 0.603759 0.132383
#
# Coordination Sequence:
#
# PCOD8175471 Si02
#       8
#     8   8   8   8   8   8   8   8
#     4   9  19  34  59  91 115 147 197 245 286 344
#     4  11  21  38  65  91 117 154 204 252 299 360
#     4  10  23  40  59  88 123 159 198 245 305 359
#     4  10  20  37  62  88 117 154 200 245 291 354
#     4   9  18  34  57  86 118 153 194 237 287 350
#     4  10  21  38  61  87 120 158 197 248 303 353
#     4  11  24  41  62  88 119 161 205 247 300 364
#     4  12  24  40  61  87 121 158 201 255 307 352
#
# _framework density 20.008123000000001
#
# number of rings (size 3 to 8) (size 9 to 14) (size 15 to 20)
#    0.000    1.750    2.500    1.875    3.500    1.000 
#    0.000    1.875    0.000    0.000    0.000    0.000 
#    0.000    0.000    0.000    0.000    0.000    0.000 
#
# Total GULP energy -396848.495544 kJ/mol
# GULP energy per Si atom -12401.515486 kJ/mol
# Density = 1.996258 g / cm^3
# Si number density = 20.008123 Si / 1000 Ang^3
#
#
#
# Elastic Constant Matrix: (Units=GPa)
#
#
# Indices 1 2 3 4 5 6 
#
# 1 28.5790 16.1971 24.0003 0.0000 0.0000 0.0000
# 2 16.1971 140.3789 47.2608 0.0000 0.0000 0.0000
# 3 24.0003 47.2608 117.5609 0.0000 0.0000 0.0000
# 4 0.0000 0.0000 0.0000 25.4919 0.0000 0.0000
# 5 0.0000 0.0000 0.0000 0.0000 21.2139 0.0000
# 6 0.0000 0.0000 0.0000 0.0000 0.0000 24.2513
#
#
#
# Elastic Compliance Matrix: (Units=1/GPa)
#
#
# Indices 1 2 3 4 5 6 
#
# 1 0.042871 -0.002313 -0.007822 0.000000 0.000000 0.000000
# 2 -0.002313 0.008363 -0.002890 0.000000 0.000000 0.000000
# 3 -0.007822 -0.002890 0.011265 0.000000 0.000000 0.000000
# 4 0.000000 0.000000 0.000000 0.039228 0.000000 0.000000
# 5 0.000000 0.000000 0.000000 0.000000 0.047139 0.000000
# 6 0.000000 0.000000 0.000000 0.000000 0.000000 0.041235
#
#
# Mechanical properties :
#
#
# Convention : Reuss Voigt Hill
#
# Bulk Modulus (GPa) = 27.43592 51.27058 39.35325
# Shear Modulus (GPa) = 21.90091 27.46214 24.68153
#
# Velocity S-wave (km/s) = 3.31206 3.70881 3.51604
# Velocity P-wave (km/s) = 5.32621 6.63482 6.01620
#
# Compressibility (1/GPa) = 0.03644857
#
# Stress axis : x y z
#
# Youngs Moduli (GPa) = 23.32594 119.56836 88.77061
#
# Poissons Ratio (x) = 0.27656 0.69439
# Poissons Ratio (y) = 0.05395 0.25655
# Poissons Ratio (z) = 0.18246 0.34555
#
# Static dielectric constant tensor:
#      x y z
#    x 3.299030 0.000000 0.000000 
#    y 0.000000 3.735950 0.000000 
#    z 0.000000 0.000000 3.908650 
# 
# 
# High freq. dielectric constant tensor:
#      x y z
#    x 1.745830 0.000000 0.000000 
#    y 0.000000 1.793980 0.000000 
#    z 0.000000 0.000000 1.792300 
# 
# From -- ./inp_files/10949.got.cif
#   From: 2010.03.12/outbox.cif.g09.slc.cpg/sg36_6_cif.got.tgz:10949.got - 2010.04.14 02:13:53.
