data_PCOD8175085
_publ_section_title
;
Structure prediction by ZEFSAII (Michael W. Deem and Ramdas Pophale) SiO2 
 PCOD8175085
Probable space group: C M C 21
;
_chemical_formula_sum "Si O2"
_cell_formula_units_Z 48
_cell_length_a 8.840687
_cell_length_b 18.283350
_cell_length_c 14.985760
_cell_angle_alpha 90.000000
_cell_angle_beta 90.000000
_cell_angle_gamma 90.000000
_cell_volume 2422.258904
_symmetry_space_group_name_H-M "C M C 21"
_symmetry_group_IT_number 36
_symmetry_cell_setting 'orthorhombic'
loop_
_space_group_symop_operation_xyz
x,y,z
-x,-y,1/2+z
x,-y,1/2+z
-x,y,z
1/2+x,1/2+y,z
1/2-x,1/2-y,1/2+z
1/2+x,1/2-y,1/2+z
1/2-x,1/2+y,z
loop_
_atom_site_type_symbol
_atom_site_label
_atom_site_fract_x
_atom_site_fract_y
_atom_site_fract_z
Si Si1 0.830300 0.210070 0.021470
Si Si2 0.821299 0.335374 0.694470
Si Si3 0.322416 0.487727 0.651300
Si Si4 0.323632 0.247573 0.847214
Si Si5 0.326114 0.917319 0.291012
Si Si6 0.167220 0.043697 0.960143
O O1 0.751503 0.215820 0.117846
O O2 0.835355 0.126237 0.993951
O O3 0.000000 0.242363 0.027999
O O4 0.734418 0.255099 0.948729
O O5 0.770250 0.419070 0.688287
O O6 0.768833 0.305653 0.789833
O O7 0.000000 0.331076 0.685298
O O8 0.500000 0.471334 0.661814
O O9 0.274119 0.559048 0.706623
O O10 0.283428 0.503668 0.546818
O O11 0.500000 0.266527 0.844354
O O12 0.290437 0.166997 0.809238
O O13 0.500000 0.931824 0.269377
O O14 0.282456 0.965691 0.378197
O O15 0.000000 0.020633 0.926644
#
# Coordination Sequence:
#
# PCOD8175085 Si02
#       6
#     8   8   8   8   8   8
#     4   9  17  32  53  76 102 135 175 213 254 308
#     4  11  21  34  54  79 106 137 175 216 259 308
#     4  10  20  35  55  77 104 137 173 214 258 306
#     4  10  20  35  54  78 107 138 174 215 260 308
#     4  10  20  33  53  79 105 134 169 212 257 305
#     4   8  16  31  51  73  98 133 172 208 250 303
#
# _framework density 19.816213999999999
#
# number of rings (size 3 to 8) (size 9 to 14) (size 15 to 20)
#    0.000    2.333    0.000    4.500    0.000    6.667 
#    0.000    1.667    0.000    4.000    0.000    0.000 
#    0.000    0.000    0.000    0.000    0.000    0.000 
#
# Total GULP energy -297600.395190 kJ/mol
# GULP energy per Si atom -12400.016466 kJ/mol
# Density = 1.977111 g / cm^3
# Si number density = 19.816214 Si / 1000 Ang^3
#
#
#
# Elastic Constant Matrix: (Units=GPa)
#
#
# Indices 1 2 3 4 5 6 
#
# 1 102.6760 9.7942 4.0626 0.0000 0.0000 0.0000
# 2 9.7942 16.0340 -8.2321 0.0000 0.0000 0.0000
# 3 4.0626 -8.2321 23.1003 0.0000 0.0000 0.0000
# 4 0.0000 0.0000 0.0000 29.5665 0.0000 0.0000
# 5 0.0000 0.0000 0.0000 0.0000 38.8165 0.0000
# 6 0.0000 0.0000 0.0000 0.0000 0.0000 24.9720
#
#
#
# Elastic Compliance Matrix: (Units=1/GPa)
#
#
# Indices 1 2 3 4 5 6 
#
# 1 0.010833 -0.009296 -0.005218 0.000000 0.000000 0.000000
# 2 -0.009296 0.084311 0.031680 0.000000 0.000000 0.000000
# 3 -0.005218 0.031680 0.055497 0.000000 0.000000 0.000000
# 4 0.000000 0.000000 0.000000 0.033822 0.000000 0.000000
# 5 0.000000 0.000000 0.000000 0.000000 0.025762 0.000000
# 6 0.000000 0.000000 0.000000 0.000000 0.000000 0.040045
#
#
# Mechanical properties :
#
#
# Convention : Reuss Voigt Hill
#
# Bulk Modulus (GPa) = 5.40618 17.00664 11.20641
# Shear Modulus (GPa) = 18.01190 27.75004 22.88097
#
# Velocity S-wave (km/s) = 3.01815 3.74621 3.40171
# Velocity P-wave (km/s) = 3.85742 5.22618 4.59307
#
# Compressibility (1/GPa) = 0.18497343
#
# Stress axis : x y z
#
# Youngs Moduli (GPa) = 92.31418 11.86086 18.01904
#
# Poissons Ratio (x) = 0.11026 0.09402
# Poissons Ratio (y) = 0.85814 -0.57085
# Poissons Ratio (z) = 0.48168 -0.37576
#
# Static dielectric constant tensor:
#      x y z
#    x 3.676260 0.000000 0.000000 
#    y 0.000000 3.151800 0.000000 
#    z 0.000000 0.000000 3.930640 
# 
# 
# High freq. dielectric constant tensor:
#      x y z
#    x 1.782960 0.000000 0.000000 
#    y 0.000000 1.726410 0.000000 
#    z 0.000000 0.000000 1.784810 
# 
# From -- ./inp_files/10345.got.cif
#   From: 2010.03.12/outbox.cif.g09.slc.cpg/sg36_6_cif.got.tgz:10345.got - 2010.04.14 02:13:53.
