data_PCOD8175962
_publ_section_title
;
Structure prediction by ZEFSAII (Michael W. Deem and Ramdas Pophale) SiO2 
 PCOD8175962
Probable space group: C M C 21
;
_chemical_formula_sum "Si O2"
_cell_formula_units_Z 64
_cell_length_a 8.997321
_cell_length_b 28.925406
_cell_length_c 12.276664
_cell_angle_alpha 90.000000
_cell_angle_beta 90.000000
_cell_angle_gamma 90.000000
_cell_volume 3195.016082
_symmetry_space_group_name_H-M "C M C 21"
_symmetry_group_IT_number 36
_symmetry_cell_setting 'orthorhombic'
loop_
_space_group_symop_operation_xyz
x,y,z
-x,-y,1/2+z
x,-y,1/2+z
-x,y,z
1/2+x,1/2+y,z
1/2-x,1/2-y,1/2+z
1/2+x,1/2-y,1/2+z
1/2-x,1/2+y,z
loop_
_atom_site_type_symbol
_atom_site_label
_atom_site_fract_x
_atom_site_fract_y
_atom_site_fract_z
Si Si1 0.827442 0.563853 0.881620
Si Si2 0.326207 0.720478 0.151834
Si Si3 0.326287 0.178569 0.587675
Si Si4 0.176404 0.024342 0.453108
Si Si5 0.170748 0.631908 0.067778
Si Si6 0.323724 0.586709 0.658838
Si Si7 0.836741 0.083793 0.253532
Si Si8 0.337822 0.320987 0.873711
O O1 0.760336 0.524361 0.960374
O O2 0.740422 0.564115 0.767930
O O3 0.000000 0.553968 0.858954
O O4 0.807069 0.612400 0.945684
O O5 0.500000 0.715468 0.127819
O O6 0.267765 0.771587 0.126603
O O7 0.249696 0.681557 0.076856
O O8 0.289402 0.714009 0.278899
O O9 0.500000 0.171507 0.610086
O O10 0.237823 0.138610 0.649520
O O11 0.293764 0.177485 0.459827
O O12 0.226810 0.056321 0.554690
O O13 0.227624 0.045774 0.336864
O O14 0.000000 0.017274 0.456336
O O15 0.230518 0.593193 0.151805
O O16 0.000000 0.639744 0.096141
O O17 0.500000 0.588936 0.667147
O O18 0.857412 0.129103 0.324073
O O19 0.000000 0.068477 0.209468
O O20 0.500000 0.306806 0.923813
#
# Coordination Sequence:
#
# PCOD8175962 Si02
#       8
#     8   8   8   8   8   8   8   8
#     4  11  26  43  60  90 130 165 201 253 315 365
#     4   9  21  39  59  85 120 163 209 253 304 367
#     4  11  22  37  60  91 124 157 199 255 314 364
#     4  10  22  41  64  90 117 156 207 251 298 363
#     4  10  22  39  59  88 123 159 203 252 306 363
#     4  11  24  44  66  91 123 162 210 251 300 370
#     4   9  18  36  61  85 114 151 196 249 300 357
#     4   9  17  35  57  80 113 155 199 248 301 357
#
# _framework density 20.031196999999999
#
# number of rings (size 3 to 8) (size 9 to 14) (size 15 to 20)
#    0.000    2.000    1.250    2.250    1.750    7.500 
#    0.000    3.750    0.000    0.000    0.000    0.000 
#    0.000    0.000    0.000    0.000    0.000    0.000 
#
# Total GULP energy -396753.309263 kJ/mol
# GULP energy per Si atom -12398.540914 kJ/mol
# Density = 1.998560 g / cm^3
# Si number density = 20.031197 Si / 1000 Ang^3
#
#
#
# Elastic Constant Matrix: (Units=GPa)
#
#
# Indices 1 2 3 4 5 6 
#
# 1 79.0618 41.4649 39.1854 0.0000 0.0000 0.0000
# 2 41.4649 88.6286 45.0879 0.0000 0.0000 0.0000
# 3 39.1854 45.0879 77.2546 0.0000 0.0000 0.0000
# 4 0.0000 0.0000 0.0000 6.9614 0.0000 0.0000
# 5 0.0000 0.0000 0.0000 0.0000 19.5806 0.0000
# 6 0.0000 0.0000 0.0000 0.0000 0.0000 30.6693
#
#
#
# Elastic Compliance Matrix: (Units=1/GPa)
#
#
# Indices 1 2 3 4 5 6 
#
# 1 0.018644 -0.005564 -0.006210 0.000000 0.000000 0.000000
# 2 -0.005564 0.017708 -0.007513 0.000000 0.000000 0.000000
# 3 -0.006210 -0.007513 0.020479 0.000000 0.000000 0.000000
# 4 0.000000 0.000000 0.000000 0.143650 0.000000 0.000000
# 5 0.000000 0.000000 0.000000 0.000000 0.051071 0.000000
# 6 0.000000 0.000000 0.000000 0.000000 0.000000 0.032606
#
#
# Mechanical properties :
#
#
# Convention : Reuss Voigt Hill
#
# Bulk Modulus (GPa) = 54.76935 55.15794 54.96364
# Shear Modulus (GPa) = 15.20612 19.38939 17.29775
#
# Velocity S-wave (km/s) = 2.75821 3.11458 2.94179
# Velocity P-wave (km/s) = 6.12740 6.36631 6.24800
#
# Compressibility (1/GPa) = 0.01825839
#
# Stress axis : x y z
#
# Youngs Moduli (GPa) = 53.63699 56.47176 48.83144
#
# Poissons Ratio (x) = 0.31418 0.30322
# Poissons Ratio (y) = 0.29841 0.36687
# Poissons Ratio (z) = 0.33306 0.42427
#
# Static dielectric constant tensor:
#      x y z
#    x 3.656400 0.000000 0.000000 
#    y 0.000000 3.766200 0.000000 
#    z 0.000000 0.000000 3.944960 
# 
# 
# High freq. dielectric constant tensor:
#      x y z
#    x 1.778700 0.000000 0.000000 
#    y 0.000000 1.785290 0.000000 
#    z 0.000000 0.000000 1.779200 
# 
# From -- ./inp_files/7139.got.cif
#   From: 2010.03.12/outbox.cif.g09.slc.cpg/sg36_4_cif.got.tgz:7139.got - 2010.04.14 02:13:53.
