data_PCOD8175236
_publ_section_title
;
Structure prediction by ZEFSAII (Michael W. Deem and Ramdas Pophale) SiO2 
 PCOD8175236
Probable space group: C M C 21
;
_chemical_formula_sum "Si O2"
_cell_formula_units_Z 64
_cell_length_a 8.692227
_cell_length_b 18.527195
_cell_length_c 20.455134
_cell_angle_alpha 90.000000
_cell_angle_beta 90.000000
_cell_angle_gamma 90.000000
_cell_volume 3294.147648
_symmetry_space_group_name_H-M "C M C 21"
_symmetry_group_IT_number 36
_symmetry_cell_setting 'orthorhombic'
loop_
_space_group_symop_operation_xyz
x,y,z
-x,-y,1/2+z
x,-y,1/2+z
-x,y,z
1/2+x,1/2+y,z
1/2-x,1/2-y,1/2+z
1/2+x,1/2-y,1/2+z
1/2-x,1/2+y,z
loop_
_atom_site_type_symbol
_atom_site_label
_atom_site_fract_x
_atom_site_fract_y
_atom_site_fract_z
Si Si1 0.682546 0.957989 0.029490
Si Si2 0.319546 0.709805 0.147221
Si Si3 0.680279 0.945160 0.650266
Si Si4 0.182053 0.712395 0.901833
Si Si5 0.318140 0.796121 0.019803
Si Si6 0.818555 0.448797 0.411818
Si Si7 0.819578 0.201460 0.763364
Si Si8 0.820471 0.548949 0.766050
O O1 0.500000 0.956185 0.024922
O O2 0.745698 0.876636 0.032945
O O3 0.734502 0.000150 0.094024
O O4 0.754618 0.998275 0.965975
O O5 0.500000 0.722116 0.158688
O O6 0.281789 0.625698 0.143661
O O7 0.264543 0.745832 0.079478
O O8 0.225629 0.744791 0.205823
O O9 0.500000 0.925931 0.644263
O O10 0.719237 0.982566 0.719164
O O11 0.241552 0.632758 0.922694
O O12 0.240173 0.730165 0.829263
O O13 0.000000 0.715953 0.901432
O O14 0.246735 0.770129 0.952109
O O15 0.500000 0.795379 0.012195
O O16 0.771887 0.475108 0.339165
O O17 0.000000 0.449579 0.420198
O O18 0.768965 0.120620 0.744275
O O19 0.000000 0.203752 0.774187
O O20 0.000000 0.569224 0.762720
#
# Coordination Sequence:
#
# PCOD8175236 Si02
#       8
#     8   8   8   8   8   8   8   8
#     4   9  17  31  52  77 105 139 182 227 270 324
#     4  11  23  38  55  80 117 153 188 237 289 330
#     4  10  20  35  56  80 107 145 190 230 276 338
#     4  10  20  36  58  83 113 146 181 229 287 339
#     4  10  21  36  56  82 112 148 188 232 281 335
#     4   8  15  29  51  76 101 133 172 215 265 322
#     4  11  22  37  59  84 111 148 194 235 277 338
#     4   9  18  34  55  80 110 142 179 227 283 336
#
# _framework density 19.428394999999998
#
# number of rings (size 3 to 8) (size 9 to 14) (size 15 to 20)
#    0.000    2.250    0.000    4.125    0.000    5.500 
#    0.000    3.125    0.000    3.750    0.000    0.000 
#    0.000    0.000    0.000    0.000    0.000    0.000 
#
# Total GULP energy -396848.621605 kJ/mol
# GULP energy per Si atom -12401.519425 kJ/mol
# Density = 1.938418 g / cm^3
# Si number density = 19.428395 Si / 1000 Ang^3
#
#
#
# Elastic Constant Matrix: (Units=GPa)
#
#
# Indices 1 2 3 4 5 6 
#
# 1 30.1359 22.5555 20.3612 0.0000 0.0000 0.0000
# 2 22.5555 98.4196 49.2160 0.0000 0.0000 0.0000
# 3 20.3612 49.2160 109.7909 0.0000 0.0000 0.0000
# 4 0.0000 0.0000 0.0000 42.2925 0.0000 0.0000
# 5 0.0000 0.0000 0.0000 0.0000 22.6188 0.0000
# 6 0.0000 0.0000 0.0000 0.0000 0.0000 28.3884
#
#
#
# Elastic Compliance Matrix: (Units=1/GPa)
#
#
# Indices 1 2 3 4 5 6 
#
# 1 0.041670 -0.007328 -0.004443 0.000000 0.000000 0.000000
# 2 -0.007328 0.014385 -0.005089 0.000000 0.000000 0.000000
# 3 -0.004443 -0.005089 0.012214 0.000000 0.000000 0.000000
# 4 0.000000 0.000000 0.000000 0.023645 0.000000 0.000000
# 5 0.000000 0.000000 0.000000 0.000000 0.044211 0.000000
# 6 0.000000 0.000000 0.000000 0.000000 0.000000 0.035226
#
#
# Mechanical properties :
#
#
# Convention : Reuss Voigt Hill
#
# Bulk Modulus (GPa) = 28.94552 46.95688 37.95120
# Shear Modulus (GPa) = 23.08553 28.40753 25.74653
#
# Velocity S-wave (km/s) = 3.45082 3.82798 3.64428
# Velocity P-wave (km/s) = 5.55054 6.61510 6.10606
#
# Compressibility (1/GPa) = 0.03454767
#
# Stress axis : x y z
#
# Youngs Moduli (GPa) = 23.99835 69.51690 81.87611
#
# Poissons Ratio (x) = 0.50942 0.36376
# Poissons Ratio (y) = 0.17586 0.41670
# Poissons Ratio (z) = 0.10662 0.35380
#
# Static dielectric constant tensor:
#      x y z
#    x 3.242130 0.000000 0.000000 
#    y 0.000000 3.700700 0.000000 
#    z 0.000000 0.000000 3.830400 
# 
# 
# High freq. dielectric constant tensor:
#      x y z
#    x 1.727800 0.000000 0.000000 
#    y 0.000000 1.758250 0.000000 
#    z 0.000000 0.000000 1.772620 
# 
# From -- ./inp_files/15587.got.cif
#   From: 2010.03.12/outbox.cif.g09.slc.cpg/sg36_8_cif.got.tgz:15587.got - 2010.04.14 02:13:53.
