data_PCOD8175338
_publ_section_title
;
Structure prediction by ZEFSAII (Michael W. Deem and Ramdas Pophale) SiO2 
 PCOD8175338
Probable space group: C M C 21
;
_chemical_formula_sum "Si O2"
_cell_formula_units_Z 64
_cell_length_a 23.415126
_cell_length_b 15.075899
_cell_length_c 8.837464
_cell_angle_alpha 90.000000
_cell_angle_beta 90.000000
_cell_angle_gamma 90.000000
_cell_volume 3119.660802
_symmetry_space_group_name_H-M "C M C 21"
_symmetry_group_IT_number 36
_symmetry_cell_setting 'orthorhombic'
loop_
_space_group_symop_operation_xyz
x,y,z
-x,-y,1/2+z
x,-y,1/2+z
-x,y,z
1/2+x,1/2+y,z
1/2-x,1/2-y,1/2+z
1/2+x,1/2-y,1/2+z
1/2-x,1/2+y,z
loop_
_atom_site_type_symbol
_atom_site_label
_atom_site_fract_x
_atom_site_fract_y
_atom_site_fract_z
Si Si1 0.240262 0.288899 0.569010
Si Si2 0.771683 0.134036 0.764977
Si Si3 0.385204 0.412042 0.426038
Si Si4 0.063400 0.944284 0.120308
Si Si5 0.846323 0.428895 0.206692
Si Si6 0.366258 0.103255 0.047927
Si Si7 0.365549 0.735892 0.144974
Si Si8 0.065496 0.238312 0.453497
O O1 0.212816 0.193831 0.617845
O O2 0.246993 0.294380 0.387031
O O3 0.195163 0.365356 0.611567
O O4 0.301027 0.303849 0.652437
O O5 0.824671 0.082496 0.837957
O O6 0.722943 0.063337 0.715723
O O7 0.389566 0.487266 0.555568
O O8 0.432548 0.433248 0.301036
O O9 0.396261 0.316710 0.507127
O O10 0.000000 0.980922 0.085105
O O11 0.073293 0.848992 0.050118
O O12 0.878995 0.513178 0.137622
O O13 0.869876 0.420484 0.373264
O O14 0.862447 0.341105 0.108167
O O15 0.412869 0.181678 0.062684
O O16 0.397339 0.722626 0.303151
O O17 0.000000 0.256013 0.407110
#
# Coordination Sequence:
#
# PCOD8175338 Si02
#       8
#     8   8   8   8   8   8   8   8
#     4   9  18  34  55  82 118 152 189 238 290 348
#     4   9  19  34  54  85 116 152 192 235 291 349
#     4  11  22  36  59  86 114 149 195 238 287 360
#     4  11  24  39  56  81 112 148 191 245 299 346
#     4   9  20  35  55  82 118 150 183 235 295 347
#     4  10  20  36  56  83 115 152 193 237 292 348
#     4   9  20  39  59  85 117 153 196 243 299 353
#     4  10  22  41  62  82 112 156 203 251 301 353
#
# _framework density 20.515049999999999
#
# number of rings (size 3 to 8) (size 9 to 14) (size 15 to 20)
#    0.000    2.250    0.000    2.625    0.000   10.000 
#    0.000    2.500    0.000    0.000    0.000    0.000 
#    0.000    0.000    0.000    0.000    0.000    0.000 
#
# Total GULP energy -396528.855367 kJ/mol
# GULP energy per Si atom -12391.526730 kJ/mol
# Density = 2.046836 g / cm^3
# Si number density = 20.515050 Si / 1000 Ang^3
#
#
#
# Elastic Constant Matrix: (Units=GPa)
#
#
# Indices 1 2 3 4 5 6 
#
# 1 76.2616 50.7227 37.4199 0.0000 0.0000 0.0000
# 2 50.7227 103.3562 40.1170 0.0000 0.0000 0.0000
# 3 37.4199 40.1170 69.9766 0.0000 0.0000 0.0000
# 4 0.0000 0.0000 0.0000 43.0948 0.0000 0.0000
# 5 0.0000 0.0000 0.0000 0.0000 28.8270 0.0000
# 6 0.0000 0.0000 0.0000 0.0000 0.0000 26.8627
#
#
#
# Elastic Compliance Matrix: (Units=1/GPa)
#
#
# Indices 1 2 3 4 5 6 
#
# 1 0.021935 -0.007990 -0.007149 0.000000 0.000000 0.000000
# 2 -0.007990 0.015355 -0.004530 0.000000 0.000000 0.000000
# 3 -0.007149 -0.004530 0.020711 0.000000 0.000000 0.000000
# 4 0.000000 0.000000 0.000000 0.023205 0.000000 0.000000
# 5 0.000000 0.000000 0.000000 0.000000 0.034690 0.000000
# 6 0.000000 0.000000 0.000000 0.000000 0.000000 0.037226
#
#
# Mechanical properties :
#
#
# Convention : Reuss Voigt Hill
#
# Bulk Modulus (GPa) = 53.58515 56.23487 54.91001
# Shear Modulus (GPa) = 25.16615 27.84589 26.50602
#
# Velocity S-wave (km/s) = 3.50625 3.68821 3.59838
# Velocity P-wave (km/s) = 6.52444 6.75338 6.63990
#
# Compressibility (1/GPa) = 0.01866189
#
# Stress axis : x y z
#
# Youngs Moduli (GPa) = 45.58968 65.12677 48.28441
#
# Poissons Ratio (x) = 0.52035 0.34519
# Poissons Ratio (y) = 0.36425 0.21874
# Poissons Ratio (z) = 0.32593 0.29504
#
# Static dielectric constant tensor:
#      x y z
#    x 3.722330 0.000000 0.000000 
#    y 0.000000 3.810460 0.000000 
#    z 0.000000 0.000000 3.746400 
# 
# 
# High freq. dielectric constant tensor:
#      x y z
#    x 1.788100 0.000000 0.000000 
#    y 0.000000 1.795550 0.000000 
#    z 0.000000 0.000000 1.799640 
# 
# From -- ./inp_files/5658.got.cif
#   From: 2010.03.12/outbox.cif.g09.slc.cpg/sg36_3_cif.got.tgz:5658.got - 2010.04.14 02:13:53.
