data_PCOD8175905
_publ_section_title
;
Structure prediction by ZEFSAII (Michael W. Deem and Ramdas Pophale) SiO2 
 PCOD8175905
Probable space group: C M C 21
;
_chemical_formula_sum "Si O2"
_cell_formula_units_Z 48
_cell_length_a 32.907005
_cell_length_b 5.264910
_cell_length_c 12.531070
_cell_angle_alpha 90.000000
_cell_angle_beta 90.000000
_cell_angle_gamma 90.000000
_cell_volume 2171.038199
_symmetry_space_group_name_H-M "C M C 21"
_symmetry_group_IT_number 36
_symmetry_cell_setting 'orthorhombic'
loop_
_space_group_symop_operation_xyz
x,y,z
-x,-y,1/2+z
x,-y,1/2+z
-x,y,z
1/2+x,1/2+y,z
1/2-x,1/2-y,1/2+z
1/2+x,1/2-y,1/2+z
1/2-x,1/2+y,z
loop_
_atom_site_type_symbol
_atom_site_label
_atom_site_fract_x
_atom_site_fract_y
_atom_site_fract_z
Si Si1 0.045604 0.227105 0.350820
Si Si2 0.233006 0.635143 0.664315
Si Si3 0.107158 0.749998 0.035370
Si Si4 0.266994 0.364857 0.406424
Si Si5 0.954396 0.727105 0.219920
Si Si6 0.341465 0.749999 0.035370
O O1 0.078852 0.167500 0.438632
O O2 0.052140 0.513056 0.309603
O O3 0.000000 0.199726 0.398107
O O4 0.052141 0.013056 0.261138
O O5 0.244078 0.370136 0.607582
O O6 0.250000 0.612022 0.785369
O O7 0.185201 0.687856 0.642621
O O8 0.078852 0.667499 0.132110
O O9 0.133126 0.500630 0.006325
O O10 0.133126 0.999365 0.064415
O O11 0.255922 0.629864 0.463157
O O12 0.314799 0.312145 0.428118
O O13 0.000000 0.699730 0.172633
#
# Coordination Sequence:
#
# PCOD8175905 Si02
#       6
#     8   8   8   8   8   8
#     4  10  22  44  70  97 135 182 220 255 312 399
#     4  10  21  41  63  86 117 169 220 259 321 393
#     4  12  25  43  64 106 137 168 213 276 340 369
#     4  10  21  41  63  86 117 169 220 259 321 393
#     4  10  22  44  70  97 135 182 220 255 312 399
#     4  12  24  41  63  96 133 162 215 286 325 379
#
# _framework density 22.109238000000001
#
# number of rings (size 3 to 8) (size 9 to 14) (size 15 to 20)
#    0.000    1.333    0.000    5.500    0.000    0.000 
#   36.000    6.667    0.000    0.000    0.000    0.000 
#    0.000    0.000    0.000    0.000    0.000    0.000 
#
# Total GULP energy -297356.973177 kJ/mol
# GULP energy per Si atom -12389.873882 kJ/mol
# Density = 2.205892 g / cm^3
# Si number density = 22.109238 Si / 1000 Ang^3
#
#
#
# Elastic Constant Matrix: (Units=GPa)
#
#
# Indices 1 2 3 4 5 6 
#
# 1 135.8685 48.9723 46.4144 0.0000 0.0000 0.0000
# 2 48.9723 184.0605 19.3585 0.0000 0.0000 0.0000
# 3 46.4144 19.3585 78.7296 0.0000 0.0000 0.0000
# 4 0.0000 0.0000 0.0000 25.5295 0.0000 0.0000
# 5 0.0000 0.0000 0.0000 0.0000 40.8983 0.0000
# 6 0.0000 0.0000 0.0000 0.0000 0.0000 1988.1536
#
#
#
# Elastic Compliance Matrix: (Units=1/GPa)
#
#
# Indices 1 2 3 4 5 6 
#
# 1 0.009937 -0.002082 -0.005346 0.000000 0.000000 0.000000
# 2 -0.002082 0.006013 -0.000251 0.000000 0.000000 0.000000
# 3 -0.005346 -0.000251 0.015915 0.000000 0.000000 0.000000
# 4 0.000000 0.000000 0.000000 0.039170 0.000000 0.000000
# 5 0.000000 0.000000 0.000000 0.000000 0.024451 0.000000
# 6 0.000000 0.000000 0.000000 0.000000 0.000000 0.000503
#
#
# Mechanical properties :
#
#
# Convention : Reuss Voigt Hill
#
# Bulk Modulus (GPa) = 60.58086 69.79433 65.18759
# Shear Modulus (GPa) = 42.78981 429.84384 236.31683
#
# Velocity S-wave (km/s) = 4.40407 13.95852 10.34979
# Velocity P-wave (km/s) = 7.30214 17.07113 13.12907
#
# Compressibility (1/GPa) = 0.01650686
#
# Stress axis : x y z
#
# Youngs Moduli (GPa) = 100.63732 166.29905 62.83235
#
# Poissons Ratio (x) = 0.34616 0.33592
# Poissons Ratio (y) = 0.20948 0.01580
# Poissons Ratio (z) = 0.53803 0.04181
#
# Static dielectric constant tensor:
#      x y z
#    x 4.066850 0.000000 0.000000 
#    y 0.000000 5.003150 0.000000 
#    z 0.000000 0.000000 4.029800 
# 
# 
# High freq. dielectric constant tensor:
#      x y z
#    x 1.867090 0.000000 0.000000 
#    y 0.000000 1.914440 0.000000 
#    z 0.000000 0.000000 1.866030 
# 
# From -- ./inp_files/13050.got.cif
#   From: 2010.03.12/outbox.cif.g09.slc.cpg/sg36_7_cif.got.tgz:13050.got - 2010.04.14 02:13:53.
