data_PCOD8175147
_publ_section_title
;
Structure prediction by ZEFSAII (Michael W. Deem and Ramdas Pophale) SiO2 
 PCOD8175147
Probable space group: C M C 21
;
_chemical_formula_sum "Si O2"
_cell_formula_units_Z 64
_cell_length_a 8.984881
_cell_length_b 23.038138
_cell_length_c 16.326283
_cell_angle_alpha 90.000000
_cell_angle_beta 90.000000
_cell_angle_gamma 90.000000
_cell_volume 3379.457780
_symmetry_space_group_name_H-M "C M C 21"
_symmetry_group_IT_number 36
_symmetry_cell_setting 'orthorhombic'
loop_
_space_group_symop_operation_xyz
x,y,z
-x,-y,1/2+z
x,-y,1/2+z
-x,y,z
1/2+x,1/2+y,z
1/2-x,1/2-y,1/2+z
1/2+x,1/2-y,1/2+z
1/2-x,1/2+y,z
loop_
_atom_site_type_symbol
_atom_site_label
_atom_site_fract_x
_atom_site_fract_y
_atom_site_fract_z
Si Si1 0.322312 0.847954 0.724220
Si Si2 0.662700 0.134202 0.808592
Si Si3 0.823949 0.891499 0.564697
Si Si4 0.671163 0.324475 0.014578
Si Si5 0.825172 0.216636 0.690804
Si Si6 0.161794 0.702508 0.969777
Si Si7 0.825026 0.594992 0.394216
Si Si8 0.676783 0.035580 0.925832
O O1 0.500000 0.852191 0.716574
O O2 0.248743 0.889142 0.654955
O O3 0.264727 0.780963 0.715186
O O4 0.266341 0.873799 0.811545
O O5 0.500000 0.123368 0.767604
O O6 0.775526 0.162919 0.746222
O O7 0.643140 0.179682 0.880080
O O8 0.726780 0.074962 0.848209
O O9 0.787711 0.830377 0.521100
O O10 0.755827 0.943954 0.510099
O O11 0.000000 0.900115 0.571982
O O12 0.500000 0.344095 0.019797
O O13 0.731956 0.302217 0.101740
O O14 0.700105 0.269621 0.955972
O O15 0.763703 0.376920 0.977361
O O16 0.000000 0.219961 0.695862
O O17 0.000000 0.697031 0.016620
O O18 0.773089 0.528372 0.399572
O O19 0.000000 0.599724 0.396986
O O20 0.500000 0.042096 0.940107
#
# Coordination Sequence:
#
# PCOD8175147 Si02
#       8
#     8   8   8   8   8   8   8   8
#     4  10  20  38  60  83 116 151 188 232 287 346
#     4   9  18  32  55  80 105 140 184 234 275 324
#     4  11  21  33  57  89 113 143 189 237 280 330
#     4  10  20  35  55  79 117 157 181 220 289 346
#     4  10  20  34  54  82 117 152 180 220 286 348
#     4   9  17  34  56  78 111 151 182 218 281 341
#     4  10  22  39  61  85 109 149 200 243 279 330
#     4   9  20  41  60  78 110 151 194 234 285 339
#
# _framework density 18.937950000000001
#
# number of rings (size 3 to 8) (size 9 to 14) (size 15 to 20)
#    0.000    2.250    1.250    2.625    0.000    4.500 
#    2.250    0.000    0.000    0.000    0.000    0.000 
#    0.000    0.000    0.000    0.000    0.000    0.000 
#
# Total GULP energy -396572.146417 kJ/mol
# GULP energy per Si atom -12392.879576 kJ/mol
# Density = 1.889485 g / cm^3
# Si number density = 18.937950 Si / 1000 Ang^3
#
#
#
# Elastic Constant Matrix: (Units=GPa)
#
#
# Indices 1 2 3 4 5 6 
#
# 1 39.0760 31.7869 34.7847 0.0000 0.0000 0.0000
# 2 31.7869 148.6484 76.4191 0.0000 0.0000 0.0000
# 3 34.7847 76.4191 98.0430 0.0000 0.0000 0.0000
# 4 0.0000 0.0000 0.0000 25.6468 0.0000 0.0000
# 5 0.0000 0.0000 0.0000 0.0000 28.9522 0.0000
# 6 0.0000 0.0000 0.0000 0.0000 0.0000 23.4292
#
#
#
# Elastic Compliance Matrix: (Units=1/GPa)
#
#
# Indices 1 2 3 4 5 6 
#
# 1 0.037751 -0.001981 -0.011850 0.000000 0.000000 0.000000
# 2 -0.001981 0.011329 -0.008128 0.000000 0.000000 0.000000
# 3 -0.011850 -0.008128 0.020739 0.000000 0.000000 0.000000
# 4 0.000000 0.000000 0.000000 0.038991 0.000000 0.000000
# 5 0.000000 0.000000 0.000000 0.000000 0.034540 0.000000
# 6 0.000000 0.000000 0.000000 0.000000 0.000000 0.042682
#
#
# Mechanical properties :
#
#
# Convention : Reuss Voigt Hill
#
# Bulk Modulus (GPa) = 38.60630 63.52763 51.06696
# Shear Modulus (GPa) = 20.95709 25.12408 23.04058
#
# Velocity S-wave (km/s) = 3.33020 3.64628 3.49181
# Velocity P-wave (km/s) = 5.93438 7.16555 6.57883
#
# Compressibility (1/GPa) = 0.02590251
#
# Stress axis : x y z
#
# Youngs Moduli (GPa) = 26.48944 88.26671 48.21839
#
# Poissons Ratio (x) = 0.17483 0.57138
# Poissons Ratio (y) = 0.05247 0.39191
# Poissons Ratio (z) = 0.31389 0.71742
#
# Static dielectric constant tensor:
#      x y z
#    x 3.995110 0.000000 0.000000 
#    y 0.000000 3.826200 0.000000 
#    z 0.000000 0.000000 3.633020 
# 
# 
# High freq. dielectric constant tensor:
#      x y z
#    x 1.717660 0.000000 0.000000 
#    y 0.000000 1.733370 0.000000 
#    z 0.000000 0.000000 1.734070 
# 
# From -- ./inp_files/13998.got.cif
#   From: 2010.03.12/outbox.cif.g09.slc.cpg/sg36_7_cif.got.tgz:13998.got - 2010.04.14 02:13:53.
