data_PCOD8175854
_publ_section_title
;
Structure prediction by ZEFSAII (Michael W. Deem and Ramdas Pophale) SiO2 
 PCOD8175854
Probable space group: C M C 21
;
_chemical_formula_sum "Si O2"
_cell_formula_units_Z 56
_cell_length_a 14.889829
_cell_length_b 12.511467
_cell_length_c 13.100188
_cell_angle_alpha 90.000000
_cell_angle_beta 90.000000
_cell_angle_gamma 90.000000
_cell_volume 2440.481238
_symmetry_space_group_name_H-M "C M C 21"
_symmetry_group_IT_number 36
_symmetry_cell_setting 'orthorhombic'
loop_
_space_group_symop_operation_xyz
x,y,z
-x,-y,1/2+z
x,-y,1/2+z
-x,y,z
1/2+x,1/2+y,z
1/2-x,1/2-y,1/2+z
1/2+x,1/2-y,1/2+z
1/2-x,1/2+y,z
loop_
_atom_site_type_symbol
_atom_site_label
_atom_site_fract_x
_atom_site_fract_y
_atom_site_fract_z
Si Si1 0.162277 0.674086 0.695690
Si Si2 0.400331 0.692670 0.891005
Si Si3 0.599330 0.307176 0.969269
Si Si4 0.896079 0.899978 0.759705
Si Si5 0.356432 0.378238 0.178846
Si Si6 0.792529 0.388588 0.420626
Si Si7 0.099841 0.416447 0.995884
O O1 0.123553 0.793834 0.695375
O O2 0.262339 0.677018 0.652243
O O3 0.164860 0.620882 0.807420
O O4 0.101879 0.607024 0.617053
O O5 0.500000 0.654476 0.931289
O O6 0.404842 0.690125 0.767722
O O7 0.316670 0.617042 0.924382
O O8 0.379718 0.811289 0.929497
O O9 0.500000 0.265297 0.937831
O O10 0.634550 0.382562 0.877156
O O11 0.665668 0.207613 0.986555
O O12 0.588968 0.374140 0.073515
O O13 0.000000 0.932337 0.752228
O O14 0.840788 0.999049 0.713933
O O15 0.822693 0.499983 0.468619
O O16 0.000000 0.460326 0.970410
#
# Coordination Sequence:
#
# PCOD8175854 Si02
#       7
#     8   8   8   8   8   8   8
#     4  10  24  41  62  90 128 170 211 257 317 390
#     4  10  23  42  64  95 131 165 212 269 319 377
#     4  10  21  39  64  94 128 166 211 262 317 383
#     4  10  22  42  64  88 123 166 207 250 311 382
#     4  11  23  39  65  98 128 163 211 268 320 369
#     4  10  23  42  66  93 129 172 217 263 319 386
#     4  11  24  43  68  96 129 172 218 267 324 383
#
# _framework density 22.946294000000002
#
# number of rings (size 3 to 8) (size 9 to 14) (size 15 to 20)
#    0.000    1.714    0.000    3.000    0.000   15.429 
#    0.000    2.857    0.000    4.286    0.000    0.000 
#    0.000    0.000    0.000    0.000    0.000    0.000 
#
# Total GULP energy -347136.621361 kJ/mol
# GULP energy per Si atom -12397.736477 kJ/mol
# Density = 2.289407 g / cm^3
# Si number density = 22.946294 Si / 1000 Ang^3
#
#
#
# Elastic Constant Matrix: (Units=GPa)
#
#
# Indices 1 2 3 4 5 6 
#
# 1 126.4086 49.9928 32.6680 0.0000 0.0000 0.0000
# 2 49.9928 123.4431 72.8087 0.0000 0.0000 0.0000
# 3 32.6680 72.8087 116.7059 0.0000 0.0000 0.0000
# 4 0.0000 0.0000 0.0000 33.0147 0.0000 0.0000
# 5 0.0000 0.0000 0.0000 0.0000 27.4888 0.0000
# 6 0.0000 0.0000 0.0000 0.0000 0.0000 34.2753
#
#
#
# Elastic Compliance Matrix: (Units=1/GPa)
#
#
# Indices 1 2 3 4 5 6 
#
# 1 0.009432 -0.003580 -0.000407 0.000000 0.000000 0.000000
# 2 -0.003580 0.014176 -0.007842 0.000000 0.000000 0.000000
# 3 -0.000407 -0.007842 0.013575 0.000000 0.000000 0.000000
# 4 0.000000 0.000000 0.000000 0.030290 0.000000 0.000000
# 5 0.000000 0.000000 0.000000 0.000000 0.036378 0.000000
# 6 0.000000 0.000000 0.000000 0.000000 0.000000 0.029176
#
#
# Mechanical properties :
#
#
# Convention : Reuss Voigt Hill
#
# Bulk Modulus (GPa) = 73.93444 75.27739 74.60591
# Shear Modulus (GPa) = 31.01911 33.02831 32.02371
#
# Velocity S-wave (km/s) = 3.68069 3.79802 3.73982
# Velocity P-wave (km/s) = 7.09605 7.21876 7.15767
#
# Compressibility (1/GPa) = 0.01352550
#
# Stress axis : x y z
#
# Youngs Moduli (GPa) = 106.02497 70.54240 73.66685
#
# Poissons Ratio (x) = 0.25253 0.02997
# Poissons Ratio (y) = 0.37955 0.57768
# Poissons Ratio (z) = 0.04313 0.55318
#
# Static dielectric constant tensor:
#      x y z
#    x 4.260260 0.000000 0.000000 
#    y 0.000000 3.837480 0.000000 
#    z 0.000000 0.000000 4.156860 
# 
# 
# High freq. dielectric constant tensor:
#      x y z
#    x 1.918110 0.000000 0.000000 
#    y 0.000000 1.888330 0.000000 
#    z 0.000000 0.000000 1.909250 
# 
# From -- ./inp_files/12162.got.cif
#   From: 2010.03.12/outbox.cif.g09.slc.cpg/sg36_7_cif.got.tgz:12162.got - 2010.04.14 02:13:53.
