data_PCOD8175750
_publ_section_title
;
Structure prediction by ZEFSAII (Michael W. Deem and Ramdas Pophale) SiO2 
 PCOD8175750
Probable space group: C M C 21
;
_chemical_formula_sum "Si O2"
_cell_formula_units_Z 64
_cell_length_a 17.544367
_cell_length_b 20.254524
_cell_length_c 9.218593
_cell_angle_alpha 90.000000
_cell_angle_beta 90.000000
_cell_angle_gamma 90.000000
_cell_volume 3275.852857
_symmetry_space_group_name_H-M "C M C 21"
_symmetry_group_IT_number 36
_symmetry_cell_setting 'orthorhombic'
loop_
_space_group_symop_operation_xyz
x,y,z
-x,-y,1/2+z
x,-y,1/2+z
-x,y,z
1/2+x,1/2+y,z
1/2-x,1/2-y,1/2+z
1/2+x,1/2-y,1/2+z
1/2-x,1/2+y,z
loop_
_atom_site_type_symbol
_atom_site_label
_atom_site_fract_x
_atom_site_fract_y
_atom_site_fract_z
Si Si1 0.328974 0.498837 0.911070
Si Si2 0.641537 0.719323 0.666069
Si Si3 0.801606 0.346386 0.169308
Si Si4 0.087562 0.318770 0.433661
Si Si5 0.087718 0.679569 0.404890
Si Si6 0.418153 0.071385 0.173118
Si Si7 0.229592 0.500392 0.660778
Si Si8 0.586203 0.424144 0.162991
O O1 0.271489 0.464333 0.796277
O O2 0.379304 0.547859 0.813784
O O3 0.270563 0.534321 0.022817
O O4 0.377205 0.449342 0.011424
O O5 0.731628 0.704822 0.674969
O O6 0.621155 0.755337 0.515926
O O7 0.615734 0.761019 0.804318
O O8 0.591108 0.653826 0.668275
O O9 0.856068 0.337562 0.305603
O O10 0.762762 0.419429 0.161359
O O11 0.854422 0.327292 0.035765
O O12 0.089081 0.380607 0.538689
O O13 0.000000 0.305021 0.382358
O O14 0.092844 0.610785 0.321036
O O15 0.000000 0.692820 0.454319
O O16 0.500000 0.035884 0.172163
O O17 0.359392 0.012317 0.161415
O O18 0.500000 0.448472 0.159373
#
# Coordination Sequence:
#
# PCOD8175750 Si02
#       8
#     8   8   8   8   8   8   8   8
#     4  10  21  38  57  86 120 152 202 250 301 344
#     4  11  22  42  63  86 121 166 201 245 306 365
#     4  12  22  38  61  92 118 157 205 249 301 355
#     4  10  22  40  61  88 123 160 203 254 298 356
#     4  10  22  40  61  88 123 160 203 254 298 356
#     4   9  20  36  59  87 123 168 200 239 307 364
#     4  11  21  38  61  88 129 160 197 252 300 361
#     4  11  22  40  65  87 117 159 205 251 311 363
#
# _framework density 19.536897
#
# number of rings (size 3 to 8) (size 9 to 14) (size 15 to 20)
#    0.000    1.500    2.500    4.875    0.000    1.000 
#    0.000    4.375    0.000    0.000    0.000    0.000 
#    0.000    0.000    0.000    0.000    0.000    0.000 
#
# Total GULP energy -396535.367587 kJ/mol
# GULP energy per Si atom -12391.730237 kJ/mol
# Density = 1.949243 g / cm^3
# Si number density = 19.536897 Si / 1000 Ang^3
#
#
#
# Elastic Constant Matrix: (Units=GPa)
#
#
# Indices 1 2 3 4 5 6 
#
# 1 146.4543 27.4102 33.5636 0.0000 0.0000 0.0000
# 2 27.4102 63.1412 18.3484 0.0000 0.0000 0.0000
# 3 33.5636 18.3484 98.9571 0.0000 0.0000 0.0000
# 4 0.0000 0.0000 0.0000 -3.6095 0.0000 0.0000
# 5 0.0000 0.0000 0.0000 0.0000 45.2995 0.0000
# 6 0.0000 0.0000 0.0000 0.0000 0.0000 38.0366
#
#
#
# Elastic Compliance Matrix: (Units=1/GPa)
#
#
# Indices 1 2 3 4 5 6 
#
# 1 0.007840 -0.002780 -0.002143 0.000000 0.000000 0.000000
# 2 -0.002780 0.017726 -0.002344 0.000000 0.000000 0.000000
# 3 -0.002143 -0.002344 0.011267 0.000000 0.000000 0.000000
# 4 0.000000 0.000000 0.000000 -0.277050 0.000000 0.000000
# 5 0.000000 0.000000 0.000000 0.000000 0.022075 0.000000
# 6 0.000000 0.000000 0.000000 0.000000 0.000000 0.026290
#
#
# Mechanical properties :
#
#
# Convention : Reuss Voigt Hill
#
# Bulk Modulus (GPa) = 44.84859 51.91077 48.37968
# Shear Modulus (GPa) = -29.43167 31.22736 0.89784
#
# Velocity S-wave (km/s) = -3.88553 4.00231 0.67865
# Velocity P-wave (km/s) = 1.69583 6.92721 5.04292
#
# Compressibility (1/GPa) = 0.02229725
#
# Stress axis : x y z
#
# Youngs Moduli (GPa) = 127.55631 56.41571 88.75529
#
# Poissons Ratio (x) = 0.15686 0.19024
# Poissons Ratio (y) = 0.35466 0.20801
# Poissons Ratio (z) = 0.27341 0.13222
#
# Static dielectric constant tensor:
#      x y z
#    x 3.925300 0.000000 0.000000 
#    y 0.000000 3.328640 0.000000 
#    z 0.000000 0.000000 3.877650 
# 
# 
# High freq. dielectric constant tensor:
#      x y z
#    x 1.791330 0.000000 0.000000 
#    y 0.000000 1.737190 0.000000 
#    z 0.000000 0.000000 1.771380 
# 
# From -- ./inp_files/4942.got.cif
#   From: 2010.03.12/outbox.cif.g09.slc.cpg/sg36_3_cif.got.tgz:4942.got - 2010.04.14 02:13:53.
