data_PCOD8175744
_publ_section_title
;
Structure prediction by ZEFSAII (Michael W. Deem and Ramdas Pophale) SiO2 
 PCOD8175744
Probable space group: C M C 21
;
_chemical_formula_sum "Si O2"
_cell_formula_units_Z 64
_cell_length_a 9.269531
_cell_length_b 25.225693
_cell_length_c 14.239497
_cell_angle_alpha 90.000000
_cell_angle_beta 90.000000
_cell_angle_gamma 90.000000
_cell_volume 3329.626471
_symmetry_space_group_name_H-M "C M C 21"
_symmetry_group_IT_number 36
_symmetry_cell_setting 'orthorhombic'
loop_
_space_group_symop_operation_xyz
x,y,z
-x,-y,1/2+z
x,-y,1/2+z
-x,y,z
1/2+x,1/2+y,z
1/2-x,1/2-y,1/2+z
1/2+x,1/2-y,1/2+z
1/2-x,1/2+y,z
loop_
_atom_site_type_symbol
_atom_site_label
_atom_site_fract_x
_atom_site_fract_y
_atom_site_fract_z
Si Si1 0.833802 0.917882 0.642980
Si Si2 0.335176 0.763644 0.674004
Si Si3 0.667485 0.136873 0.288815
Si Si4 0.835372 0.992200 0.481154
Si Si5 0.331685 0.353287 0.163029
Si Si6 0.165871 0.337549 0.512754
Si Si7 0.165768 0.888584 0.365745
Si Si8 0.832976 0.402702 0.989511
O O1 0.753272 0.913426 0.743430
O O2 0.756370 0.877412 0.574889
O O3 0.000000 0.902136 0.656707
O O4 0.821213 0.974795 0.591130
O O5 0.500000 0.758229 0.704692
O O6 0.268636 0.807957 0.745183
O O7 0.265268 0.705383 0.683526
O O8 0.320344 0.780675 0.564120
O O9 0.500000 0.130474 0.260560
O O10 0.689038 0.136297 0.400607
O O11 0.728464 0.040158 0.461733
O O12 0.000000 0.009678 0.460915
O O13 0.790286 0.945179 0.409659
O O14 0.500000 0.349653 0.135923
O O15 0.307523 0.389796 0.254327
O O16 0.249204 0.379228 0.077495
O O17 0.238079 0.340581 0.409674
O O18 0.000000 0.355419 0.506233
O O19 0.000000 0.875716 0.389625
O O20 0.000000 0.408821 0.015069
#
# Coordination Sequence:
#
# PCOD8175744 Si02
#       8
#     8   8   8   8   8   8   8   8
#     4   9  17  31  54  82 106 133 176 223 262 307
#     4   8  16  33  56  79 106 143 179 212 262 320
#     4   9  19  36  55  78 109 143 179 219 264 316
#     4   9  19  36  55  77 107 140 176 220 269 318
#     4  10  21  38  57  77 107 145 180 218 265 315
#     4   9  16  29  52  80 110 140 171 214 264 313
#     4   9  19  35  56  81 105 138 186 228 263 310
#     4  11  24  38  53  78 110 142 177 218 267 321
#
# _framework density 19.221374999999998
#
# number of rings (size 3 to 8) (size 9 to 14) (size 15 to 20)
#    0.000    2.750    0.000    2.625    0.000    6.000 
#    0.000    8.125    0.000    0.000    0.000    0.000 
#    0.000    0.000    0.000    0.000    0.000    0.000 
#
# Total GULP energy -396561.742458 kJ/mol
# GULP energy per Si atom -12392.554452 kJ/mol
# Density = 1.917763 g / cm^3
# Si number density = 19.221375 Si / 1000 Ang^3
#
#
#
# Elastic Constant Matrix: (Units=GPa)
#
#
# Indices 1 2 3 4 5 6 
#
# 1 85.6615 40.9909 55.0713 0.0000 0.0000 0.0000
# 2 40.9909 98.4793 54.8918 0.0000 0.0000 0.0000
# 3 55.0713 54.8918 124.8807 0.0000 0.0000 0.0000
# 4 0.0000 0.0000 0.0000 24.5329 0.0000 0.0000
# 5 0.0000 0.0000 0.0000 0.0000 30.5741 0.0000
# 6 0.0000 0.0000 0.0000 0.0000 0.0000 19.5105
#
#
#
# Elastic Compliance Matrix: (Units=1/GPa)
#
#
# Indices 1 2 3 4 5 6 
#
# 1 0.017365 -0.003920 -0.005935 0.000000 0.000000 0.000000
# 2 -0.003920 0.014335 -0.004572 0.000000 0.000000 0.000000
# 3 -0.005935 -0.004572 0.012635 0.000000 0.000000 0.000000
# 4 0.000000 0.000000 0.000000 0.040762 0.000000 0.000000
# 5 0.000000 0.000000 0.000000 0.000000 0.032707 0.000000
# 6 0.000000 0.000000 0.000000 0.000000 0.000000 0.051255
#
#
# Mechanical properties :
#
#
# Convention : Reuss Voigt Hill
#
# Bulk Modulus (GPa) = 64.59807 67.88104 66.23955
# Shear Modulus (GPa) = 24.62184 25.46132 25.04158
#
# Velocity S-wave (km/s) = 3.58293 3.64350 3.61335
# Velocity P-wave (km/s) = 7.12720 7.28644 7.20726
#
# Compressibility (1/GPa) = 0.01548034
#
# Stress axis : x y z
#
# Youngs Moduli (GPa) = 57.58668 69.76149 79.14815
#
# Poissons Ratio (x) = 0.27347 0.46973
# Poissons Ratio (y) = 0.22574 0.36187
# Poissons Ratio (z) = 0.34177 0.31896
#
# Static dielectric constant tensor:
#      x y z
#    x 3.627760 0.000000 0.000000 
#    y 0.000000 3.583990 0.000000 
#    z 0.000000 0.000000 3.922810 
# 
# 
# High freq. dielectric constant tensor:
#      x y z
#    x 1.736820 0.000000 0.000000 
#    y 0.000000 1.729470 0.000000 
#    z 0.000000 0.000000 1.748840 
# 
# From -- ./inp_files/10900.got.cif
#   From: 2010.03.12/outbox.cif.g09.slc.cpg/sg36_6_cif.got.tgz:10900.got - 2010.04.14 02:13:53.
