data_PCOD8175853
_publ_section_title
;
Structure prediction by ZEFSAII (Michael W. Deem and Ramdas Pophale) SiO2 
 PCOD8175853
Probable space group: C M C 21
;
_chemical_formula_sum "Si O2"
_cell_formula_units_Z 40
_cell_length_a 20.141694
_cell_length_b 7.772458
_cell_length_c 13.017273
_cell_angle_alpha 90.000000
_cell_angle_beta 90.000000
_cell_angle_gamma 90.000000
_cell_volume 2037.860215
_symmetry_space_group_name_H-M "C M C 21"
_symmetry_group_IT_number 36
_symmetry_cell_setting 'orthorhombic'
loop_
_space_group_symop_operation_xyz
x,y,z
-x,-y,1/2+z
x,-y,1/2+z
-x,y,z
1/2+x,1/2+y,z
1/2-x,1/2-y,1/2+z
1/2+x,1/2-y,1/2+z
1/2-x,1/2+y,z
loop_
_atom_site_type_symbol
_atom_site_label
_atom_site_fract_x
_atom_site_fract_y
_atom_site_fract_z
Si Si1 0.076466 0.342244 0.463190
Si Si2 0.639388 0.843053 0.066886
Si Si3 0.811193 0.219382 0.866589
Si Si4 0.924899 0.045085 0.966089
Si Si5 0.675842 0.927862 0.289496
O O1 0.101779 0.476670 0.548219
O O2 0.086984 0.148996 0.506132
O O3 0.114115 0.360457 0.355135
O O4 0.000000 0.380848 0.439385
O O5 0.588497 0.680554 0.059073
O O6 0.673629 0.844033 0.177282
O O7 0.695336 0.816601 0.978014
O O8 0.826318 0.364672 0.781116
O O9 0.744772 0.118428 0.843487
O O10 0.873924 0.087822 0.872203
O O11 0.000000 0.067218 0.925302
#
# Coordination Sequence:
#
# PCOD8175853 Si02
#       5
#     8   8   8   8   8
#     4  10  21  39  64  91 126 166 207 259 319 375
#     4   9  22  39  62  90 126 165 208 263 308 378
#     4   9  22  38  61  90 125 163 210 259 318 370
#     4   9  19  42  65  87 126 165 202 262 318 371
#     4  11  21  40  62  94 128 169 209 263 316 382
#
# _framework density 19.628432
#
# number of rings (size 3 to 8) (size 9 to 14) (size 15 to 20)
#    1.200    1.200    0.000    1.800    0.000    4.800 
#    7.200    0.000    0.000    0.000    0.000    0.000 
#    0.000    0.000    0.000    0.000    0.000    0.000 
#
# Total GULP energy -247842.992697 kJ/mol
# GULP energy per Si atom -12392.149635 kJ/mol
# Density = 1.958376 g / cm^3
# Si number density = 19.628432 Si / 1000 Ang^3
#
#
#
# Elastic Constant Matrix: (Units=GPa)
#
#
# Indices 1 2 3 4 5 6 
#
# 1 143.5716 55.4458 42.1444 0.0000 0.0000 0.0000
# 2 55.4458 142.4804 23.9949 0.0000 0.0000 0.0000
# 3 42.1444 23.9949 69.9894 0.0000 0.0000 0.0000
# 4 0.0000 0.0000 0.0000 15.1678 0.0000 0.0000
# 5 0.0000 0.0000 0.0000 0.0000 16.6651 0.0000
# 6 0.0000 0.0000 0.0000 0.0000 0.0000 31.3699
#
#
#
# Elastic Compliance Matrix: (Units=1/GPa)
#
#
# Indices 1 2 3 4 5 6 
#
# 1 0.009463 -0.002890 -0.004707 0.000000 0.000000 0.000000
# 2 -0.002890 0.008331 -0.001116 0.000000 0.000000 0.000000
# 3 -0.004707 -0.001116 0.017505 0.000000 0.000000 0.000000
# 4 0.000000 0.000000 0.000000 0.065929 0.000000 0.000000
# 5 0.000000 0.000000 0.000000 0.000000 0.060006 0.000000
# 6 0.000000 0.000000 0.000000 0.000000 0.000000 0.031878
#
#
# Mechanical properties :
#
#
# Convention : Reuss Voigt Hill
#
# Bulk Modulus (GPa) = 55.95183 66.57908 61.26545
# Shear Modulus (GPa) = 23.09517 28.27100 25.68309
#
# Velocity S-wave (km/s) = 3.43391 3.79926 3.62119
# Velocity P-wave (km/s) = 6.65505 7.29652 6.98315
#
# Compressibility (1/GPa) = 0.01787252
#
# Stress axis : x y z
#
# Youngs Moduli (GPa) = 105.67487 120.03369 57.12609
#
# Poissons Ratio (x) = 0.34686 0.26892
# Poissons Ratio (y) = 0.30537 0.06376
# Poissons Ratio (z) = 0.49746 0.13397
#
# Static dielectric constant tensor:
#      x y z
#    x 3.470240 0.000000 0.000000 
#    y 0.000000 3.841070 0.000000 
#    z 0.000000 0.000000 3.095120 
# 
# 
# High freq. dielectric constant tensor:
#      x y z
#    x 1.764980 0.000000 0.000000 
#    y 0.000000 1.786610 0.000000 
#    z 0.000000 0.000000 1.721060 
# 
# From -- ./inp_files/8781.got.cif
#   From: 2010.03.12/outbox.cif.g09.slc.cpg/sg36_5_cif.got.tgz:8781.got - 2010.04.14 02:13:53.
