data_PCOD8175622
_publ_section_title
;
Structure prediction by ZEFSAII (Michael W. Deem and Ramdas Pophale) SiO2 
 PCOD8175622
Probable space group: C M C 21
;
_chemical_formula_sum "Si O2"
_cell_formula_units_Z 48
_cell_length_a 13.930621
_cell_length_b 5.116344
_cell_length_c 31.023751
_cell_angle_alpha 90.000000
_cell_angle_beta 90.000000
_cell_angle_gamma 90.000000
_cell_volume 2211.182149
_symmetry_space_group_name_H-M "C M C 21"
_symmetry_group_IT_number 36
_symmetry_cell_setting 'orthorhombic'
loop_
_space_group_symop_operation_xyz
x,y,z
-x,-y,1/2+z
x,-y,1/2+z
-x,y,z
1/2+x,1/2+y,z
1/2-x,1/2-y,1/2+z
1/2+x,1/2-y,1/2+z
1/2-x,1/2+y,z
loop_
_atom_site_type_symbol
_atom_site_label
_atom_site_fract_x
_atom_site_fract_y
_atom_site_fract_z
Si Si1 0.609683 0.970984 0.586090
Si Si2 0.614928 0.529212 0.037593
Si Si3 0.500000 0.488124 0.885577
Si Si4 0.311647 0.503996 0.441511
Si Si5 0.685437 0.999792 0.771636
Si Si6 0.500000 0.012015 0.329605
Si Si7 0.309236 0.059394 0.675465
O O1 0.500000 0.972122 0.573161
O O2 0.656837 0.213481 0.560864
O O3 0.616821 0.992093 0.637680
O O4 0.654378 0.704099 0.567880
O O5 0.500000 0.529220 0.033294
O O6 0.662061 0.505572 0.991332
O O7 0.593379 0.538458 0.913985
O O8 0.500000 0.191848 0.868783
O O9 0.500000 0.691727 0.846289
O O10 0.235931 0.279402 0.429546
O O11 0.763751 0.223789 0.780667
O O12 0.594889 0.037830 0.801987
O O13 0.645166 0.012945 0.722599
O O14 0.280764 0.362777 0.670697
#
# Coordination Sequence:
#
# PCOD8175622 Si02
#       7
#     8   8   4   8   8   4   8
#     4  10  21  34  59  88 123 170 210 255 305 359
#     4  10  21  40  58  87 130 166 211 267 304 363
#     4  12  28  48  66 102 132 154 216 274 314 398
#     4  12  26  44  70  96 128 174 210 260 329 381
#     4  10  23  43  66  98 133 165 214 265 311 384
#     4  12  26  44  76  94 124 178 200 260 344 380
#     4  10  21  37  57  86 127 164 202 263 306 354
#
# _framework density 21.707843
#
# number of rings (size 3 to 8) (size 9 to 14) (size 15 to 20)
#    0.000    1.333    0.833    4.000    1.167    8.000 
#    0.000    0.000    0.000    0.000    0.000    0.000 
#    0.000    0.000    0.000    0.000    0.000    0.000 
#
# Total GULP energy -297652.360556 kJ/mol
# GULP energy per Si atom -12402.181690 kJ/mol
# Density = 2.165844 g / cm^3
# Si number density = 21.707843 Si / 1000 Ang^3
#
#
#
# Elastic Constant Matrix: (Units=GPa)
#
#
# Indices 1 2 3 4 5 6 
#
# 1 78.0360 12.1801 43.1894 0.0000 0.0000 0.0000
# 2 12.1801 123.4706 20.3996 0.0000 0.0000 0.0000
# 3 43.1894 20.3996 106.0895 0.0000 0.0000 0.0000
# 4 0.0000 0.0000 0.0000 36.6512 0.0000 0.0000
# 5 0.0000 0.0000 0.0000 0.0000 93.8054 0.0000
# 6 0.0000 0.0000 0.0000 0.0000 0.0000 12.8475
#
#
#
# Elastic Compliance Matrix: (Units=1/GPa)
#
#
# Indices 1 2 3 4 5 6 
#
# 1 0.016576 -0.000537 -0.006645 0.000000 0.000000 0.000000
# 2 -0.000537 0.008382 -0.001393 0.000000 0.000000 0.000000
# 3 -0.006645 -0.001393 0.012399 0.000000 0.000000 0.000000
# 4 0.000000 0.000000 0.000000 0.027284 0.000000 0.000000
# 5 0.000000 0.000000 0.000000 0.000000 0.010660 0.000000
# 6 0.000000 0.000000 0.000000 0.000000 0.000000 0.077836
#
#
# Mechanical properties :
#
#
# Convention : Reuss Voigt Hill
#
# Bulk Modulus (GPa) = 49.48810 51.01492 50.25151
# Shear Modulus (GPa) = 28.24474 44.11597 36.18035
#
# Velocity S-wave (km/s) = 3.61103 4.51295 4.08695
# Velocity P-wave (km/s) = 6.34294 7.12091 6.74315
#
# Compressibility (1/GPa) = 0.02020688
#
# Stress axis : x y z
#
# Youngs Moduli (GPa) = 60.32778 119.29961 80.65158
#
# Poissons Ratio (x) = 0.06411 0.53592
# Poissons Ratio (y) = 0.03242 0.11235
# Poissons Ratio (z) = 0.40087 0.16619
#
# Static dielectric constant tensor:
#      x y z
#    x 3.374640 0.000000 0.000000 
#    y 0.000000 4.329650 0.000000 
#    z 0.000000 0.000000 3.990070 
# 
# 
# High freq. dielectric constant tensor:
#      x y z
#    x 1.848480 0.000000 0.000000 
#    y 0.000000 1.872370 0.000000 
#    z 0.000000 0.000000 1.861010 
# 
# From -- ./inp_files/17223.got.cif
#   From: 2010.03.12/outbox.cif.g09.slc.cpg/sg36_9_cif.got.tgz:17223.got - 2010.04.14 02:13:53.
