data_PCOD8175755
_publ_section_title
;
Structure prediction by ZEFSAII (Michael W. Deem and Ramdas Pophale) SiO2 
 PCOD8175755
Probable space group: C M C 21
;
_chemical_formula_sum "Si O2"
_cell_formula_units_Z 40
_cell_length_a 25.884786
_cell_length_b 8.637034
_cell_length_c 8.457193
_cell_angle_alpha 90.000000
_cell_angle_beta 90.000000
_cell_angle_gamma 90.000000
_cell_volume 1890.755837
_symmetry_space_group_name_H-M "C M C 21"
_symmetry_group_IT_number 36
_symmetry_cell_setting 'orthorhombic'
loop_
_space_group_symop_operation_xyz
x,y,z
-x,-y,1/2+z
x,-y,1/2+z
-x,y,z
1/2+x,1/2+y,z
1/2-x,1/2-y,1/2+z
1/2+x,1/2-y,1/2+z
1/2-x,1/2+y,z
loop_
_atom_site_type_symbol
_atom_site_label
_atom_site_fract_x
_atom_site_fract_y
_atom_site_fract_z
Si Si1 0.702601 0.112833 0.229160
Si Si2 0.399719 0.712789 0.779352
Si Si3 0.702366 0.786988 0.368515
Si Si4 0.600420 0.610370 0.422169
Si Si5 0.500000 0.214118 0.868287
Si Si6 0.500000 0.889880 0.727518
O O1 0.650482 0.182011 0.302981
O O2 0.750176 0.176485 0.329391
O O3 0.700995 0.928172 0.245735
O O4 0.708484 0.150873 0.045601
O O5 0.398029 0.574113 0.904343
O O6 0.401698 0.638658 0.607343
O O7 0.449663 0.818320 0.811717
O O8 0.650575 0.688184 0.344862
O O9 0.550074 0.680592 0.337152
O O10 0.500000 0.074459 0.744184
O O11 0.500000 0.142874 0.042430
#
# Coordination Sequence:
#
# PCOD8175755 Si02
#       6
#     8   8   8   8   4   4
#     4  11  23  39  59  85 115 150 190 234 282 336
#     4  10  22  38  58  84 114 147 187 231 279 333
#     4  11  23  39  59  85 115 150 190 234 282 336
#     4  10  22  38  58  84 114 147 187 231 279 333
#     4  10  21  38  58  84 114 146 185 230 278 332
#     4  10  21  38  58  84 114 146 185 230 278 332
#
# _framework density 21.155562
#
# number of rings (size 3 to 8) (size 9 to 14) (size 15 to 20)
#    0.000    1.600    0.000    4.200    0.000    8.000 
#    0.000    0.000    0.000    0.000    0.000    0.000 
#    0.000    0.000    0.000    0.000    0.000    0.000 
#
# Total GULP energy -248152.756450 kJ/mol
# GULP energy per Si atom -12407.637822 kJ/mol
# Density = 2.110741 g / cm^3
# Si number density = 21.155562 Si / 1000 Ang^3
#
#
#
# Elastic Constant Matrix: (Units=GPa)
#
#
# Indices 1 2 3 4 5 6 
#
# 1 169.9238 23.0722 18.0236 0.0000 0.0000 0.0000
# 2 23.0722 68.6642 -2.3392 0.0000 0.0000 0.0000
# 3 18.0236 -2.3392 22.5013 0.0000 0.0000 0.0000
# 4 0.0000 0.0000 0.0000 38.6158 0.0000 0.0000
# 5 0.0000 0.0000 0.0000 0.0000 27.8746 0.0000
# 6 0.0000 0.0000 0.0000 0.0000 0.0000 39.5132
#
#
#
# Elastic Compliance Matrix: (Units=1/GPa)
#
#
# Indices 1 2 3 4 5 6 
#
# 1 0.006831 -0.002491 -0.005731 0.000000 0.000000 0.000000
# 2 -0.002491 0.015523 0.003609 0.000000 0.000000 0.000000
# 3 -0.005731 0.003609 0.049407 0.000000 0.000000 0.000000
# 4 0.000000 0.000000 0.000000 0.025896 0.000000 0.000000
# 5 0.000000 0.000000 0.000000 0.000000 0.035875 0.000000
# 6 0.000000 0.000000 0.000000 0.000000 0.000000 0.025308
#
#
# Mechanical properties :
#
#
# Convention : Reuss Voigt Hill
#
# Bulk Modulus (GPa) = 15.99058 37.62249 26.80654
# Shear Modulus (GPa) = 26.46750 36.02291 31.24520
#
# Velocity S-wave (km/s) = 3.54091 4.13093 3.84725
# Velocity P-wave (km/s) = 4.92873 6.36986 5.69506
#
# Compressibility (1/GPa) = 0.06253681
#
# Stress axis : x y z
#
# Youngs Moduli (GPa) = 146.39176 64.41876 20.23999
#
# Poissons Ratio (x) = 0.16044 0.11599
# Poissons Ratio (y) = 0.36459 -0.07304
# Poissons Ratio (z) = 0.83890 -0.23247
#
# Static dielectric constant tensor:
#      x y z
#    x 4.205050 0.000000 0.000000 
#    y 0.000000 3.846870 0.000000 
#    z 0.000000 0.000000 3.552330 
# 
# 
# High freq. dielectric constant tensor:
#      x y z
#    x 1.849660 0.000000 0.000000 
#    y 0.000000 1.839790 0.000000 
#    z 0.000000 0.000000 1.818400 
# 
# From -- ./inp_files/5475.got.cif
#   From: 2010.03.12/outbox.cif.g09.slc.cpg/sg36_3_cif.got.tgz:5475.got - 2010.04.14 02:13:53.
