data_PCOD8175531
_publ_section_title
;
Structure prediction by ZEFSAII (Michael W. Deem and Ramdas Pophale) SiO2 
 PCOD8175531
Probable space group: C M C 21
;
_chemical_formula_sum "Si O2"
_cell_formula_units_Z 32
_cell_length_a 5.217713
_cell_length_b 37.426257
_cell_length_c 7.300416
_cell_angle_alpha 90.000000
_cell_angle_beta 90.000000
_cell_angle_gamma 90.000000
_cell_volume 1425.621350
_symmetry_space_group_name_H-M "C M C 21"
_symmetry_group_IT_number 36
_symmetry_cell_setting 'orthorhombic'
loop_
_space_group_symop_operation_xyz
x,y,z
-x,-y,1/2+z
x,-y,1/2+z
-x,y,z
1/2+x,1/2+y,z
1/2-x,1/2-y,1/2+z
1/2+x,1/2-y,1/2+z
1/2-x,1/2+y,z
loop_
_atom_site_type_symbol
_atom_site_label
_atom_site_fract_x
_atom_site_fract_y
_atom_site_fract_z
Si Si1 0.500000 0.078571 0.576210
Si Si2 0.000000 0.185776 0.912140
Si Si3 0.000000 0.215698 0.288974
Si Si4 0.500000 0.538471 0.551222
Si Si5 0.500000 0.915535 0.639407
Si Si6 0.500000 0.544432 0.128144
Si Si7 0.500000 0.142610 0.852257
Si Si8 0.500000 0.235594 0.468858
O O1 0.253909 0.055458 0.640480
O O2 0.500000 0.086895 0.359201
O O3 0.500000 0.115557 0.682859
O O4 0.749512 0.167001 0.832000
O O5 0.000000 0.227354 0.851498
O O6 0.000000 0.184177 0.136620
O O7 0.250208 0.212483 0.416480
O O8 0.000000 0.254286 0.184119
O O9 0.500000 0.548805 0.342623
O O10 0.500000 0.496159 0.565947
O O11 0.745384 0.936171 0.555768
O O12 0.500000 0.876325 0.550820
#
# Coordination Sequence:
#
# PCOD8175531 Si02
#       8
#     4   4   4   4   4   4   4   4
#     4  10  23  39  57  84 117 160 198 251 305 360
#     4  10  24  38  64  92 124 158 209 240 293 380
#     4  10  20  38  63  90 129 160 197 254 315 351
#     4  10  21  36  57  84 117 146 200 258 306 370
#     4  10  23  39  57  84 117 160 198 251 305 360
#     4  10  21  36  57  84 117 146 200 258 306 370
#     4  12  22  42  64  84 126 168 203 248 299 370
#     4  10  20  38  63  90 129 160 197 254 315 351
#
# _framework density 22.446352999999998
#
# number of rings (size 3 to 8) (size 9 to 14) (size 15 to 20)
#    0.750    1.000    0.000    4.500    3.500    0.000 
#    0.000    7.500    0.000    0.000    0.000    0.000 
#    0.000    0.000    0.000    0.000    0.000    0.000 
#
# Total GULP energy -198355.200669 kJ/mol
# GULP energy per Si atom -12397.200042 kJ/mol
# Density = 2.239526 g / cm^3
# Si number density = 22.446353 Si / 1000 Ang^3
#
#
#
# Elastic Constant Matrix: (Units=GPa)
#
#
# Indices 1 2 3 4 5 6 
#
# 1 201.1829 27.0537 -6.1645 0.0000 0.0000 0.0000
# 2 27.0537 69.1687 -24.5116 0.0000 0.0000 0.0000
# 3 -6.1645 -24.5116 28.3376 0.0000 0.0000 0.0000
# 4 0.0000 0.0000 0.0000 45.6689 0.0000 0.0000
# 5 0.0000 0.0000 0.0000 0.0000 -5.2104 0.0000
# 6 0.0000 0.0000 0.0000 0.0000 0.0000 28.8723
#
#
#
# Elastic Compliance Matrix: (Units=1/GPa)
#
#
# Indices 1 2 3 4 5 6 
#
# 1 0.005263 -0.002383 -0.000917 0.000000 0.000000 0.000000
# 2 -0.002383 0.021927 0.018448 0.000000 0.000000 0.000000
# 3 -0.000917 0.018448 0.051047 0.000000 0.000000 0.000000
# 4 0.000000 0.000000 0.000000 0.021897 0.000000 0.000000
# 5 0.000000 0.000000 0.000000 0.000000 -0.191922 0.000000
# 6 0.000000 0.000000 0.000000 0.000000 0.000000 0.034635
#
#
# Mechanical properties :
#
#
# Convention : Reuss Voigt Hill
#
# Bulk Modulus (GPa) = 9.21375 32.38273 20.79824
# Shear Modulus (GPa) = -97.51908 34.02026 -31.74941
#
# Velocity S-wave (km/s) = -6.59846 3.89733 -3.76501
# Velocity P-wave (km/s) = 7.34433 5.89154 3.10073
#
# Compressibility (1/GPa) = 0.10853342
#
# Stress axis : x y z
#
# Youngs Moduli (GPa) = 190.00539 45.60554 19.58985
#
# Poissons Ratio (x) = 0.10869 0.01796
# Poissons Ratio (y) = 0.45285 -0.36140
# Poissons Ratio (z) = 0.17417 -0.84134
#
# Static dielectric constant tensor:
#      x y z
#    x 4.570360 0.000000 0.000000 
#    y 0.000000 3.677850 0.000000 
#    z 0.000000 0.000000 3.852560 
# 
# 
# High freq. dielectric constant tensor:
#      x y z
#    x 1.905580 0.000000 0.000000 
#    y 0.000000 1.864580 0.000000 
#    z 0.000000 0.000000 1.878870 
# 
# From -- ./inp_files/2045.got.cif
#   From: 2010.03.12/outbox.cif.g09.slc.cpg/sg36_2_cif.got.tgz:2045.got - 2010.04.14 02:13:53.
