data_PCOD8175828
_publ_section_title
;
Structure prediction by ZEFSAII (Michael W. Deem and Ramdas Pophale) SiO2 
 PCOD8175828
Probable space group: C M C 21
;
_chemical_formula_sum "Si O2"
_cell_formula_units_Z 48
_cell_length_a 8.362844
_cell_length_b 23.948535
_cell_length_c 11.901039
_cell_angle_alpha 90.000000
_cell_angle_beta 90.000000
_cell_angle_gamma 90.000000
_cell_volume 2383.514649
_symmetry_space_group_name_H-M "C M C 21"
_symmetry_group_IT_number 36
_symmetry_cell_setting 'orthorhombic'
loop_
_space_group_symop_operation_xyz
x,y,z
-x,-y,1/2+z
x,-y,1/2+z
-x,y,z
1/2+x,1/2+y,z
1/2-x,1/2-y,1/2+z
1/2+x,1/2-y,1/2+z
1/2-x,1/2+y,z
loop_
_atom_site_type_symbol
_atom_site_label
_atom_site_fract_x
_atom_site_fract_y
_atom_site_fract_z
Si Si1 0.689068 0.611911 0.336520
Si Si2 0.184224 0.352960 0.503699
Si Si3 0.190061 0.955343 0.624017
Si Si4 0.314620 0.717334 0.199615
Si Si5 0.685273 0.332965 0.262917
Si Si6 0.190406 0.920278 0.078647
O O1 0.500000 0.608023 0.342935
O O2 0.749701 0.566434 0.245650
O O3 0.739544 0.673803 0.296659
O O4 0.763589 0.598580 0.458373
O O5 0.235917 0.416729 0.526590
O O6 0.288510 0.310662 0.578426
O O7 0.211066 0.338917 0.374259
O O8 0.000000 0.344125 0.534275
O O9 0.000000 0.952039 0.613312
O O10 0.253807 0.017997 0.607553
O O11 0.500000 0.733437 0.212151
O O12 0.206424 0.771845 0.210361
O O13 0.500000 0.343709 0.290329
O O14 0.751360 0.377871 0.173512
O O15 0.000000 0.919452 0.073272
#
# Coordination Sequence:
#
# PCOD8175828 Si02
#       6
#     8   8   8   8   8   8
#     4   8  16  32  55  84 114 146 185 233 290 348
#     4  11  23  40  60  83 118 160 198 243 296 349
#     4   9  18  35  61  87 113 148 194 242 292 352
#     4  10  21  39  62  86 117 155 195 244 299 355
#     4  11  23  37  59  91 121 154 198 243 294 357
#     4   9  19  33  57  89 117 149 190 239 291 357
#
# _framework density 20.138328000000001
#
# number of rings (size 3 to 8) (size 9 to 14) (size 15 to 20)
#    0.000    2.333    0.000    3.500    4.667    0.000 
#    0.000    1.667    0.000    2.000    0.000    0.000 
#    0.000    0.000    0.000    0.000    0.000    0.000 
#
# Total GULP energy -297647.457324 kJ/mol
# GULP energy per Si atom -12401.977388 kJ/mol
# Density = 2.009249 g / cm^3
# Si number density = 20.138328 Si / 1000 Ang^3
#
#
#
# Elastic Constant Matrix: (Units=GPa)
#
#
# Indices 1 2 3 4 5 6 
#
# 1 39.1363 12.0022 7.9226 0.0000 0.0000 0.0000
# 2 12.0022 154.1339 62.4954 0.0000 0.0000 0.0000
# 3 7.9226 62.4954 125.4429 0.0000 0.0000 0.0000
# 4 0.0000 0.0000 0.0000 25.5908 0.0000 0.0000
# 5 0.0000 0.0000 0.0000 0.0000 18.8213 0.0000
# 6 0.0000 0.0000 0.0000 0.0000 0.0000 24.8138
#
#
#
# Elastic Compliance Matrix: (Units=1/GPa)
#
#
# Indices 1 2 3 4 5 6 
#
# 1 0.026241 -0.001719 -0.000801 0.000000 0.000000 0.000000
# 2 -0.001719 0.008243 -0.003998 0.000000 0.000000 0.000000
# 3 -0.000801 -0.003998 0.010014 0.000000 0.000000 0.000000
# 4 0.000000 0.000000 0.000000 0.039077 0.000000 0.000000
# 5 0.000000 0.000000 0.000000 0.000000 0.053131 0.000000
# 6 0.000000 0.000000 0.000000 0.000000 0.000000 0.040300
#
#
# Mechanical properties :
#
#
# Convention : Reuss Voigt Hill
#
# Bulk Modulus (GPa) = 31.78384 53.72816 42.75600
# Shear Modulus (GPa) = 24.93411 29.59804 27.26608
#
# Velocity S-wave (km/s) = 3.52254 3.83787 3.68358
# Velocity P-wave (km/s) = 5.68871 6.81003 6.27447
#
# Compressibility (1/GPa) = 0.03146253
#
# Stress axis : x y z
#
# Youngs Moduli (GPa) = 38.10841 121.31951 99.85899
#
# Poissons Ratio (x) = 0.20849 0.08000
# Poissons Ratio (y) = 0.06549 0.39923
# Poissons Ratio (z) = 0.03053 0.48503
#
# Static dielectric constant tensor:
#      x y z
#    x 3.232780 0.000000 0.000000 
#    y 0.000000 3.778630 0.000000 
#    z 0.000000 0.000000 3.853470 
# 
# 
# High freq. dielectric constant tensor:
#      x y z
#    x 1.753050 0.000000 0.000000 
#    y 0.000000 1.793470 0.000000 
#    z 0.000000 0.000000 1.791610 
# 
# From -- ./inp_files/6719.got.cif
#   From: 2010.03.12/outbox.cif.g09.slc.cpg/sg36_4_cif.got.tgz:6719.got - 2010.04.14 02:13:53.
