data_PCOD8175657
_publ_section_title
;
Structure prediction by ZEFSAII (Michael W. Deem and Ramdas Pophale) SiO2 
 PCOD8175657
Probable space group: C M C 21
;
_chemical_formula_sum "Si O2"
_cell_formula_units_Z 48
_cell_length_a 8.980156
_cell_length_b 30.186604
_cell_length_c 9.184991
_cell_angle_alpha 90.000000
_cell_angle_beta 90.000000
_cell_angle_gamma 90.000000
_cell_volume 2489.871154
_symmetry_space_group_name_H-M "C M C 21"
_symmetry_group_IT_number 36
_symmetry_cell_setting 'orthorhombic'
loop_
_space_group_symop_operation_xyz
x,y,z
-x,-y,1/2+z
x,-y,1/2+z
-x,y,z
1/2+x,1/2+y,z
1/2-x,1/2-y,1/2+z
1/2+x,1/2-y,1/2+z
1/2-x,1/2+y,z
loop_
_atom_site_type_symbol
_atom_site_label
_atom_site_fract_x
_atom_site_fract_y
_atom_site_fract_z
Si Si1 0.328054 0.621815 0.409350
Si Si2 0.332031 0.279736 0.897347
Si Si3 0.831942 0.204441 0.062159
Si Si4 0.174595 0.468970 0.417782
Si Si5 0.826320 0.041433 0.610602
Si Si6 0.672994 0.115576 0.112353
O O1 0.500000 0.623160 0.360926
O O2 0.277423 0.671664 0.451094
O O3 0.301299 0.590773 0.548059
O O4 0.240544 0.603623 0.269409
O O5 0.500000 0.270504 0.951156
O O6 0.320454 0.277411 0.724437
O O7 0.224302 0.242497 0.956473
O O8 0.739009 0.159760 0.041071
O O9 0.000000 0.193057 0.018553
O O10 0.270610 0.507724 0.488510
O O11 0.226752 0.463516 0.252716
O O12 0.208540 0.424081 0.503163
O O13 0.000000 0.481173 0.420153
O O14 0.000000 0.032739 0.645069
O O15 0.500000 0.123033 0.135065
#
# Coordination Sequence:
#
# PCOD8175657 Si02
#       6
#     8   8   8   8   8   8
#     4   9  20  38  58  82 112 145 184 231 278 327
#     4   9  19  36  55  79 112 145 181 226 275 328
#     4  10  21  36  56  82 111 145 185 229 276 327
#     4  11  24  40  58  84 117 150 186 231 282 334
#     4  11  23  39  61  87 114 148 189 231 278 333
#     4  10  21  37  58  82 110 147 187 228 277 331
#
# _framework density 19.278106999999999
#
# number of rings (size 3 to 8) (size 9 to 14) (size 15 to 20)
#    0.000    2.000    0.000    4.000    0.000   11.333 
#    0.000    3.333    0.000    0.000    0.000    0.000 
#    0.000    0.000    0.000    0.000    0.000    0.000 
#
# Total GULP energy -297686.198401 kJ/mol
# GULP energy per Si atom -12403.591600 kJ/mol
# Density = 1.923423 g / cm^3
# Si number density = 19.278107 Si / 1000 Ang^3
#
#
#
# Elastic Constant Matrix: (Units=GPa)
#
#
# Indices 1 2 3 4 5 6 
#
# 1 64.0636 22.9101 10.8611 0.0000 0.0000 0.0000
# 2 22.9101 59.5961 5.6604 0.0000 0.0000 0.0000
# 3 10.8611 5.6604 34.0026 0.0000 0.0000 0.0000
# 4 0.0000 0.0000 0.0000 32.8586 0.0000 0.0000
# 5 0.0000 0.0000 0.0000 0.0000 37.6653 0.0000
# 6 0.0000 0.0000 0.0000 0.0000 0.0000 33.0851
#
#
#
# Elastic Compliance Matrix: (Units=1/GPa)
#
#
# Indices 1 2 3 4 5 6 
#
# 1 0.018867 -0.006788 -0.004897 0.000000 0.000000 0.000000
# 2 -0.006788 0.019491 -0.001077 0.000000 0.000000 0.000000
# 3 -0.004897 -0.001077 0.031153 0.000000 0.000000 0.000000
# 4 0.000000 0.000000 0.000000 0.030433 0.000000 0.000000
# 5 0.000000 0.000000 0.000000 0.000000 0.026550 0.000000
# 6 0.000000 0.000000 0.000000 0.000000 0.000000 0.030225
#
#
# Mechanical properties :
#
#
# Convention : Reuss Voigt Hill
#
# Bulk Modulus (GPa) = 22.73283 26.28062 24.50672
# Shear Modulus (GPa) = 25.39304 28.60384 26.99844
#
# Velocity S-wave (km/s) = 3.63326 3.85612 3.74635
# Velocity P-wave (km/s) = 5.42387 5.78690 5.60832
#
# Compressibility (1/GPa) = 0.04398925
#
# Stress axis : x y z
#
# Youngs Moduli (GPa) = 53.00234 51.30497 32.09985
#
# Poissons Ratio (x) = 0.34825 0.15718
# Poissons Ratio (y) = 0.35977 0.03456
# Poissons Ratio (z) = 0.25953 0.05523
#
# Static dielectric constant tensor:
#      x y z
#    x 3.633110 0.000000 0.000000 
#    y 0.000000 3.703880 0.000000 
#    z 0.000000 0.000000 3.378650 
# 
# 
# High freq. dielectric constant tensor:
#      x y z
#    x 1.759920 0.000000 0.000000 
#    y 0.000000 1.762600 0.000000 
#    z 0.000000 0.000000 1.744780 
# 
# From -- ./inp_files/2639.got.cif
#   From: 2010.03.12/outbox.cif.g09.slc.cpg/sg36_2_cif.got.tgz:2639.got - 2010.04.14 02:13:53.
