data_PCOD8175628
_publ_section_title
;
Structure prediction by ZEFSAII (Michael W. Deem and Ramdas Pophale) SiO2 
 PCOD8175628
Probable space group: C M C 21
;
_chemical_formula_sum "Si O2"
_cell_formula_units_Z 48
_cell_length_a 12.579191
_cell_length_b 27.402551
_cell_length_c 7.321602
_cell_angle_alpha 90.000000
_cell_angle_beta 90.000000
_cell_angle_gamma 90.000000
_cell_volume 2523.770288
_symmetry_space_group_name_H-M "C M C 21"
_symmetry_group_IT_number 36
_symmetry_cell_setting 'orthorhombic'
loop_
_space_group_symop_operation_xyz
x,y,z
-x,-y,1/2+z
x,-y,1/2+z
-x,y,z
1/2+x,1/2+y,z
1/2-x,1/2-y,1/2+z
1/2+x,1/2-y,1/2+z
1/2-x,1/2+y,z
loop_
_atom_site_type_symbol
_atom_site_label
_atom_site_fract_x
_atom_site_fract_y
_atom_site_fract_z
Si Si1 0.381854 0.384745 0.235980
Si Si2 0.122068 0.032263 0.018560
Si Si3 0.121567 0.359183 0.882830
Si Si4 0.879105 0.718528 0.082533
Si Si5 0.724016 0.197363 0.712855
Si Si6 0.301493 0.566687 0.398114
O O1 0.500000 0.365844 0.277655
O O2 0.356387 0.433726 0.346026
O O3 0.300967 0.343353 0.299084
O O4 0.370511 0.395961 0.020247
O O5 0.144801 0.062439 0.200997
O O6 0.000000 0.013505 0.021125
O O7 0.200617 0.986145 0.996621
O O8 0.136433 0.332514 0.688609
O O9 0.183756 0.410706 0.881021
O O10 0.000000 0.372894 0.920680
O O11 0.160872 0.322279 0.038745
O O12 0.794861 0.756675 0.158988
O O13 0.000000 0.737746 0.109844
O O14 0.860667 0.711125 0.867449
#
# Coordination Sequence:
#
# PCOD8175628 Si02
#       6
#     8   8   8   8   8   8
#     4  10  21  35  55  84 117 150 189 237 291 348
#     4  11  20  34  57  85 118 151 184 236 297 346
#     4  10  23  42  61  82 118 160 198 242 291 346
#     4  11  22  39  63  89 119 156 197 241 295 351
#     4  11  21  39  62  88 118 154 195 242 293 352
#     4  11  21  35  58  82 114 153 193 234 291 349
#
# _framework density 19.019162000000001
#
# number of rings (size 3 to 8) (size 9 to 14) (size 15 to 20)
#    0.000    1.333    3.333    3.500    0.000    0.000 
#    0.000    0.833    0.000    0.000    0.000    0.000 
#    0.000    0.000    0.000    0.000    0.000    0.000 
#
# Total GULP energy -297637.594832 kJ/mol
# GULP energy per Si atom -12401.566451 kJ/mol
# Density = 1.897587 g / cm^3
# Si number density = 19.019162 Si / 1000 Ang^3
#
#
#
# Elastic Constant Matrix: (Units=GPa)
#
#
# Indices 1 2 3 4 5 6 
#
# 1 83.5124 56.0409 32.6499 0.0000 0.0000 0.0000
# 2 56.0409 82.3523 22.4810 0.0000 0.0000 0.0000
# 3 32.6499 22.4810 104.4086 0.0000 0.0000 0.0000
# 4 0.0000 0.0000 0.0000 22.4096 0.0000 0.0000
# 5 0.0000 0.0000 0.0000 0.0000 28.1556 0.0000
# 6 0.0000 0.0000 0.0000 0.0000 0.0000 34.0067
#
#
#
# Elastic Compliance Matrix: (Units=1/GPa)
#
#
# Indices 1 2 3 4 5 6 
#
# 1 0.023634 -0.014944 -0.004173 0.000000 0.000000 0.000000
# 2 -0.014944 0.022350 -0.000139 0.000000 0.000000 0.000000
# 3 -0.004173 -0.000139 0.010913 0.000000 0.000000 0.000000
# 4 0.000000 0.000000 0.000000 0.044624 0.000000 0.000000
# 5 0.000000 0.000000 0.000000 0.000000 0.035517 0.000000
# 6 0.000000 0.000000 0.000000 0.000000 0.000000 0.029406
#
#
# Mechanical properties :
#
#
# Convention : Reuss Voigt Hill
#
# Bulk Modulus (GPa) = 54.39286 54.73522 54.56404
# Shear Modulus (GPa) = 23.68739 27.52115 25.60427
#
# Velocity S-wave (km/s) = 3.53292 3.80810 3.67309
# Velocity P-wave (km/s) = 6.73076 6.94096 6.83667
#
# Compressibility (1/GPa) = 0.01838477
#
# Stress axis : x y z
#
# Youngs Moduli (GPa) = 42.31271 44.74247 91.63658
#
# Poissons Ratio (x) = 0.66861 0.38239
# Poissons Ratio (y) = 0.63230 0.01277
# Poissons Ratio (z) = 0.17657 0.00623
#
# Static dielectric constant tensor:
#      x y z
#    x 3.446070 0.000000 0.000000 
#    y 0.000000 3.412830 0.000000 
#    z 0.000000 0.000000 3.629150 
# 
# 
# High freq. dielectric constant tensor:
#      x y z
#    x 1.730610 0.000000 0.000000 
#    y 0.000000 1.735150 0.000000 
#    z 0.000000 0.000000 1.753710 
# 
# From -- ./inp_files/3385.got.cif
#   From: 2010.03.12/outbox.cif.g09.slc.cpg/sg36_2_cif.got.tgz:3385.got - 2010.04.14 02:13:53.
