data_PCOD8175678
_publ_section_title
;
Structure prediction by ZEFSAII (Michael W. Deem and Ramdas Pophale) SiO2 
 PCOD8175678
Probable space group: C M C 21
;
_chemical_formula_sum "Si O2"
_cell_formula_units_Z 64
_cell_length_a 8.768291
_cell_length_b 15.198722
_cell_length_c 23.621370
_cell_angle_alpha 90.000000
_cell_angle_beta 90.000000
_cell_angle_gamma 90.000000
_cell_volume 3147.944801
_symmetry_space_group_name_H-M "C M C 21"
_symmetry_group_IT_number 36
_symmetry_cell_setting 'orthorhombic'
loop_
_space_group_symop_operation_xyz
x,y,z
-x,-y,1/2+z
x,-y,1/2+z
-x,y,z
1/2+x,1/2+y,z
1/2-x,1/2-y,1/2+z
1/2+x,1/2-y,1/2+z
1/2-x,1/2+y,z
loop_
_atom_site_type_symbol
_atom_site_label
_atom_site_fract_x
_atom_site_fract_y
_atom_site_fract_z
Si Si1 0.328500 0.717138 0.413680
Si Si2 0.318064 0.548769 0.779050
Si Si3 0.679741 0.771911 0.292668
Si Si4 0.181110 0.993715 0.020962
Si Si5 0.319941 0.884342 0.723778
Si Si6 0.178328 0.854323 0.604805
Si Si7 0.675309 0.190888 0.526974
Si Si8 0.172894 0.014064 0.397563
O O1 0.500000 0.736756 0.434269
O O2 0.284105 0.777399 0.360017
O O3 0.218396 0.734587 0.466619
O O4 0.315159 0.618233 0.391369
O O5 0.500000 0.541702 0.775910
O O6 0.261983 0.646096 0.762278
O O7 0.246759 0.481421 0.734216
O O8 0.249795 0.527835 0.841885
O O9 0.500000 0.774313 0.280736
O O10 0.746053 0.682279 0.268063
O O11 0.231833 0.897187 0.041282
O O12 0.000000 0.991976 0.016757
O O13 0.238276 0.067508 0.064194
O O14 0.248693 0.014483 0.957789
O O15 0.500000 0.884808 0.731742
O O16 0.278033 0.855070 0.660785
O O17 0.209326 0.761104 0.575586
O O18 0.000000 0.867047 0.618904
O O19 0.500000 0.164679 0.524765
O O20 0.000000 0.981149 0.397531
#
# Coordination Sequence:
#
# PCOD8175678 Si02
#       8
#     8   8   8   8   8   8   8   8
#     4   9  18  36  60  86 123 165 198 243 305 366
#     4  11  22  39  64  93 126 163 204 253 311 371
#     4  11  23  41  63  91 125 164 209 257 309 367
#     4   9  19  38  61  86 119 161 202 240 298 368
#     4  12  26  44  64  89 123 164 213 262 309 366
#     4  10  23  42  64  86 118 165 207 249 305 367
#     4  10  21  36  59  92 123 154 198 254 306 357
#     4   8  15  32  59  87 119 158 195 238 297 362
#
# _framework density 20.330724
#
# number of rings (size 3 to 8) (size 9 to 14) (size 15 to 20)
#    0.000    2.000    1.250    3.000    1.750    3.500 
#    0.000    3.125    0.000    0.000    0.000    0.000 
#    0.000    0.000    0.000    0.000    0.000    0.000 
#
# Total GULP energy -396788.607875 kJ/mol
# GULP energy per Si atom -12399.643996 kJ/mol
# Density = 2.028445 g / cm^3
# Si number density = 20.330724 Si / 1000 Ang^3
#
#
#
# Elastic Constant Matrix: (Units=GPa)
#
#
# Indices 1 2 3 4 5 6 
#
# 1 64.9855 12.4439 30.1453 0.0000 0.0000 0.0000
# 2 12.4439 44.8687 7.8619 0.0000 0.0000 0.0000
# 3 30.1453 7.8619 71.2080 0.0000 0.0000 0.0000
# 4 0.0000 0.0000 0.0000 27.7817 0.0000 0.0000
# 5 0.0000 0.0000 0.0000 0.0000 28.7763 0.0000
# 6 0.0000 0.0000 0.0000 0.0000 0.0000 31.7257
#
#
#
# Elastic Compliance Matrix: (Units=1/GPa)
#
#
# Indices 1 2 3 4 5 6 
#
# 1 0.019867 -0.004116 -0.007956 0.000000 0.000000 0.000000
# 2 -0.004116 0.023580 -0.000861 0.000000 0.000000 0.000000
# 3 -0.007956 -0.000861 0.017507 0.000000 0.000000 0.000000
# 4 0.000000 0.000000 0.000000 0.035995 0.000000 0.000000
# 5 0.000000 0.000000 0.000000 0.000000 0.034751 0.000000
# 6 0.000000 0.000000 0.000000 0.000000 0.000000 0.031520
#
#
# Mechanical properties :
#
#
# Convention : Reuss Voigt Hill
#
# Bulk Modulus (GPa) = 28.50033 31.32939 29.91486
# Shear Modulus (GPa) = 24.90284 26.36414 25.63349
#
# Velocity S-wave (km/s) = 3.50364 3.60497 3.55466
# Velocity P-wave (km/s) = 5.51508 5.72460 5.62081
#
# Compressibility (1/GPa) = 0.03508731
#
# Stress axis : x y z
#
# Youngs Moduli (GPa) = 50.33520 42.40951 57.12148
#
# Poissons Ratio (x) = 0.17455 0.45446
# Poissons Ratio (y) = 0.20717 0.04918
# Poissons Ratio (z) = 0.40047 0.03651
#
# Static dielectric constant tensor:
#      x y z
#    x 3.489140 0.000000 0.000000 
#    y 0.000000 3.649500 0.000000 
#    z 0.000000 0.000000 3.788630 
# 
# 
# High freq. dielectric constant tensor:
#      x y z
#    x 1.778100 0.000000 0.000000 
#    y 0.000000 1.797430 0.000000 
#    z 0.000000 0.000000 1.794820 
# 
# From -- ./inp_files/16693.got.cif
#   From: 2010.03.12/outbox.cif.g09.slc.cpg/sg36_9_cif.got.tgz:16693.got - 2010.04.14 02:13:53.
