data_PCOD8175976
_publ_section_title
;
Structure prediction by ZEFSAII (Michael W. Deem and Ramdas Pophale) SiO2 
 PCOD8175976
Probable space group: C M C 21
;
_chemical_formula_sum "Si O2"
_cell_formula_units_Z 56
_cell_length_a 13.037545
_cell_length_b 8.763515
_cell_length_c 22.379183
_cell_angle_alpha 90.000000
_cell_angle_beta 90.000000
_cell_angle_gamma 90.000000
_cell_volume 2556.927314
_symmetry_space_group_name_H-M "C M C 21"
_symmetry_group_IT_number 36
_symmetry_cell_setting 'orthorhombic'
loop_
_space_group_symop_operation_xyz
x,y,z
-x,-y,1/2+z
x,-y,1/2+z
-x,y,z
1/2+x,1/2+y,z
1/2-x,1/2-y,1/2+z
1/2+x,1/2-y,1/2+z
1/2-x,1/2+y,z
loop_
_atom_site_type_symbol
_atom_site_label
_atom_site_fract_x
_atom_site_fract_y
_atom_site_fract_z
Si Si1 0.884539 0.304911 0.020360
Si Si2 0.257796 0.495354 0.857832
Si Si3 0.119180 0.748515 0.292564
Si Si4 0.616862 0.654292 0.143424
Si Si5 0.697177 0.319368 0.167640
Si Si6 0.115224 0.635523 0.058740
Si Si7 0.696931 0.755129 0.441704
O O1 0.882568 0.177637 0.071992
O O2 0.842522 0.464783 0.047790
O O3 0.000000 0.328303 0.995820
O O4 0.814723 0.252420 0.965327
O O5 0.182419 0.394595 0.817372
O O6 0.334238 0.593375 0.817159
O O7 0.328092 0.392163 0.901578
O O8 0.185237 0.598671 0.899283
O O9 0.129893 0.751313 0.221139
O O10 0.000000 0.734042 0.310175
O O11 0.500000 0.656779 0.167648
O O12 0.670360 0.494121 0.157820
O O13 0.680420 0.788617 0.178225
O O14 0.681601 0.219218 0.108139
O O15 0.000000 0.630688 0.082394
O O16 0.120074 0.732294 0.997251
#
# Coordination Sequence:
#
# PCOD8175976 Si02
#       7
#     8   8   8   8   8   8   8
#     4  10  22  39  62  95 137 183 217 264 346 420
#     4  10  25  43  68  96 128 180 236 281 335 395
#     4  11  25  49  72  96 135 184 233 287 340 396
#     4  11  24  41  66 101 143 181 217 268 339 412
#     4  12  24  43  71 101 141 178 227 284 338 408
#     4  11  23  38  63 100 135 174 221 278 349 415
#     4  11  21  41  64  95 135 166 221 288 341 402
#
# _framework density 21.901288000000001
#
# number of rings (size 3 to 8) (size 9 to 14) (size 15 to 20)
#    0.000    1.143    2.857    3.000    2.000    3.429 
#    0.000    7.143    0.000    0.000    0.000    0.000 
#    0.000    0.000    0.000    0.000    0.000    0.000 
#
# Total GULP energy -347214.330601 kJ/mol
# GULP energy per Si atom -12400.511807 kJ/mol
# Density = 2.185144 g / cm^3
# Si number density = 21.901288 Si / 1000 Ang^3
#
#
#
# Elastic Constant Matrix: (Units=GPa)
#
#
# Indices 1 2 3 4 5 6 
#
# 1 126.9919 54.1481 16.4977 0.0000 0.0000 0.0000
# 2 54.1481 115.6777 32.7836 0.0000 0.0000 0.0000
# 3 16.4977 32.7836 87.2300 0.0000 0.0000 0.0000
# 4 0.0000 0.0000 0.0000 23.5254 0.0000 0.0000
# 5 0.0000 0.0000 0.0000 0.0000 23.7303 0.0000
# 6 0.0000 0.0000 0.0000 0.0000 0.0000 32.5847
#
#
#
# Elastic Compliance Matrix: (Units=1/GPa)
#
#
# Indices 1 2 3 4 5 6 
#
# 1 0.009840 -0.004565 -0.000145 0.000000 0.000000 0.000000
# 2 -0.004565 0.011793 -0.003569 0.000000 0.000000 0.000000
# 3 -0.000145 -0.003569 0.012833 0.000000 0.000000 0.000000
# 4 0.000000 0.000000 0.000000 0.042507 0.000000 0.000000
# 5 0.000000 0.000000 0.000000 0.000000 0.042140 0.000000
# 6 0.000000 0.000000 0.000000 0.000000 0.000000 0.030689
#
#
# Mechanical properties :
#
#
# Convention : Reuss Voigt Hill
#
# Bulk Modulus (GPa) = 55.84268 59.63983 57.74126
# Shear Modulus (GPa) = 29.01427 31.06610 30.04019
#
# Velocity S-wave (km/s) = 3.64369 3.77033 3.70755
# Velocity P-wave (km/s) = 6.57684 6.80031 6.68951
#
# Compressibility (1/GPa) = 0.01790745
#
# Stress axis : x y z
#
# Youngs Moduli (GPa) = 101.62848 84.79721 77.92594
#
# Poissons Ratio (x) = 0.38708 0.01133
# Poissons Ratio (y) = 0.46391 0.27810
# Poissons Ratio (z) = 0.01478 0.30262
#
# Static dielectric constant tensor:
#      x y z
#    x 3.936880 0.000000 0.000000 
#    y 0.000000 4.079520 0.000000 
#    z 0.000000 0.000000 3.975480 
# 
# 
# High freq. dielectric constant tensor:
#      x y z
#    x 1.854240 0.000000 0.000000 
#    y 0.000000 1.870090 0.000000 
#    z 0.000000 0.000000 1.858690 
# 
# From -- ./inp_files/16148.got.cif
#   From: 2010.03.12/outbox.cif.g09.slc.cpg/sg36_9_cif.got.tgz:16148.got - 2010.04.14 02:13:53.
