data_PCOD8175231
_publ_section_title
;
Structure prediction by ZEFSAII (Michael W. Deem and Ramdas Pophale) SiO2 
 PCOD8175231
Probable space group: C M C 21
;
_chemical_formula_sum "Si O2"
_cell_formula_units_Z 56
_cell_length_a 12.678751
_cell_length_b 16.467596
_cell_length_c 14.258861
_cell_angle_alpha 90.000000
_cell_angle_beta 90.000000
_cell_angle_gamma 90.000000
_cell_volume 2977.086902
_symmetry_space_group_name_H-M "C M C 21"
_symmetry_group_IT_number 36
_symmetry_cell_setting 'orthorhombic'
loop_
_space_group_symop_operation_xyz
x,y,z
-x,-y,1/2+z
x,-y,1/2+z
-x,y,z
1/2+x,1/2+y,z
1/2-x,1/2-y,1/2+z
1/2+x,1/2-y,1/2+z
1/2-x,1/2+y,z
loop_
_atom_site_type_symbol
_atom_site_label
_atom_site_fract_x
_atom_site_fract_y
_atom_site_fract_z
Si Si1 0.766041 0.507998 0.728560
Si Si2 0.881163 0.960056 0.880457
Si Si3 0.377632 0.175892 0.711671
Si Si4 0.234204 0.213554 0.064770
Si Si5 0.289651 0.285233 0.866758
Si Si6 0.120693 0.948912 0.565609
Si Si7 0.877411 0.655592 0.226765
O O1 0.704852 0.515273 0.827136
O O2 0.813668 0.593102 0.698978
O O3 0.675822 0.479513 0.658500
O O4 0.858626 0.441104 0.732480
O O5 0.860422 0.865578 0.861908
O O6 0.000000 0.980994 0.847291
O O7 0.867583 0.980357 0.989451
O O8 0.500000 0.155193 0.705483
O O9 0.347018 0.234363 0.626410
O O10 0.353006 0.214957 0.812763
O O11 0.174546 0.133474 0.028910
O O12 0.335049 0.190942 0.128378
O O13 0.272102 0.262609 0.974432
O O14 0.178625 0.300227 0.814442
O O15 0.000000 0.930101 0.589980
O O16 0.000000 0.675145 0.234041
#
# Coordination Sequence:
#
# PCOD8175231 Si02
#       7
#     8   8   8   8   8   8   8
#     4  10  20  36  54  76 108 140 180 224 266 318
#     4  10  20  35  56  79 106 143 183 222 268 321
#     4  11  22  36  57  82 108 142 181 223 275 327
#     4  10  21  37  56  81 113 142 179 226 271 323
#     4  10  21  37  56  81 113 142 179 226 271 323
#     4  10  20  35  56  79 106 143 183 222 268 321
#     4   9  20  36  55  78 106 142 179 219 267 319
#
# _framework density 18.810334000000001
#
# number of rings (size 3 to 8) (size 9 to 14) (size 15 to 20)
#    0.000    2.000    0.000    4.286    0.000    2.286 
#    0.000    8.571    0.000    9.429    0.000    0.000 
#    0.000    0.000    0.000    0.000    0.000    0.000 
#
# Total GULP energy -347278.775938 kJ/mol
# GULP energy per Si atom -12402.813426 kJ/mol
# Density = 1.876752 g / cm^3
# Si number density = 18.810334 Si / 1000 Ang^3
#
#
#
# Elastic Constant Matrix: (Units=GPa)
#
#
# Indices 1 2 3 4 5 6 
#
# 1 108.7904 26.4914 26.2979 0.0000 0.0000 0.0000
# 2 26.4914 77.3837 14.6668 0.0000 0.0000 0.0000
# 3 26.2979 14.6668 86.0455 0.0000 0.0000 0.0000
# 4 0.0000 0.0000 0.0000 33.6388 0.0000 0.0000
# 5 0.0000 0.0000 0.0000 0.0000 20.3016 0.0000
# 6 0.0000 0.0000 0.0000 0.0000 0.0000 20.2766
#
#
#
# Elastic Compliance Matrix: (Units=1/GPa)
#
#
# Indices 1 2 3 4 5 6 
#
# 1 0.010606 -0.003117 -0.002710 0.000000 0.000000 0.000000
# 2 -0.003117 0.014270 -0.001480 0.000000 0.000000 0.000000
# 3 -0.002710 -0.001480 0.012702 0.000000 0.000000 0.000000
# 4 0.000000 0.000000 0.000000 0.029728 0.000000 0.000000
# 5 0.000000 0.000000 0.000000 0.000000 0.049257 0.000000
# 6 0.000000 0.000000 0.000000 0.000000 0.000000 0.049318
#
#
# Mechanical properties :
#
#
# Convention : Reuss Voigt Hill
#
# Bulk Modulus (GPa) = 43.54561 45.23687 44.39124
# Shear Modulus (GPa) = 26.57443 28.49427 27.53435
#
# Velocity S-wave (km/s) = 3.76274 3.89629 3.83010
# Velocity P-wave (km/s) = 6.48674 6.65902 6.57344
#
# Compressibility (1/GPa) = 0.02296443
#
# Stress axis : x y z
#
# Youngs Moduli (GPa) = 94.28446 70.07598 78.72592
#
# Poissons Ratio (x) = 0.21844 0.21336
# Poissons Ratio (y) = 0.29391 0.11649
# Poissons Ratio (z) = 0.25553 0.10369
#
# Static dielectric constant tensor:
#      x y z
#    x 3.343100 0.000000 0.000000 
#    y 0.000000 3.517510 0.000000 
#    z 0.000000 0.000000 3.437580 
# 
# 
# High freq. dielectric constant tensor:
#      x y z
#    x 1.731420 0.000000 0.000000 
#    y 0.000000 1.735390 0.000000 
#    z 0.000000 0.000000 1.734880 
# 
# From -- ./inp_files/11589.got.cif
#   From: 2010.03.12/outbox.cif.g09.slc.cpg/sg36_6_cif.got.tgz:11589.got - 2010.04.14 02:13:53.
