data_PCOD8175419
_publ_section_title
;
Structure prediction by ZEFSAII (Michael W. Deem and Ramdas Pophale) SiO2 
 PCOD8175419
Probable space group: C M C 21
;
_chemical_formula_sum "Si O2"
_cell_formula_units_Z 48
_cell_length_a 15.834233
_cell_length_b 8.701563
_cell_length_c 16.481705
_cell_angle_alpha 90.000000
_cell_angle_beta 90.000000
_cell_angle_gamma 90.000000
_cell_volume 2270.891772
_symmetry_space_group_name_H-M "C M C 21"
_symmetry_group_IT_number 36
_symmetry_cell_setting 'orthorhombic'
loop_
_space_group_symop_operation_xyz
x,y,z
-x,-y,1/2+z
x,-y,1/2+z
-x,y,z
1/2+x,1/2+y,z
1/2-x,1/2-y,1/2+z
1/2+x,1/2-y,1/2+z
1/2-x,1/2+y,z
loop_
_atom_site_type_symbol
_atom_site_label
_atom_site_fract_x
_atom_site_fract_y
_atom_site_fract_z
Si Si1 0.332258 0.729014 0.000000
Si Si2 0.000000 0.610565 0.279142
Si Si3 0.674767 0.620613 0.815960
Si Si4 0.324140 0.057532 0.248759
Si Si5 0.170087 0.439647 0.565218
Si Si6 0.500000 0.558571 0.027051
Si Si7 0.000000 0.930333 0.344728
Si Si8 0.500000 0.228404 0.097446
O O1 0.247834 0.667750 0.041701
O O2 0.334621 0.912666 0.007539
O O3 0.329821 0.689101 0.905601
O O4 0.415385 0.658228 0.043396
O O5 0.915939 0.505861 0.284368
O O6 0.000000 0.741032 0.349159
O O7 0.000000 0.699403 0.192992
O O8 0.681417 0.757095 0.750635
O O9 0.753435 0.509286 0.807433
O O10 0.587650 0.523233 0.799675
O O11 0.314217 0.001038 0.156998
O O12 0.083212 0.345087 0.556446
O O13 0.500000 0.499039 0.934395
O O14 0.500000 0.411225 0.084864
#
# Coordination Sequence:
#
# PCOD8175419 Si02
#       8
#     8   4   8   8   8   4   4   4
#     4  11  22  37  58  85 119 153 192 239 292 345
#     4   8  18  37  59  81 112 151 188 235 289 339
#     4  10  20  37  57  80 111 151 188 233 285 342
#     4  10  20  37  59  82 111 148 191 234 285 342
#     4  11  22  38  59  87 117 154 194 241 289 344
#     4  10  21  37  58  85 117 153 192 237 288 349
#     4   8  18  35  55  77 109 146 182 222 281 339
#     4  10  21  37  60  85 116 152 196 240 290 343
#
# _framework density 21.137070999999999
#
# number of rings (size 3 to 8) (size 9 to 14) (size 15 to 20)
#    0.000    2.000    0.000    3.500    0.000    4.000 
#    0.000    3.333    0.000    0.000    0.000    0.000 
#    0.000    0.000    0.000    0.000    0.000    0.000 
#
# Total GULP energy -297523.207068 kJ/mol
# GULP energy per Si atom -12396.800295 kJ/mol
# Density = 2.108896 g / cm^3
# Si number density = 21.137071 Si / 1000 Ang^3
#
#
#
# Elastic Constant Matrix: (Units=GPa)
#
#
# Indices 1 2 3 4 5 6 
#
# 1 207.3271 37.2266 26.5109 0.0000 0.0000 0.0000
# 2 37.2266 53.8807 4.4542 0.0000 0.0000 0.0000
# 3 26.5109 4.4542 50.5198 0.0000 0.0000 0.0000
# 4 0.0000 0.0000 0.0000 28.4020 0.0000 0.0000
# 5 0.0000 0.0000 0.0000 0.0000 30.4285 0.0000
# 6 0.0000 0.0000 0.0000 0.0000 0.0000 33.5155
#
#
#
# Elastic Compliance Matrix: (Units=1/GPa)
#
#
# Indices 1 2 3 4 5 6 
#
# 1 0.005860 -0.003822 -0.002738 0.000000 0.000000 0.000000
# 2 -0.003822 0.021189 0.000138 0.000000 0.000000 0.000000
# 3 -0.002738 0.000138 0.021219 0.000000 0.000000 0.000000
# 4 0.000000 0.000000 0.000000 0.035209 0.000000 0.000000
# 5 0.000000 0.000000 0.000000 0.000000 0.032864 0.000000
# 6 0.000000 0.000000 0.000000 0.000000 0.000000 0.029837
#
#
# Mechanical properties :
#
#
# Convention : Reuss Voigt Hill
#
# Bulk Modulus (GPa) = 28.23079 49.79011 39.01045
# Shear Modulus (GPa) = 29.26893 34.70494 31.98694
#
# Velocity S-wave (km/s) = 3.72522 4.05643 3.89435
# Velocity P-wave (km/s) = 5.64695 6.74881 6.22232
#
# Compressibility (1/GPa) = 0.03542232
#
# Stress axis : x y z
#
# Youngs Moduli (GPa) = 170.65771 47.19453 47.12788
#
# Poissons Ratio (x) = 0.18038 0.12903
# Poissons Ratio (y) = 0.65228 -0.00648
# Poissons Ratio (z) = 0.46725 -0.00649
#
# Static dielectric constant tensor:
#      x y z
#    x 4.594780 0.000000 0.000000 
#    y 0.000000 3.395600 0.000000 
#    z 0.000000 0.000000 3.632760 
# 
# 
# High freq. dielectric constant tensor:
#      x y z
#    x 1.865040 0.000000 0.000000 
#    y 0.000000 1.792830 0.000000 
#    z 0.000000 0.000000 1.818980 
# 
# From -- ./inp_files/12537.got.cif
#   From: 2010.03.12/outbox.cif.g09.slc.cpg/sg36_7_cif.got.tgz:12537.got - 2010.04.14 02:13:53.
