data_PCOD8175488
_publ_section_title
;
Structure prediction by ZEFSAII (Michael W. Deem and Ramdas Pophale) SiO2 
 PCOD8175488
Probable space group: C M C 21
;
_chemical_formula_sum "Si O2"
_cell_formula_units_Z 48
_cell_length_a 8.434706
_cell_length_b 27.439872
_cell_length_c 10.034895
_cell_angle_alpha 90.000000
_cell_angle_beta 90.000000
_cell_angle_gamma 90.000000
_cell_volume 2322.548882
_symmetry_space_group_name_H-M "C M C 21"
_symmetry_group_IT_number 36
_symmetry_cell_setting 'orthorhombic'
loop_
_space_group_symop_operation_xyz
x,y,z
-x,-y,1/2+z
x,-y,1/2+z
-x,y,z
1/2+x,1/2+y,z
1/2-x,1/2-y,1/2+z
1/2+x,1/2-y,1/2+z
1/2-x,1/2+y,z
loop_
_atom_site_type_symbol
_atom_site_label
_atom_site_fract_x
_atom_site_fract_y
_atom_site_fract_z
Si Si1 0.686571 0.035146 0.242510
Si Si2 0.183261 0.852661 0.353221
Si Si3 0.687006 0.046292 0.942113
Si Si4 0.311654 0.859726 0.819147
Si Si5 0.684787 0.813707 0.093022
Si Si6 0.685208 0.791607 0.581999
O O1 0.500000 0.036808 0.265567
O O2 0.759829 0.086678 0.290230
O O3 0.755477 0.991474 0.333006
O O4 0.728013 0.025185 0.088300
O O5 0.226071 0.902529 0.426836
O O6 0.285118 0.848633 0.218525
O O7 0.222231 0.807438 0.449487
O O8 0.000000 0.851146 0.315138
O O9 0.500000 0.055272 0.926810
O O10 0.500000 0.861810 0.815390
O O11 0.249592 0.822672 0.706650
O O12 0.251713 0.841567 0.962433
O O13 0.500000 0.801092 0.080215
O O14 0.783718 0.764605 0.112492
O O15 0.500000 0.801072 0.559224
#
# Coordination Sequence:
#
# PCOD8175488 Si02
#       6
#     8   8   8   8   8   8
#     4   9  18  34  61  93 116 145 195 251 310 374
#     4  12  25  41  59  86 127 170 211 249 295 361
#     4  10  20  37  64  91 117 152 199 256 312 366
#     4   9  19  36  60  89 119 152 193 249 309 371
#     4  11  23  38  62  93 124 159 203 253 310 368
#     4  11  21  40  66  90 121 158 203 256 314 370
#
# _framework density 20.666948999999999
#
# number of rings (size 3 to 8) (size 9 to 14) (size 15 to 20)
#    0.000    1.667    1.667    3.500    2.333    1.333 
#    0.000    3.333    0.000    0.000    0.000    0.000 
#    0.000    0.000    0.000    0.000    0.000    0.000 
#
# Total GULP energy -297712.136617 kJ/mol
# GULP energy per Si atom -12404.672359 kJ/mol
# Density = 2.061991 g / cm^3
# Si number density = 20.666949 Si / 1000 Ang^3
#
#
#
# Elastic Constant Matrix: (Units=GPa)
#
#
# Indices 1 2 3 4 5 6 
#
# 1 40.1781 15.2951 21.7240 0.0000 0.0000 0.0000
# 2 15.2951 96.8510 38.2543 0.0000 0.0000 0.0000
# 3 21.7240 38.2543 146.0078 0.0000 0.0000 0.0000
# 4 0.0000 0.0000 0.0000 45.5924 0.0000 0.0000
# 5 0.0000 0.0000 0.0000 0.0000 15.4610 0.0000
# 6 0.0000 0.0000 0.0000 0.0000 0.0000 25.2234
#
#
#
# Elastic Compliance Matrix: (Units=1/GPa)
#
#
# Indices 1 2 3 4 5 6 
#
# 1 0.027868 -0.003082 -0.003339 0.000000 0.000000 0.000000
# 2 -0.003082 0.011858 -0.002648 0.000000 0.000000 0.000000
# 3 -0.003339 -0.002648 0.008040 0.000000 0.000000 0.000000
# 4 0.000000 0.000000 0.000000 0.021933 0.000000 0.000000
# 5 0.000000 0.000000 0.000000 0.000000 0.064679 0.000000
# 6 0.000000 0.000000 0.000000 0.000000 0.000000 0.039646
#
#
# Mechanical properties :
#
#
# Convention : Reuss Voigt Hill
#
# Bulk Modulus (GPa) = 33.75322 48.17595 40.96459
# Shear Modulus (GPa) = 24.74790 31.10627 27.92709
#
# Velocity S-wave (km/s) = 3.46419 3.88380 3.67998
# Velocity P-wave (km/s) = 5.68931 6.59341 6.15798
#
# Compressibility (1/GPa) = 0.02962680
#
# Stress axis : x y z
#
# Youngs Moduli (GPa) = 35.88367 84.33214 124.38514
#
# Poissons Ratio (x) = 0.25993 0.41530
# Poissons Ratio (y) = 0.11060 0.32939
# Poissons Ratio (z) = 0.11981 0.22333
#
# Static dielectric constant tensor:
#      x y z
#    x 3.307480 0.000000 0.000000 
#    y 0.000000 3.825090 0.000000 
#    z 0.000000 0.000000 3.917190 
# 
# 
# High freq. dielectric constant tensor:
#      x y z
#    x 1.770290 0.000000 0.000000 
#    y 0.000000 1.815280 0.000000 
#    z 0.000000 0.000000 1.825210 
# 
# From -- ./inp_files/2671.got.cif
#   From: 2010.03.12/outbox.cif.g09.slc.cpg/sg36_2_cif.got.tgz:2671.got - 2010.04.14 02:13:53.
