data_PCOD8175891
_publ_section_title
;
Structure prediction by ZEFSAII (Michael W. Deem and Ramdas Pophale) SiO2 
 PCOD8175891
Probable space group: C M C 21
;
_chemical_formula_sum "Si O2"
_cell_formula_units_Z 64
_cell_length_a 8.641803
_cell_length_b 29.035213
_cell_length_c 12.470098
_cell_angle_alpha 90.000000
_cell_angle_beta 90.000000
_cell_angle_gamma 90.000000
_cell_volume 3128.954477
_symmetry_space_group_name_H-M "C M C 21"
_symmetry_group_IT_number 36
_symmetry_cell_setting 'orthorhombic'
loop_
_space_group_symop_operation_xyz
x,y,z
-x,-y,1/2+z
x,-y,1/2+z
-x,y,z
1/2+x,1/2+y,z
1/2-x,1/2-y,1/2+z
1/2+x,1/2-y,1/2+z
1/2-x,1/2+y,z
loop_
_atom_site_type_symbol
_atom_site_label
_atom_site_fract_x
_atom_site_fract_y
_atom_site_fract_z
Si Si1 0.817334 0.567487 0.881620
Si Si2 0.316603 0.723241 0.155052
Si Si3 0.320484 0.177996 0.587311
Si Si4 0.185120 0.025377 0.447577
Si Si5 0.314316 0.630645 0.049100
Si Si6 0.317729 0.583491 0.653621
Si Si7 0.830630 0.083443 0.256511
Si Si8 0.329620 0.320231 0.869524
O O1 0.749773 0.526074 0.953733
O O2 0.759840 0.563230 0.760009
O O3 0.000000 0.566566 0.883485
O O4 0.756677 0.614839 0.935872
O O5 0.500000 0.723541 0.145551
O O6 0.249931 0.773327 0.126767
O O7 0.256083 0.682707 0.075253
O O8 0.266742 0.713621 0.277226
O O9 0.500000 0.171976 0.616869
O O10 0.225764 0.136919 0.641403
O O11 0.299741 0.178241 0.460090
O O12 0.242499 0.054043 0.551525
O O13 0.254856 0.047668 0.336827
O O14 0.000000 0.025736 0.444672
O O15 0.500000 0.628791 0.046371
O O16 0.249591 0.595818 0.142938
O O17 0.500000 0.578990 0.666063
O O18 0.851472 0.129658 0.322567
O O19 0.000000 0.062741 0.229980
O O20 0.500000 0.304468 0.912653
#
# Coordination Sequence:
#
# PCOD8175891 Si02
#       8
#     8   8   8   8   8   8   8   8
#     4  12  27  42  58  89 131 163 193 247 318 367
#     4   8  18  35  59  87 119 160 207 253 300 356
#     4  11  21  35  57  91 128 156 190 252 319 359
#     4  10  21  40  65  90 112 149 207 253 291 355
#     4   9  18  38  64  87 116 160 209 249 290 356
#     4  11  24  44  67  89 117 161 213 249 287 360
#     4   8  15  32  61  87 106 138 197 256 289 335
#     4   9  16  34  57  80 109 153 204 247 292 354
#
# _framework density 20.454118000000001
#
# number of rings (size 3 to 8) (size 9 to 14) (size 15 to 20)
#    0.000    2.250    1.250    3.375    1.750    2.000 
#    0.000    7.500    0.000    0.000    0.000    0.000 
#    0.000    0.000    0.000    0.000    0.000    0.000 
#
# Total GULP energy -396606.239826 kJ/mol
# GULP energy per Si atom -12393.944995 kJ/mol
# Density = 2.040756 g / cm^3
# Si number density = 20.454118 Si / 1000 Ang^3
#
#
#
# Elastic Constant Matrix: (Units=GPa)
#
#
# Indices 1 2 3 4 5 6 
#
# 1 40.5770 23.4872 23.7504 0.0000 0.0000 0.0000
# 2 23.4872 107.7812 44.6303 0.0000 0.0000 0.0000
# 3 23.7504 44.6303 90.6416 0.0000 0.0000 0.0000
# 4 0.0000 0.0000 0.0000 18.0070 0.0000 0.0000
# 5 0.0000 0.0000 0.0000 0.0000 6.2568 0.0000
# 6 0.0000 0.0000 0.0000 0.0000 0.0000 23.8079
#
#
#
# Elastic Compliance Matrix: (Units=1/GPa)
#
#
# Indices 1 2 3 4 5 6 
#
# 1 0.030550 -0.004199 -0.005938 0.000000 0.000000 0.000000
# 2 -0.004199 0.012231 -0.004922 0.000000 0.000000 0.000000
# 3 -0.005938 -0.004922 0.015012 0.000000 0.000000 0.000000
# 4 0.000000 0.000000 0.000000 0.055534 0.000000 0.000000
# 5 0.000000 0.000000 0.000000 0.000000 0.159827 0.000000
# 6 0.000000 0.000000 0.000000 0.000000 0.000000 0.042003
#
#
# Mechanical properties :
#
#
# Convention : Reuss Voigt Hill
#
# Bulk Modulus (GPa) = 36.13205 46.97060 41.55132
# Shear Modulus (GPa) = 14.10439 19.42312 16.76375
#
# Velocity S-wave (km/s) = 2.62880 3.08489 2.86593
# Velocity P-wave (km/s) = 5.18820 5.97516 5.59553
#
# Compressibility (1/GPa) = 0.02767626
#
# Stress axis : x y z
#
# Youngs Moduli (GPa) = 32.73300 81.75779 66.61391
#
# Poissons Ratio (x) = 0.34328 0.39552
# Poissons Ratio (y) = 0.13744 0.32789
# Poissons Ratio (z) = 0.19435 0.40243
#
# Static dielectric constant tensor:
#      x y z
#    x 3.361140 0.000000 0.000000 
#    y 0.000000 3.994290 0.000000 
#    z 0.000000 0.000000 4.059720 
# 
# 
# High freq. dielectric constant tensor:
#      x y z
#    x 1.759190 0.000000 0.000000 
#    y 0.000000 1.803670 0.000000 
#    z 0.000000 0.000000 1.804770 
# 
# From -- ./inp_files/7138.got.cif
#   From: 2010.03.12/outbox.cif.g09.slc.cpg/sg36_4_cif.got.tgz:7138.got - 2010.04.14 02:13:53.
