data_PCOD8175014
_publ_section_title
;
Structure prediction by ZEFSAII (Michael W. Deem and Ramdas Pophale) SiO2 
 PCOD8175014
Probable space group: C M C 21
;
_chemical_formula_sum "Si O2"
_cell_formula_units_Z 64
_cell_length_a 8.995400
_cell_length_b 30.388783
_cell_length_c 11.949920
_cell_angle_alpha 90.000000
_cell_angle_beta 90.000000
_cell_angle_gamma 90.000000
_cell_volume 3266.621272
_symmetry_space_group_name_H-M "C M C 21"
_symmetry_group_IT_number 36
_symmetry_cell_setting 'orthorhombic'
loop_
_space_group_symop_operation_xyz
x,y,z
-x,-y,1/2+z
x,-y,1/2+z
-x,y,z
1/2+x,1/2+y,z
1/2-x,1/2-y,1/2+z
1/2+x,1/2-y,1/2+z
1/2-x,1/2+y,z
loop_
_atom_site_type_symbol
_atom_site_label
_atom_site_fract_x
_atom_site_fract_y
_atom_site_fract_z
Si Si1 0.327488 0.954909 0.121840
Si Si2 0.323973 0.208634 0.077244
Si Si3 0.174218 0.625289 0.467526
Si Si4 0.167449 0.327067 0.346701
Si Si5 0.334830 0.073300 0.868601
Si Si6 0.674464 0.455228 0.577002
Si Si7 0.175635 0.194386 0.624087
Si Si8 0.676064 0.123943 0.208794
O O1 0.500000 0.968342 0.109725
O O2 0.293506 0.931567 0.239200
O O3 0.225000 0.997418 0.119436
O O4 0.280093 0.920779 0.025054
O O5 0.500000 0.206929 0.086277
O O6 0.262781 0.255635 0.118058
O O7 0.260543 0.169159 0.154506
O O8 0.276185 0.203916 0.947367
O O9 0.256819 0.666060 0.524054
O O10 0.222045 0.623348 0.338587
O O11 0.000000 0.633613 0.483139
O O12 0.169443 0.375537 0.399489
O O13 0.278962 0.324488 0.243851
O O14 0.000000 0.315071 0.306844
O O15 0.500000 0.054110 0.891892
O O16 0.218624 0.047967 0.946538
O O17 0.500000 0.450321 0.590677
O O18 0.752342 0.417870 0.649731
O O19 0.000000 0.192790 0.611812
O O20 0.500000 0.119938 0.193835
#
# Coordination Sequence:
#
# PCOD8175014 Si02
#       8
#     8   8   8   8   8   8   8   8
#     4  10  22  41  63  89 116 155 211 249 285 348
#     4   9  20  38  60  87 120 159 199 245 297 349
#     4  10  22  41  65  89 115 158 210 249 286 347
#     4  10  19  39  65  85 113 156 208 252 287 343
#     4  10  20  40  68  87 111 156 207 250 286 345
#     4  12  26  40  59  92 128 155 189 244 314 364
#     4  11  23  37  58  92 128 157 191 244 312 361
#     4  10  21  42  66  85 115 162 211 249 283 345
#
# _framework density 19.592110000000002
#
# number of rings (size 3 to 8) (size 9 to 14) (size 15 to 20)
#    0.000    1.750    2.500    1.500    3.500    2.000 
#    0.000    1.875    0.000    0.000    0.000    0.000 
#    0.000    0.000    0.000    0.000    0.000    0.000 
#
# Total GULP energy -396876.883003 kJ/mol
# GULP energy per Si atom -12402.402594 kJ/mol
# Density = 1.954752 g / cm^3
# Si number density = 19.592110 Si / 1000 Ang^3
#
#
#
# Elastic Constant Matrix: (Units=GPa)
#
#
# Indices 1 2 3 4 5 6 
#
# 1 55.7156 40.9122 38.4567 0.0000 0.0000 0.0000
# 2 40.9122 121.4829 47.9578 0.0000 0.0000 0.0000
# 3 38.4567 47.9578 111.6175 0.0000 0.0000 0.0000
# 4 0.0000 0.0000 0.0000 28.1979 0.0000 0.0000
# 5 0.0000 0.0000 0.0000 0.0000 22.9339 0.0000
# 6 0.0000 0.0000 0.0000 0.0000 0.0000 27.2684
#
#
#
# Elastic Compliance Matrix: (Units=1/GPa)
#
#
# Indices 1 2 3 4 5 6 
#
# 1 0.027345 -0.006611 -0.006581 0.000000 0.000000 0.000000
# 2 -0.006611 0.011511 -0.002668 0.000000 0.000000 0.000000
# 3 -0.006581 -0.002668 0.012373 0.000000 0.000000 0.000000
# 4 0.000000 0.000000 0.000000 0.035464 0.000000 0.000000
# 5 0.000000 0.000000 0.000000 0.000000 0.043604 0.000000
# 6 0.000000 0.000000 0.000000 0.000000 0.000000 0.036672
#
#
# Mechanical properties :
#
#
# Convention : Reuss Voigt Hill
#
# Bulk Modulus (GPa) = 51.25840 60.38550 55.82195
# Shear Modulus (GPa) = 24.36726 26.44598 25.40662
#
# Velocity S-wave (km/s) = 3.53048 3.67799 3.60499
# Velocity P-wave (km/s) = 6.54512 6.99464 6.77361
#
# Compressibility (1/GPa) = 0.01950900
#
# Stress axis : x y z
#
# Youngs Moduli (GPa) = 36.56924 86.87031 80.82113
#
# Poissons Ratio (x) = 0.57432 0.53188
# Poissons Ratio (y) = 0.24177 0.21565
# Poissons Ratio (z) = 0.24066 0.23179
#
# Static dielectric constant tensor:
#      x y z
#    x 3.318590 0.000000 0.000000 
#    y 0.000000 3.697080 0.000000 
#    z 0.000000 0.000000 3.672390 
# 
# 
# High freq. dielectric constant tensor:
#      x y z
#    x 1.736620 0.000000 0.000000 
#    y 0.000000 1.771740 0.000000 
#    z 0.000000 0.000000 1.776720 
# 
# From -- ./inp_files/7162.got.cif
#   From: 2010.03.12/outbox.cif.g09.slc.cpg/sg36_4_cif.got.tgz:7162.got - 2010.04.14 02:13:53.
