data_PCOD8175485
_publ_section_title
;
Structure prediction by ZEFSAII (Michael W. Deem and Ramdas Pophale) SiO2 
 PCOD8175485
Probable space group: C M C 21
;
_chemical_formula_sum "Si O2"
_cell_formula_units_Z 64
_cell_length_a 23.774249
_cell_length_b 11.921809
_cell_length_c 11.151215
_cell_angle_alpha 90.000000
_cell_angle_beta 90.000000
_cell_angle_gamma 90.000000
_cell_volume 3160.611791
_symmetry_space_group_name_H-M "C M C 21"
_symmetry_group_IT_number 36
_symmetry_cell_setting 'orthorhombic'
loop_
_space_group_symop_operation_xyz
x,y,z
-x,-y,1/2+z
x,-y,1/2+z
-x,y,z
1/2+x,1/2+y,z
1/2-x,1/2-y,1/2+z
1/2+x,1/2-y,1/2+z
1/2-x,1/2+y,z
loop_
_atom_site_type_symbol
_atom_site_label
_atom_site_fract_x
_atom_site_fract_y
_atom_site_fract_z
Si Si1 0.868417 0.087780 0.572440
Si Si2 0.862273 0.160066 0.165355
Si Si3 0.368252 0.150034 0.487005
Si Si4 0.256434 0.908762 0.704191
Si Si5 0.251599 0.563793 0.471700
Si Si6 0.626209 0.210011 0.227226
Si Si7 0.063807 0.206206 0.387221
Si Si8 0.565167 0.922800 0.528613
O O1 0.812109 0.120831 0.496426
O O2 0.869712 0.158069 0.696193
O O3 0.923160 0.127335 0.500526
O O4 0.871457 0.956313 0.595954
O O5 0.885926 0.263155 0.088678
O O6 0.796729 0.175159 0.198647
O O7 0.897858 0.159632 0.283874
O O8 0.300315 0.149706 0.481614
O O9 0.393352 0.197068 0.363531
O O10 0.394359 0.028779 0.513315
O O11 0.250303 0.980530 0.830987
O O12 0.312480 0.838830 0.705453
O O13 0.257245 0.975970 0.579396
O O14 0.580615 0.142128 0.150016
O O15 0.075466 0.337260 0.417926
O O16 0.000000 0.188775 0.348976
O O17 0.500000 0.960527 0.535196
#
# Coordination Sequence:
#
# PCOD8175485 Si02
#       8
#     8   8   8   8   8   8   8   8
#     4  10  22  41  64  91 127 172 214 259 320 384
#     4  11  24  38  65  95 128 167 212 263 317 388
#     4  11  24  39  63 100 129 162 214 269 324 386
#     4  10  20  38  63  97 132 172 213 268 329 390
#     4  10  20  37  63  97 132 172 209 270 329 388
#     4  10  22  41  64  92 132 169 214 268 320 383
#     4  10  23  44  66  89 123 171 215 260 316 381
#     4  10  23  44  68  93 127 169 213 263 327 386
#
# _framework density 20.249244000000001
#
# number of rings (size 3 to 8) (size 9 to 14) (size 15 to 20)
#    0.000    1.750    2.500    0.750    3.500    2.500 
#    0.000    0.000    0.000    0.000    0.000    0.000 
#    0.000    0.000    0.000    0.000    0.000    0.000 
#
# Total GULP energy -396574.685794 kJ/mol
# GULP energy per Si atom -12392.958931 kJ/mol
# Density = 2.020316 g / cm^3
# Si number density = 20.249244 Si / 1000 Ang^3
#
#
#
# Elastic Constant Matrix: (Units=GPa)
#
#
# Indices 1 2 3 4 5 6 
#
# 1 69.0875 27.8358 19.7400 0.0000 0.0000 0.0000
# 2 27.8358 79.0477 20.8007 0.0000 0.0000 0.0000
# 3 19.7400 20.8007 99.5962 0.0000 0.0000 0.0000
# 4 0.0000 0.0000 0.0000 27.0633 0.0000 0.0000
# 5 0.0000 0.0000 0.0000 0.0000 25.9500 0.0000
# 6 0.0000 0.0000 0.0000 0.0000 0.0000 21.1674
#
#
#
# Elastic Compliance Matrix: (Units=1/GPa)
#
#
# Indices 1 2 3 4 5 6 
#
# 1 0.017347 -0.005506 -0.002288 0.000000 0.000000 0.000000
# 2 -0.005506 0.015134 -0.002069 0.000000 0.000000 0.000000
# 3 -0.002288 -0.002069 0.010926 0.000000 0.000000 0.000000
# 4 0.000000 0.000000 0.000000 0.036950 0.000000 0.000000
# 5 0.000000 0.000000 0.000000 0.000000 0.038536 0.000000
# 6 0.000000 0.000000 0.000000 0.000000 0.000000 0.047242
#
#
# Mechanical properties :
#
#
# Convention : Reuss Voigt Hill
#
# Bulk Modulus (GPa) = 42.23096 42.72052 42.47574
# Shear Modulus (GPa) = 25.80558 26.79312 26.29935
#
# Velocity S-wave (km/s) = 3.57374 3.64148 3.60777
# Velocity P-wave (km/s) = 6.15871 6.23086 6.19489
#
# Compressibility (1/GPa) = 0.02367931
#
# Stress axis : x y z
#
# Youngs Moduli (GPa) = 57.64782 66.07580 91.52272
#
# Poissons Ratio (x) = 0.36384 0.20942
# Poissons Ratio (y) = 0.31743 0.18940
# Poissons Ratio (z) = 0.13191 0.13674
#
# Static dielectric constant tensor:
#      x y z
#    x 3.831020 0.000000 0.000000 
#    y 0.000000 3.408360 0.000000 
#    z 0.000000 0.000000 3.947830 
# 
# 
# High freq. dielectric constant tensor:
#      x y z
#    x 1.794160 0.000000 0.000000 
#    y 0.000000 1.770140 0.000000 
#    z 0.000000 0.000000 1.804370 
# 
# From -- ./inp_files/9521.got.cif
#   From: 2010.03.12/outbox.cif.g09.slc.cpg/sg36_5_cif.got.tgz:9521.got - 2010.04.14 02:13:53.
