data_PCOD8175455
_publ_section_title
;
Structure prediction by ZEFSAII (Michael W. Deem and Ramdas Pophale) SiO2 
 PCOD8175455
Probable space group: C M C 21
;
_chemical_formula_sum "Si O2"
_cell_formula_units_Z 64
_cell_length_a 8.653184
_cell_length_b 22.777385
_cell_length_c 16.501385
_cell_angle_alpha 90.000000
_cell_angle_beta 90.000000
_cell_angle_gamma 90.000000
_cell_volume 3252.371886
_symmetry_space_group_name_H-M "C M C 21"
_symmetry_group_IT_number 36
_symmetry_cell_setting 'orthorhombic'
loop_
_space_group_symop_operation_xyz
x,y,z
-x,-y,1/2+z
x,-y,1/2+z
-x,y,z
1/2+x,1/2+y,z
1/2-x,1/2-y,1/2+z
1/2+x,1/2-y,1/2+z
1/2-x,1/2+y,z
loop_
_atom_site_type_symbol
_atom_site_label
_atom_site_fract_x
_atom_site_fract_y
_atom_site_fract_z
Si Si1 0.316664 0.115398 0.976920
Si Si2 0.681841 0.709318 0.875831
Si Si3 0.183051 0.777256 0.097037
Si Si4 0.315863 0.649406 0.136531
Si Si5 0.818249 0.911179 0.801568
Si Si6 0.675741 0.034975 0.827500
Si Si7 0.676895 0.855479 0.228048
Si Si8 0.681537 0.679627 0.425801
O O1 0.500000 0.122849 0.973570
O O2 0.236981 0.178528 0.958970
O O3 0.263683 0.066119 0.911207
O O4 0.256886 0.105079 0.068513
O O5 0.500000 0.716728 0.872264
O O6 0.746627 0.668604 0.807611
O O7 0.764426 0.771268 0.862439
O O8 0.259412 0.716937 0.128028
O O9 0.221647 0.832606 0.154131
O O10 0.000000 0.766982 0.093343
O O11 0.253722 0.801526 0.012192
O O12 0.500000 0.648104 0.129878
O O13 0.254533 0.622231 0.221602
O O14 0.757088 0.880744 0.885254
O O15 0.000000 0.904837 0.798114
O O16 0.776043 0.978877 0.806077
O O17 0.500000 0.015635 0.842739
O O18 0.686245 0.074857 0.746010
O O19 0.500000 0.834874 0.217250
O O20 0.500000 0.677629 0.435573
#
# Coordination Sequence:
#
# PCOD8175455 Si02
#       8
#     8   8   8   8   8   8   8   8
#     4  10  20  37  60  86 118 155 193 243 297 345
#     4  11  20  32  57  89 116 148 193 237 290 355
#     4  11  22  36  59  90 122 155 196 242 297 361
#     4  11  22  37  60  91 122 156 199 244 300 361
#     4  10  23  41  60  84 118 159 197 246 300 351
#     4   9  21  41  62  83 111 153 202 245 292 352
#     4  10  21  38  59  83 116 153 192 243 297 347
#     4  10  21  38  57  82 121 159 190 238 303 354
#
# _framework density 19.677945000000001
#
# number of rings (size 3 to 8) (size 9 to 14) (size 15 to 20)
#    0.000    1.750    1.250    4.125    0.000    6.000 
#    2.250    0.000    0.000    0.000    0.000    0.000 
#    0.000    0.000    0.000    0.000    0.000    0.000 
#
# Total GULP energy -396516.323947 kJ/mol
# GULP energy per Si atom -12391.135123 kJ/mol
# Density = 1.963316 g / cm^3
# Si number density = 19.677945 Si / 1000 Ang^3
#
#
#
# Elastic Constant Matrix: (Units=GPa)
#
#
# Indices 1 2 3 4 5 6 
#
# 1 -90.8487 -15.2653 -7.0897 0.0000 0.0000 0.0000
# 2 -15.2653 99.6291 47.7725 0.0000 0.0000 0.0000
# 3 -7.0897 47.7725 106.4342 0.0000 0.0000 0.0000
# 4 0.0000 0.0000 0.0000 28.1097 0.0000 0.0000
# 5 0.0000 0.0000 0.0000 0.0000 29.4166 0.0000
# 6 0.0000 0.0000 0.0000 0.0000 0.0000 4.2193
#
#
#
# Elastic Compliance Matrix: (Units=1/GPa)
#
#
# Indices 1 2 3 4 5 6 
#
# 1 -0.010731 -0.001658 0.000030 0.000000 0.000000 0.000000
# 2 -0.001658 0.012534 -0.005736 0.000000 0.000000 0.000000
# 3 0.000030 -0.005736 0.011972 0.000000 0.000000 0.000000
# 4 0.000000 0.000000 0.000000 0.035575 0.000000 0.000000
# 5 0.000000 0.000000 0.000000 0.000000 0.033994 0.000000
# 6 0.000000 0.000000 0.000000 0.000000 0.000000 0.237007
#
#
# Mechanical properties :
#
#
# Convention : Reuss Voigt Hill
#
# Bulk Modulus (GPa) = -1046.92575 18.44996 -514.23789
# Shear Modulus (GPa) = 14.93597 18.33558 16.63577
#
# Velocity S-wave (km/s) = 2.75802 3.05582 2.91073
# Velocity P-wave (km/s) = 22.87013 4.67408 15.83028
#
# Compressibility (1/GPa) = -0.00095518
#
# Stress axis : x y z
#
# Youngs Moduli (GPa) = -93.18827 79.78537 83.52764
#
# Poissons Ratio (x) = 0.13232 -0.00247
# Poissons Ratio (y) = -0.15454 0.47913
# Poissons Ratio (z) = 0.00275 0.45766
#
# Static dielectric constant tensor:
#      x y z
#    x 3.473430 0.000000 0.000000 
#    y 0.000000 3.742590 0.000000 
#    z 0.000000 0.000000 4.038150 
# 
# 
# High freq. dielectric constant tensor:
#      x y z
#    x 1.762670 0.000000 0.000000 
#    y 0.000000 1.755850 0.000000 
#    z 0.000000 0.000000 1.775040 
# 
# From -- ./inp_files/13954.got.cif
#   From: 2010.03.12/outbox.cif.g09.slc.cpg/sg36_7_cif.got.tgz:13954.got - 2010.04.14 02:13:53.
