data_PCOD8175274
_publ_section_title
;
Structure prediction by ZEFSAII (Michael W. Deem and Ramdas Pophale) SiO2 
 PCOD8175274
Probable space group: C M C 21
;
_chemical_formula_sum "Si O2"
_cell_formula_units_Z 64
_cell_length_a 9.083306
_cell_length_b 14.533266
_cell_length_c 24.113138
_cell_angle_alpha 90.000000
_cell_angle_beta 90.000000
_cell_angle_gamma 90.000000
_cell_volume 3183.177813
_symmetry_space_group_name_H-M "C M C 21"
_symmetry_group_IT_number 36
_symmetry_cell_setting 'orthorhombic'
loop_
_space_group_symop_operation_xyz
x,y,z
-x,-y,1/2+z
x,-y,1/2+z
-x,y,z
1/2+x,1/2+y,z
1/2-x,1/2-y,1/2+z
1/2+x,1/2-y,1/2+z
1/2-x,1/2+y,z
loop_
_atom_site_type_symbol
_atom_site_label
_atom_site_fract_x
_atom_site_fract_y
_atom_site_fract_z
Si Si1 0.825778 0.977775 0.150060
Si Si2 0.831009 0.517441 0.537301
Si Si3 0.674569 0.839054 0.224070
Si Si4 0.171772 0.870847 0.737153
Si Si5 0.828896 0.683584 0.461345
Si Si6 0.172470 0.629297 0.943507
Si Si7 0.333946 0.638254 0.832976
Si Si8 0.837611 0.643473 0.343213
O O1 0.777278 0.001754 0.088046
O O2 0.773142 0.061927 0.188852
O O3 0.000000 0.962459 0.152438
O O4 0.742569 0.885553 0.169399
O O5 0.803074 0.620462 0.514856
O O6 0.791147 0.445550 0.489688
O O7 0.000000 0.506054 0.556384
O O8 0.500000 0.851416 0.225293
O O9 0.721741 0.732222 0.221606
O O10 0.744972 0.889477 0.277632
O O11 0.235008 0.902754 0.796846
O O12 0.000000 0.876318 0.744174
O O13 0.729619 0.773621 0.467008
O O14 0.785442 0.623737 0.406331
O O15 0.000000 0.713597 0.455556
O O16 0.252543 0.597444 0.886917
O O17 0.000000 0.637234 0.930862
O O18 0.500000 0.598855 0.829046
O O19 0.334834 0.747217 0.837609
O O20 0.000000 0.603429 0.333021
#
# Coordination Sequence:
#
# PCOD8175274 Si02
#       8
#     8   8   8   8   8   8   8   8
#     4  11  24  40  56  79 110 144 187 233 277 328
#     4  10  23  41  57  77 108 146 190 233 273 324
#     4  10  20  37  60  84 111 145 183 225 275 327
#     4   9  20  37  56  80 111 144 177 219 271 327
#     4   9  19  37  58  80 110 146 180 220 274 330
#     4  10  20  35  57  86 115 143 181 229 277 326
#     4   9  17  32  55  85 117 146 178 219 272 331
#     4   8  15  29  53  83 110 138 174 216 265 323
#
# _framework density 20.105695000000001
#
# number of rings (size 3 to 8) (size 9 to 14) (size 15 to 20)
#    0.000    2.500    0.000    2.250    0.000    8.000 
#    0.000    5.000    0.000    0.000    0.000    0.000 
#    0.000    0.000    0.000    0.000    0.000    0.000 
#
# Total GULP energy -396817.498681 kJ/mol
# GULP energy per Si atom -12400.546834 kJ/mol
# Density = 2.005993 g / cm^3
# Si number density = 20.105695 Si / 1000 Ang^3
#
#
#
# Elastic Constant Matrix: (Units=GPa)
#
#
# Indices 1 2 3 4 5 6 
#
# 1 72.2294 20.0042 38.5404 0.0000 0.0000 0.0000
# 2 20.0042 36.3752 19.9668 0.0000 0.0000 0.0000
# 3 38.5404 19.9668 100.4763 0.0000 0.0000 0.0000
# 4 0.0000 0.0000 0.0000 28.5147 0.0000 0.0000
# 5 0.0000 0.0000 0.0000 0.0000 40.1399 0.0000
# 6 0.0000 0.0000 0.0000 0.0000 0.0000 24.1078
#
#
#
# Elastic Compliance Matrix: (Units=1/GPa)
#
#
# Indices 1 2 3 4 5 6 
#
# 1 0.018960 -0.007223 -0.005837 0.000000 0.000000 0.000000
# 2 -0.007223 0.033609 -0.003908 0.000000 0.000000 0.000000
# 3 -0.005837 -0.003908 0.012968 0.000000 0.000000 0.000000
# 4 0.000000 0.000000 0.000000 0.035070 0.000000 0.000000
# 5 0.000000 0.000000 0.000000 0.000000 0.024913 0.000000
# 6 0.000000 0.000000 0.000000 0.000000 0.000000 0.041480
#
#
# Mechanical properties :
#
#
# Convention : Reuss Voigt Hill
#
# Bulk Modulus (GPa) = 31.64527 40.67819 36.16173
# Shear Modulus (GPa) = 23.64410 27.25712 25.45061
#
# Velocity S-wave (km/s) = 3.43299 3.68597 3.56173
# Velocity P-wave (km/s) = 5.61138 6.19607 5.91095
#
# Compressibility (1/GPa) = 0.03160030
#
# Stress axis : x y z
#
# Youngs Moduli (GPa) = 52.74326 29.75430 77.11112
#
# Poissons Ratio (x) = 0.21490 0.45012
# Poissons Ratio (y) = 0.38094 0.30138
# Poissons Ratio (z) = 0.30788 0.11629
#
# Static dielectric constant tensor:
#      x y z
#    x 3.643360 0.000000 0.000000 
#    y 0.000000 3.580330 0.000000 
#    z 0.000000 0.000000 3.789380 
# 
# 
# High freq. dielectric constant tensor:
#      x y z
#    x 1.783490 0.000000 0.000000 
#    y 0.000000 1.777470 0.000000 
#    z 0.000000 0.000000 1.785890 
# 
# From -- ./inp_files/16639.got.cif
#   From: 2010.03.12/outbox.cif.g09.slc.cpg/sg36_9_cif.got.tgz:16639.got - 2010.04.14 02:13:53.
