data_PCOD8175571
_publ_section_title
;
Structure prediction by ZEFSAII (Michael W. Deem and Ramdas Pophale) SiO2 
 PCOD8175571
Probable space group: C M C 21
;
_chemical_formula_sum "Si O2"
_cell_formula_units_Z 64
_cell_length_a 13.805449
_cell_length_b 12.179315
_cell_length_c 18.127378
_cell_angle_alpha 90.000000
_cell_angle_beta 90.000000
_cell_angle_gamma 90.000000
_cell_volume 3047.953871
_symmetry_space_group_name_H-M "C M C 21"
_symmetry_group_IT_number 36
_symmetry_cell_setting 'orthorhombic'
loop_
_space_group_symop_operation_xyz
x,y,z
-x,-y,1/2+z
x,-y,1/2+z
-x,y,z
1/2+x,1/2+y,z
1/2-x,1/2-y,1/2+z
1/2+x,1/2-y,1/2+z
1/2-x,1/2+y,z
loop_
_atom_site_type_symbol
_atom_site_label
_atom_site_fract_x
_atom_site_fract_y
_atom_site_fract_z
Si Si1 0.108303 0.564883 0.923630
Si Si2 0.610025 0.004402 0.258995
Si Si3 0.886950 0.669522 0.457431
Si Si4 0.887688 0.816936 0.596086
Si Si5 0.887071 0.930336 0.073569
Si Si6 0.734267 0.163812 0.686341
Si Si7 0.613520 0.305189 0.924915
Si Si8 0.776648 0.703197 0.318742
O O1 0.111061 0.563071 0.835003
O O2 0.158609 0.455260 0.958323
O O3 0.151836 0.682456 0.948275
O O4 0.000000 0.563147 0.954278
O O5 0.500000 0.035368 0.236730
O O6 0.656037 0.934176 0.191984
O O7 0.674688 0.112092 0.267220
O O8 0.860707 0.733256 0.530807
O O9 0.843312 0.734902 0.388362
O O10 0.000000 0.662284 0.442043
O O11 0.820062 0.776167 0.662296
O O12 0.000000 0.806772 0.618303
O O13 0.862255 0.940743 0.573768
O O14 0.823458 0.867518 0.134028
O O15 0.000000 0.909101 0.092077
O O16 0.861974 0.885742 0.992252
O O17 0.771196 0.187594 0.769129
O O18 0.500000 0.305850 0.904527
O O19 0.672950 0.339586 0.851419
#
# Coordination Sequence:
#
# PCOD8175571 Si02
#       8
#     8   8   8   8   8   8   8   8
#     4   8  15  33  61  90 117 147 200 257 305 360
#     4  10  21  39  61  89 125 160 200 261 316 368
#     4   9  19  38  63  90 119 158 206 269 318 355
#     4  10  22  43  65  88 121 163 212 260 311 377
#     4  10  24  44  62  87 130 173 212 262 319 385
#     4  12  23  40  61  91 124 170 212 252 313 382
#     4  10  20  39  64  92 128 171 213 260 318 385
#     4  11  22  36  60  97 126 156 204 263 317 376
#
# _framework density 20.997692000000001
#
# number of rings (size 3 to 8) (size 9 to 14) (size 15 to 20)
#    0.000    2.000    1.250    3.000    0.000    2.500 
#   11.250    0.625    0.000    0.000    0.000    0.000 
#    0.000    0.000    0.000    0.000    0.000    0.000 
#
# Total GULP energy -396647.113321 kJ/mol
# GULP energy per Si atom -12395.222291 kJ/mol
# Density = 2.094990 g / cm^3
# Si number density = 20.997692 Si / 1000 Ang^3
#
#
#
# Elastic Constant Matrix: (Units=GPa)
#
#
# Indices 1 2 3 4 5 6 
#
# 1 102.0275 51.5411 43.2054 0.0000 0.0000 0.0000
# 2 51.5411 97.6946 34.2656 0.0000 0.0000 0.0000
# 3 43.2054 34.2656 64.4157 0.0000 0.0000 0.0000
# 4 0.0000 0.0000 0.0000 40.7093 0.0000 0.0000
# 5 0.0000 0.0000 0.0000 0.0000 34.1963 0.0000
# 6 0.0000 0.0000 0.0000 0.0000 0.0000 29.2147
#
#
#
# Elastic Compliance Matrix: (Units=1/GPa)
#
#
# Indices 1 2 3 4 5 6 
#
# 1 0.015927 -0.005724 -0.007638 0.000000 0.000000 0.000000
# 2 -0.005724 0.014641 -0.003949 0.000000 0.000000 0.000000
# 3 -0.007638 -0.003949 0.022748 0.000000 0.000000 0.000000
# 4 0.000000 0.000000 0.000000 0.024564 0.000000 0.000000
# 5 0.000000 0.000000 0.000000 0.000000 0.029243 0.000000
# 6 0.000000 0.000000 0.000000 0.000000 0.000000 0.034229
#
#
# Mechanical properties :
#
#
# Convention : Reuss Voigt Hill
#
# Bulk Modulus (GPa) = 53.49264 58.01800 55.75532
# Shear Modulus (GPa) = 27.44152 29.83245 28.63698
#
# Velocity S-wave (km/s) = 3.61901 3.77337 3.69699
# Velocity P-wave (km/s) = 6.55696 6.83192 6.69585
#
# Compressibility (1/GPa) = 0.01869416
#
# Stress axis : x y z
#
# Youngs Moduli (GPa) = 62.78553 68.30241 43.96016
#
# Poissons Ratio (x) = 0.39095 0.33577
# Poissons Ratio (y) = 0.35937 0.17360
# Poissons Ratio (z) = 0.47956 0.26973
#
# Static dielectric constant tensor:
#      x y z
#    x 3.898590 0.000000 0.000000 
#    y 0.000000 3.893080 0.000000 
#    z 0.000000 0.000000 3.575940 
# 
# 
# High freq. dielectric constant tensor:
#      x y z
#    x 1.829820 0.000000 0.000000 
#    y 0.000000 1.821990 0.000000 
#    z 0.000000 0.000000 1.806040 
# 
# From -- ./inp_files/14728.got.cif
#   From: 2010.03.12/outbox.cif.g09.slc.cpg/sg36_8_cif.got.tgz:14728.got - 2010.04.14 02:13:53.
