data_PCOD8175407
_publ_section_title
;
Structure prediction by ZEFSAII (Michael W. Deem and Ramdas Pophale) SiO2 
 PCOD8175407
Probable space group: C M C 21
;
_chemical_formula_sum "Si O2"
_cell_formula_units_Z 64
_cell_length_a 8.674403
_cell_length_b 15.056646
_cell_length_c 23.680428
_cell_angle_alpha 90.000000
_cell_angle_beta 90.000000
_cell_angle_gamma 90.000000
_cell_volume 3092.839493
_symmetry_space_group_name_H-M "C M C 21"
_symmetry_group_IT_number 36
_symmetry_cell_setting 'orthorhombic'
loop_
_space_group_symop_operation_xyz
x,y,z
-x,-y,1/2+z
x,-y,1/2+z
-x,y,z
1/2+x,1/2+y,z
1/2-x,1/2-y,1/2+z
1/2+x,1/2-y,1/2+z
1/2-x,1/2+y,z
loop_
_atom_site_type_symbol
_atom_site_label
_atom_site_fract_x
_atom_site_fract_y
_atom_site_fract_z
Si Si1 0.680107 0.129293 0.805800
Si Si2 0.320543 0.473207 0.736418
Si Si3 0.180331 0.403686 0.434450
Si Si4 0.676561 0.969410 0.125593
Si Si5 0.680056 0.547454 0.508915
Si Si6 0.323442 0.239186 0.635542
Si Si7 0.179309 0.293980 0.749545
Si Si8 0.680353 0.250501 0.018625
O O1 0.500000 0.113167 0.794962
O O2 0.727322 0.113552 0.870215
O O3 0.722424 0.229318 0.789296
O O4 0.776533 0.064807 0.765947
O O5 0.500000 0.454482 0.743154
O O6 0.278990 0.476732 0.670137
O O7 0.226498 0.393977 0.766438
O O8 0.270828 0.491145 0.454433
O O9 0.231253 0.317161 0.469800
O O10 0.000000 0.421813 0.441111
O O11 0.500000 0.998827 0.132725
O O12 0.699514 0.865860 0.137042
O O13 0.731390 0.993245 0.062724
O O14 0.500000 0.538413 0.520182
O O15 0.726458 0.650185 0.498742
O O16 0.500000 0.266147 0.646566
O O17 0.217666 0.280626 0.683780
O O18 0.270287 0.277062 0.575241
O O19 0.000000 0.278122 0.760684
O O20 0.500000 0.244900 0.031740
#
# Coordination Sequence:
#
# PCOD8175407 Si02
#       8
#     8   8   8   8   8   8   8   8
#     4  11  24  45  66  91 128 168 215 268 317 376
#     4  12  25  41  64  93 125 165 213 263 320 380
#     4  10  23  42  65  89 122 167 210 256 314 375
#     4  10  20  37  62  90 128 167 205 256 317 377
#     4  10  21  37  60  91 126 162 209 259 307 369
#     4  10  20  36  61  92 128 164 204 257 312 373
#     4  12  25  41  64  93 126 167 210 261 319 381
#     4   9  20  39  60  87 123 164 206 250 308 371
#
# _framework density 20.692958000000001
#
# number of rings (size 3 to 8) (size 9 to 14) (size 15 to 20)
#    0.000    1.500    1.250    3.750    1.750    4.000 
#    0.000    1.250    0.000    0.000    0.000    0.000 
#    0.000    0.000    0.000    0.000    0.000    0.000 
#
# Total GULP energy -397016.473958 kJ/mol
# GULP energy per Si atom -12406.764811 kJ/mol
# Density = 2.064586 g / cm^3
# Si number density = 20.692958 Si / 1000 Ang^3
#
#
#
# Elastic Constant Matrix: (Units=GPa)
#
#
# Indices 1 2 3 4 5 6 
#
# 1 74.1651 13.7315 26.5389 0.0000 0.0000 0.0000
# 2 13.7315 51.5229 9.3513 0.0000 0.0000 0.0000
# 3 26.5389 9.3513 83.3902 0.0000 0.0000 0.0000
# 4 0.0000 0.0000 0.0000 24.1422 0.0000 0.0000
# 5 0.0000 0.0000 0.0000 0.0000 31.4497 0.0000
# 6 0.0000 0.0000 0.0000 0.0000 0.0000 33.3838
#
#
#
# Elastic Compliance Matrix: (Units=1/GPa)
#
#
# Indices 1 2 3 4 5 6 
#
# 1 0.015766 -0.003360 -0.004641 0.000000 0.000000 0.000000
# 2 -0.003360 0.020528 -0.001233 0.000000 0.000000 0.000000
# 3 -0.004641 -0.001233 0.013607 0.000000 0.000000 0.000000
# 4 0.000000 0.000000 0.000000 0.041421 0.000000 0.000000
# 5 0.000000 0.000000 0.000000 0.000000 0.031797 0.000000
# 6 0.000000 0.000000 0.000000 0.000000 0.000000 0.029955
#
#
# Mechanical properties :
#
#
# Convention : Reuss Voigt Hill
#
# Bulk Modulus (GPa) = 31.81200 34.25796 33.03498
# Shear Modulus (GPa) = 27.46973 28.42555 27.94764
#
# Velocity S-wave (km/s) = 3.64743 3.71034 3.67902
# Velocity P-wave (km/s) = 5.75717 5.91159 5.83489
#
# Compressibility (1/GPa) = 0.03143468
#
# Stress axis : x y z
#
# Youngs Moduli (GPa) = 63.42718 48.71399 73.49151
#
# Poissons Ratio (x) = 0.16366 0.34106
# Poissons Ratio (y) = 0.21309 0.09060
# Poissons Ratio (z) = 0.29435 0.06006
#
# Static dielectric constant tensor:
#      x y z
#    x 3.711710 0.000000 0.000000 
#    y 0.000000 3.843680 0.000000 
#    z 0.000000 0.000000 3.715650 
# 
# 
# High freq. dielectric constant tensor:
#      x y z
#    x 1.812340 0.000000 0.000000 
#    y 0.000000 1.818900 0.000000 
#    z 0.000000 0.000000 1.802340 
# 
# From -- ./inp_files/16544.got.cif
#   From: 2010.03.12/outbox.cif.g09.slc.cpg/sg36_9_cif.got.tgz:16544.got - 2010.04.14 02:13:53.
