data_PCOD8175057
_publ_section_title
;
Structure prediction by ZEFSAII (Michael W. Deem and Ramdas Pophale) SiO2 
 PCOD8175057
Probable space group: C M C 21
;
_chemical_formula_sum "Si O2"
_cell_formula_units_Z 64
_cell_length_a 9.111356
_cell_length_b 28.379204
_cell_length_c 14.158589
_cell_angle_alpha 90.000000
_cell_angle_beta 90.000000
_cell_angle_gamma 90.000000
_cell_volume 3661.029267
_symmetry_space_group_name_H-M "C M C 21"
_symmetry_group_IT_number 36
_symmetry_cell_setting 'orthorhombic'
loop_
_space_group_symop_operation_xyz
x,y,z
-x,-y,1/2+z
x,-y,1/2+z
-x,y,z
1/2+x,1/2+y,z
1/2-x,1/2-y,1/2+z
1/2+x,1/2-y,1/2+z
1/2-x,1/2+y,z
loop_
_atom_site_type_symbol
_atom_site_label
_atom_site_fract_x
_atom_site_fract_y
_atom_site_fract_z
Si Si1 0.828468 0.877676 0.775390
Si Si2 0.171925 0.053921 0.637626
Si Si3 0.828974 0.379241 0.271632
Si Si4 0.328280 0.196396 0.619355
Si Si5 0.174373 0.947191 0.616645
Si Si6 0.172195 0.803985 0.622194
Si Si7 0.826241 0.374331 0.488520
Si Si8 0.326787 0.629707 0.484302
O O1 0.774174 0.922321 0.714120
O O2 0.788045 0.829649 0.720573
O O3 0.757825 0.877488 0.879771
O O4 0.000000 0.882382 0.790222
O O5 0.247616 0.075005 0.730506
O O6 0.215569 0.083886 0.545360
O O7 0.000000 0.054743 0.656894
O O8 0.227185 0.000961 0.620186
O O9 0.783516 0.332607 0.213025
O O10 0.781975 0.371224 0.379076
O O11 0.000000 0.389489 0.262380
O O12 0.500000 0.192578 0.599433
O O13 0.278839 0.250135 0.633686
O O14 0.244971 0.176190 0.528531
O O15 0.254532 0.921769 0.529807
O O16 0.000000 0.942207 0.601622
O O17 0.261726 0.827693 0.537314
O O18 0.000000 0.809469 0.599697
O O19 0.000000 0.375888 0.503683
O O20 0.500000 0.637977 0.482151
#
# Coordination Sequence:
#
# PCOD8175057 Si02
#       8
#     8   8   8   8   8   8   8   8
#     4   8  15  29  48  67  90 122 156 189 229 279
#     4   9  18  31  50  75  98 124 160 199 237 278
#     4   9  19  34  50  70  99 132 162 195 239 290
#     4   9  18  33  50  68  93 125 160 196 238 289
#     4   9  18  33  51  71  97 129 162 197 238 282
#     4   9  18  33  51  69  92 126 163 197 237 285
#     4  10  20  33  50  73  99 128 162 199 241 287
#     4   9  17  30  48  71  96 120 153 196 237 280
#
# _framework density 17.481422999999999
#
# number of rings (size 3 to 8) (size 9 to 14) (size 15 to 20)
#    0.000    3.000    0.000    1.125    0.000    4.000 
#    0.000    7.500    0.000    0.000    0.000    0.000 
#    0.000    0.000    0.000    0.000    0.000    0.000 
#
# Total GULP energy -396772.232352 kJ/mol
# GULP energy per Si atom -12399.132261 kJ/mol
# Density = 1.744163 g / cm^3
# Si number density = 17.481423 Si / 1000 Ang^3
#
#
#
# Elastic Constant Matrix: (Units=GPa)
#
#
# Indices 1 2 3 4 5 6 
#
# 1 35.0344 38.0996 40.7346 0.0000 0.0000 0.0000
# 2 38.0996 158.7881 69.4908 0.0000 0.0000 0.0000
# 3 40.7346 69.4908 151.2907 0.0000 0.0000 0.0000
# 4 0.0000 0.0000 0.0000 14.0348 0.0000 0.0000
# 5 0.0000 0.0000 0.0000 0.0000 26.5337 0.0000
# 6 0.0000 0.0000 0.0000 0.0000 0.0000 26.5475
#
#
#
# Elastic Compliance Matrix: (Units=1/GPa)
#
#
# Indices 1 2 3 4 5 6 
#
# 1 0.047386 -0.007242 -0.009432 0.000000 0.000000 0.000000
# 2 -0.007242 0.008989 -0.002179 0.000000 0.000000 0.000000
# 3 -0.009432 -0.002179 0.010150 0.000000 0.000000 0.000000
# 4 0.000000 0.000000 0.000000 0.071251 0.000000 0.000000
# 5 0.000000 0.000000 0.000000 0.000000 0.037688 0.000000
# 6 0.000000 0.000000 0.000000 0.000000 0.000000 0.037668
#
#
# Mechanical properties :
#
#
# Convention : Reuss Voigt Hill
#
# Bulk Modulus (GPa) = 34.69953 71.30701 53.00327
# Shear Modulus (GPa) = 19.19797 26.54242 22.87019
#
# Velocity S-wave (km/s) = 3.31749 3.90079 3.62091
# Velocity P-wave (km/s) = 5.87936 7.82093 6.91859
#
# Compressibility (1/GPa) = 0.02881883
#
# Stress axis : x y z
#
# Youngs Moduli (GPa) = 21.10348 111.24856 98.52054
#
# Poissons Ratio (x) = 0.80565 0.92925
# Poissons Ratio (y) = 0.15283 0.21467
# Poissons Ratio (z) = 0.19905 0.24240
#
# Static dielectric constant tensor:
#      x y z
#    x 3.061490 0.000000 0.000000 
#    y 0.000000 3.377050 0.000000 
#    z 0.000000 0.000000 3.441810 
# 
# 
# High freq. dielectric constant tensor:
#      x y z
#    x 1.657230 0.000000 0.000000 
#    y 0.000000 1.678700 0.000000 
#    z 0.000000 0.000000 1.678330 
# 
# From -- ./inp_files/11197.got.cif
#   From: 2010.03.12/outbox.cif.g09.slc.cpg/sg36_6_cif.got.tgz:11197.got - 2010.04.14 02:13:53.
