data_PCOD8175462
_publ_section_title
;
Structure prediction by ZEFSAII (Michael W. Deem and Ramdas Pophale) SiO2 
 PCOD8175462
Probable space group: C M C 21
;
_chemical_formula_sum "Si O2"
_cell_formula_units_Z 56
_cell_length_a 10.299668
_cell_length_b 13.800619
_cell_length_c 18.970072
_cell_angle_alpha 90.000000
_cell_angle_beta 90.000000
_cell_angle_gamma 90.000000
_cell_volume 2696.440064
_symmetry_space_group_name_H-M "C M C 21"
_symmetry_group_IT_number 36
_symmetry_cell_setting 'orthorhombic'
loop_
_space_group_symop_operation_xyz
x,y,z
-x,-y,1/2+z
x,-y,1/2+z
-x,y,z
1/2+x,1/2+y,z
1/2-x,1/2-y,1/2+z
1/2+x,1/2-y,1/2+z
1/2-x,1/2+y,z
loop_
_atom_site_type_symbol
_atom_site_label
_atom_site_fract_x
_atom_site_fract_y
_atom_site_fract_z
Si Si1 0.643109 0.604874 0.526890
Si Si2 0.746175 0.727258 0.647085
Si Si3 0.138884 0.538453 0.699150
Si Si4 0.353250 0.086460 0.414812
Si Si5 0.143312 0.610611 0.852178
Si Si6 0.647428 0.757273 0.803104
Si Si7 0.647489 0.571223 0.122577
O O1 0.500000 0.612706 0.492420
O O2 0.644674 0.680534 0.592176
O O3 0.752507 0.632463 0.470287
O O4 0.666625 0.494365 0.553152
O O5 0.850662 0.644364 0.663750
O O6 0.679297 0.761455 0.720090
O O7 0.816450 0.817138 0.608476
O O8 0.136493 0.548728 0.781829
O O9 0.257707 0.468310 0.682746
O O10 0.000000 0.494105 0.673539
O O11 0.500000 0.104568 0.442534
O O12 0.336477 0.137198 0.338261
O O13 0.325595 0.971184 0.410614
O O14 0.256878 0.688887 0.848254
O O15 0.000000 0.658319 0.866328
O O16 0.500000 0.718632 0.811669
O O17 0.500000 0.563391 0.150493
#
# Coordination Sequence:
#
# PCOD8175462 Si02
#       7
#     8   8   8   8   8   8   8
#     4  10  23  40  57  83 117 152 194 244 292 345
#     4  10  20  37  61  87 117 150 191 240 293 347
#     4   9  18  33  55  83 114 144 179 226 279 336
#     4  10  22  40  59  81 115 157 196 237 291 353
#     4   9  19  36  56  81 113 148 186 229 280 339
#     4  10  21  38  62  90 116 149 194 243 293 343
#     4  10  21  36  56  81 110 146 188 231 280 337
#
# _framework density 20.768122000000002
#
# number of rings (size 3 to 8) (size 9 to 14) (size 15 to 20)
#    0.000    2.286    0.000    1.714    0.000   11.429 
#    0.000    5.714    0.000    0.000    0.000    0.000 
#    0.000    0.000    0.000    0.000    0.000    0.000 
#
# Total GULP energy -347000.225718 kJ/mol
# GULP energy per Si atom -12392.865204 kJ/mol
# Density = 2.072085 g / cm^3
# Si number density = 20.768122 Si / 1000 Ang^3
#
#
#
# Elastic Constant Matrix: (Units=GPa)
#
#
# Indices 1 2 3 4 5 6 
#
# 1 155.6160 48.2379 34.4290 0.0000 0.0000 0.0000
# 2 48.2379 100.9299 20.2941 0.0000 0.0000 0.0000
# 3 34.4290 20.2941 61.1206 0.0000 0.0000 0.0000
# 4 0.0000 0.0000 0.0000 25.2483 0.0000 0.0000
# 5 0.0000 0.0000 0.0000 0.0000 23.3371 0.0000
# 6 0.0000 0.0000 0.0000 0.0000 0.0000 23.1409
#
#
#
# Elastic Compliance Matrix: (Units=1/GPa)
#
#
# Indices 1 2 3 4 5 6 
#
# 1 0.008207 -0.003207 -0.003558 0.000000 0.000000 0.000000
# 2 -0.003207 0.011870 -0.002135 0.000000 0.000000 0.000000
# 3 -0.003558 -0.002135 0.019074 0.000000 0.000000 0.000000
# 4 0.000000 0.000000 0.000000 0.039607 0.000000 0.000000
# 5 0.000000 0.000000 0.000000 0.000000 0.042850 0.000000
# 6 0.000000 0.000000 0.000000 0.000000 0.000000 0.043213
#
#
# Mechanical properties :
#
#
# Convention : Reuss Voigt Hill
#
# Bulk Modulus (GPa) = 46.83541 58.17648 52.50595
# Shear Modulus (GPa) = 26.35195 28.65898 27.50546
#
# Velocity S-wave (km/s) = 3.56598 3.71880 3.64319
# Velocity P-wave (km/s) = 6.28931 6.82001 6.56003
#
# Compressibility (1/GPa) = 0.02135137
#
# Stress axis : x y z
#
# Youngs Moduli (GPa) = 121.83980 84.24678 52.42666
#
# Poissons Ratio (x) = 0.27019 0.18655
# Poissons Ratio (y) = 0.39076 0.11191
# Poissons Ratio (z) = 0.43355 0.17983
#
# Static dielectric constant tensor:
#      x y z
#    x 3.953630 0.000000 0.000000 
#    y 0.000000 3.706120 0.000000 
#    z 0.000000 0.000000 3.489450 
# 
# 
# High freq. dielectric constant tensor:
#      x y z
#    x 1.822290 0.000000 0.000000 
#    y 0.000000 1.811240 0.000000 
#    z 0.000000 0.000000 1.787310 
# 
# From -- ./inp_files/15480.got.cif
#   From: 2010.03.12/outbox.cif.g09.slc.cpg/sg36_8_cif.got.tgz:15480.got - 2010.04.14 02:13:53.
