data_PCOD8175092
_publ_section_title
;
Structure prediction by ZEFSAII (Michael W. Deem and Ramdas Pophale) SiO2 
 PCOD8175092
Probable space group: C M C 21
;
_chemical_formula_sum "Si O2"
_cell_formula_units_Z 64
_cell_length_a 9.394279
_cell_length_b 19.722924
_cell_length_c 18.632476
_cell_angle_alpha 90.000000
_cell_angle_beta 90.000000
_cell_angle_gamma 90.000000
_cell_volume 3452.274543
_symmetry_space_group_name_H-M "C M C 21"
_symmetry_group_IT_number 36
_symmetry_cell_setting 'orthorhombic'
loop_
_space_group_symop_operation_xyz
x,y,z
-x,-y,1/2+z
x,-y,1/2+z
-x,y,z
1/2+x,1/2+y,z
1/2-x,1/2-y,1/2+z
1/2+x,1/2-y,1/2+z
1/2-x,1/2+y,z
loop_
_atom_site_type_symbol
_atom_site_label
_atom_site_fract_x
_atom_site_fract_y
_atom_site_fract_z
Si Si1 0.669334 0.629467 0.681590
Si Si2 0.830820 0.975195 0.298723
Si Si3 0.168193 0.816350 0.913986
Si Si4 0.168671 0.080493 0.530135
Si Si5 0.336839 0.813337 0.498223
Si Si6 0.663890 0.780769 0.661538
Si Si7 0.830963 0.126560 0.264294
Si Si8 0.667847 0.443596 0.457657
O O1 0.500000 0.625276 0.679164
O O2 0.729364 0.583685 0.746616
O O3 0.732952 0.599327 0.607651
O O4 0.716611 0.707651 0.691160
O O5 0.772339 0.960505 0.378391
O O6 0.000000 0.975028 0.300232
O O7 0.779341 0.048758 0.271334
O O8 0.211463 0.740926 0.938075
O O9 0.223427 0.831916 0.834039
O O10 0.000000 0.825943 0.915241
O O11 0.235099 0.870259 0.969670
O O12 0.000000 0.089974 0.531317
O O13 0.210350 0.003830 0.511316
O O14 0.500000 0.835029 0.486546
O O15 0.316117 0.779881 0.576011
O O16 0.237844 0.877537 0.490280
O O17 0.500000 0.793599 0.682196
O O18 0.758023 0.840439 0.695089
O O19 0.000000 0.130880 0.254501
O O20 0.500000 0.432097 0.454782
#
# Coordination Sequence:
#
# PCOD8175092 Si02
#       8
#     8   8   8   8   8   8   8   8
#     4   9  17  30  50  74 102 137 174 210 254 310
#     4   9  18  32  50  77 108 134 166 213 264 309
#     4   9  16  32  54  73  97 135 177 211 248 307
#     4   9  15  29  53  76  96 130 179 217 248 298
#     4  10  21  36  53  74 105 143 178 209 253 315
#     4  10  21  36  53  75 105 142 178 210 251 315
#     4  10  20  34  55  80 106 134 170 219 268 308
#     4  10  20  33  54  83 107 129 170 227 268 296
#
# _framework density 18.538502000000001
#
# number of rings (size 3 to 8) (size 9 to 14) (size 15 to 20)
#    0.000    2.500    2.500    0.000    3.500    0.500 
#    0.000    0.625    0.000    2.250    0.000    0.000 
#    0.000    0.000    0.000    0.000    0.000    0.000 
#
# Total GULP energy -396756.501673 kJ/mol
# GULP energy per Si atom -12398.640677 kJ/mol
# Density = 1.849631 g / cm^3
# Si number density = 18.538502 Si / 1000 Ang^3
#
#
#
# Elastic Constant Matrix: (Units=GPa)
#
#
# Indices 1 2 3 4 5 6 
#
# 1 23.1136 30.5047 15.5230 0.0000 0.0000 0.0000
# 2 30.5047 123.9452 32.6438 0.0000 0.0000 0.0000
# 3 15.5230 32.6438 66.5084 0.0000 0.0000 0.0000
# 4 0.0000 0.0000 0.0000 39.4694 0.0000 0.0000
# 5 0.0000 0.0000 0.0000 0.0000 17.8072 0.0000
# 6 0.0000 0.0000 0.0000 0.0000 0.0000 24.8924
#
#
#
# Elastic Compliance Matrix: (Units=1/GPa)
#
#
# Indices 1 2 3 4 5 6 
#
# 1 0.068318 -0.014487 -0.008835 0.000000 0.000000 0.000000
# 2 -0.014487 0.012338 -0.002674 0.000000 0.000000 0.000000
# 3 -0.008835 -0.002674 0.018410 0.000000 0.000000 0.000000
# 4 0.000000 0.000000 0.000000 0.025336 0.000000 0.000000
# 5 0.000000 0.000000 0.000000 0.000000 0.056157 0.000000
# 6 0.000000 0.000000 0.000000 0.000000 0.000000 0.040173
#
#
# Mechanical properties :
#
#
# Convention : Reuss Voigt Hill
#
# Bulk Modulus (GPa) = 21.24343 41.21224 31.22784
# Shear Modulus (GPa) = 17.33610 25.42684 21.38147
#
# Velocity S-wave (km/s) = 3.06132 3.70749 3.39979
# Velocity P-wave (km/s) = 4.89689 6.37230 5.68268
#
# Compressibility (1/GPa) = 0.04707337
#
# Stress axis : x y z
#
# Youngs Moduli (GPa) = 14.63753 81.05079 54.31720
#
# Poissons Ratio (x) = 1.17419 0.47988
# Poissons Ratio (y) = 0.21206 0.14527
# Poissons Ratio (z) = 0.12932 0.21677
#
# Static dielectric constant tensor:
#      x y z
#    x 2.801210 0.000000 0.000000 
#    y 0.000000 3.508340 0.000000 
#    z 0.000000 0.000000 3.659340 
# 
# 
# High freq. dielectric constant tensor:
#      x y z
#    x 1.651780 0.000000 0.000000 
#    y 0.000000 1.734020 0.000000 
#    z 0.000000 0.000000 1.731240 
# 
# From -- ./inp_files/14451.got.cif
#   From: 2010.03.12/outbox.cif.g09.slc.cpg/sg36_8_cif.got.tgz:14451.got - 2010.04.14 02:13:53.
