data_PCOD8175297
_publ_section_title
;
Structure prediction by ZEFSAII (Michael W. Deem and Ramdas Pophale) SiO2 
 PCOD8175297
Probable space group: C M C 21
;
_chemical_formula_sum "Si O2"
_cell_formula_units_Z 64
_cell_length_a 9.185580
_cell_length_b 23.591333
_cell_length_c 15.263098
_cell_angle_alpha 90.000000
_cell_angle_beta 90.000000
_cell_angle_gamma 90.000000
_cell_volume 3307.514505
_symmetry_space_group_name_H-M "C M C 21"
_symmetry_group_IT_number 36
_symmetry_cell_setting 'orthorhombic'
loop_
_space_group_symop_operation_xyz
x,y,z
-x,-y,1/2+z
x,-y,1/2+z
-x,y,z
1/2+x,1/2+y,z
1/2-x,1/2-y,1/2+z
1/2+x,1/2-y,1/2+z
1/2-x,1/2+y,z
loop_
_atom_site_type_symbol
_atom_site_label
_atom_site_fract_x
_atom_site_fract_y
_atom_site_fract_z
Si Si1 0.833117 0.810329 0.368460
Si Si2 0.327182 0.876407 0.220813
Si Si3 0.329727 0.382144 0.536351
Si Si4 0.668369 0.498539 0.965759
Si Si5 0.830312 0.120800 0.543380
Si Si6 0.667797 0.115634 0.208958
Si Si7 0.331876 0.001960 0.788038
Si Si8 0.331943 0.822711 0.884448
O O1 0.726900 0.832723 0.293566
O O2 0.787584 0.838453 0.460231
O O3 0.811029 0.743919 0.376534
O O4 0.000000 0.826099 0.345151
O O5 0.500000 0.872205 0.211194
O O6 0.254045 0.859172 0.129588
O O7 0.274851 0.939526 0.246873
O O8 0.500000 0.383505 0.554774
O O9 0.270606 0.444424 0.510281
O O10 0.253993 0.361417 0.625166
O O11 0.500000 0.506360 0.942267
O O12 0.749042 0.486050 0.875888
O O13 0.695541 0.446258 0.030755
O O14 0.768394 0.155493 0.462125
O O15 0.000000 0.135119 0.553525
O O16 0.500000 0.129663 0.192962
O O17 0.723322 0.148485 0.294917
O O18 0.695433 0.048361 0.219038
O O19 0.500000 0.007091 0.813405
O O20 0.500000 0.839168 0.903053
#
# Coordination Sequence:
#
# PCOD8175297 Si02
#       8
#     8   8   8   8   8   8   8   8
#     4  10  22  41  62  84 115 155 198 245 293 339
#     4  11  23  38  60  89 119 154 194 238 292 350
#     4  10  21  37  58  85 116 149 188 235 288 344
#     4  10  20  35  58  87 116 150 189 235 291 347
#     4  11  23  38  60  89 119 154 194 238 292 350
#     4  10  21  37  58  85 116 149 188 235 288 344
#     4  10  20  35  58  87 116 150 189 235 291 347
#     4  10  22  41  62  84 115 155 198 245 293 339
#
# _framework density 19.349876999999999
#
# number of rings (size 3 to 8) (size 9 to 14) (size 15 to 20)
#    0.000    1.750    2.500    1.500    0.000    4.500 
#    0.000    2.500    0.000    0.000    0.000    0.000 
#    0.000    0.000    0.000    0.000    0.000    0.000 
#
# Total GULP energy -396963.175899 kJ/mol
# GULP energy per Si atom -12405.099247 kJ/mol
# Density = 1.930584 g / cm^3
# Si number density = 19.349877 Si / 1000 Ang^3
#
#
#
# Elastic Constant Matrix: (Units=GPa)
#
#
# Indices 1 2 3 4 5 6 
#
# 1 71.7855 31.3371 60.8979 0.0000 0.0000 0.0000
# 2 31.3371 92.2630 38.3949 0.0000 0.0000 0.0000
# 3 60.8979 38.3949 142.3625 0.0000 0.0000 0.0000
# 4 0.0000 0.0000 0.0000 9.0902 0.0000 0.0000
# 5 0.0000 0.0000 0.0000 0.0000 41.9520 0.0000
# 6 0.0000 0.0000 0.0000 0.0000 0.0000 21.3600
#
#
#
# Elastic Compliance Matrix: (Units=1/GPa)
#
#
# Indices 1 2 3 4 5 6 
#
# 1 0.023245 -0.004232 -0.008802 0.000000 0.000000 0.000000
# 2 -0.004232 0.012979 -0.001690 0.000000 0.000000 0.000000
# 3 -0.008802 -0.001690 0.011245 0.000000 0.000000 0.000000
# 4 0.000000 0.000000 0.000000 0.110009 0.000000 0.000000
# 5 0.000000 0.000000 0.000000 0.000000 0.023837 0.000000
# 6 0.000000 0.000000 0.000000 0.000000 0.000000 0.046816
#
#
# Mechanical properties :
#
#
# Convention : Reuss Voigt Hill
#
# Bulk Modulus (GPa) = 55.49078 63.07455 59.28266
# Shear Modulus (GPa) = 18.96905 26.19917 22.58411
#
# Velocity S-wave (km/s) = 3.13440 3.68363 3.42006
# Velocity P-wave (km/s) = 6.46832 7.12459 6.80437
#
# Compressibility (1/GPa) = 0.01802101
#
# Stress axis : x y z
#
# Youngs Moduli (GPa) = 43.02019 77.04524 88.92580
#
# Poissons Ratio (x) = 0.32607 0.78272
# Poissons Ratio (y) = 0.18207 0.15030
# Poissons Ratio (z) = 0.37866 0.13022
#
# Static dielectric constant tensor:
#      x y z
#    x 3.487960 0.000000 0.000000 
#    y 0.000000 3.584120 0.000000 
#    z 0.000000 0.000000 3.465790 
# 
# 
# High freq. dielectric constant tensor:
#      x y z
#    x 1.748150 0.000000 0.000000 
#    y 0.000000 1.754690 0.000000 
#    z 0.000000 0.000000 1.759350 
# 
# From -- ./inp_files/11027.got.cif
#   From: 2010.03.12/outbox.cif.g09.slc.cpg/sg36_6_cif.got.tgz:11027.got - 2010.04.14 02:13:53.
