data_PCOD8175722
_publ_section_title
;
Structure prediction by ZEFSAII (Michael W. Deem and Ramdas Pophale) SiO2 
 PCOD8175722
Probable space group: C M C 21
;
_chemical_formula_sum "Si O2"
_cell_formula_units_Z 64
_cell_length_a 14.241732
_cell_length_b 23.204673
_cell_length_c 9.504689
_cell_angle_alpha 90.000000
_cell_angle_beta 90.000000
_cell_angle_gamma 90.000000
_cell_volume 3141.059569
_symmetry_space_group_name_H-M "C M C 21"
_symmetry_group_IT_number 36
_symmetry_cell_setting 'orthorhombic'
loop_
_space_group_symop_operation_xyz
x,y,z
-x,-y,1/2+z
x,-y,1/2+z
-x,y,z
1/2+x,1/2+y,z
1/2-x,1/2-y,1/2+z
1/2+x,1/2-y,1/2+z
1/2-x,1/2+y,z
loop_
_atom_site_type_symbol
_atom_site_label
_atom_site_fract_x
_atom_site_fract_y
_atom_site_fract_z
Si Si1 0.398794 0.558760 0.708880
Si Si2 0.827135 0.459371 0.531956
Si Si3 0.099355 0.462844 0.824746
Si Si4 0.891007 0.728506 0.214103
Si Si5 0.290484 0.137739 0.405524
Si Si6 0.660621 0.465082 0.911079
Si Si7 0.609159 0.839085 0.440375
Si Si8 0.266219 0.337080 0.213486
O O1 0.500000 0.585676 0.753033
O O2 0.406205 0.549060 0.541556
O O3 0.391420 0.496342 0.783347
O O4 0.311862 0.600632 0.748455
O O5 0.910214 0.484924 0.434722
O O6 0.828879 0.476305 0.697107
O O7 0.735414 0.488573 0.468556
O O8 0.838919 0.391007 0.521940
O O9 0.122710 0.406376 0.917135
O O10 0.000000 0.452310 0.749447
O O11 0.819408 0.686255 0.294787
O O12 0.849460 0.791751 0.239160
O O13 0.000000 0.725396 0.267857
O O14 0.888501 0.714296 0.048196
O O15 0.204285 0.095865 0.356031
O O16 0.268726 0.167140 0.553665
O O17 0.500000 0.851475 0.397106
O O18 0.673248 0.824583 0.305490
#
# Coordination Sequence:
#
# PCOD8175722 Si02
#       8
#     8   8   8   8   8   8   8   8
#     4  11  22  39  61  90 122 162 209 252 300 360
#     4  11  21  36  55  87 125 163 194 239 303 365
#     4  11  21  33  53  85 123 160 196 238 292 366
#     4  11  23  43  66  88 118 163 211 256 305 364
#     4  10  22  37  60  86 121 158 197 248 312 363
#     4  10  21  37  59  87 124 158 195 248 307 364
#     4  11  23  39  62  91 124 159 203 254 308 370
#     4  11  24  42  62  90 121 165 207 259 303 360
#
# _framework density 20.375291000000001
#
# number of rings (size 3 to 8) (size 9 to 14) (size 15 to 20)
#    0.000    1.250    2.500    4.500    3.500    1.000 
#    0.000    0.000    0.000    0.750    0.000    0.000 
#    0.000    0.000    0.000    0.000    0.000    0.000 
#
# Total GULP energy -396465.296816 kJ/mol
# GULP energy per Si atom -12389.540525 kJ/mol
# Density = 2.032892 g / cm^3
# Si number density = 20.375291 Si / 1000 Ang^3
#
#
#
# Elastic Constant Matrix: (Units=GPa)
#
#
# Indices 1 2 3 4 5 6 
#
# 1 104.5289 21.7281 39.4411 0.0000 0.0000 0.0000
# 2 21.7281 86.4773 37.7201 0.0000 0.0000 0.0000
# 3 39.4411 37.7201 86.7559 0.0000 0.0000 0.0000
# 4 0.0000 0.0000 0.0000 27.3786 0.0000 0.0000
# 5 0.0000 0.0000 0.0000 0.0000 21.0983 0.0000
# 6 0.0000 0.0000 0.0000 0.0000 0.0000 20.8240
#
#
#
# Elastic Compliance Matrix: (Units=1/GPa)
#
#
# Indices 1 2 3 4 5 6 
#
# 1 0.011588 -0.000757 -0.004939 0.000000 0.000000 0.000000
# 2 -0.000757 0.014319 -0.005882 0.000000 0.000000 0.000000
# 3 -0.004939 -0.005882 0.016329 0.000000 0.000000 0.000000
# 4 0.000000 0.000000 0.000000 0.036525 0.000000 0.000000
# 5 0.000000 0.000000 0.000000 0.000000 0.047397 0.000000
# 6 0.000000 0.000000 0.000000 0.000000 0.000000 0.048022
#
#
# Mechanical properties :
#
#
# Convention : Reuss Voigt Hill
#
# Bulk Modulus (GPa) = 52.40830 52.83785 52.62308
# Shear Modulus (GPa) = 24.54645 25.78503 25.16574
#
# Velocity S-wave (km/s) = 3.47467 3.56125 3.51823
# Velocity P-wave (km/s) = 6.47110 6.54971 6.51052
#
# Compressibility (1/GPa) = 0.01908095
#
# Stress axis : x y z
#
# Youngs Moduli (GPa) = 86.29883 69.83499 61.24044
#
# Poissons Ratio (x) = 0.05288 0.30245
# Poissons Ratio (y) = 0.06535 0.36019
# Poissons Ratio (z) = 0.42621 0.41074
#
# Static dielectric constant tensor:
#      x y z
#    x 3.732110 0.000000 0.000000 
#    y 0.000000 3.640820 0.000000 
#    z 0.000000 0.000000 3.660950 
# 
# 
# High freq. dielectric constant tensor:
#      x y z
#    x 1.796600 0.000000 0.000000 
#    y 0.000000 1.785150 0.000000 
#    z 0.000000 0.000000 1.793740 
# 
# From -- ./inp_files/4340.got.cif
#   From: 2010.03.12/outbox.cif.g09.slc.cpg/sg36_3_cif.got.tgz:4340.got - 2010.04.14 02:13:53.
