data_PCOD8175135
_publ_section_title
;
Structure prediction by ZEFSAII (Michael W. Deem and Ramdas Pophale) SiO2 
 PCOD8175135
Probable space group: C M C 21
;
_chemical_formula_sum "Si O2"
_cell_formula_units_Z 64
_cell_length_a 9.451471
_cell_length_b 14.677207
_cell_length_c 24.143732
_cell_angle_alpha 90.000000
_cell_angle_beta 90.000000
_cell_angle_gamma 90.000000
_cell_volume 3349.247387
_symmetry_space_group_name_H-M "C M C 21"
_symmetry_group_IT_number 36
_symmetry_cell_setting 'orthorhombic'
loop_
_space_group_symop_operation_xyz
x,y,z
-x,-y,1/2+z
x,-y,1/2+z
-x,y,z
1/2+x,1/2+y,z
1/2-x,1/2-y,1/2+z
1/2+x,1/2-y,1/2+z
1/2-x,1/2+y,z
loop_
_atom_site_type_symbol
_atom_site_label
_atom_site_fract_x
_atom_site_fract_y
_atom_site_fract_z
Si Si1 0.663921 0.628367 0.189080
Si Si2 0.332579 0.169081 0.413399
Si Si3 0.663428 0.471654 0.105161
Si Si4 0.843831 0.358181 0.791428
Si Si5 0.842088 0.857169 0.276780
Si Si6 0.664537 0.471680 0.977798
Si Si7 0.332132 0.371684 0.397491
Si Si8 0.833118 0.662922 0.673204
O O1 0.500000 0.623264 0.202786
O O2 0.708443 0.560415 0.140170
O O3 0.740087 0.598006 0.246015
O O4 0.705642 0.730252 0.170111
O O5 0.500000 0.164980 0.424065
O O6 0.293978 0.121708 0.354345
O O7 0.251772 0.118077 0.462501
O O8 0.274130 0.272431 0.414537
O O9 0.500000 0.445605 0.115808
O O10 0.761173 0.385734 0.120757
O O11 0.690409 0.496441 0.041516
O O12 0.848727 0.250276 0.784831
O O13 0.000000 0.398878 0.781178
O O14 0.785408 0.899523 0.334832
O O15 0.733437 0.883286 0.228224
O O16 0.000000 0.893602 0.261578
O O17 0.500000 0.454089 0.965206
O O18 0.724943 0.555145 0.941328
O O19 0.500000 0.365799 0.397937
O O20 0.000000 0.645818 0.672795
#
# Coordination Sequence:
#
# PCOD8175135 Si02
#       8
#     8   8   8   8   8   8   8   8
#     4   9  19  35  54  76 102 134 171 210 251 297
#     4   9  18  34  55  78 105 135 165 202 254 309
#     4  10  22  38  52  70 100 137 175 212 252 300
#     4   8  15  29  51  79 107 133 162 200 251 309
#     4   8  14  29  53  78 104 134 166 199 246 309
#     4  10  21  36  53  74  99 131 176 219 249 289
#     4   8  16  33  56  77 100 136 173 202 244 306
#     4  10  20  34  54  80 105 130 166 212 257 299
#
# _framework density 19.10877
#
# number of rings (size 3 to 8) (size 9 to 14) (size 15 to 20)
#    0.000    3.000    0.000    1.875    0.000    4.000 
#    0.000    9.375    0.000    0.000    0.000    0.000 
#    0.000    0.000    0.000    0.000    0.000    0.000 
#
# Total GULP energy -396732.299079 kJ/mol
# GULP energy per Si atom -12397.884346 kJ/mol
# Density = 1.906528 g / cm^3
# Si number density = 19.108770 Si / 1000 Ang^3
#
#
#
# Elastic Constant Matrix: (Units=GPa)
#
#
# Indices 1 2 3 4 5 6 
#
# 1 56.3127 24.8082 35.2131 0.0000 0.0000 0.0000
# 2 24.8082 56.7302 29.2927 0.0000 0.0000 0.0000
# 3 35.2131 29.2927 99.0255 0.0000 0.0000 0.0000
# 4 0.0000 0.0000 0.0000 34.0694 0.0000 0.0000
# 5 0.0000 0.0000 0.0000 0.0000 27.1696 0.0000
# 6 0.0000 0.0000 0.0000 0.0000 0.0000 23.7966
#
#
#
# Elastic Compliance Matrix: (Units=1/GPa)
#
#
# Indices 1 2 3 4 5 6 
#
# 1 0.025328 -0.007584 -0.006763 0.000000 0.000000 0.000000
# 2 -0.007584 0.023076 -0.004129 0.000000 0.000000 0.000000
# 3 -0.006763 -0.004129 0.013725 0.000000 0.000000 0.000000
# 4 0.000000 0.000000 0.000000 0.029352 0.000000 0.000000
# 5 0.000000 0.000000 0.000000 0.000000 0.036806 0.000000
# 6 0.000000 0.000000 0.000000 0.000000 0.000000 0.042023
#
#
# Mechanical properties :
#
#
# Convention : Reuss Voigt Hill
#
# Bulk Modulus (GPa) = 39.72004 43.41070 41.56537
# Shear Modulus (GPa) = 23.18527 25.19075 24.18801
#
# Velocity S-wave (km/s) = 3.48707 3.63475 3.56168
# Velocity P-wave (km/s) = 6.08640 6.35470 6.22200
#
# Compressibility (1/GPa) = 0.02517621
#
# Stress axis : x y z
#
# Youngs Moduli (GPa) = 39.48176 43.33524 72.86043
#
# Poissons Ratio (x) = 0.32865 0.49277
# Poissons Ratio (y) = 0.29942 0.30086
# Poissons Ratio (z) = 0.26702 0.17894
#
# Static dielectric constant tensor:
#      x y z
#    x 3.340890 0.000000 0.000000 
#    y 0.000000 3.438520 0.000000 
#    z 0.000000 0.000000 3.632110 
# 
# 
# High freq. dielectric constant tensor:
#      x y z
#    x 1.722750 0.000000 0.000000 
#    y 0.000000 1.735200 0.000000 
#    z 0.000000 0.000000 1.743500 
# 
# From -- ./inp_files/16664.got.cif
#   From: 2010.03.12/outbox.cif.g09.slc.cpg/sg36_9_cif.got.tgz:16664.got - 2010.04.14 02:13:53.
