data_PCOD8175593
_publ_section_title
;
Structure prediction by ZEFSAII (Michael W. Deem and Ramdas Pophale) SiO2 
 PCOD8175593
Probable space group: C M C 21
;
_chemical_formula_sum "Si O2"
_cell_formula_units_Z 56
_cell_length_a 10.522563
_cell_length_b 14.283927
_cell_length_c 17.625871
_cell_angle_alpha 90.000000
_cell_angle_beta 90.000000
_cell_angle_gamma 90.000000
_cell_volume 2649.230485
_symmetry_space_group_name_H-M "C M C 21"
_symmetry_group_IT_number 36
_symmetry_cell_setting 'orthorhombic'
loop_
_space_group_symop_operation_xyz
x,y,z
-x,-y,1/2+z
x,-y,1/2+z
-x,y,z
1/2+x,1/2+y,z
1/2-x,1/2-y,1/2+z
1/2+x,1/2-y,1/2+z
1/2-x,1/2+y,z
loop_
_atom_site_type_symbol
_atom_site_label
_atom_site_fract_x
_atom_site_fract_y
_atom_site_fract_z
Si Si1 0.642424 0.356295 0.819410
Si Si2 0.644230 0.096380 0.705260
Si Si3 0.641416 0.110716 0.196427
Si Si4 0.355769 0.403623 0.982021
Si Si5 0.141418 0.889279 0.490851
Si Si6 0.357577 0.143703 0.867866
Si Si7 0.250001 0.745876 0.593641
O O1 0.500000 0.388828 0.792548
O O2 0.745939 0.367002 0.754206
O O3 0.688133 0.413897 0.894060
O O4 0.635505 0.249996 0.843628
O O5 0.500000 0.129817 0.703874
O O6 0.688128 0.086091 0.793221
O O7 0.715728 0.179337 0.663153
O O8 0.663347 0.995275 0.665772
O O9 0.500000 0.116779 0.234037
O O10 0.642430 0.183713 0.126151
O O11 0.500000 0.370194 0.983417
O O12 0.336639 0.504730 0.021502
O O13 0.284275 0.320665 0.024130
O O14 0.254056 0.866987 0.433070
O O15 0.142431 0.816285 0.561129
O O16 0.000000 0.883221 0.453243
O O17 0.500000 0.111178 0.894735
#
# Coordination Sequence:
#
# PCOD8175593 Si02
#       7
#     8   8   8   8   8   8   8
#     4  10  20  40  67  88 120 167 203 244 308 375
#     4  10  22  41  61  87 123 163 204 247 307 371
#     4  11  24  40  64  95 122 154 207 264 298 349
#     4  10  22  41  61  87 123 163 204 247 307 371
#     4  11  24  40  64  95 122 154 207 264 298 349
#     4  10  20  40  67  88 120 167 203 244 308 375
#     4  12  22  40  60  88 126 168 198 244 310 372
#
# _framework density 21.138214999999999
#
# number of rings (size 3 to 8) (size 9 to 14) (size 15 to 20)
#    0.000    1.429    2.857    2.571    0.000    1.714 
#    0.000    2.857    0.000    0.000    0.000    0.000 
#    0.000    0.000    0.000    0.000    0.000    0.000 
#
# Total GULP energy -346918.249343 kJ/mol
# GULP energy per Si atom -12389.937477 kJ/mol
# Density = 2.109010 g / cm^3
# Si number density = 21.138215 Si / 1000 Ang^3
#
#
#
# Elastic Constant Matrix: (Units=GPa)
#
#
# Indices 1 2 3 4 5 6 
#
# 1 116.8014 40.4337 52.6430 0.0000 0.0000 0.0000
# 2 40.4337 125.4762 37.8601 0.0000 0.0000 0.0000
# 3 52.6430 37.8601 71.3784 0.0000 0.0000 0.0000
# 4 0.0000 0.0000 0.0000 32.1512 0.0000 0.0000
# 5 0.0000 0.0000 0.0000 0.0000 29.0438 0.0000
# 6 0.0000 0.0000 0.0000 0.0000 0.0000 25.8059
#
#
#
# Elastic Compliance Matrix: (Units=1/GPa)
#
#
# Indices 1 2 3 4 5 6 
#
# 1 0.013073 -0.001552 -0.008819 0.000000 0.000000 0.000000
# 2 -0.001552 0.009672 -0.003986 0.000000 0.000000 0.000000
# 3 -0.008819 -0.003986 0.022628 0.000000 0.000000 0.000000
# 4 0.000000 0.000000 0.000000 0.031103 0.000000 0.000000
# 5 0.000000 0.000000 0.000000 0.000000 0.034431 0.000000
# 6 0.000000 0.000000 0.000000 0.000000 0.000000 0.038751
#
#
# Mechanical properties :
#
#
# Convention : Reuss Voigt Hill
#
# Bulk Modulus (GPa) = 60.02099 63.94774 61.98437
# Shear Modulus (GPa) = 27.18500 29.58146 28.38323
#
# Velocity S-wave (km/s) = 3.59006 3.74495 3.66832
# Velocity P-wave (km/s) = 6.75580 7.00125 6.87962
#
# Compressibility (1/GPa) = 0.01666084
#
# Stress axis : x y z
#
# Youngs Moduli (GPa) = 76.49090 103.38730 44.19309
#
# Poissons Ratio (x) = 0.16045 0.38973
# Poissons Ratio (y) = 0.11871 0.17614
# Poissons Ratio (z) = 0.67456 0.41208
#
# Static dielectric constant tensor:
#      x y z
#    x 3.855210 0.000000 0.000000 
#    y 0.000000 4.086910 0.000000 
#    z 0.000000 0.000000 4.111500 
# 
# 
# High freq. dielectric constant tensor:
#      x y z
#    x 1.818050 0.000000 0.000000 
#    y 0.000000 1.849910 0.000000 
#    z 0.000000 0.000000 1.814700 
# 
# From -- ./inp_files/11597.got.cif
#   From: 2010.03.12/outbox.cif.g09.slc.cpg/sg36_6_cif.got.tgz:11597.got - 2010.04.14 02:13:53.
