data_PCOD8175335
_publ_section_title
;
Structure prediction by ZEFSAII (Michael W. Deem and Ramdas Pophale) SiO2 
 PCOD8175335
Probable space group: C M C 21
;
_chemical_formula_sum "Si O2"
_cell_formula_units_Z 32
_cell_length_a 8.836030
_cell_length_b 15.031948
_cell_length_c 12.777320
_cell_angle_alpha 90.000000
_cell_angle_beta 90.000000
_cell_angle_gamma 90.000000
_cell_volume 1697.118697
_symmetry_space_group_name_H-M "C M C 21"
_symmetry_group_IT_number 36
_symmetry_cell_setting 'orthorhombic'
loop_
_space_group_symop_operation_xyz
x,y,z
-x,-y,1/2+z
x,-y,1/2+z
-x,y,z
1/2+x,1/2+y,z
1/2-x,1/2-y,1/2+z
1/2+x,1/2-y,1/2+z
1/2-x,1/2+y,z
loop_
_atom_site_type_symbol
_atom_site_label
_atom_site_fract_x
_atom_site_fract_y
_atom_site_fract_z
Si Si1 0.178415 0.016239 0.035110
Si Si2 0.829205 0.409610 0.873264
Si Si3 0.820716 0.669273 0.155457
Si Si4 0.671253 0.846107 0.090845
O O1 0.243857 0.112591 0.063510
O O2 0.000000 0.016579 0.046734
O O3 0.251597 0.942510 0.114202
O O4 0.226596 0.992196 0.915120
O O5 0.763438 0.368540 0.766928
O O6 0.000000 0.444677 0.856116
O O7 0.827643 0.333237 0.964080
O O8 0.767368 0.770447 0.147158
O O9 0.000000 0.665143 0.144762
O O10 0.500000 0.845866 0.134630
#
# Coordination Sequence:
#
# PCOD8175335 Si02
#       4
#     8   8   8   8
#     4  10  20  36  56  82 112 142 181 226 270 322
#     4   8  19  38  56  78 111 143 182 228 266 320
#     4  11  20  36  60  82 108 146 182 222 278 322
#     4   9  19  38  56  80 111 141 181 226 268 320
#
# _framework density 18.855485999999999
#
# number of rings (size 3 to 8) (size 9 to 14) (size 15 to 20)
#    1.500    1.000    0.000    3.000    0.000    2.000 
#    4.500    0.000    0.000    0.000    0.000    0.000 
#    0.000    0.000    0.000    0.000    0.000    0.000 
#
# Total GULP energy -198250.390299 kJ/mol
# GULP energy per Si atom -12390.649394 kJ/mol
# Density = 1.881257 g / cm^3
# Si number density = 18.855486 Si / 1000 Ang^3
#
#
#
# Elastic Constant Matrix: (Units=GPa)
#
#
# Indices 1 2 3 4 5 6 
#
# 1 115.7099 18.1453 6.4814 0.0000 0.0000 0.0000
# 2 18.1453 51.9598 -17.2918 0.0000 0.0000 0.0000
# 3 6.4814 -17.2918 25.2918 0.0000 0.0000 0.0000
# 4 0.0000 0.0000 0.0000 24.2609 0.0000 0.0000
# 5 0.0000 0.0000 0.0000 0.0000 21.9126 0.0000
# 6 0.0000 0.0000 0.0000 0.0000 0.0000 36.1612
#
#
#
# Elastic Compliance Matrix: (Units=1/GPa)
#
#
# Indices 1 2 3 4 5 6 
#
# 1 0.009867 -0.005550 -0.006323 0.000000 0.000000 0.000000
# 2 -0.005550 0.028036 0.020590 0.000000 0.000000 0.000000
# 3 -0.006323 0.020590 0.055236 0.000000 0.000000 0.000000
# 4 0.000000 0.000000 0.000000 0.041219 0.000000 0.000000
# 5 0.000000 0.000000 0.000000 0.000000 0.045636 0.000000
# 6 0.000000 0.000000 0.000000 0.000000 0.000000 0.027654
#
#
# Mechanical properties :
#
#
# Convention : Reuss Voigt Hill
#
# Bulk Modulus (GPa) = 9.04373 23.07015 16.05694
# Shear Modulus (GPa) = 22.01959 28.84204 25.43081
#
# Velocity S-wave (km/s) = 3.42103 3.91530 3.67648
# Velocity P-wave (km/s) = 4.51789 5.71850 5.15328
#
# Compressibility (1/GPa) = 0.11057387
#
# Stress axis : x y z
#
# Youngs Moduli (GPa) = 101.35006 35.66837 18.10408
#
# Poissons Ratio (x) = 0.19796 0.11447
# Poissons Ratio (y) = 0.56248 -0.37277
# Poissons Ratio (z) = 0.64083 -0.73442
#
# Static dielectric constant tensor:
#      x y z
#    x 3.356860 0.000000 0.000000 
#    y 0.000000 3.212240 0.000000 
#    z 0.000000 0.000000 3.288870 
# 
# 
# High freq. dielectric constant tensor:
#      x y z
#    x 1.740510 0.000000 0.000000 
#    y 0.000000 1.714000 0.000000 
#    z 0.000000 0.000000 1.708830 
# 
# From -- ./inp_files/6408.got.cif
#   From: 2010.03.12/outbox.cif.g09.slc.cpg/sg36_4_cif.got.tgz:6408.got - 2010.04.14 02:13:53.
