data_PCOD8175863
_publ_section_title
;
Structure prediction by ZEFSAII (Michael W. Deem and Ramdas Pophale) SiO2 
 PCOD8175863
Probable space group: C M C 21
;
_chemical_formula_sum "Si O2"
_cell_formula_units_Z 44
_cell_length_a 10.778312
_cell_length_b 15.387499
_cell_length_c 13.384013
_cell_angle_alpha 90.000000
_cell_angle_beta 90.000000
_cell_angle_gamma 90.000000
_cell_volume 2219.755488
_symmetry_space_group_name_H-M "C M C 21"
_symmetry_group_IT_number 36
_symmetry_cell_setting 'orthorhombic'
loop_
_space_group_symop_operation_xyz
x,y,z
-x,-y,1/2+z
x,-y,1/2+z
-x,y,z
1/2+x,1/2+y,z
1/2-x,1/2-y,1/2+z
1/2+x,1/2-y,1/2+z
1/2-x,1/2+y,z
loop_
_atom_site_type_symbol
_atom_site_label
_atom_site_fract_x
_atom_site_fract_y
_atom_site_fract_z
Si Si1 0.804168 0.008646 0.870690
Si Si2 0.500000 0.149515 0.754853
Si Si3 0.254262 0.875272 0.544949
Si Si4 0.000000 0.705451 0.981394
Si Si5 0.000000 0.172396 0.136674
Si Si6 0.864720 0.486588 0.710393
Si Si7 0.000000 0.093921 0.492616
Si Si8 0.000000 0.020233 0.711925
O O1 0.690663 0.956597 0.818180
O O2 0.881328 0.047021 0.777227
O O3 0.756139 0.089994 0.933082
O O4 0.878024 0.946104 0.943794
O O5 0.500000 0.156349 0.875112
O O6 0.500000 0.244992 0.708637
O O7 0.380489 0.092614 0.716702
O O8 0.376452 0.815290 0.546298
O O9 0.126315 0.824798 0.570730
O O10 0.274198 0.956185 0.621297
O O11 0.000000 0.806955 0.964429
O O12 0.000000 0.084205 0.200082
O O13 0.000000 0.442229 0.696727
O O14 0.000000 0.073245 0.609597
#
# Coordination Sequence:
#
# PCOD8175863 Si02
#       8
#     8   4   8   4   4   8   4   4
#     4  11  20  39  67  92 123 173 226 261 323 403
#     4  10  23  42  65  98 130 177 216 279 332 399
#     4  12  23  43  68  95 132 177 218 278 333 400
#     4  12  25  44  65  98 138 171 222 283 333 393
#     4  12  23  40  67  97 131 168 220 276 332 380
#     4  10  21  39  67  93 125 177 219 268 330 399
#     4  11  24  41  68  97 128 180 221 269 336 396
#     4  11  21  39  61  94 127 170 219 267 327 402
#
# _framework density 19.822002999999999
#
# number of rings (size 3 to 8) (size 9 to 14) (size 15 to 20)
#    0.545    0.364    6.364    1.636    0.000    2.909 
#    0.000    0.000    2.000    0.000    0.000    0.000 
#    0.000    0.000    0.000    0.000    0.000    0.000 
#
# Total GULP energy -272602.366607 kJ/mol
# GULP energy per Si atom -12391.016664 kJ/mol
# Density = 1.977689 g / cm^3
# Si number density = 19.822003 Si / 1000 Ang^3
#
#
#
# Elastic Constant Matrix: (Units=GPa)
#
#
# Indices 1 2 3 4 5 6 
#
# 1 131.4721 24.4478 41.0545 0.0000 0.0000 0.0000
# 2 24.4478 49.5885 12.3613 0.0000 0.0000 0.0000
# 3 41.0545 12.3613 111.0873 0.0000 0.0000 0.0000
# 4 0.0000 0.0000 0.0000 20.3521 0.0000 0.0000
# 5 0.0000 0.0000 0.0000 0.0000 22.8974 0.0000
# 6 0.0000 0.0000 0.0000 0.0000 0.0000 10.7927
#
#
#
# Elastic Compliance Matrix: (Units=1/GPa)
#
#
# Indices 1 2 3 4 5 6 
#
# 1 0.009250 -0.003814 -0.002994 0.000000 0.000000 0.000000
# 2 -0.003814 0.022314 -0.001073 0.000000 0.000000 0.000000
# 3 -0.002994 -0.001073 0.010228 0.000000 0.000000 0.000000
# 4 0.000000 0.000000 0.000000 0.049135 0.000000 0.000000
# 5 0.000000 0.000000 0.000000 0.000000 0.043673 0.000000
# 6 0.000000 0.000000 0.000000 0.000000 0.000000 0.092655
#
#
# Mechanical properties :
#
#
# Convention : Reuss Voigt Hill
#
# Bulk Modulus (GPa) = 38.41912 49.76389 44.09151
# Shear Modulus (GPa) = 19.86527 25.09406 22.47967
#
# Velocity S-wave (km/s) = 3.16916 3.56191 3.37126
# Velocity P-wave (km/s) = 5.72849 6.48661 6.11930
#
# Compressibility (1/GPa) = 0.02602871
#
# Stress axis : x y z
#
# Youngs Moduli (GPa) = 108.10285 44.81497 97.77123
#
# Poissons Ratio (x) = 0.17093 0.29275
# Poissons Ratio (y) = 0.41233 0.10495
# Poissons Ratio (z) = 0.32369 0.04810
#
# Static dielectric constant tensor:
#      x y z
#    x 4.036220 0.000000 0.000000 
#    y 0.000000 3.188680 0.000000 
#    z 0.000000 0.000000 3.636230 
# 
# 
# High freq. dielectric constant tensor:
#      x y z
#    x 1.796060 0.000000 0.000000 
#    y 0.000000 1.731820 0.000000 
#    z 0.000000 0.000000 1.783770 
# 
# From -- ./inp_files/7658.got.cif
#   From: 2010.03.12/outbox.cif.g09.slc.cpg/sg36_4_cif.got.tgz:7658.got - 2010.04.14 02:13:53.
