data_PCOD8175469
_publ_section_title
;
Structure prediction by ZEFSAII (Michael W. Deem and Ramdas Pophale) SiO2 
 PCOD8175469
Probable space group: C M C 21
;
_chemical_formula_sum "Si O2"
_cell_formula_units_Z 36
_cell_length_a 7.693905
_cell_length_b 22.536749
_cell_length_c 11.175462
_cell_angle_alpha 90.000000
_cell_angle_beta 90.000000
_cell_angle_gamma 90.000000
_cell_volume 1937.776004
_symmetry_space_group_name_H-M "C M C 21"
_symmetry_group_IT_number 36
_symmetry_cell_setting 'orthorhombic'
loop_
_space_group_symop_operation_xyz
x,y,z
-x,-y,1/2+z
x,-y,1/2+z
-x,y,z
1/2+x,1/2+y,z
1/2-x,1/2-y,1/2+z
1/2+x,1/2-y,1/2+z
1/2-x,1/2+y,z
loop_
_atom_site_type_symbol
_atom_site_label
_atom_site_fract_x
_atom_site_fract_y
_atom_site_fract_z
Si Si1 0.808071 0.381270 0.791720
Si Si2 0.809584 0.833580 0.552524
Si Si3 0.500000 0.451902 0.887598
Si Si4 0.201255 0.298431 0.007761
Si Si5 0.000000 0.870244 0.113813
Si Si6 0.000000 0.090122 0.881556
O O1 0.813959 0.359567 0.654627
O O2 0.670283 0.433715 0.811852
O O3 0.000000 0.406212 0.822193
O O4 0.763226 0.325146 0.876089
O O5 0.742781 0.770480 0.502881
O O6 0.828037 0.879398 0.440801
O O7 0.000000 0.824421 0.612602
O O8 0.500000 0.521233 0.911277
O O9 0.500000 0.422205 0.016942
O O10 0.325801 0.330891 0.102766
O O11 0.000000 0.307270 0.045593
O O12 0.000000 0.901202 0.240978
#
# Coordination Sequence:
#
# PCOD8175469 Si02
#       6
#     8   8   4   8   4   4
#     4  10  20  37  62  84 115 158 195 238 293 344
#     4   9  20  35  56  88 117 148 189 240 290 342
#     4  10  21  42  61  82 114 159 204 234 290 353
#     4   9  20  36  56  88 121 146 193 241 289 358
#     4  10  22  36  64  84 110 167 186 240 309 331
#     4  10  23  38  63  86 120 154 202 240 285 346
#
# _framework density 18.577998999999998
#
# number of rings (size 3 to 8) (size 9 to 14) (size 15 to 20)
#    0.667    1.778    1.111    0.000    7.778    0.000 
#    0.000    3.333    0.000    0.000    0.000    0.000 
#    0.000    0.000    0.000    0.000    0.000    0.000 
#
# Total GULP energy -223121.946150 kJ/mol
# GULP energy per Si atom -12395.663675 kJ/mol
# Density = 1.853571 g / cm^3
# Si number density = 18.577999 Si / 1000 Ang^3
#
#
#
# Elastic Constant Matrix: (Units=GPa)
#
#
# Indices 1 2 3 4 5 6 
#
# 1 90.0276 45.6270 31.4560 0.0000 0.0000 0.0000
# 2 45.6270 149.5235 40.5538 0.0000 0.0000 0.0000
# 3 31.4560 40.5538 91.3327 0.0000 0.0000 0.0000
# 4 0.0000 0.0000 0.0000 20.4375 0.0000 0.0000
# 5 0.0000 0.0000 0.0000 0.0000 19.9425 0.0000
# 6 0.0000 0.0000 0.0000 0.0000 0.0000 16.6727
#
#
#
# Elastic Compliance Matrix: (Units=1/GPa)
#
#
# Indices 1 2 3 4 5 6 
#
# 1 0.013972 -0.003363 -0.003319 0.000000 0.000000 0.000000
# 2 -0.003363 0.008413 -0.002577 0.000000 0.000000 0.000000
# 3 -0.003319 -0.002577 0.013236 0.000000 0.000000 0.000000
# 4 0.000000 0.000000 0.000000 0.048930 0.000000 0.000000
# 5 0.000000 0.000000 0.000000 0.000000 0.050144 0.000000
# 6 0.000000 0.000000 0.000000 0.000000 0.000000 0.059978
#
#
# Mechanical properties :
#
#
# Convention : Reuss Voigt Hill
#
# Bulk Modulus (GPa) = 58.47000 62.90637 60.68818
# Shear Modulus (GPa) = 22.84218 25.62700 24.23459
#
# Velocity S-wave (km/s) = 3.51027 3.71809 3.61567
# Velocity P-wave (km/s) = 6.92606 7.23647 7.08297
#
# Compressibility (1/GPa) = 0.01710279
#
# Stress axis : x y z
#
# Youngs Moduli (GPa) = 71.57233 118.85992 75.54968
#
# Poissons Ratio (x) = 0.39978 0.25072
# Poissons Ratio (y) = 0.24073 0.19471
# Poissons Ratio (z) = 0.23752 0.30633
#
# Static dielectric constant tensor:
#      x y z
#    x 3.423790 0.000000 0.000000 
#    y 0.000000 3.259850 0.000000 
#    z 0.000000 0.000000 3.193600 
# 
# 
# High freq. dielectric constant tensor:
#      x y z
#    x 1.714880 0.000000 0.000000 
#    y 0.000000 1.710650 0.000000 
#    z 0.000000 0.000000 1.712040 
# 
# From -- ./inp_files/6597.got.cif
#   From: 2010.03.12/outbox.cif.g09.slc.cpg/sg36_4_cif.got.tgz:6597.got - 2010.04.14 02:13:53.
