data_PCOD8175739
_publ_section_title
;
Structure prediction by ZEFSAII (Michael W. Deem and Ramdas Pophale) SiO2 
 PCOD8175739
Probable space group: C M C 21
;
_chemical_formula_sum "Si O2"
_cell_formula_units_Z 40
_cell_length_a 19.925796
_cell_length_b 10.131741
_cell_length_c 10.128979
_cell_angle_alpha 90.000000
_cell_angle_beta 90.000000
_cell_angle_gamma 90.000000
_cell_volume 2044.868711
_symmetry_space_group_name_H-M "C M C 21"
_symmetry_group_IT_number 36
_symmetry_cell_setting 'orthorhombic'
loop_
_space_group_symop_operation_xyz
x,y,z
-x,-y,1/2+z
x,-y,1/2+z
-x,y,z
1/2+x,1/2+y,z
1/2-x,1/2-y,1/2+z
1/2+x,1/2-y,1/2+z
1/2-x,1/2+y,z
loop_
_atom_site_type_symbol
_atom_site_label
_atom_site_fract_x
_atom_site_fract_y
_atom_site_fract_z
Si Si1 0.924363 0.132796 0.674110
Si Si2 0.171411 0.372112 0.719463
Si Si3 0.423663 0.410146 0.876984
Si Si4 0.790868 0.217476 0.364007
Si Si5 0.793790 0.503229 0.468525
O O1 0.880771 0.264484 0.671488
O O2 0.918665 0.058533 0.533191
O O3 0.000000 0.179850 0.698930
O O4 0.901634 0.038120 0.793191
O O5 0.246225 0.306631 0.732001
O O6 0.152548 0.437150 0.861600
O O7 0.173484 0.491419 0.613059
O O8 0.500000 0.366601 0.839439
O O9 0.370925 0.294484 0.837847
O O10 0.771147 0.357623 0.424061
O O11 0.770778 0.101007 0.469903
#
# Coordination Sequence:
#
# PCOD8175739 Si02
#       5
#     8   8   8   8   8
#     4  10  21  42  63  91 129 164 212 261 318 380
#     4  10  23  39  57  91 119 169 200 262 309 369
#     4  10  21  37  64  92 124 166 206 259 317 373
#     4  10  22  36  61  89 123 160 201 262 297 381
#     4  10  23  36  61  87 125 155 213 244 319 357
#
# _framework density 19.561157000000001
#
# number of rings (size 3 to 8) (size 9 to 14) (size 15 to 20)
#    1.200    0.800    2.000    1.200    5.600    0.000 
#    3.600    2.000    0.000    0.000    0.000    0.000 
#    0.000    0.000    0.000    0.000    0.000    0.000 
#
# Total GULP energy -247773.385685 kJ/mol
# GULP energy per Si atom -12388.669284 kJ/mol
# Density = 1.951663 g / cm^3
# Si number density = 19.561157 Si / 1000 Ang^3
#
#
#
# Elastic Constant Matrix: (Units=GPa)
#
#
# Indices 1 2 3 4 5 6 
#
# 1 67.9842 22.0462 15.2882 0.0000 0.0000 0.0000
# 2 22.0462 75.2321 3.1786 0.0000 0.0000 0.0000
# 3 15.2882 3.1786 91.1736 0.0000 0.0000 0.0000
# 4 0.0000 0.0000 0.0000 35.1972 0.0000 0.0000
# 5 0.0000 0.0000 0.0000 0.0000 21.7671 0.0000
# 6 0.0000 0.0000 0.0000 0.0000 0.0000 22.6788
#
#
#
# Elastic Compliance Matrix: (Units=1/GPa)
#
#
# Indices 1 2 3 4 5 6 
#
# 1 0.016875 -0.004833 -0.002661 0.000000 0.000000 0.000000
# 2 -0.004833 0.014696 0.000298 0.000000 0.000000 0.000000
# 3 -0.002661 0.000298 0.011404 0.000000 0.000000 0.000000
# 4 0.000000 0.000000 0.000000 0.028411 0.000000 0.000000
# 5 0.000000 0.000000 0.000000 0.000000 0.045941 0.000000
# 6 0.000000 0.000000 0.000000 0.000000 0.000000 0.044094
#
#
# Mechanical properties :
#
#
# Convention : Reuss Voigt Hill
#
# Bulk Modulus (GPa) = 34.98577 35.04622 35.01599
# Shear Modulus (GPa) = 26.97744 28.85374 27.91559
#
# Velocity S-wave (km/s) = 3.71770 3.84481 3.78179
# Velocity P-wave (km/s) = 6.02930 6.13720 6.08349
#
# Compressibility (1/GPa) = 0.02858305
#
# Stress axis : x y z
#
# Youngs Moduli (GPa) = 59.25965 68.04674 87.68907
#
# Poissons Ratio (x) = 0.32885 0.23335
# Poissons Ratio (y) = 0.28638 -0.02613
# Poissons Ratio (z) = 0.15770 -0.02028
#
# Static dielectric constant tensor:
#      x y z
#    x 3.461280 0.000000 0.000000 
#    y 0.000000 3.352810 0.000000 
#    z 0.000000 0.000000 3.709260 
# 
# 
# High freq. dielectric constant tensor:
#      x y z
#    x 1.742990 0.000000 0.000000 
#    y 0.000000 1.746110 0.000000 
#    z 0.000000 0.000000 1.767710 
# 
# From -- ./inp_files/5089.got.cif
#   From: 2010.03.12/outbox.cif.g09.slc.cpg/sg36_3_cif.got.tgz:5089.got - 2010.04.14 02:13:53.
