data_PCOD8175837
_publ_section_title
;
Structure prediction by ZEFSAII (Michael W. Deem and Ramdas Pophale) SiO2 
 PCOD8175837
Probable space group: C M C 21
;
_chemical_formula_sum "Si O2"
_cell_formula_units_Z 48
_cell_length_a 8.946339
_cell_length_b 17.357281
_cell_length_c 14.944857
_cell_angle_alpha 90.000000
_cell_angle_beta 90.000000
_cell_angle_gamma 90.000000
_cell_volume 2320.698967
_symmetry_space_group_name_H-M "C M C 21"
_symmetry_group_IT_number 36
_symmetry_cell_setting 'orthorhombic'
loop_
_space_group_symop_operation_xyz
x,y,z
-x,-y,1/2+z
x,-y,1/2+z
-x,y,z
1/2+x,1/2+y,z
1/2-x,1/2-y,1/2+z
1/2+x,1/2-y,1/2+z
1/2-x,1/2+y,z
loop_
_atom_site_type_symbol
_atom_site_label
_atom_site_fract_x
_atom_site_fract_y
_atom_site_fract_z
Si Si1 0.826808 0.044871 0.166500
Si Si2 0.828490 0.202455 0.789617
Si Si3 0.830030 0.698806 0.118185
Si Si4 0.326520 0.535601 0.484343
Si Si5 0.825976 0.208814 0.441982
Si Si6 0.823605 0.458076 0.323083
O O1 0.783589 0.130445 0.137538
O O2 0.000000 0.043743 0.192852
O O3 0.734456 0.021448 0.253562
O O4 0.792085 0.985442 0.086863
O O5 0.810176 0.232980 0.689293
O O6 0.732225 0.126011 0.797429
O O7 0.000000 0.182917 0.811557
O O8 0.770808 0.268104 0.856529
O O9 0.789293 0.732628 0.021688
O O10 0.000000 0.667528 0.120297
O O11 0.500000 0.522888 0.461724
O O12 0.277022 0.623409 0.470324
O O13 0.231225 0.479263 0.422007
O O14 0.000000 0.211514 0.416559
O O15 0.000000 0.457814 0.322174
#
# Coordination Sequence:
#
# PCOD8175837 Si02
#       6
#     8   8   8   8   8   8
#     4  11  23  40  63  90 121 158 199 244 296 353
#     4  11  23  40  61  86 118 156 199 245 295 352
#     4  10  22  40  61  87 120 156 195 242 296 353
#     4  10  22  41  64  90 121 158 199 244 296 353
#     4  10  21  39  62  88 119 154 194 242 295 351
#     4  12  25  40  61  89 121 158 200 247 298 352
#
# _framework density 20.683423000000001
#
# number of rings (size 3 to 8) (size 9 to 14) (size 15 to 20)
#    0.000    1.333    0.000    5.500    0.000   12.000 
#    0.000    1.667    0.000    0.000    0.000    0.000 
#    0.000    0.000    0.000    0.000    0.000    0.000 
#
# Total GULP energy -297796.617183 kJ/mol
# GULP energy per Si atom -12408.192383 kJ/mol
# Density = 2.063635 g / cm^3
# Si number density = 20.683423 Si / 1000 Ang^3
#
#
#
# Elastic Constant Matrix: (Units=GPa)
#
#
# Indices 1 2 3 4 5 6 
#
# 1 96.4920 21.2349 27.3810 0.0000 0.0000 0.0000
# 2 21.2349 74.3896 -9.0699 0.0000 0.0000 0.0000
# 3 27.3810 -9.0699 57.2065 0.0000 0.0000 0.0000
# 4 0.0000 0.0000 0.0000 35.2973 0.0000 0.0000
# 5 0.0000 0.0000 0.0000 0.0000 26.7338 0.0000
# 6 0.0000 0.0000 0.0000 0.0000 0.0000 32.2950
#
#
#
# Elastic Compliance Matrix: (Units=1/GPa)
#
#
# Indices 1 2 3 4 5 6 
#
# 1 0.013437 -0.004711 -0.007178 0.000000 0.000000 0.000000
# 2 -0.004711 0.015359 0.004690 0.000000 0.000000 0.000000
# 3 -0.007178 0.004690 0.021660 0.000000 0.000000 0.000000
# 4 0.000000 0.000000 0.000000 0.028331 0.000000 0.000000
# 5 0.000000 0.000000 0.000000 0.000000 0.037406 0.000000
# 6 0.000000 0.000000 0.000000 0.000000 0.000000 0.030965
#
#
# Mechanical properties :
#
#
# Convention : Reuss Voigt Hill
#
# Bulk Modulus (GPa) = 27.73329 34.13112 30.93221
# Shear Modulus (GPa) = 28.80586 31.43470 30.12028
#
# Velocity S-wave (km/s) = 3.73594 3.90269 3.82023
# Velocity P-wave (km/s) = 5.66103 6.07005 5.86910
#
# Compressibility (1/GPa) = 0.03605774
#
# Stress axis : x y z
#
# Youngs Moduli (GPa) = 74.41975 65.10699 46.16809
#
# Poissons Ratio (x) = 0.30672 0.33142
# Poissons Ratio (y) = 0.35059 -0.21653
# Poissons Ratio (z) = 0.53422 -0.30535
#
# Static dielectric constant tensor:
#      x y z
#    x 3.735810 0.000000 0.000000 
#    y 0.000000 3.770780 0.000000 
#    z 0.000000 0.000000 3.927760 
# 
# 
# High freq. dielectric constant tensor:
#      x y z
#    x 1.807090 0.000000 0.000000 
#    y 0.000000 1.821120 0.000000 
#    z 0.000000 0.000000 1.823680 
# 
# From -- ./inp_files/10356.got.cif
#   From: 2010.03.12/outbox.cif.g09.slc.cpg/sg36_6_cif.got.tgz:10356.got - 2010.04.14 02:13:53.
