data_PCOD8175724
_publ_section_title
;
Structure prediction by ZEFSAII (Michael W. Deem and Ramdas Pophale) SiO2 
 PCOD8175724
Probable space group: C M C 21
;
_chemical_formula_sum "Si O2"
_cell_formula_units_Z 64
_cell_length_a 8.648709
_cell_length_b 24.824358
_cell_length_c 14.301354
_cell_angle_alpha 90.000000
_cell_angle_beta 90.000000
_cell_angle_gamma 90.000000
_cell_volume 3070.481375
_symmetry_space_group_name_H-M "C M C 21"
_symmetry_group_IT_number 36
_symmetry_cell_setting 'orthorhombic'
loop_
_space_group_symop_operation_xyz
x,y,z
-x,-y,1/2+z
x,-y,1/2+z
-x,y,z
1/2+x,1/2+y,z
1/2-x,1/2-y,1/2+z
1/2+x,1/2-y,1/2+z
1/2-x,1/2+y,z
loop_
_atom_site_type_symbol
_atom_site_label
_atom_site_fract_x
_atom_site_fract_y
_atom_site_fract_z
Si Si1 0.679233 0.165792 0.364160
Si Si2 0.319057 0.294073 0.548417
Si Si3 0.181919 0.589753 0.070042
Si Si4 0.825389 0.860425 0.248312
Si Si5 0.676094 0.682976 0.556807
Si Si6 0.679787 0.054249 0.272287
Si Si7 0.180262 0.956394 0.379972
Si Si8 0.675874 0.226804 0.854862
O O1 0.500000 0.179068 0.351348
O O2 0.717416 0.161033 0.473868
O O3 0.726538 0.112456 0.310298
O O4 0.779896 0.213742 0.318955
O O5 0.500000 0.290458 0.570393
O O6 0.257146 0.351502 0.584614
O O7 0.233620 0.241950 0.593593
O O8 0.289590 0.291373 0.437679
O O9 0.222702 0.553289 0.161567
O O10 0.000000 0.598987 0.062934
O O11 0.236352 0.558388 0.977134
O O12 0.815296 0.863221 0.136073
O O13 0.772935 0.915110 0.297825
O O14 0.702779 0.814420 0.271941
O O15 0.000000 0.845115 0.279121
O O16 0.500000 0.689868 0.521517
O O17 0.500000 0.041652 0.287249
O O18 0.774241 0.013506 0.337079
O O19 0.000000 0.955515 0.402330
O O20 0.500000 0.224746 0.889183
#
# Coordination Sequence:
#
# PCOD8175724 Si02
#       8
#     8   8   8   8   8   8   8   8
#     4  10  21  40  61  86 124 165 204 257 317 370
#     4  11  21  36  58  89 127 164 207 258 314 370
#     4  11  23  42  66  93 123 164 212 259 314 374
#     4  10  22  39  59  87 125 166 206 255 313 373
#     4  10  21  37  59  89 127 170 210 255 315 379
#     4  10  25  45  66  92 124 167 213 260 316 377
#     4  11  24  43  67  94 126 166 211 265 320 371
#     4  11  21  34  58  90 122 162 205 253 311 372
#
# _framework density 20.843637000000001
#
# number of rings (size 3 to 8) (size 9 to 14) (size 15 to 20)
#    0.000    1.500    1.250    5.250    1.750    4.500 
#    0.000    2.500    0.000    0.000    0.000    0.000 
#    0.000    0.000    0.000    0.000    0.000    0.000 
#
# Total GULP energy -396709.310877 kJ/mol
# GULP energy per Si atom -12397.165965 kJ/mol
# Density = 2.079620 g / cm^3
# Si number density = 20.843637 Si / 1000 Ang^3
#
#
#
# Elastic Constant Matrix: (Units=GPa)
#
#
# Indices 1 2 3 4 5 6 
#
# 1 82.0859 37.4484 23.4612 0.0000 0.0000 0.0000
# 2 37.4484 71.9949 39.0949 0.0000 0.0000 0.0000
# 3 23.4612 39.0949 66.9599 0.0000 0.0000 0.0000
# 4 0.0000 0.0000 0.0000 32.3634 0.0000 0.0000
# 5 0.0000 0.0000 0.0000 0.0000 28.5866 0.0000
# 6 0.0000 0.0000 0.0000 0.0000 0.0000 31.4740
#
#
#
# Elastic Compliance Matrix: (Units=1/GPa)
#
#
# Indices 1 2 3 4 5 6 
#
# 1 0.016027 -0.007742 -0.001096 0.000000 0.000000 0.000000
# 2 -0.007742 0.024078 -0.011345 0.000000 0.000000 0.000000
# 3 -0.001096 -0.011345 0.021942 0.000000 0.000000 0.000000
# 4 0.000000 0.000000 0.000000 0.030899 0.000000 0.000000
# 5 0.000000 0.000000 0.000000 0.000000 0.034981 0.000000
# 6 0.000000 0.000000 0.000000 0.000000 0.000000 0.031772
#
#
# Mechanical properties :
#
#
# Convention : Reuss Voigt Hill
#
# Bulk Modulus (GPa) = 46.12145 46.78330 46.45238
# Shear Modulus (GPa) = 24.12054 26.55388 25.33721
#
# Velocity S-wave (km/s) = 3.40547 3.57312 3.49031
# Velocity P-wave (km/s) = 6.13501 6.28622 6.21108
#
# Compressibility (1/GPa) = 0.02168189
#
# Stress axis : x y z
#
# Youngs Moduli (GPa) = 62.39337 41.53253 45.57440
#
# Poissons Ratio (x) = 0.32153 0.04993
# Poissons Ratio (y) = 0.48303 0.51705
# Poissons Ratio (z) = 0.06836 0.47120
#
# Static dielectric constant tensor:
#      x y z
#    x 3.744620 0.000000 0.000000 
#    y 0.000000 3.757180 0.000000 
#    z 0.000000 0.000000 3.753450 
# 
# 
# High freq. dielectric constant tensor:
#      x y z
#    x 1.821550 0.000000 0.000000 
#    y 0.000000 1.807740 0.000000 
#    z 0.000000 0.000000 1.819020 
# 
# From -- ./inp_files/11040.got.cif
#   From: 2010.03.12/outbox.cif.g09.slc.cpg/sg36_6_cif.got.tgz:11040.got - 2010.04.14 02:13:53.
