data_PCOD8175003
_publ_section_title
;
Structure prediction by ZEFSAII (Michael W. Deem and Ramdas Pophale) SiO2 
 PCOD8175003
Probable space group: C M C 21
;
_chemical_formula_sum "Si O2"
_cell_formula_units_Z 64
_cell_length_a 9.011070
_cell_length_b 23.873441
_cell_length_c 15.222323
_cell_angle_alpha 90.000000
_cell_angle_beta 90.000000
_cell_angle_gamma 90.000000
_cell_volume 3274.706010
_symmetry_space_group_name_H-M "C M C 21"
_symmetry_group_IT_number 36
_symmetry_cell_setting 'orthorhombic'
loop_
_space_group_symop_operation_xyz
x,y,z
-x,-y,1/2+z
x,-y,1/2+z
-x,y,z
1/2+x,1/2+y,z
1/2-x,1/2-y,1/2+z
1/2+x,1/2-y,1/2+z
1/2-x,1/2+y,z
loop_
_atom_site_type_symbol
_atom_site_label
_atom_site_fract_x
_atom_site_fract_y
_atom_site_fract_z
Si Si1 0.324017 0.745052 0.489130
Si Si2 0.177338 0.744551 0.790672
Si Si3 0.669776 0.012326 0.805706
Si Si4 0.174786 0.943760 0.654701
Si Si5 0.333065 0.372701 0.050605
Si Si6 0.677377 0.823182 0.649403
Si Si7 0.331333 0.873338 0.220644
Si Si8 0.166766 0.010133 0.478581
O O1 0.500000 0.744122 0.486848
O O2 0.265256 0.756716 0.391188
O O3 0.258711 0.684043 0.514321
O O4 0.269977 0.790605 0.560863
O O5 0.255476 0.793664 0.735761
O O6 0.234568 0.685346 0.753619
O O7 0.000000 0.752391 0.785353
O O8 0.500000 0.993187 0.792166
O O9 0.771563 0.975224 0.742277
O O10 0.715279 0.006779 0.906316
O O11 0.688720 0.078592 0.792326
O O12 0.260394 0.885597 0.643366
O O13 0.000000 0.932379 0.663863
O O14 0.212281 0.982469 0.571099
O O15 0.500000 0.358909 0.078741
O O16 0.250968 0.395338 0.135483
O O17 0.326468 0.422426 0.980503
O O18 0.500000 0.824345 0.657274
O O19 0.500000 0.863674 0.194735
O O20 0.000000 0.990967 0.453008
#
# Coordination Sequence:
#
# PCOD8175003 Si02
#       8
#     8   8   8   8   8   8   8   8
#     4   9  20  37  61  87 117 158 197 238 296 358
#     4  10  21  39  61  87 119 161 201 237 294 365
#     4  11  24  40  62  92 123 159 203 254 308 357
#     4  11  24  43  63  86 122 166 206 248 302 367
#     4  10  19  38  63  86 114 154 202 249 297 353
#     4  11  23  40  62  90 122 156 199 252 305 356
#     4  10  21  37  60  88 119 154 198 250 301 350
#     4  10  23  40  62  90 120 160 206 250 303 362
#
# _framework density 19.54374
#
# number of rings (size 3 to 8) (size 9 to 14) (size 15 to 20)
#    0.000    1.750    2.500    1.125    3.500    2.000 
#    0.000    1.875    0.000    0.000    0.000    0.000 
#    0.000    0.000    0.000    0.000    0.000    0.000 
#
# Total GULP energy -396784.640061 kJ/mol
# GULP energy per Si atom -12399.520002 kJ/mol
# Density = 1.949926 g / cm^3
# Si number density = 19.543740 Si / 1000 Ang^3
#
#
#
# Elastic Constant Matrix: (Units=GPa)
#
#
# Indices 1 2 3 4 5 6 
#
# 1 55.5004 38.7881 34.2711 0.0000 0.0000 0.0000
# 2 38.7881 112.1508 27.8842 0.0000 0.0000 0.0000
# 3 34.2711 27.8842 108.2213 0.0000 0.0000 0.0000
# 4 0.0000 0.0000 0.0000 27.8583 0.0000 0.0000
# 5 0.0000 0.0000 0.0000 0.0000 31.7927 0.0000
# 6 0.0000 0.0000 0.0000 0.0000 0.0000 23.8115
#
#
#
# Elastic Compliance Matrix: (Units=1/GPa)
#
#
# Indices 1 2 3 4 5 6 
#
# 1 0.027703 -0.007907 -0.006736 0.000000 0.000000 0.000000
# 2 -0.007907 0.011783 -0.000532 0.000000 0.000000 0.000000
# 3 -0.006736 -0.000532 0.011510 0.000000 0.000000 0.000000
# 4 0.000000 0.000000 0.000000 0.035896 0.000000 0.000000
# 5 0.000000 0.000000 0.000000 0.000000 0.031454 0.000000
# 6 0.000000 0.000000 0.000000 0.000000 0.000000 0.041997
#
#
# Mechanical properties :
#
#
# Convention : Reuss Voigt Hill
#
# Bulk Modulus (GPa) = 48.43125 53.08437 50.75781
# Shear Modulus (GPa) = 25.30691 28.35444 26.83067
#
# Velocity S-wave (km/s) = 3.60236 3.81309 3.70922
# Velocity P-wave (km/s) = 6.49133 6.82694 6.66125
#
# Compressibility (1/GPa) = 0.02064782
#
# Stress axis : x y z
#
# Youngs Moduli (GPa) = 36.09746 84.86489 86.87730
#
# Poissons Ratio (x) = 0.67099 0.58517
# Poissons Ratio (y) = 0.28540 0.04625
# Poissons Ratio (z) = 0.24314 0.04517
#
# Static dielectric constant tensor:
#      x y z
#    x 3.432650 0.000000 0.000000 
#    y 0.000000 3.715510 0.000000 
#    z 0.000000 0.000000 3.597400 
# 
# 
# High freq. dielectric constant tensor:
#      x y z
#    x 1.747290 0.000000 0.000000 
#    y 0.000000 1.776300 0.000000 
#    z 0.000000 0.000000 1.764490 
# 
# From -- ./inp_files/10908.got.cif
#   From: 2010.03.12/outbox.cif.g09.slc.cpg/sg36_6_cif.got.tgz:10908.got - 2010.04.14 02:13:53.
