data_PCOD8175190
_publ_section_title
;
Structure prediction by ZEFSAII (Michael W. Deem and Ramdas Pophale) SiO2 
 PCOD8175190
Probable space group: C M C 21
;
_chemical_formula_sum "Si O2"
_cell_formula_units_Z 64
_cell_length_a 19.464339
_cell_length_b 18.390208
_cell_length_c 9.893217
_cell_angle_alpha 90.000000
_cell_angle_beta 90.000000
_cell_angle_gamma 90.000000
_cell_volume 3541.309107
_symmetry_space_group_name_H-M "C M C 21"
_symmetry_group_IT_number 36
_symmetry_cell_setting 'orthorhombic'
loop_
_space_group_symop_operation_xyz
x,y,z
-x,-y,1/2+z
x,-y,1/2+z
-x,y,z
1/2+x,1/2+y,z
1/2-x,1/2-y,1/2+z
1/2+x,1/2-y,1/2+z
1/2-x,1/2+y,z
loop_
_atom_site_type_symbol
_atom_site_label
_atom_site_fract_x
_atom_site_fract_y
_atom_site_fract_z
Si Si1 0.862413 0.338492 0.474470
Si Si2 0.664834 0.790754 0.757597
Si Si3 0.244632 0.002474 0.300581
Si Si4 0.422322 0.758256 0.239067
Si Si5 0.419205 0.859645 0.992687
Si Si6 0.838847 0.499421 0.046257
Si Si7 0.812448 0.857652 0.700142
Si Si8 0.789479 0.850605 0.391743
O O1 0.871332 0.292001 0.611498
O O2 0.918968 0.311447 0.368436
O O3 0.872329 0.423706 0.505348
O O4 0.788519 0.323314 0.406796
O O5 0.621430 0.841560 0.856880
O O6 0.741082 0.821556 0.742926
O O7 0.666009 0.708603 0.811738
O O8 0.276278 0.020678 0.446881
O O9 0.186526 0.061491 0.262990
O O10 0.307691 0.004565 0.195599
O O11 0.207700 0.924209 0.303786
O O12 0.500000 0.731339 0.221458
O O13 0.375073 0.687871 0.261713
O O14 0.397457 0.801762 0.106725
O O15 0.500000 0.858241 0.964153
O O16 0.398421 0.939570 0.043752
O O17 0.821464 0.863708 0.539221
#
# Coordination Sequence:
#
# PCOD8175190 Si02
#       8
#     8   8   8   8   8   8   8   8
#     4  10  21  36  54  87 121 153 190 241 291 333
#     4  11  20  36  62  86 110 155 200 247 282 335
#     4  11  20  34  57  88 117 146 187 245 300 334
#     4  11  24  39  58  82 117 159 197 242 297 357
#     4  11  23  37  57  83 117 164 198 230 288 356
#     4  11  20  35  53  86 124 150 192 238 279 351
#     4  11  20  37  60  89 116 146 195 248 299 335
#     4  10  20  34  57  91 118 141 189 251 292 343
#
# _framework density 18.072412
#
# number of rings (size 3 to 8) (size 9 to 14) (size 15 to 20)
#    0.000    1.250    7.500    1.500    0.000    2.000 
#    0.000    3.125    0.000    1.500    0.000    0.000 
#    0.000    0.000    0.000    0.000    0.000    0.000 
#
# Total GULP energy -396901.656479 kJ/mol
# GULP energy per Si atom -12403.176765 kJ/mol
# Density = 1.803128 g / cm^3
# Si number density = 18.072412 Si / 1000 Ang^3
#
#
#
# Elastic Constant Matrix: (Units=GPa)
#
#
# Indices 1 2 3 4 5 6 
#
# 1 60.1425 34.2126 29.3959 0.0000 0.0000 0.0000
# 2 34.2126 111.6462 41.5139 0.0000 0.0000 0.0000
# 3 29.3959 41.5139 92.7086 0.0000 0.0000 0.0000
# 4 0.0000 0.0000 0.0000 36.0254 0.0000 0.0000
# 5 0.0000 0.0000 0.0000 0.0000 15.9029 0.0000
# 6 0.0000 0.0000 0.0000 0.0000 0.0000 26.5395
#
#
#
# Elastic Compliance Matrix: (Units=1/GPa)
#
#
# Indices 1 2 3 4 5 6 
#
# 1 0.021711 -0.004911 -0.004685 0.000000 0.000000 0.000000
# 2 -0.004911 0.011857 -0.003752 0.000000 0.000000 0.000000
# 3 -0.004685 -0.003752 0.013952 0.000000 0.000000 0.000000
# 4 0.000000 0.000000 0.000000 0.027758 0.000000 0.000000
# 5 0.000000 0.000000 0.000000 0.000000 0.062881 0.000000
# 6 0.000000 0.000000 0.000000 0.000000 0.000000 0.037680
#
#
# Mechanical properties :
#
#
# Convention : Reuss Voigt Hill
#
# Bulk Modulus (GPa) = 48.02251 52.74913 50.38582
# Shear Modulus (GPa) = 23.86902 26.31858 25.09380
#
# Velocity S-wave (km/s) = 3.63815 3.82027 3.73032
# Velocity P-wave (km/s) = 6.65418 6.97928 6.81867
#
# Compressibility (1/GPa) = 0.02082357
#
# Stress axis : x y z
#
# Youngs Moduli (GPa) = 46.06033 84.33842 71.67335
#
# Poissons Ratio (x) = 0.41418 0.33578
# Poissons Ratio (y) = 0.22620 0.26894
# Poissons Ratio (z) = 0.21579 0.31646
#
# Static dielectric constant tensor:
#      x y z
#    x 2.953620 0.000000 0.000000 
#    y 0.000000 3.467660 0.000000 
#    z 0.000000 0.000000 3.515540 
# 
# 
# High freq. dielectric constant tensor:
#      x y z
#    x 1.657680 0.000000 0.000000 
#    y 0.000000 1.704170 0.000000 
#    z 0.000000 0.000000 1.715760 
# 
# From -- ./inp_files/5330.got.cif
#   From: 2010.03.12/outbox.cif.g09.slc.cpg/sg36_3_cif.got.tgz:5330.got - 2010.04.14 02:13:53.
