data_PCOD8175444
_publ_section_title
;
Structure prediction by ZEFSAII (Michael W. Deem and Ramdas Pophale) SiO2 
 PCOD8175444
Probable space group: C M C 21
;
_chemical_formula_sum "Si O2"
_cell_formula_units_Z 64
_cell_length_a 8.893858
_cell_length_b 23.776774
_cell_length_c 14.513901
_cell_angle_alpha 90.000000
_cell_angle_beta 90.000000
_cell_angle_gamma 90.000000
_cell_volume 3069.214755
_symmetry_space_group_name_H-M "C M C 21"
_symmetry_group_IT_number 36
_symmetry_cell_setting 'orthorhombic'
loop_
_space_group_symop_operation_xyz
x,y,z
-x,-y,1/2+z
x,-y,1/2+z
-x,y,z
1/2+x,1/2+y,z
1/2-x,1/2-y,1/2+z
1/2+x,1/2-y,1/2+z
1/2-x,1/2+y,z
loop_
_atom_site_type_symbol
_atom_site_label
_atom_site_fract_x
_atom_site_fract_y
_atom_site_fract_z
Si Si1 0.677096 0.501122 0.654980
Si Si2 0.823159 0.706154 0.043273
Si Si3 0.831699 0.664119 0.745589
Si Si4 0.674642 0.954357 0.324796
Si Si5 0.324729 0.920275 0.523318
Si Si6 0.676107 0.223960 0.248926
Si Si7 0.678158 0.687905 0.426586
Si Si8 0.829862 0.393674 0.058935
O O1 0.500000 0.507435 0.651234
O O2 0.730232 0.502368 0.762140
O O3 0.728099 0.442449 0.609379
O O4 0.752439 0.550367 0.596125
O O5 0.780852 0.644748 0.002938
O O6 0.759549 0.710198 0.147375
O O7 0.758458 0.755767 0.978035
O O8 0.000000 0.715081 0.048685
O O9 0.778672 0.608354 0.796954
O O10 0.712975 0.711450 0.772603
O O11 0.830149 0.654368 0.636431
O O12 0.000000 0.681784 0.778634
O O13 0.500000 0.964834 0.302647
O O14 0.709928 0.959148 0.433564
O O15 0.500000 0.923781 0.549373
O O16 0.500000 0.212741 0.257506
O O17 0.761826 0.185288 0.322407
O O18 0.500000 0.686126 0.427432
O O19 0.739096 0.631129 0.473232
O O20 0.000000 0.408952 0.029245
#
# Coordination Sequence:
#
# PCOD8175444 Si02
#       8
#     8   8   8   8   8   8   8   8
#     4  11  23  39  60  88 121 153 192 248 305 355
#     4   9  20  38  60  85 119 157 196 240 292 351
#     4   9  17  32  56  84 114 146 189 242 287 336
#     4   9  19  37  63  90 113 150 204 250 296 353
#     4  10  20  40  65  86 114 158 206 248 293 352
#     4  11  21  34  53  84 120 158 198 233 287 360
#     4  11  21  37  59  87 120 156 195 243 298 348
#     4  10  20  37  60  84 111 148 196 242 290 351
#
# _framework density 20.852239000000001
#
# number of rings (size 3 to 8) (size 9 to 14) (size 15 to 20)
#    0.000    2.000    1.250    3.750    0.000    4.500 
#    2.250    3.750    0.000    0.000    0.000    0.000 
#    0.000    0.000    0.000    0.000    0.000    0.000 
#
# Total GULP energy -396793.237987 kJ/mol
# GULP energy per Si atom -12399.788687 kJ/mol
# Density = 2.080478 g / cm^3
# Si number density = 20.852239 Si / 1000 Ang^3
#
#
#
# Elastic Constant Matrix: (Units=GPa)
#
#
# Indices 1 2 3 4 5 6 
#
# 1 87.5724 13.5131 23.9679 0.0000 0.0000 0.0000
# 2 13.5131 33.4436 0.7089 0.0000 0.0000 0.0000
# 3 23.9679 0.7089 89.6095 0.0000 0.0000 0.0000
# 4 0.0000 0.0000 0.0000 28.1289 0.0000 0.0000
# 5 0.0000 0.0000 0.0000 0.0000 27.4245 0.0000
# 6 0.0000 0.0000 0.0000 0.0000 0.0000 28.8194
#
#
#
# Elastic Compliance Matrix: (Units=1/GPa)
#
#
# Indices 1 2 3 4 5 6 
#
# 1 0.013183 -0.005253 -0.003485 0.000000 0.000000 0.000000
# 2 -0.005253 0.031999 0.001152 0.000000 0.000000 0.000000
# 3 -0.003485 0.001152 0.012082 0.000000 0.000000 0.000000
# 4 0.000000 0.000000 0.000000 0.035551 0.000000 0.000000
# 5 0.000000 0.000000 0.000000 0.000000 0.036464 0.000000
# 6 0.000000 0.000000 0.000000 0.000000 0.000000 0.034699
#
#
# Mechanical properties :
#
#
# Convention : Reuss Voigt Hill
#
# Bulk Modulus (GPa) = 23.75660 31.88949 27.82305
# Shear Modulus (GPa) = 25.88248 28.37027 27.12637
#
# Velocity S-wave (km/s) = 3.52694 3.69255 3.61069
# Velocity P-wave (km/s) = 5.29181 5.78845 5.54569
#
# Compressibility (1/GPa) = 0.04209356
#
# Stress axis : x y z
#
# Youngs Moduli (GPa) = 75.85295 31.25081 82.76472
#
# Poissons Ratio (x) = 0.16416 0.28840
# Poissons Ratio (y) = 0.39845 -0.09533
# Poissons Ratio (z) = 0.26432 -0.03600
#
# Static dielectric constant tensor:
#      x y z
#    x 3.535270 0.000000 0.000000 
#    y 0.000000 3.572050 0.000000 
#    z 0.000000 0.000000 3.982520 
# 
# 
# High freq. dielectric constant tensor:
#      x y z
#    x 1.794350 0.000000 0.000000 
#    y 0.000000 1.801010 0.000000 
#    z 0.000000 0.000000 1.823750 
# 
# From -- ./inp_files/11113.got.cif
#   From: 2010.03.12/outbox.cif.g09.slc.cpg/sg36_6_cif.got.tgz:11113.got - 2010.04.14 02:13:53.
