data_PCOD8175212
_publ_section_title
;
Structure prediction by ZEFSAII (Michael W. Deem and Ramdas Pophale) SiO2 
 PCOD8175212
Probable space group: C M C 21
;
_chemical_formula_sum "Si O2"
_cell_formula_units_Z 64
_cell_length_a 13.392268
_cell_length_b 13.359646
_cell_length_c 19.047471
_cell_angle_alpha 90.000000
_cell_angle_beta 90.000000
_cell_angle_gamma 90.000000
_cell_volume 3407.896552
_symmetry_space_group_name_H-M "C M C 21"
_symmetry_group_IT_number 36
_symmetry_cell_setting 'orthorhombic'
loop_
_space_group_symop_operation_xyz
x,y,z
-x,-y,1/2+z
x,-y,1/2+z
-x,y,z
1/2+x,1/2+y,z
1/2-x,1/2-y,1/2+z
1/2+x,1/2-y,1/2+z
1/2-x,1/2+y,z
loop_
_atom_site_type_symbol
_atom_site_label
_atom_site_fract_x
_atom_site_fract_y
_atom_site_fract_z
Si Si1 0.614454 0.859037 0.556460
Si Si2 0.698068 0.956284 0.426365
Si Si3 0.698068 0.043716 0.632123
Si Si4 0.118563 0.499095 0.279244
Si Si5 0.385546 0.140964 0.502027
Si Si6 0.615179 0.665254 0.919694
Si Si7 0.615180 0.334746 0.138793
Si Si8 0.882423 0.276231 0.779243
O O1 0.500000 0.887437 0.573408
O O2 0.638115 0.876932 0.474774
O O3 0.633543 0.743489 0.575397
O O4 0.682398 0.930999 0.604735
O O5 0.816251 0.931917 0.431491
O O6 0.659001 0.941997 0.347586
O O7 0.682398 0.069001 0.453752
O O8 0.638114 0.123067 0.583714
O O9 0.816251 0.068083 0.626996
O O10 0.659001 0.058004 0.710901
O O11 0.162593 0.611997 0.279244
O O12 0.000000 0.496944 0.279243
O O13 0.500000 0.112564 0.485078
O O14 0.366456 0.256511 0.483091
O O15 0.500000 0.630405 0.916049
O O16 0.651890 0.717374 0.848123
O O17 0.500000 0.369596 0.142439
O O18 0.651891 0.282626 0.210365
O O19 0.000000 0.288262 0.779242
#
# Coordination Sequence:
#
# PCOD8175212 Si02
#       8
#     8   8   8   8   8   8   8   8
#     4  10  20  36  55  79 109 135 173 220 262 307
#     4  11  20  32  55  84 103 136 175 218 260 308
#     4  11  20  32  55  84 103 136 175 218 260 308
#     4  11  19  32  55  82 106 132 173 221 266 305
#     4  10  20  36  55  79 109 135 173 220 262 307
#     4  10  20  35  54  77 106 142 177 212 255 312
#     4  10  20  35  54  77 106 142 177 212 255 312
#     4   9  17  32  52  76 102 134 174 215 251 301
#
# _framework density 18.779913000000001
#
# number of rings (size 3 to 8) (size 9 to 14) (size 15 to 20)
#    0.000    1.750    2.500    4.500    0.000    0.000 
#    0.000    2.500    0.000    4.500    0.000    0.000 
#    0.000    0.000    0.000    0.000    0.000    0.000 
#
# Total GULP energy -396813.743983 kJ/mol
# GULP energy per Si atom -12400.429499 kJ/mol
# Density = 1.873717 g / cm^3
# Si number density = 18.779913 Si / 1000 Ang^3
#
#
#
# Elastic Constant Matrix: (Units=GPa)
#
#
# Indices 1 2 3 4 5 6 
#
# 1 117.0119 62.9300 34.9912 0.0000 0.0000 0.0000
# 2 62.9300 60.2558 27.5210 0.0000 0.0000 0.0000
# 3 34.9912 27.5210 124.1723 0.0000 0.0000 0.0000
# 4 0.0000 0.0000 0.0000 5.6287 0.0000 0.0000
# 5 0.0000 0.0000 0.0000 0.0000 23.9901 0.0000
# 6 0.0000 0.0000 0.0000 0.0000 0.0000 37.2963
#
#
#
# Elastic Compliance Matrix: (Units=1/GPa)
#
#
# Indices 1 2 3 4 5 6 
#
# 1 0.019631 -0.020000 -0.001099 0.000000 0.000000 0.000000
# 2 -0.020000 0.038842 -0.002973 0.000000 0.000000 0.000000
# 3 -0.001099 -0.002973 0.009022 0.000000 0.000000 0.000000
# 4 0.000000 0.000000 0.000000 0.177661 0.000000 0.000000
# 5 0.000000 0.000000 0.000000 0.000000 0.041684 0.000000
# 6 0.000000 0.000000 0.000000 0.000000 0.000000 0.026812
#
#
# Mechanical properties :
#
#
# Convention : Reuss Voigt Hill
#
# Bulk Modulus (GPa) = 51.67883 61.36937 56.52410
# Shear Modulus (GPa) = 13.57783 25.11620 19.34702
#
# Velocity S-wave (km/s) = 2.69178 3.66101 3.21315
# Velocity P-wave (km/s) = 6.10236 7.11476 6.62792
#
# Compressibility (1/GPa) = 0.01935028
#
# Stress axis : x y z
#
# Youngs Moduli (GPa) = 50.93916 25.74549 110.84111
#
# Poissons Ratio (x) = 0.51492 0.12184
# Poissons Ratio (y) = 1.01881 0.32949
# Poissons Ratio (z) = 0.05599 0.07653
#
# Static dielectric constant tensor:
#      x y z
#    x 3.360510 0.000000 0.000000 
#    y 0.000000 3.197110 0.000000 
#    z 0.000000 0.000000 3.815460 
# 
# 
# High freq. dielectric constant tensor:
#      x y z
#    x 1.715740 0.000000 0.000000 
#    y 0.000000 1.703460 0.000000 
#    z 0.000000 0.000000 1.743360 
# 
# From -- ./inp_files/14374.got.cif
#   From: 2010.03.12/outbox.cif.g09.slc.cpg/sg36_8_cif.got.tgz:14374.got - 2010.04.14 02:13:53.
