data_PCOD8175465
_publ_section_title
;
Structure prediction by ZEFSAII (Michael W. Deem and Ramdas Pophale) SiO2 
 PCOD8175465
Probable space group: C M C 21
;
_chemical_formula_sum "Si O2"
_cell_formula_units_Z 64
_cell_length_a 15.427050
_cell_length_b 9.835231
_cell_length_c 21.250755
_cell_angle_alpha 90.000000
_cell_angle_beta 90.000000
_cell_angle_gamma 90.000000
_cell_volume 3224.347314
_symmetry_space_group_name_H-M "C M C 21"
_symmetry_group_IT_number 36
_symmetry_cell_setting 'orthorhombic'
loop_
_space_group_symop_operation_xyz
x,y,z
-x,-y,1/2+z
x,-y,1/2+z
-x,y,z
1/2+x,1/2+y,z
1/2-x,1/2-y,1/2+z
1/2+x,1/2-y,1/2+z
1/2-x,1/2+y,z
loop_
_atom_site_type_symbol
_atom_site_label
_atom_site_fract_x
_atom_site_fract_y
_atom_site_fract_z
Si Si1 0.597095 0.000209 0.462850
Si Si2 0.399525 0.782760 0.700589
Si Si3 0.598532 0.467430 0.696795
Si Si4 0.342235 0.205317 0.057721
Si Si5 0.903477 0.006527 0.558625
Si Si6 0.230538 0.404172 0.366914
Si Si7 0.258712 0.652875 0.283449
Si Si8 0.673260 0.707922 0.983026
O O1 0.500000 0.041079 0.443637
O O2 0.593813 0.897365 0.521598
O O3 0.640391 0.925403 0.403464
O O4 0.649222 0.134682 0.482807
O O5 0.500000 0.834365 0.705980
O O6 0.395361 0.624261 0.717306
O O7 0.360938 0.811551 0.631434
O O8 0.336072 0.857805 0.750168
O O9 0.500000 0.414058 0.706237
O O10 0.631267 0.450761 0.625200
O O11 0.663407 0.375789 0.736180
O O12 0.352536 0.360931 0.034795
O O13 0.245135 0.169926 0.035779
O O14 0.905092 0.888318 0.506093
O O15 0.000000 0.060016 0.571797
O O16 0.262749 0.548901 0.341478
O O17 0.301392 0.339921 0.413532
O O18 0.219971 0.303037 0.308499
#
# Coordination Sequence:
#
# PCOD8175465 Si02
#       8
#     8   8   8   8   8   8   8   8
#     4  11  23  40  61  89 126 157 199 259 312 363
#     4  10  21  39  64  92 123 162 202 247 314 373
#     4   9  20  39  63  90 120 156 199 249 301 365
#     4  10  20  38  63  91 121 153 198 246 299 366
#     4  10  20  37  61  90 118 148 194 242 295 358
#     4  11  25  41  60  86 118 158 209 249 301 356
#     4  12  22  43  63  87 120 160 210 254 298 365
#     4  11  22  39  60  87 120 162 194 244 306 362
#
# _framework density 19.848977000000001
#
# number of rings (size 3 to 8) (size 9 to 14) (size 15 to 20)
#    0.000    1.500    2.500    4.500    1.750    2.000 
#    2.250    1.250    0.000    0.000    0.000    0.000 
#    0.000    0.000    0.000    0.000    0.000    0.000 
#
# Total GULP energy -396779.188337 kJ/mol
# GULP energy per Si atom -12399.349636 kJ/mol
# Density = 1.980380 g / cm^3
# Si number density = 19.848977 Si / 1000 Ang^3
#
#
#
# Elastic Constant Matrix: (Units=GPa)
#
#
# Indices 1 2 3 4 5 6 
#
# 1 92.4777 26.9044 40.5506 0.0000 0.0000 0.0000
# 2 26.9044 79.9695 47.4097 0.0000 0.0000 0.0000
# 3 40.5506 47.4097 87.9125 0.0000 0.0000 0.0000
# 4 0.0000 0.0000 0.0000 35.9525 0.0000 0.0000
# 5 0.0000 0.0000 0.0000 0.0000 22.3834 0.0000
# 6 0.0000 0.0000 0.0000 0.0000 0.0000 25.8407
#
#
#
# Elastic Compliance Matrix: (Units=1/GPa)
#
#
# Indices 1 2 3 4 5 6 
#
# 1 0.013641 -0.001263 -0.005611 0.000000 0.000000 0.000000
# 2 -0.001263 0.018498 -0.009393 0.000000 0.000000 0.000000
# 3 -0.005611 -0.009393 0.019029 0.000000 0.000000 0.000000
# 4 0.000000 0.000000 0.000000 0.027815 0.000000 0.000000
# 5 0.000000 0.000000 0.000000 0.000000 0.044676 0.000000
# 6 0.000000 0.000000 0.000000 0.000000 0.000000 0.038699
#
#
# Mechanical properties :
#
#
# Convention : Reuss Voigt Hill
#
# Bulk Modulus (GPa) = 53.66590 54.45433 54.06011
# Shear Modulus (GPa) = 24.86281 26.53500 25.69891
#
# Velocity S-wave (km/s) = 3.54305 3.66026 3.60213
# Velocity P-wave (km/s) = 6.62068 6.73477 6.67797
#
# Compressibility (1/GPa) = 0.01863381
#
# Stress axis : x y z
#
# Youngs Moduli (GPa) = 73.30711 54.05847 52.55177
#
# Poissons Ratio (x) = 0.06827 0.29488
# Poissons Ratio (y) = 0.09257 0.49364
# Poissons Ratio (z) = 0.41134 0.50779
#
# Static dielectric constant tensor:
#      x y z
#    x 3.530250 0.000000 0.000000 
#    y 0.000000 3.490630 0.000000 
#    z 0.000000 0.000000 3.605940 
# 
# 
# High freq. dielectric constant tensor:
#      x y z
#    x 1.773760 0.000000 0.000000 
#    y 0.000000 1.773560 0.000000 
#    z 0.000000 0.000000 1.774010 
# 
# From -- ./inp_files/16239.got.cif
#   From: 2010.03.12/outbox.cif.g09.slc.cpg/sg36_9_cif.got.tgz:16239.got - 2010.04.14 02:13:53.
