data_PCOD8175372
_publ_section_title
;
Structure prediction by ZEFSAII (Michael W. Deem and Ramdas Pophale) SiO2 
 PCOD8175372
Probable space group: C M C 21
;
_chemical_formula_sum "Si O2"
_cell_formula_units_Z 64
_cell_length_a 8.667877
_cell_length_b 24.659196
_cell_length_c 15.091951
_cell_angle_alpha 90.000000
_cell_angle_beta 90.000000
_cell_angle_gamma 90.000000
_cell_volume 3225.797039
_symmetry_space_group_name_H-M "C M C 21"
_symmetry_group_IT_number 36
_symmetry_cell_setting 'orthorhombic'
loop_
_space_group_symop_operation_xyz
x,y,z
-x,-y,1/2+z
x,-y,1/2+z
-x,y,z
1/2+x,1/2+y,z
1/2-x,1/2-y,1/2+z
1/2+x,1/2-y,1/2+z
1/2-x,1/2+y,z
loop_
_atom_site_type_symbol
_atom_site_label
_atom_site_fract_x
_atom_site_fract_y
_atom_site_fract_z
Si Si1 0.684983 0.383497 0.267800
Si Si2 0.319310 0.308993 0.926000
Si Si3 0.674177 1.000000 0.598565
Si Si4 0.323050 0.881189 0.574502
Si Si5 0.175009 0.000000 0.777867
Si Si6 0.319310 0.308993 0.426000
Si Si7 0.676950 0.118811 0.574502
Si Si8 0.315017 0.616503 0.267800
O O1 0.500000 0.384704 0.255030
O O2 0.745200 0.441896 0.308569
O O3 0.740548 0.337755 0.336327
O O4 0.765575 0.371970 0.174534
O O5 0.500000 0.303122 0.922279
O O6 0.250000 0.250000 0.933720
O O7 0.259452 0.337755 0.836327
O O8 0.277090 0.344078 0.011121
O O9 0.500000 0.000000 0.640475
O O10 0.695490 0.944325 0.543091
O O11 0.807259 0.000000 0.671707
O O12 0.695490 0.055675 0.543090
O O13 0.500000 0.862591 0.568691
O O14 0.222910 0.844078 0.511121
O O15 0.265575 0.871970 0.674534
O O16 0.245200 0.941896 0.808569
O O17 0.000000 0.000000 0.807817
O O18 0.500000 0.303123 0.422279
O O19 0.500000 0.137409 0.568690
O O20 0.500000 0.615296 0.255030
#
# Coordination Sequence:
#
# PCOD8175372 Si02
#       8
#     8   8   8   8   8   8   8   8
#     4   9  19  36  58  83 111 144 182 226 277 330
#     4  11  24  40  57  79 109 146 191 236 276 325
#     4   8  16  31  52  82 115 145 177 215 267 329
#     4  10  20  36  59  85 115 148 182 224 274 328
#     4   8  14  29  54  82 109 137 175 223 273 327
#     4  11  24  40  57  79 109 146 191 236 276 325
#     4  10  20  36  59  85 115 148 182 224 274 328
#     4   9  19  36  58  83 111 144 182 226 277 330
#
# _framework density 19.840057000000002
#
# number of rings (size 3 to 8) (size 9 to 14) (size 15 to 20)
#    0.000    2.500    0.000    1.500    0.000    5.000 
#    0.000    3.750    0.000    4.500    0.000    0.000 
#    0.000    0.000    0.000    0.000    0.000    0.000 
#
# Total GULP energy -396448.986242 kJ/mol
# GULP energy per Si atom -12389.030820 kJ/mol
# Density = 1.979490 g / cm^3
# Si number density = 19.840057 Si / 1000 Ang^3
#
#
#
# Elastic Constant Matrix: (Units=GPa)
#
#
# Indices 1 2 3 4 5 6 
#
# 1 33.8710 25.4240 18.6723 0.0000 0.0000 0.0000
# 2 25.4240 163.5447 67.2316 0.0000 0.0000 0.0000
# 3 18.6723 67.2316 92.7695 0.0000 0.0000 0.0000
# 4 0.0000 0.0000 0.0000 34.8720 0.0000 0.0000
# 5 0.0000 0.0000 0.0000 0.0000 21.9523 0.0000
# 6 0.0000 0.0000 0.0000 0.0000 0.0000 15.1721
#
#
#
# Elastic Compliance Matrix: (Units=1/GPa)
#
#
# Indices 1 2 3 4 5 6 
#
# 1 0.034625 -0.003586 -0.004370 0.000000 0.000000 0.000000
# 2 -0.003586 0.009081 -0.005859 0.000000 0.000000 0.000000
# 3 -0.004370 -0.005859 0.015905 0.000000 0.000000 0.000000
# 4 0.000000 0.000000 0.000000 0.028676 0.000000 0.000000
# 5 0.000000 0.000000 0.000000 0.000000 0.045553 0.000000
# 6 0.000000 0.000000 0.000000 0.000000 0.000000 0.065911
#
#
# Mechanical properties :
#
#
# Convention : Reuss Voigt Hill
#
# Bulk Modulus (GPa) = 31.26975 56.98232 44.12604
# Shear Modulus (GPa) = 21.00474 26.32309 23.66391
#
# Velocity S-wave (km/s) = 3.25730 3.64643 3.45734
# Velocity P-wave (km/s) = 5.47191 6.81996 6.18278
#
# Compressibility (1/GPa) = 0.03197978
#
# Stress axis : x y z
#
# Youngs Moduli (GPa) = 28.88108 110.12466 62.87251
#
# Poissons Ratio (x) = 0.39491 0.27477
# Poissons Ratio (y) = 0.10357 0.36838
# Poissons Ratio (z) = 0.12622 0.64523
#
# Static dielectric constant tensor:
#      x y z
#    x 3.578770 0.000000 0.000000 
#    y 0.000000 4.067710 0.000000 
#    z 0.000000 0.000000 3.320390 
# 
# 
# High freq. dielectric constant tensor:
#      x y z
#    x 1.769750 0.000000 0.000000 
#    y 0.000000 1.790720 0.000000 
#    z 0.000000 0.000000 1.747720 
# 
# From -- ./inp_files/11086.got.cif
#   From: 2010.03.12/outbox.cif.g09.slc.cpg/sg36_6_cif.got.tgz:11086.got - 2010.04.14 02:13:53.
