data_PCOD8175426
_publ_section_title
;
Structure prediction by ZEFSAII (Michael W. Deem and Ramdas Pophale) SiO2 
 PCOD8175426
Probable space group: C M C 21
;
_chemical_formula_sum "Si O2"
_cell_formula_units_Z 64
_cell_length_a 8.758481
_cell_length_b 28.757964
_cell_length_c 12.748932
_cell_angle_alpha 90.000000
_cell_angle_beta 90.000000
_cell_angle_gamma 90.000000
_cell_volume 3211.151033
_symmetry_space_group_name_H-M "C M C 21"
_symmetry_group_IT_number 36
_symmetry_cell_setting 'orthorhombic'
loop_
_space_group_symop_operation_xyz
x,y,z
-x,-y,1/2+z
x,-y,1/2+z
-x,y,z
1/2+x,1/2+y,z
1/2-x,1/2-y,1/2+z
1/2+x,1/2-y,1/2+z
1/2-x,1/2+y,z
loop_
_atom_site_type_symbol
_atom_site_label
_atom_site_fract_x
_atom_site_fract_y
_atom_site_fract_z
Si Si1 0.827881 0.146608 0.458900
Si Si2 0.818380 0.672416 0.987153
Si Si3 0.325036 0.906964 0.133350
Si Si4 0.674930 0.430306 0.808517
Si Si5 0.324726 0.732963 0.575274
Si Si6 0.820597 0.488788 0.990984
Si Si7 0.319567 0.421484 0.573412
Si Si8 0.679989 0.667438 0.762385
O O1 0.698381 0.123633 0.529860
O O2 0.810828 0.124337 0.343408
O O3 0.803609 0.202238 0.467763
O O4 0.000000 0.135211 0.502906
O O5 0.751819 0.716397 0.054207
O O6 0.754248 0.626152 0.037410
O O7 0.000000 0.671254 0.988509
O O8 0.764344 0.679297 0.868843
O O9 0.500000 0.905129 0.169611
O O10 0.222529 0.885534 0.226735
O O11 0.278601 0.959149 0.096345
O O12 0.500000 0.446846 0.814282
O O13 0.771300 0.463508 0.884047
O O14 0.738125 0.433220 0.690752
O O15 0.500000 0.741263 0.600666
O O16 0.258199 0.704454 0.675175
O O17 0.000000 0.497734 0.984689
O O18 0.733829 0.537643 0.996522
O O19 0.500000 0.415874 0.568668
O O20 0.500000 0.669962 0.779304
#
# Coordination Sequence:
#
# PCOD8175426 Si02
#       8
#     8   8   8   8   8   8   8   8
#     4   8  14  30  55  81 109 141 180 226 274 325
#     4  11  23  39  57  81 115 151 188 233 283 330
#     4   9  17  31  53  83 112 140 181 230 279 329
#     4   9  19  36  59  84 111 146 187 231 278 330
#     4   8  17  34  57  82 109 145 186 228 276 330
#     4  10  21  37  59  85 113 146 186 233 282 335
#     4  11  24  40  57  81 114 151 190 230 277 335
#     4  10  20  37  59  83 113 150 190 231 279 334
#
# _framework density 19.930546
#
# number of rings (size 3 to 8) (size 9 to 14) (size 15 to 20)
#    0.000    2.500    0.000    2.625    0.000    4.500 
#    0.000   10.000    0.000    3.000    0.000    0.000 
#    0.000    0.000    0.000    0.000    0.000    0.000 
#
# Total GULP energy -396515.374122 kJ/mol
# GULP energy per Si atom -12391.105441 kJ/mol
# Density = 1.988518 g / cm^3
# Si number density = 19.930546 Si / 1000 Ang^3
#
#
#
# Elastic Constant Matrix: (Units=GPa)
#
#
# Indices 1 2 3 4 5 6 
#
# 1 65.0671 43.7408 33.8823 0.0000 0.0000 0.0000
# 2 43.7408 132.6966 52.6675 0.0000 0.0000 0.0000
# 3 33.8823 52.6675 101.9464 0.0000 0.0000 0.0000
# 4 0.0000 0.0000 0.0000 25.8723 0.0000 0.0000
# 5 0.0000 0.0000 0.0000 0.0000 27.0634 0.0000
# 6 0.0000 0.0000 0.0000 0.0000 0.0000 23.8084
#
#
#
# Elastic Compliance Matrix: (Units=1/GPa)
#
#
# Indices 1 2 3 4 5 6 
#
# 1 0.021150 -0.005260 -0.004312 0.000000 0.000000 0.000000
# 2 -0.005260 0.010788 -0.003825 0.000000 0.000000 0.000000
# 3 -0.004312 -0.003825 0.013218 0.000000 0.000000 0.000000
# 4 0.000000 0.000000 0.000000 0.038651 0.000000 0.000000
# 5 0.000000 0.000000 0.000000 0.000000 0.036950 0.000000
# 6 0.000000 0.000000 0.000000 0.000000 0.000000 0.042002
#
#
# Mechanical properties :
#
#
# Convention : Reuss Voigt Hill
#
# Bulk Modulus (GPa) = 54.45973 62.25459 58.35716
# Shear Modulus (GPa) = 25.55252 26.64345 26.09799
#
# Velocity S-wave (km/s) = 3.58450 3.66021 3.62255
# Velocity P-wave (km/s) = 6.67200 7.01188 6.84405
#
# Compressibility (1/GPa) = 0.01836219
#
# Stress axis : x y z
#
# Youngs Moduli (GPa) = 47.28065 92.69423 75.65335
#
# Poissons Ratio (x) = 0.48761 0.32620
# Poissons Ratio (y) = 0.24872 0.28938
# Poissons Ratio (z) = 0.20386 0.35456
#
# Static dielectric constant tensor:
#      x y z
#    x 3.473290 0.000000 0.000000 
#    y 0.000000 3.877710 0.000000 
#    z 0.000000 0.000000 3.616620 
# 
# 
# High freq. dielectric constant tensor:
#      x y z
#    x 1.767680 0.000000 0.000000 
#    y 0.000000 1.779670 0.000000 
#    z 0.000000 0.000000 1.763270 
# 
# From -- ./inp_files/7224.got.cif
#   From: 2010.03.12/outbox.cif.g09.slc.cpg/sg36_4_cif.got.tgz:7224.got - 2010.04.14 02:13:53.
