data_PCOD8175181
_publ_section_title
;
Structure prediction by ZEFSAII (Michael W. Deem and Ramdas Pophale) SiO2 
 PCOD8175181
Probable space group: C M C 21
;
_chemical_formula_sum "Si O2"
_cell_formula_units_Z 64
_cell_length_a 9.138559
_cell_length_b 15.370018
_cell_length_c 23.834190
_cell_angle_alpha 90.000000
_cell_angle_beta 90.000000
_cell_angle_gamma 90.000000
_cell_volume 3347.745950
_symmetry_space_group_name_H-M "C M C 21"
_symmetry_group_IT_number 36
_symmetry_cell_setting 'orthorhombic'
loop_
_space_group_symop_operation_xyz
x,y,z
-x,-y,1/2+z
x,-y,1/2+z
-x,y,z
1/2+x,1/2+y,z
1/2-x,1/2-y,1/2+z
1/2+x,1/2-y,1/2+z
1/2-x,1/2+y,z
loop_
_atom_site_type_symbol
_atom_site_label
_atom_site_fract_x
_atom_site_fract_y
_atom_site_fract_z
Si Si1 0.669538 0.870414 0.710730
Si Si2 0.169295 0.465788 0.287922
Si Si3 0.825809 0.896986 0.595451
Si Si4 0.326713 0.758290 0.017812
Si Si5 0.825782 0.729834 0.394785
Si Si6 0.327003 0.956845 0.026931
Si Si7 0.672854 0.962601 0.901951
Si Si8 0.672019 0.299366 0.278682
O O1 0.500000 0.870221 0.691882
O O2 0.774081 0.886763 0.658669
O O3 0.716059 0.778841 0.737739
O O4 0.699279 0.944320 0.756463
O O5 0.228905 0.474096 0.352358
O O6 0.255132 0.388250 0.256843
O O7 0.000000 0.441236 0.286461
O O8 0.764887 0.813509 0.560817
O O9 0.000000 0.902845 0.592959
O O10 0.759725 0.986150 0.571669
O O11 0.500000 0.758794 0.019696
O O12 0.274498 0.856249 0.033282
O O13 0.274846 0.730925 0.954883
O O14 0.760764 0.632736 0.391032
O O15 0.765343 0.783169 0.341669
O O16 0.000000 0.726467 0.391352
O O17 0.500000 0.965047 0.037938
O O18 0.285031 0.993230 0.964750
O O19 0.500000 0.954521 0.896699
O O20 0.500000 0.311773 0.279268
#
# Coordination Sequence:
#
# PCOD8175181 Si02
#       8
#     8   8   8   8   8   8   8   8
#     4  10  22  41  58  75 107 151 192 223 263 326
#     4  10  20  35  56  82 110 143 182 224 272 325
#     4  11  23  37  56  82 111 144 184 231 278 319
#     4   8  17  33  54  80 109 143 180 218 267 325
#     4   8  13  28  54  80 108 141 177 216 261 325
#     4   9  18  35  58  82 109 145 185 220 264 328
#     4   8  14  29  55  82 109 142 181 221 261 321
#     4  10  20  34  57  85 109 141 183 227 274 323
#
# _framework density 19.117341
#
# number of rings (size 3 to 8) (size 9 to 14) (size 15 to 20)
#    0.000    2.750    1.250    1.875    1.750    2.000 
#    0.000    5.000    0.000    3.000    0.000    0.000 
#    0.000    0.000    0.000    0.000    0.000    0.000 
#
# Total GULP energy -396602.762320 kJ/mol
# GULP energy per Si atom -12393.836323 kJ/mol
# Density = 1.907383 g / cm^3
# Si number density = 19.117341 Si / 1000 Ang^3
#
#
#
# Elastic Constant Matrix: (Units=GPa)
#
#
# Indices 1 2 3 4 5 6 
#
# 1 30.6457 17.9751 21.4952 0.0000 0.0000 0.0000
# 2 17.9751 64.0453 5.8407 0.0000 0.0000 0.0000
# 3 21.4952 5.8407 72.2269 0.0000 0.0000 0.0000
# 4 0.0000 0.0000 0.0000 18.5674 0.0000 0.0000
# 5 0.0000 0.0000 0.0000 0.0000 20.9477 0.0000
# 6 0.0000 0.0000 0.0000 0.0000 0.0000 25.9200
#
#
#
# Elastic Compliance Matrix: (Units=1/GPa)
#
#
# Indices 1 2 3 4 5 6 
#
# 1 0.049747 -0.012706 -0.013778 0.000000 0.000000 0.000000
# 2 -0.012706 0.018975 0.002247 0.000000 0.000000 0.000000
# 3 -0.013778 0.002247 0.017764 0.000000 0.000000 0.000000
# 4 0.000000 0.000000 0.000000 0.053858 0.000000 0.000000
# 5 0.000000 0.000000 0.000000 0.000000 0.047738 0.000000
# 6 0.000000 0.000000 0.000000 0.000000 0.000000 0.038580
#
#
# Mechanical properties :
#
#
# Convention : Reuss Voigt Hill
#
# Bulk Modulus (GPa) = 26.30666 28.61555 27.46110
# Shear Modulus (GPa) = 17.37280 21.19417 19.28349
#
# Velocity S-wave (km/s) = 3.01781 3.33323 3.17943
# Velocity P-wave (km/s) = 5.09249 5.46029 5.27959
#
# Compressibility (1/GPa) = 0.03801319
#
# Stress axis : x y z
#
# Youngs Moduli (GPa) = 20.10159 52.70078 56.29394
#
# Poissons Ratio (x) = 0.66960 0.77560
# Poissons Ratio (y) = 0.25541 -0.12649
# Poissons Ratio (z) = 0.27695 -0.11841
#
# Static dielectric constant tensor:
#      x y z
#    x 2.996590 0.000000 0.000000 
#    y 0.000000 3.599630 0.000000 
#    z 0.000000 0.000000 3.687380 
# 
# 
# High freq. dielectric constant tensor:
#      x y z
#    x 1.696680 0.000000 0.000000 
#    y 0.000000 1.749130 0.000000 
#    z 0.000000 0.000000 1.747940 
# 
# From -- ./inp_files/16653.got.cif
#   From: 2010.03.12/outbox.cif.g09.slc.cpg/sg36_9_cif.got.tgz:16653.got - 2010.04.14 02:13:53.
