data_PCOD8175729
_publ_section_title
;
Structure prediction by ZEFSAII (Michael W. Deem and Ramdas Pophale) SiO2 
 PCOD8175729
Probable space group: C M C 21
;
_chemical_formula_sum "Si O2"
_cell_formula_units_Z 40
_cell_length_a 13.684463
_cell_length_b 23.984152
_cell_length_c 4.827208
_cell_angle_alpha 90.000000
_cell_angle_beta 90.000000
_cell_angle_gamma 90.000000
_cell_volume 1584.339099
_symmetry_space_group_name_H-M "C M C 21"
_symmetry_group_IT_number 36
_symmetry_cell_setting 'orthorhombic'
loop_
_space_group_symop_operation_xyz
x,y,z
-x,-y,1/2+z
x,-y,1/2+z
-x,y,z
1/2+x,1/2+y,z
1/2-x,1/2-y,1/2+z
1/2+x,1/2-y,1/2+z
1/2-x,1/2+y,z
loop_
_atom_site_type_symbol
_atom_site_label
_atom_site_fract_x
_atom_site_fract_y
_atom_site_fract_z
Si Si1 0.714162 0.214846 0.071910
Si Si2 0.337441 0.386381 0.518876
Si Si3 0.500000 0.306970 0.470546
Si Si4 0.000000 0.463234 0.317255
Si Si5 0.000000 0.960693 0.774562
Si Si6 0.500000 0.235445 0.984854
Si Si7 0.293894 0.037841 0.681827
O O1 0.718753 0.255546 0.337107
O O2 0.754989 0.153277 0.161227
O O3 0.603838 0.203768 0.950235
O O4 0.408433 0.342953 0.372691
O O5 0.400824 0.424836 0.728432
O O6 0.292804 0.421850 0.267310
O O7 0.500000 0.249635 0.308613
O O8 0.500000 0.291355 0.796405
O O9 0.101039 0.431823 0.239128
O O10 0.000000 0.521389 0.140815
O O11 0.000000 0.016561 0.586475
O O12 0.285496 0.979940 0.860934
#
# Coordination Sequence:
#
# PCOD8175729 Si02
#       7
#     8   8   4   4   4   4   8
#     4  12  25  43  69  99 134 183 234 287 351 420
#     4  11  24  41  67  98 131 177 233 274 352 411
#     4  11  24  40  66  92 126 185 215 278 339 414
#     4   8  16  33  54  77 110 158 195 246 319 380
#     4  11  26  45  68 100 140 180 233 290 347 420
#     4  12  22  46  66  93 140 169 231 278 343 396
#     4  10  21  37  60  88 127 164 213 274 333 401
#
# _framework density 25.247121
#
# number of rings (size 3 to 8) (size 9 to 14) (size 15 to 20)
#    0.000    1.200    4.000    1.200    0.000    8.800 
#    0.000    0.000    0.000    7.200    0.000    0.000 
#    0.000    0.000    0.000    0.000    0.000    0.000 
#
# Total GULP energy -247779.259894 kJ/mol
# GULP energy per Si atom -12388.962995 kJ/mol
# Density = 2.518966 g / cm^3
# Si number density = 25.247121 Si / 1000 Ang^3
#
#
#
# Elastic Constant Matrix: (Units=GPa)
#
#
# Indices 1 2 3 4 5 6 
#
# 1 172.4794 40.9950 -2.4870 0.0000 0.0000 0.0000
# 2 40.9950 86.2854 1.8333 0.0000 0.0000 0.0000
# 3 -2.4870 1.8333 67.6288 0.0000 0.0000 0.0000
# 4 0.0000 0.0000 0.0000 4.0168 0.0000 0.0000
# 5 0.0000 0.0000 0.0000 0.0000 21.6842 0.0000
# 6 0.0000 0.0000 0.0000 0.0000 0.0000 59.0664
#
#
#
# Elastic Compliance Matrix: (Units=1/GPa)
#
#
# Indices 1 2 3 4 5 6 
#
# 1 0.006543 -0.003116 0.000325 0.000000 0.000000 0.000000
# 2 -0.003116 0.013080 -0.000469 0.000000 0.000000 0.000000
# 3 0.000325 -0.000469 0.014811 0.000000 0.000000 0.000000
# 4 0.000000 0.000000 0.000000 0.248955 0.000000 0.000000
# 5 0.000000 0.000000 0.000000 0.000000 0.046116 0.000000
# 6 0.000000 0.000000 0.000000 0.000000 0.000000 0.016930
#
#
# Mechanical properties :
#
#
# Convention : Reuss Voigt Hill
#
# Bulk Modulus (GPa) = 35.82344 45.23067 40.52706
# Shear Modulus (GPa) = 13.80227 36.02364 24.91295
#
# Velocity S-wave (km/s) = 2.34067 3.78145 3.14469
# Velocity P-wave (km/s) = 4.63949 6.08440 5.41040
#
# Compressibility (1/GPa) = 0.02791469
#
# Stress axis : x y z
#
# Youngs Moduli (GPa) = 152.83548 76.45478 67.51616
#
# Poissons Ratio (x) = 0.23820 -0.02195
# Poissons Ratio (y) = 0.47616 0.03167
# Poissons Ratio (z) = -0.04968 0.03587
#
# Static dielectric constant tensor:
#      x y z
#    x 5.172410 0.000000 0.000000 
#    y 0.000000 4.174650 0.000000 
#    z 0.000000 0.000000 4.143530 
# 
# 
# High freq. dielectric constant tensor:
#      x y z
#    x 2.043170 0.000000 0.000000 
#    y 0.000000 1.967460 0.000000 
#    z 0.000000 0.000000 1.992370 
# 
# From -- ./inp_files/760.got.cif
#   From: 2010.03.12/outbox.cif.g09.slc.cpg/sg36_1_cif.got.tgz:760.got - 2010.04.14 02:13:53.
