data_PCOD8175312
_publ_section_title
;
Structure prediction by ZEFSAII (Michael W. Deem and Ramdas Pophale) SiO2 
 PCOD8175312
Probable space group: C M C 21
;
_chemical_formula_sum "Si O2"
_cell_formula_units_Z 64
_cell_length_a 8.630418
_cell_length_b 15.384703
_cell_length_c 23.747292
_cell_angle_alpha 90.000000
_cell_angle_beta 90.000000
_cell_angle_gamma 90.000000
_cell_volume 3153.080362
_symmetry_space_group_name_H-M "C M C 21"
_symmetry_group_IT_number 36
_symmetry_cell_setting 'orthorhombic'
loop_
_space_group_symop_operation_xyz
x,y,z
-x,-y,1/2+z
x,-y,1/2+z
-x,y,z
1/2+x,1/2+y,z
1/2-x,1/2-y,1/2+z
1/2+x,1/2-y,1/2+z
1/2-x,1/2+y,z
loop_
_atom_site_type_symbol
_atom_site_label
_atom_site_fract_x
_atom_site_fract_y
_atom_site_fract_z
Si Si1 0.181792 0.718201 0.689460
Si Si2 0.182429 0.374603 0.619651
Si Si3 0.176058 0.722901 0.426397
Si Si4 0.179120 0.031764 0.684527
Si Si5 0.181342 0.376226 0.492861
Si Si6 0.820212 0.469110 0.916150
Si Si7 0.321222 0.778016 0.316655
Si Si8 0.821927 0.040770 0.812675
O O1 0.228031 0.796464 0.649360
O O2 0.271111 0.630677 0.671968
O O3 0.226937 0.746382 0.752995
O O4 0.000000 0.699069 0.685072
O O5 0.218451 0.466917 0.647744
O O6 0.247698 0.377263 0.556004
O O7 0.000000 0.356311 0.622556
O O8 0.283439 0.784997 0.463179
O O9 0.200747 0.623813 0.446771
O O10 0.217875 0.724215 0.360243
O O11 0.000000 0.753329 0.434749
O O12 0.207809 0.006385 0.749690
O O13 0.000000 0.020692 0.668100
O O14 0.250380 0.456810 0.457179
O O15 0.000000 0.389527 0.496360
O O16 0.722867 0.467187 0.857840
O O17 0.000000 0.485792 0.902000
O O18 0.500000 0.757419 0.328493
O O19 0.290738 0.879562 0.326970
O O20 0.000000 0.069961 0.819229
#
# Coordination Sequence:
#
# PCOD8175312 Si02
#       8
#     8   8   8   8   8   8   8   8
#     4  10  22  40  62  90 123 164 207 253 310 365
#     4  11  24  41  64  91 122 165 212 256 305 366
#     4  11  23  37  59  92 121 157 202 249 303 361
#     4  10  22  40  61  91 127 161 203 256 307 365
#     4  10  23  44  63  84 120 164 206 254 304 358
#     4  10  22  39  59  86 121 159 197 244 305 364
#     4  10  20  36  59  86 123 162 196 245 307 363
#     4  10  20  35  59  90 123 156 199 249 301 360
#
# _framework density 20.297611
#
# number of rings (size 3 to 8) (size 9 to 14) (size 15 to 20)
#    0.000    1.750    1.250    2.250    1.750    6.000 
#    0.000    1.250    0.000    0.000    0.000    0.000 
#    0.000    0.000    0.000    0.000    0.000    0.000 
#
# Total GULP energy -396890.298079 kJ/mol
# GULP energy per Si atom -12402.821815 kJ/mol
# Density = 2.025141 g / cm^3
# Si number density = 20.297611 Si / 1000 Ang^3
#
#
#
# Elastic Constant Matrix: (Units=GPa)
#
#
# Indices 1 2 3 4 5 6 
#
# 1 32.0107 11.9369 20.9367 0.0000 0.0000 0.0000
# 2 11.9369 98.6701 54.4557 0.0000 0.0000 0.0000
# 3 20.9367 54.4557 121.0288 0.0000 0.0000 0.0000
# 4 0.0000 0.0000 0.0000 24.2276 0.0000 0.0000
# 5 0.0000 0.0000 0.0000 0.0000 25.8855 0.0000
# 6 0.0000 0.0000 0.0000 0.0000 0.0000 34.2998
#
#
#
# Elastic Compliance Matrix: (Units=1/GPa)
#
#
# Indices 1 2 3 4 5 6 
#
# 1 0.035331 -0.001199 -0.005573 0.000000 0.000000 0.000000
# 2 -0.001199 0.013524 -0.005877 0.000000 0.000000 0.000000
# 3 -0.005573 -0.005877 0.011871 0.000000 0.000000 0.000000
# 4 0.000000 0.000000 0.000000 0.041275 0.000000 0.000000
# 5 0.000000 0.000000 0.000000 0.000000 0.038632 0.000000
# 6 0.000000 0.000000 0.000000 0.000000 0.000000 0.029155
#
#
# Mechanical properties :
#
#
# Convention : Reuss Voigt Hill
#
# Bulk Modulus (GPa) = 28.22604 47.37425 37.80014
# Shear Modulus (GPa) = 24.16691 27.84126 26.00408
#
# Velocity S-wave (km/s) = 3.45429 3.70760 3.58318
# Velocity P-wave (km/s) = 5.46313 6.45902 5.98183
#
# Compressibility (1/GPa) = 0.03542828
#
# Stress axis : x y z
#
# Youngs Moduli (GPa) = 28.30350 73.94524 84.23925
#
# Poissons Ratio (x) = 0.08865 0.46943
# Poissons Ratio (y) = 0.03393 0.49511
# Poissons Ratio (z) = 0.15772 0.43460
#
# Static dielectric constant tensor:
#      x y z
#    x 3.594720 0.000000 0.000000 
#    y 0.000000 3.571930 0.000000 
#    z 0.000000 0.000000 3.844500 
# 
# 
# High freq. dielectric constant tensor:
#      x y z
#    x 1.792850 0.000000 0.000000 
#    y 0.000000 1.793870 0.000000 
#    z 0.000000 0.000000 1.790020 
# 
# From -- ./inp_files/16557.got.cif
#   From: 2010.03.12/outbox.cif.g09.slc.cpg/sg36_9_cif.got.tgz:16557.got - 2010.04.14 02:13:53.
