data_PCOD8175366
_publ_section_title
;
Structure prediction by ZEFSAII (Michael W. Deem and Ramdas Pophale) SiO2 
 PCOD8175366
Probable space group: C M C 21
;
_chemical_formula_sum "Si O2"
_cell_formula_units_Z 64
_cell_length_a 8.736195
_cell_length_b 15.411147
_cell_length_c 24.049788
_cell_angle_alpha 90.000000
_cell_angle_beta 90.000000
_cell_angle_gamma 90.000000
_cell_volume 3237.938045
_symmetry_space_group_name_H-M "C M C 21"
_symmetry_group_IT_number 36
_symmetry_cell_setting 'orthorhombic'
loop_
_space_group_symop_operation_xyz
x,y,z
-x,-y,1/2+z
x,-y,1/2+z
-x,y,z
1/2+x,1/2+y,z
1/2-x,1/2-y,1/2+z
1/2+x,1/2-y,1/2+z
1/2-x,1/2+y,z
loop_
_atom_site_type_symbol
_atom_site_label
_atom_site_fract_x
_atom_site_fract_y
_atom_site_fract_z
Si Si1 0.319912 0.647617 0.201750
Si Si2 0.677730 0.395021 0.307128
Si Si3 0.681392 0.255417 0.510342
Si Si4 0.177300 0.088974 0.319801
Si Si5 0.178465 0.895051 0.081047
Si Si6 0.678949 0.152641 0.695088
Si Si7 0.680550 0.589086 0.084613
Si Si8 0.181196 0.741025 0.386054
O O1 0.500000 0.633799 0.201299
O O2 0.253777 0.604221 0.257840
O O3 0.274002 0.747791 0.202068
O O4 0.248353 0.603522 0.146424
O O5 0.500000 0.379635 0.292183
O O6 0.699846 0.488426 0.336673
O O7 0.775816 0.396951 0.251046
O O8 0.741470 0.320091 0.347801
O O9 0.500000 0.260322 0.508730
O O10 0.726708 0.168360 0.542144
O O11 0.749488 0.339540 0.542229
O O12 0.748583 0.253993 0.447975
O O13 0.265213 0.148186 0.363752
O O14 0.000000 0.116283 0.321432
O O15 0.224015 0.886819 0.145119
O O16 0.000000 0.875000 0.074173
O O17 0.218768 0.993258 0.062294
O O18 0.500000 0.141421 0.682451
O O19 0.500000 0.603802 0.088980
O O20 0.000000 0.742532 0.387611
#
# Coordination Sequence:
#
# PCOD8175366 Si02
#       8
#     8   8   8   8   8   8   8   8
#     4   9  16  30  55  83 107 142 181 215 268 338
#     4  10  21  37  58  85 115 147 189 237 278 327
#     4  10  21  40  60  78 110 154 191 228 283 342
#     4  10  20  36  59  84 113 149 188 229 279 339
#     4  11  22  36  59  89 114 142 188 239 278 326
#     4  11  20  34  59  86 115 151 184 221 282 348
#     4   9  18  35  59  82 109 145 184 225 277 339
#     4  10  22  38  57  83 113 146 189 240 285 325
#
# _framework density 19.765664999999998
#
# number of rings (size 3 to 8) (size 9 to 14) (size 15 to 20)
#    0.000    2.000    2.500    1.500    0.000    4.000 
#    0.000    3.750    0.000    0.000    0.000    0.000 
#    0.000    0.000    0.000    0.000    0.000    0.000 
#
# Total GULP energy -396817.564624 kJ/mol
# GULP energy per Si atom -12400.548894 kJ/mol
# Density = 1.972068 g / cm^3
# Si number density = 19.765665 Si / 1000 Ang^3
#
#
#
# Elastic Constant Matrix: (Units=GPa)
#
#
# Indices 1 2 3 4 5 6 
#
# 1 11.4386 12.1594 7.1494 0.0000 0.0000 0.0000
# 2 12.1594 110.8406 46.9894 0.0000 0.0000 0.0000
# 3 7.1494 46.9894 135.0207 0.0000 0.0000 0.0000
# 4 0.0000 0.0000 0.0000 15.0984 0.0000 0.0000
# 5 0.0000 0.0000 0.0000 0.0000 25.0207 0.0000
# 6 0.0000 0.0000 0.0000 0.0000 0.0000 22.8068
#
#
#
# Elastic Compliance Matrix: (Units=1/GPa)
#
#
# Indices 1 2 3 4 5 6 
#
# 1 0.099304 -0.010164 -0.001721 0.000000 0.000000 0.000000
# 2 -0.010164 0.011624 -0.003507 0.000000 0.000000 0.000000
# 3 -0.001721 -0.003507 0.008718 0.000000 0.000000 0.000000
# 4 0.000000 0.000000 0.000000 0.066232 0.000000 0.000000
# 5 0.000000 0.000000 0.000000 0.000000 0.039967 0.000000
# 6 0.000000 0.000000 0.000000 0.000000 0.000000 0.043847
#
#
# Mechanical properties :
#
#
# Convention : Reuss Voigt Hill
#
# Bulk Modulus (GPa) = 11.25353 43.32179 27.28766
# Shear Modulus (GPa) = 15.14712 25.31861 20.23287
#
# Velocity S-wave (km/s) = 2.77128 3.58290 3.20290
# Velocity P-wave (km/s) = 3.99322 6.25152 5.24535
#
# Compressibility (1/GPa) = 0.08886100
#
# Stress axis : x y z
#
# Youngs Moduli (GPa) = 10.07013 86.03068 114.70645
#
# Poissons Ratio (x) = 0.87443 0.19739
# Poissons Ratio (y) = 0.10235 0.40228
# Poissons Ratio (z) = 0.01733 0.30171
#
# Static dielectric constant tensor:
#      x y z
#    x 3.228040 0.000000 0.000000 
#    y 0.000000 3.721790 0.000000 
#    z 0.000000 0.000000 3.813010 
# 
# 
# High freq. dielectric constant tensor:
#      x y z
#    x 1.734390 0.000000 0.000000 
#    y 0.000000 1.784200 0.000000 
#    z 0.000000 0.000000 1.770970 
# 
# From -- ./inp_files/16577.got.cif
#   From: 2010.03.12/outbox.cif.g09.slc.cpg/sg36_9_cif.got.tgz:16577.got - 2010.04.14 02:13:53.
