data_PCOD8175402
_publ_section_title
;
Structure prediction by ZEFSAII (Michael W. Deem and Ramdas Pophale) SiO2 
 PCOD8175402
Probable space group: C M C 21
;
_chemical_formula_sum "Si O2"
_cell_formula_units_Z 64
_cell_length_a 16.443456
_cell_length_b 20.501362
_cell_length_c 8.739787
_cell_angle_alpha 90.000000
_cell_angle_beta 90.000000
_cell_angle_gamma 90.000000
_cell_volume 2946.297947
_symmetry_space_group_name_H-M "C M C 21"
_symmetry_group_IT_number 36
_symmetry_cell_setting 'orthorhombic'
loop_
_space_group_symop_operation_xyz
x,y,z
-x,-y,1/2+z
x,-y,1/2+z
-x,y,z
1/2+x,1/2+y,z
1/2-x,1/2-y,1/2+z
1/2+x,1/2-y,1/2+z
1/2-x,1/2+y,z
loop_
_atom_site_type_symbol
_atom_site_label
_atom_site_fract_x
_atom_site_fract_y
_atom_site_fract_z
Si Si1 0.655400 0.545126 0.968870
Si Si2 0.092797 0.074621 0.647719
Si Si3 0.404445 0.661909 0.169244
Si Si4 0.594015 0.822766 0.410245
Si Si5 0.906788 0.570769 0.547771
Si Si6 0.346304 0.204995 0.582952
Si Si7 0.839102 0.197049 0.500973
Si Si8 0.840623 0.545785 0.873076
O O1 0.596402 0.555020 0.825006
O O2 0.746945 0.549443 0.912839
O O3 0.642729 0.474323 0.040856
O O4 0.636507 0.598818 0.096187
O O5 0.130109 0.146631 0.628197
O O6 0.000000 0.073942 0.593506
O O7 0.500000 0.650316 0.191746
O O8 0.389239 0.724703 0.059414
O O9 0.362126 0.671134 0.333018
O O10 0.500000 0.816154 0.361958
O O11 0.651716 0.810360 0.263887
O O12 0.617177 0.767122 0.533424
O O13 0.613075 0.896205 0.466975
O O14 0.893416 0.646096 0.496184
O O15 0.850023 0.554383 0.691972
O O16 0.880544 0.523522 0.411432
O O17 0.000000 0.559760 0.593427
O O18 0.256322 0.207966 0.516467
#
# Coordination Sequence:
#
# PCOD8175402 Si02
#       8
#     8   8   8   8   8   8   8   8
#     4  12  25  42  63  91 125 162 206 257 310 369
#     4  12  24  41  62  90 124 165 208 255 308 370
#     4  11  23  43  65  90 123 166 208 254 311 373
#     4  10  20  39  62  88 121 164 204 246 304 373
#     4  11  22  40  62  88 119 158 199 245 301 367
#     4  10  20  36  61  89 118 155 200 247 298 359
#     4  11  22  38  63  93 123 159 206 257 308 366
#     4  11  22  39  62  89 119 155 199 249 302 359
#
# _framework density 21.722176999999999
#
# number of rings (size 3 to 8) (size 9 to 14) (size 15 to 20)
#    0.000    1.000    0.000   10.500    0.000    2.000 
#    0.000    1.250    0.000    0.000    0.000    0.000 
#    0.000    0.000    0.000    0.000    0.000    0.000 
#
# Total GULP energy -396856.295000 kJ/mol
# GULP energy per Si atom -12401.759219 kJ/mol
# Density = 2.167274 g / cm^3
# Si number density = 21.722177 Si / 1000 Ang^3
#
#
#
# Elastic Constant Matrix: (Units=GPa)
#
#
# Indices 1 2 3 4 5 6 
#
# 1 138.2607 3.3045 10.1784 0.0000 0.0000 0.0000
# 2 3.3045 101.4610 -1.8296 0.0000 0.0000 0.0000
# 3 10.1784 -1.8296 37.1319 0.0000 0.0000 0.0000
# 4 0.0000 0.0000 0.0000 28.7938 0.0000 0.0000
# 5 0.0000 0.0000 0.0000 0.0000 38.1894 0.0000
# 6 0.0000 0.0000 0.0000 0.0000 0.0000 36.1980
#
#
#
# Elastic Compliance Matrix: (Units=1/GPa)
#
#
# Indices 1 2 3 4 5 6 
#
# 1 0.007389 -0.000277 -0.002039 0.000000 0.000000 0.000000
# 2 -0.000277 0.009875 0.000563 0.000000 0.000000 0.000000
# 3 -0.002039 0.000563 0.027518 0.000000 0.000000 0.000000
# 4 0.000000 0.000000 0.000000 0.034730 0.000000 0.000000
# 5 0.000000 0.000000 0.000000 0.000000 0.026185 0.000000
# 6 0.000000 0.000000 0.000000 0.000000 0.000000 0.027626
#
#
# Mechanical properties :
#
#
# Convention : Reuss Voigt Hill
#
# Bulk Modulus (GPa) = 24.22813 33.35112 28.78962
# Shear Modulus (GPa) = 33.20286 38.31626 35.75956
#
# Velocity S-wave (km/s) = 3.91388 4.20447 4.06177
# Velocity P-wave (km/s) = 5.62160 6.24154 5.93967
#
# Compressibility (1/GPa) = 0.04127433
#
# Stress axis : x y z
#
# Youngs Moduli (GPa) = 135.32779 101.26391 36.34019
#
# Poissons Ratio (x) = 0.02809 0.07411
# Poissons Ratio (y) = 0.03755 -0.02045
# Poissons Ratio (z) = 0.27596 -0.05697
#
# Static dielectric constant tensor:
#      x y z
#    x 3.885250 0.000000 0.000000 
#    y 0.000000 4.675990 0.000000 
#    z 0.000000 0.000000 3.609650 
# 
# 
# High freq. dielectric constant tensor:
#      x y z
#    x 1.865220 0.000000 0.000000 
#    y 0.000000 1.880960 0.000000 
#    z 0.000000 0.000000 1.821020 
# 
# From -- ./inp_files/4349.got.cif
#   From: 2010.03.12/outbox.cif.g09.slc.cpg/sg36_3_cif.got.tgz:4349.got - 2010.04.14 02:13:53.
