data_PCOD8175804
_publ_section_title
;
Structure prediction by ZEFSAII (Michael W. Deem and Ramdas Pophale) SiO2 
 PCOD8175804
Probable space group: C M C 21
;
_chemical_formula_sum "Si O2"
_cell_formula_units_Z 40
_cell_length_a 23.675303
_cell_length_b 5.727672
_cell_length_c 13.149930
_cell_angle_alpha 90.000000
_cell_angle_beta 90.000000
_cell_angle_gamma 90.000000
_cell_volume 1783.187974
_symmetry_space_group_name_H-M "C M C 21"
_symmetry_group_IT_number 36
_symmetry_cell_setting 'orthorhombic'
loop_
_space_group_symop_operation_xyz
x,y,z
-x,-y,1/2+z
x,-y,1/2+z
-x,y,z
1/2+x,1/2+y,z
1/2-x,1/2-y,1/2+z
1/2+x,1/2-y,1/2+z
1/2-x,1/2+y,z
loop_
_atom_site_type_symbol
_atom_site_label
_atom_site_fract_x
_atom_site_fract_y
_atom_site_fract_z
Si Si1 0.356592 0.787596 0.331760
Si Si2 0.062483 0.094106 0.789326
Si Si3 0.626529 0.913381 0.652479
Si Si4 0.281721 0.726446 0.515736
Si Si5 0.064120 0.576951 0.469474
O O1 0.384758 0.574187 0.272328
O O2 0.302313 0.720884 0.398668
O O3 0.337320 0.964656 0.242721
O O4 0.407059 0.876920 0.402832
O O5 0.072310 0.292702 0.704762
O O6 0.066027 0.184481 0.905773
O O7 0.000000 0.986363 0.770131
O O8 0.666654 0.728616 0.595006
O O9 0.600280 0.102265 0.573263
O O10 0.249254 0.480457 0.533550
O O11 0.000000 0.502010 0.493052
#
# Coordination Sequence:
#
# PCOD8175804 Si02
#       5
#     8   8   8   8   8
#     4  10  23  40  65  92 135 170 224 281 340 405
#     4  10  21  38  65  98 136 178 219 272 345 413
#     4  10  23  40  65  96 131 170 228 284 339 406
#     4  11  28  47  71  97 132 178 230 284 345 395
#     4   9  19  37  59  91 133 174 213 267 335 411
#
# _framework density 22.431736999999998
#
# number of rings (size 3 to 8) (size 9 to 14) (size 15 to 20)
#    0.000    2.000    0.000    1.200   11.200    5.600 
#    0.000    4.000    0.000    0.000    0.000    0.000 
#    0.000    0.000    0.000    0.000    0.000    0.000 
#
# Total GULP energy -247790.886643 kJ/mol
# GULP energy per Si atom -12389.544332 kJ/mol
# Density = 2.238068 g / cm^3
# Si number density = 22.431737 Si / 1000 Ang^3
#
#
#
# Elastic Constant Matrix: (Units=GPa)
#
#
# Indices 1 2 3 4 5 6 
#
# 1 74.4776 20.9287 29.8876 0.0000 0.0000 0.0000
# 2 20.9287 78.8106 14.4662 0.0000 0.0000 0.0000
# 3 29.8876 14.4662 118.3512 0.0000 0.0000 0.0000
# 4 0.0000 0.0000 0.0000 17.0446 0.0000 0.0000
# 5 0.0000 0.0000 0.0000 0.0000 29.0083 0.0000
# 6 0.0000 0.0000 0.0000 0.0000 0.0000 37.9143
#
#
#
# Elastic Compliance Matrix: (Units=1/GPa)
#
#
# Indices 1 2 3 4 5 6 
#
# 1 0.015859 -0.003556 -0.003570 0.000000 0.000000 0.000000
# 2 -0.003556 0.013777 -0.000786 0.000000 0.000000 0.000000
# 3 -0.003570 -0.000786 0.009447 0.000000 0.000000 0.000000
# 4 0.000000 0.000000 0.000000 0.058670 0.000000 0.000000
# 5 0.000000 0.000000 0.000000 0.000000 0.034473 0.000000
# 6 0.000000 0.000000 0.000000 0.000000 0.000000 0.026375
#
#
# Mechanical properties :
#
#
# Convention : Reuss Voigt Hill
#
# Bulk Modulus (GPa) = 42.99478 44.68937 43.84207
# Shear Modulus (GPa) = 27.44562 30.55056 28.99809
#
# Velocity S-wave (km/s) = 3.50168 3.69444 3.59935
# Velocity P-wave (km/s) = 5.96301 6.17772 6.07131
#
# Compressibility (1/GPa) = 0.02325864
#
# Stress axis : x y z
#
# Youngs Moduli (GPa) = 63.05628 72.58331 105.85260
#
# Poissons Ratio (x) = 0.25811 0.37792
# Poissons Ratio (y) = 0.22423 0.08320
# Poissons Ratio (z) = 0.22512 0.05705
#
# Static dielectric constant tensor:
#      x y z
#    x 3.888500 0.000000 0.000000 
#    y 0.000000 3.779240 0.000000 
#    z 0.000000 0.000000 4.216950 
# 
# 
# High freq. dielectric constant tensor:
#      x y z
#    x 1.875060 0.000000 0.000000 
#    y 0.000000 1.863710 0.000000 
#    z 0.000000 0.000000 1.898500 
# 
# From -- ./inp_files/9544.got.cif
#   From: 2010.03.12/outbox.cif.g09.slc.cpg/sg36_5_cif.got.tgz:9544.got - 2010.04.14 02:13:53.
